MODEL 1
REMARK VINA RESULT:     -11.8      0.000      0.000
REMARK SMILES O=C(OCCOC(=O)[C@H]1CC=CC[C@H]1C(=O)N[C@@H]1CCN(c2cccc(Cl)c2)C1)c1ccc(-c2c3nc(c(-c4ccc(S(=O)(=O)[O-])cc4)c4ccc([nH]4)c(-c4ccc(S(=O)(=O)[O-])cc4)c4nc(c(-c5ccc(S(=O)(=O)[O-])cc5)c5ccc2[nH]5)C=C4)C=C3)cc1
REMARK SMILES IDX 4 1 3 2 2 3 1 4 30 5 31 6 89 7 32 8 88 9 33 10 34 11 35 12
REMARK SMILES IDX 82 13 36 14 87 15 81 16 83 17 37 18 86 19 80 20 79 21 38 23
REMARK SMILES IDX 68 24 49 25 67 26 50 27 53 28 66 29 84 30 51 31 52 32 65 34
REMARK SMILES IDX 85 35 54 36 39 37 40 38 48 39 41 40 47 41 42 42 43 43 44 44
REMARK SMILES IDX 45 45 46 46 69 47 70 48 78 49 71 50 77 51 72 52 73 53 74 54
REMARK SMILES IDX 75 55 76 56 55 57 56 58 64 59 57 60 63 61 58 62 59 63 60 64
REMARK SMILES IDX 61 65 62 66 5 67 6 68 7 69 8 70 9 71 10 72 14 73 11 74 13 75
REMARK SMILES IDX 12 76 15 77 16 78 17 79 18 81 19 82 29 83 20 84 21 85 22 86
REMARK SMILES IDX 23 87 28 88 24 89 26 90 25 91 27 92
REMARK H PARENT 83 22 53 33 17 80
REMARK Flexibility Score: inf
ROOT
ATOM      1  C   UNL A   1      37.742  21.409  24.877  1.00  0.00     0.275 C 
ENDROOT
BRANCH   1   2
ATOM      2  O   UNL A   1      38.011  21.934  26.178  1.00  0.00    -0.458 OA
BRANCH   2   3
ATOM      3  C   UNL A   1      39.274  22.228  26.534  1.00  0.00     0.338 C 
ATOM      4  O   UNL A   1      40.131  21.359  26.511  1.00  0.00    -0.246 OA
BRANCH   3   5
ATOM      5  C   UNL A   1      39.569  23.605  27.041  1.00  0.00     0.060 A 
ATOM      6  C   UNL A   1      38.834  24.764  26.844  1.00  0.00     0.016 A 
ATOM      7  C   UNL A   1      40.747  23.724  27.752  1.00  0.00     0.016 A 
ATOM      8  C   UNL A   1      39.359  26.009  27.290  1.00  0.00     0.010 A 
ATOM      9  C   UNL A   1      41.182  24.907  28.344  1.00  0.00     0.010 A 
ATOM     10  C   UNL A   1      40.576  26.091  27.994  1.00  0.00    -0.014 A 
BRANCH  10  11
ATOM     11  C   UNL A   1      41.246  27.339  28.424  1.00  0.00     0.031 A 
ATOM     12  C   UNL A   1      42.735  27.557  28.368  1.00  0.00     0.074 A 
ATOM     13  C   UNL A   1      40.579  28.224  29.178  1.00  0.00     0.049 A 
ATOM     14  N   UNL A   1      43.407  28.610  27.989  1.00  0.00    -0.248 NA
ATOM     15  C   UNL A   1      43.595  26.480  28.865  1.00  0.00     0.031 C 
ATOM     16  C   UNL A   1      39.223  28.056  29.691  1.00  0.00     0.029 A 
ATOM     17  N   UNL A   1      40.988  29.440  29.642  1.00  0.00    -0.354 N 
ATOM     18  C   UNL A   1      44.750  28.237  28.028  1.00  0.00     0.074 A 
ATOM     19  C   UNL A   1      44.817  26.899  28.554  1.00  0.00     0.031 C 
ATOM     20  C   UNL A   1      38.881  29.172  30.352  1.00  0.00     0.029 A 
ATOM     21  C   UNL A   1      39.978  30.132  30.251  1.00  0.00     0.049 A 
ATOM     22  H   UNL A   1      41.907  29.781  29.552  1.00  0.00     0.167 HD
ATOM     23  C   UNL A   1      45.841  28.987  27.751  1.00  0.00     0.031 A 
ATOM     24  C   UNL A   1      39.926  31.432  30.588  1.00  0.00     0.031 A 
ATOM     25  C   UNL A   1      45.781  30.422  27.774  1.00  0.00     0.049 A 
ATOM     26  C   UNL A   1      41.079  32.324  30.221  1.00  0.00     0.074 A 
ATOM     27  C   UNL A   1      46.761  31.350  27.479  1.00  0.00     0.029 A 
ATOM     28  N   UNL A   1      44.703  31.121  28.298  1.00  0.00    -0.354 N 
ATOM     29  N   UNL A   1      42.229  32.011  29.668  1.00  0.00    -0.248 NA
ATOM     30  C   UNL A   1      40.898  33.756  30.477  1.00  0.00     0.031 C 
ATOM     31  C   UNL A   1      46.318  32.594  27.950  1.00  0.00     0.029 A 
ATOM     32  C   UNL A   1      45.028  32.451  28.442  1.00  0.00     0.049 A 
ATOM     33  H   UNL A   1      43.834  30.723  28.534  1.00  0.00     0.167 HD
ATOM     34  C   UNL A   1      42.909  33.215  29.501  1.00  0.00     0.074 A 
ATOM     35  C   UNL A   1      42.023  34.256  29.985  1.00  0.00     0.031 C 
ATOM     36  C   UNL A   1      44.147  33.449  28.991  1.00  0.00     0.031 A 
BRANCH  23  37
ATOM     37  C   UNL A   1      47.162  28.314  27.473  1.00  0.00    -0.014 A 
ATOM     38  C   UNL A   1      48.090  28.159  28.523  1.00  0.00     0.010 A 
ATOM     39  C   UNL A   1      47.418  27.672  26.249  1.00  0.00     0.010 A 
ATOM     40  C   UNL A   1      49.227  27.355  28.365  1.00  0.00     0.020 A 
ATOM     41  C   UNL A   1      48.553  26.863  26.087  1.00  0.00     0.020 A 
ATOM     42  C   UNL A   1      49.445  26.701  27.149  1.00  0.00     0.054 A 
BRANCH  42  43
ATOM     43  S   UNL A   1      50.869  25.579  27.006  1.00  0.00     0.124 S 
ATOM     44  O   UNL A   1      50.330  24.332  27.541  1.00  0.00    -0.237 OA
ATOM     45  O   UNL A   1      51.138  25.585  25.570  1.00  0.00    -0.237 OA
ATOM     46  O   UNL A   1      51.896  26.214  27.830  1.00  0.00    -0.744 OA
ENDBRANCH  42  43
ENDBRANCH  23  37
BRANCH  24  47
ATOM     47  C   UNL A   1      38.655  31.955  31.135  1.00  0.00    -0.014 A 
ATOM     48  C   UNL A   1      38.475  32.046  32.526  1.00  0.00     0.010 A 
ATOM     49  C   UNL A   1      37.676  32.477  30.271  1.00  0.00     0.010 A 
ATOM     50  C   UNL A   1      37.327  32.642  33.047  1.00  0.00     0.020 A 
ATOM     51  C   UNL A   1      36.539  33.095  30.791  1.00  0.00     0.020 A 
ATOM     52  C   UNL A   1      36.368  33.166  32.176  1.00  0.00     0.054 A 
BRANCH  52  53
ATOM     53  S   UNL A   1      34.921  34.006  32.873  1.00  0.00     0.124 S 
ATOM     54  O   UNL A   1      34.593  33.149  34.007  1.00  0.00    -0.237 OA
ATOM     55  O   UNL A   1      35.451  35.326  33.207  1.00  0.00    -0.237 OA
ATOM     56  O   UNL A   1      33.958  33.992  31.774  1.00  0.00    -0.744 OA
ENDBRANCH  52  53
ENDBRANCH  24  47
BRANCH  36  57
ATOM     57  C   UNL A   1      44.622  34.874  28.971  1.00  0.00    -0.014 A 
ATOM     58  C   UNL A   1      45.268  35.441  30.083  1.00  0.00     0.010 A 
ATOM     59  C   UNL A   1      44.457  35.639  27.803  1.00  0.00     0.010 A 
ATOM     60  C   UNL A   1      45.692  36.771  30.046  1.00  0.00     0.020 A 
ATOM     61  C   UNL A   1      44.909  36.958  27.751  1.00  0.00     0.020 A 
ATOM     62  C   UNL A   1      45.504  37.521  28.882  1.00  0.00     0.054 A 
BRANCH  62  63
ATOM     63  S   UNL A   1      46.073  39.241  28.853  1.00  0.00     0.124 S 
ATOM     64  O   UNL A   1      45.149  39.848  27.900  1.00  0.00    -0.237 OA
ATOM     65  O   UNL A   1      45.910  39.658  30.242  1.00  0.00    -0.237 OA
ATOM     66  O   UNL A   1      47.460  39.139  28.396  1.00  0.00    -0.744 OA
ENDBRANCH  62  63
ENDBRANCH  36  57
ENDBRANCH  10  11
ENDBRANCH   3   5
ENDBRANCH   2   3
ENDBRANCH   1   2
BRANCH   1  67
ATOM     67  C   UNL A   1      36.976  22.327  23.894  1.00  0.00     0.274 C 
BRANCH  67  68
ATOM     68  O   UNL A   1      35.528  22.179  23.821  1.00  0.00    -0.462 OA
BRANCH  68  69
ATOM     69  C   UNL A   1      34.741  23.317  23.818  1.00  0.00     0.310 C 
ATOM     70  O   UNL A   1      34.801  24.163  24.696  1.00  0.00    -0.252 OA
BRANCH  69  71
ATOM     71  C   UNL A   1      33.715  23.305  22.623  1.00  0.00     0.115 C 
ATOM     72  C   UNL A   1      32.972  21.959  22.868  1.00  0.00     0.043 C 
ATOM     73  C   UNL A   1      32.590  24.442  22.395  1.00  0.00     0.096 C 
ATOM     74  C   UNL A   1      31.967  22.090  23.980  1.00  0.00    -0.030 C 
ATOM     75  C   UNL A   1      31.552  24.530  23.511  1.00  0.00     0.041 C 
ATOM     76  C   UNL A   1      31.364  23.252  24.281  1.00  0.00    -0.030 C 
BRANCH  73  77
ATOM     77  C   UNL A   1      32.525  25.766  21.472  1.00  0.00     0.224 C 
ATOM     78  O   UNL A   1      33.042  25.681  20.344  1.00  0.00    -0.275 OA
ATOM     79  N   UNL A   1      31.747  26.904  21.632  1.00  0.00    -0.351 N 
ATOM     80  H   UNL A   1      30.883  26.888  21.158  1.00  0.00     0.163 HD
BRANCH  79  81
ATOM     81  C   UNL A   1      32.017  28.163  22.419  1.00  0.00     0.103 C 
ATOM     82  C   UNL A   1      33.503  28.433  22.513  1.00  0.00     0.048 C 
ATOM     83  C   UNL A   1      31.554  28.292  23.933  1.00  0.00     0.141 C 
ATOM     84  C   UNL A   1      33.889  27.844  23.849  1.00  0.00     0.119 C 
ATOM     85  N   UNL A   1      32.801  28.266  24.716  1.00  0.00    -0.369 N 
BRANCH  85  86
ATOM     86  C   UNL A   1      33.017  29.155  25.760  1.00  0.00     0.038 A 
ATOM     87  C   UNL A   1      32.172  30.259  25.993  1.00  0.00     0.026 A 
ATOM     88  C   UNL A   1      34.141  29.033  26.588  1.00  0.00     0.046 A 
ATOM     89  C   UNL A   1      32.478  31.251  26.933  1.00  0.00     0.004 A 
ATOM     90  C   UNL A   1      34.457  30.033  27.521  1.00  0.00     0.043 A 
ATOM     91  C   UNL A   1      33.641  31.149  27.682  1.00  0.00     0.020 A 
ATOM     92  Cl  UNL A   1      35.899  29.919  28.455  1.00  0.00    -0.084 Cl
ENDBRANCH  85  86
ENDBRANCH  79  81
ENDBRANCH  73  77
ENDBRANCH  69  71
ENDBRANCH  68  69
ENDBRANCH  67  68
ENDBRANCH   1  67
TORSDOF 17
ENDMDL
MODEL 2
REMARK VINA RESULT:     -11.8      4.615     10.501
REMARK SMILES O=C(OCCOC(=O)[C@H]1CC=CC[C@H]1C(=O)N[C@@H]1CCN(c2cccc(Cl)c2)C1)c1ccc(-c2c3nc(c(-c4ccc(S(=O)(=O)[O-])cc4)c4ccc([nH]4)c(-c4ccc(S(=O)(=O)[O-])cc4)c4nc(c(-c5ccc(S(=O)(=O)[O-])cc5)c5ccc2[nH]5)C=C4)C=C3)cc1
REMARK SMILES IDX 4 1 3 2 2 3 1 4 30 5 31 6 89 7 32 8 88 9 33 10 34 11 35 12
REMARK SMILES IDX 82 13 36 14 87 15 81 16 83 17 37 18 86 19 80 20 79 21 38 23
REMARK SMILES IDX 68 24 49 25 67 26 50 27 53 28 66 29 84 30 51 31 52 32 65 34
REMARK SMILES IDX 85 35 54 36 39 37 40 38 48 39 41 40 47 41 42 42 43 43 44 44
REMARK SMILES IDX 45 45 46 46 69 47 70 48 78 49 71 50 77 51 72 52 73 53 74 54
REMARK SMILES IDX 75 55 76 56 55 57 56 58 64 59 57 60 63 61 58 62 59 63 60 64
REMARK SMILES IDX 61 65 62 66 5 67 6 68 7 69 8 70 9 71 10 72 14 73 11 74 13 75
REMARK SMILES IDX 12 76 15 77 16 78 17 79 18 81 19 82 29 83 20 84 21 85 22 86
REMARK SMILES IDX 23 87 28 88 24 89 26 90 25 91 27 92
REMARK H PARENT 83 22 53 33 17 80
REMARK Flexibility Score: inf
ROOT
ATOM      1  C   UNL A   1      32.804  30.624  26.145  1.00  0.00     0.275 C 
ENDROOT
BRANCH   1   2
ATOM      2  O   UNL A   1      33.325  30.810  27.462  1.00  0.00    -0.458 OA
BRANCH   2   3
ATOM      3  C   UNL A   1      34.452  31.521  27.643  1.00  0.00     0.338 C 
ATOM      4  O   UNL A   1      34.469  32.712  27.377  1.00  0.00    -0.246 OA
BRANCH   3   5
ATOM      5  C   UNL A   1      35.687  30.798  28.081  1.00  0.00     0.060 A 
ATOM      6  C   UNL A   1      35.857  29.436  28.272  1.00  0.00     0.016 A 
ATOM      7  C   UNL A   1      36.765  31.611  28.370  1.00  0.00     0.016 A 
ATOM      8  C   UNL A   1      37.074  28.956  28.833  1.00  0.00     0.010 A 
ATOM      9  C   UNL A   1      38.017  31.136  28.752  1.00  0.00     0.010 A 
ATOM     10  C   UNL A   1      38.144  29.820  29.134  1.00  0.00    -0.014 A 
BRANCH  10  11
ATOM     11  C   UNL A   1      39.411  29.434  29.794  1.00  0.00     0.031 A 
ATOM     12  C   UNL A   1      39.936  30.078  31.051  1.00  0.00     0.074 A 
ATOM     13  C   UNL A   1      40.309  28.697  29.126  1.00  0.00     0.049 A 
ATOM     14  N   UNL A   1      40.485  29.527  32.099  1.00  0.00    -0.248 NA
ATOM     15  C   UNL A   1      39.907  31.540  31.123  1.00  0.00     0.031 C 
ATOM     16  C   UNL A   1      40.193  28.264  27.737  1.00  0.00     0.029 A 
ATOM     17  N   UNL A   1      41.507  28.202  29.555  1.00  0.00    -0.354 N 
ATOM     18  C   UNL A   1      40.682  30.564  33.012  1.00  0.00     0.074 A 
ATOM     19  C   UNL A   1      40.285  31.790  32.372  1.00  0.00     0.031 C 
ATOM     20  C   UNL A   1      41.257  27.502  27.443  1.00  0.00     0.029 A 
ATOM     21  C   UNL A   1      42.080  27.362  28.641  1.00  0.00     0.049 A 
ATOM     22  H   UNL A   1      41.913  28.426  30.423  1.00  0.00     0.167 HD
ATOM     23  C   UNL A   1      41.247  30.509  34.239  1.00  0.00     0.031 A 
ATOM     24  C   UNL A   1      43.099  26.501  28.806  1.00  0.00     0.031 A 
ATOM     25  C   UNL A   1      42.111  29.423  34.611  1.00  0.00     0.049 A 
ATOM     26  C   UNL A   1      43.701  26.342  30.174  1.00  0.00     0.074 A 
ATOM     27  C   UNL A   1      42.738  29.169  35.816  1.00  0.00     0.029 A 
ATOM     28  N   UNL A   1      42.606  28.509  33.694  1.00  0.00    -0.354 N 
ATOM     29  N   UNL A   1      43.437  27.001  31.281  1.00  0.00    -0.248 NA
ATOM     30  C   UNL A   1      44.700  25.280  30.323  1.00  0.00     0.031 C 
ATOM     31  C   UNL A   1      43.707  28.183  35.586  1.00  0.00     0.029 A 
ATOM     32  C   UNL A   1      43.610  27.761  34.268  1.00  0.00     0.049 A 
ATOM     33  H   UNL A   1      42.288  28.410  32.767  1.00  0.00     0.167 HD
ATOM     34  C   UNL A   1      44.238  26.424  32.264  1.00  0.00     0.074 A 
ATOM     35  C   UNL A   1      44.966  25.347  31.620  1.00  0.00     0.031 C 
ATOM     36  C   UNL A   1      44.361  26.743  33.579  1.00  0.00     0.031 A 
BRANCH  23  37
ATOM     37  C   UNL A   1      41.021  31.634  35.219  1.00  0.00    -0.014 A 
ATOM     38  C   UNL A   1      41.948  32.694  35.276  1.00  0.00     0.010 A 
ATOM     39  C   UNL A   1      39.820  31.750  35.941  1.00  0.00     0.010 A 
ATOM     40  C   UNL A   1      41.668  33.855  36.009  1.00  0.00     0.020 A 
ATOM     41  C   UNL A   1      39.533  32.913  36.672  1.00  0.00     0.020 A 
ATOM     42  C   UNL A   1      40.455  33.963  36.693  1.00  0.00     0.054 A 
BRANCH  42  43
ATOM     43  S   UNL A   1      40.071  35.522  37.546  1.00  0.00     0.124 S 
ATOM     44  O   UNL A   1      39.002  35.117  38.456  1.00  0.00    -0.237 OA
ATOM     45  O   UNL A   1      41.342  35.862  38.179  1.00  0.00    -0.237 OA
ATOM     46  O   UNL A   1      39.658  36.417  36.466  1.00  0.00    -0.744 OA
ENDBRANCH  42  43
ENDBRANCH  23  37
BRANCH  24  47
ATOM     47  C   UNL A   1      43.449  25.617  27.672  1.00  0.00    -0.014 A 
ATOM     48  C   UNL A   1      44.422  26.022  26.743  1.00  0.00     0.010 A 
ATOM     49  C   UNL A   1      42.904  24.324  27.590  1.00  0.00     0.010 A 
ATOM     50  C   UNL A   1      44.838  25.150  25.738  1.00  0.00     0.020 A 
ATOM     51  C   UNL A   1      43.337  23.441  26.601  1.00  0.00     0.020 A 
ATOM     52  C   UNL A   1      44.295  23.863  25.676  1.00  0.00     0.054 A 
BRANCH  52  53
ATOM     53  S   UNL A   1      44.906  22.718  24.411  1.00  0.00     0.124 S 
ATOM     54  O   UNL A   1      46.055  23.443  23.878  1.00  0.00    -0.237 OA
ATOM     55  O   UNL A   1      45.216  21.521  25.189  1.00  0.00    -0.237 OA
ATOM     56  O   UNL A   1      43.771  22.581  23.501  1.00  0.00    -0.744 OA
ENDBRANCH  52  53
ENDBRANCH  24  47
BRANCH  36  57
ATOM     57  C   UNL A   1      45.344  25.946  34.389  1.00  0.00    -0.014 A 
ATOM     58  C   UNL A   1      46.680  26.363  34.528  1.00  0.00     0.010 A 
ATOM     59  C   UNL A   1      44.908  24.787  35.055  1.00  0.00     0.010 A 
ATOM     60  C   UNL A   1      47.578  25.601  35.276  1.00  0.00     0.020 A 
ATOM     61  C   UNL A   1      45.796  24.041  35.831  1.00  0.00     0.020 A 
ATOM     62  C   UNL A   1      47.131  24.442  35.918  1.00  0.00     0.054 A 
BRANCH  62  63
ATOM     63  S   UNL A   1      48.313  23.475  36.893  1.00  0.00     0.124 S 
ATOM     64  O   UNL A   1      49.417  23.312  35.953  1.00  0.00    -0.237 OA
ATOM     65  O   UNL A   1      48.578  24.345  38.034  1.00  0.00    -0.237 OA
ATOM     66  O   UNL A   1      47.578  22.249  37.209  1.00  0.00    -0.744 OA
ENDBRANCH  62  63
ENDBRANCH  36  57
ENDBRANCH  10  11
ENDBRANCH   3   5
ENDBRANCH   2   3
ENDBRANCH   1   2
BRANCH   1  67
ATOM     67  C   UNL A   1      32.866  29.191  25.561  1.00  0.00     0.274 C 
BRANCH  67  68
ATOM     68  O   UNL A   1      31.984  28.188  26.142  1.00  0.00    -0.462 OA
BRANCH  68  69
ATOM     69  C   UNL A   1      32.215  26.853  25.859  1.00  0.00     0.310 C 
ATOM     70  O   UNL A   1      33.310  26.430  25.524  1.00  0.00    -0.252 OA
BRANCH  69  71
ATOM     71  C   UNL A   1      30.884  26.012  25.918  1.00  0.00     0.115 C 
ATOM     72  C   UNL A   1      29.988  26.781  24.903  1.00  0.00     0.043 C 
ATOM     73  C   UNL A   1      30.798  24.442  25.545  1.00  0.00     0.096 C 
ATOM     74  C   UNL A   1      30.364  26.444  23.486  1.00  0.00    -0.030 C 
ATOM     75  C   UNL A   1      31.137  24.124  24.091  1.00  0.00     0.041 C 
ATOM     76  C   UNL A   1      30.908  25.266  23.139  1.00  0.00    -0.030 C 
BRANCH  73  77
ATOM     77  C   UNL A   1      30.824  23.090  26.428  1.00  0.00     0.224 C 
ATOM     78  O   UNL A   1      30.015  23.030  27.371  1.00  0.00    -0.275 OA
ATOM     79  N   UNL A   1      31.421  21.871  26.141  1.00  0.00    -0.351 N 
ATOM     80  H   UNL A   1      30.836  21.217  25.693  1.00  0.00     0.163 HD
BRANCH  79  81
ATOM     81  C   UNL A   1      32.826  21.390  26.409  1.00  0.00     0.103 C 
ATOM     82  C   UNL A   1      33.466  22.186  27.525  1.00  0.00     0.048 C 
ATOM     83  C   UNL A   1      33.936  21.447  25.274  1.00  0.00     0.141 C 
ATOM     84  C   UNL A   1      34.261  23.245  26.798  1.00  0.00     0.119 C 
ATOM     85  N   UNL A   1      34.869  22.502  25.707  1.00  0.00    -0.369 N 
BRANCH  85  86
ATOM     86  C   UNL A   1      36.244  22.322  25.637  1.00  0.00     0.038 A 
ATOM     87  C   UNL A   1      36.822  21.089  25.276  1.00  0.00     0.026 A 
ATOM     88  C   UNL A   1      37.123  23.351  26.002  1.00  0.00     0.046 A 
ATOM     89  C   UNL A   1      38.200  20.853  25.368  1.00  0.00     0.004 A 
ATOM     90  C   UNL A   1      38.502  23.113  26.108  1.00  0.00     0.043 A 
ATOM     91  C   UNL A   1      39.040  21.863  25.812  1.00  0.00     0.020 A 
ATOM     92  Cl  UNL A   1      39.555  24.358  26.660  1.00  0.00    -0.084 Cl
ENDBRANCH  85  86
ENDBRANCH  79  81
ENDBRANCH  73  77
ENDBRANCH  69  71
ENDBRANCH  68  69
ENDBRANCH  67  68
ENDBRANCH   1  67
TORSDOF 17
ENDMDL
MODEL 3
REMARK VINA RESULT:     -11.4      4.193      8.791
REMARK SMILES O=C(OCCOC(=O)[C@H]1CC=CC[C@H]1C(=O)N[C@@H]1CCN(c2cccc(Cl)c2)C1)c1ccc(-c2c3nc(c(-c4ccc(S(=O)(=O)[O-])cc4)c4ccc([nH]4)c(-c4ccc(S(=O)(=O)[O-])cc4)c4nc(c(-c5ccc(S(=O)(=O)[O-])cc5)c5ccc2[nH]5)C=C4)C=C3)cc1
REMARK SMILES IDX 4 1 3 2 2 3 1 4 30 5 31 6 89 7 32 8 88 9 33 10 34 11 35 12
REMARK SMILES IDX 82 13 36 14 87 15 81 16 83 17 37 18 86 19 80 20 79 21 38 23
REMARK SMILES IDX 68 24 49 25 67 26 50 27 53 28 66 29 84 30 51 31 52 32 65 34
REMARK SMILES IDX 85 35 54 36 39 37 40 38 48 39 41 40 47 41 42 42 43 43 44 44
REMARK SMILES IDX 45 45 46 46 69 47 70 48 78 49 71 50 77 51 72 52 73 53 74 54
REMARK SMILES IDX 75 55 76 56 55 57 56 58 64 59 57 60 63 61 58 62 59 63 60 64
REMARK SMILES IDX 61 65 62 66 5 67 6 68 7 69 8 70 9 71 10 72 14 73 11 74 13 75
REMARK SMILES IDX 12 76 15 77 16 78 17 79 18 81 19 82 29 83 20 84 21 85 22 86
REMARK SMILES IDX 23 87 28 88 24 89 26 90 25 91 27 92
REMARK H PARENT 83 22 53 33 17 80
REMARK Flexibility Score: inf
ROOT
ATOM      1  C   UNL A   1      37.631  21.755  25.035  1.00  0.00     0.275 C 
ENDROOT
BRANCH   1   2
ATOM      2  O   UNL A   1      37.963  22.830  25.915  1.00  0.00    -0.458 OA
BRANCH   2   3
ATOM      3  C   UNL A   1      39.220  22.956  26.376  1.00  0.00     0.338 C 
ATOM      4  O   UNL A   1      39.964  21.988  26.387  1.00  0.00    -0.246 OA
BRANCH   3   5
ATOM      5  C   UNL A   1      39.637  24.273  26.953  1.00  0.00     0.060 A 
ATOM      6  C   UNL A   1      40.554  25.178  26.442  1.00  0.00     0.016 A 
ATOM      7  C   UNL A   1      39.060  24.584  28.168  1.00  0.00     0.016 A 
ATOM      8  C   UNL A   1      40.921  26.313  27.217  1.00  0.00     0.010 A 
ATOM      9  C   UNL A   1      39.281  25.777  28.851  1.00  0.00     0.010 A 
ATOM     10  C   UNL A   1      40.324  26.586  28.464  1.00  0.00    -0.014 A 
BRANCH  10  11
ATOM     11  C   UNL A   1      40.695  27.687  29.380  1.00  0.00     0.031 A 
ATOM     12  C   UNL A   1      39.902  28.959  29.530  1.00  0.00     0.074 A 
ATOM     13  C   UNL A   1      41.930  27.733  29.895  1.00  0.00     0.049 A 
ATOM     14  N   UNL A   1      39.587  29.619  30.612  1.00  0.00    -0.248 NA
ATOM     15  C   UNL A   1      39.457  29.626  28.304  1.00  0.00     0.031 C 
ATOM     16  C   UNL A   1      43.016  26.806  29.592  1.00  0.00     0.029 A 
ATOM     17  N   UNL A   1      42.461  28.626  30.781  1.00  0.00    -0.354 N 
ATOM     18  C   UNL A   1      38.755  30.657  30.194  1.00  0.00     0.074 A 
ATOM     19  C   UNL A   1      38.682  30.606  28.757  1.00  0.00     0.031 C 
ATOM     20  C   UNL A   1      44.078  27.141  30.339  1.00  0.00     0.029 A 
ATOM     21  C   UNL A   1      43.712  28.264  31.199  1.00  0.00     0.049 A 
ATOM     22  H   UNL A   1      41.997  29.440  31.084  1.00  0.00     0.167 HD
ATOM     23  C   UNL A   1      38.188  31.634  30.937  1.00  0.00     0.031 A 
ATOM     24  C   UNL A   1      44.426  28.734  32.236  1.00  0.00     0.031 A 
ATOM     25  C   UNL A   1      38.710  31.980  32.230  1.00  0.00     0.049 A 
ATOM     26  C   UNL A   1      43.803  29.757  33.144  1.00  0.00     0.074 A 
ATOM     27  C   UNL A   1      38.249  32.904  33.148  1.00  0.00     0.029 A 
ATOM     28  N   UNL A   1      39.935  31.524  32.693  1.00  0.00    -0.354 N 
ATOM     29  N   UNL A   1      42.641  30.364  33.038  1.00  0.00    -0.248 NA
ATOM     30  C   UNL A   1      44.568  30.114  34.341  1.00  0.00     0.031 C 
ATOM     31  C   UNL A   1      39.262  33.097  34.097  1.00  0.00     0.029 A 
ATOM     32  C   UNL A   1      40.304  32.222  33.821  1.00  0.00     0.049 A 
ATOM     33  H   UNL A   1      40.464  30.806  32.274  1.00  0.00     0.167 HD
ATOM     34  C   UNL A   1      42.534  31.173  34.167  1.00  0.00     0.074 A 
ATOM     35  C   UNL A   1      43.736  30.949  34.948  1.00  0.00     0.031 C 
ATOM     36  C   UNL A   1      41.538  32.021  34.535  1.00  0.00     0.031 A 
BRANCH  23  37
ATOM     37  C   UNL A   1      37.026  32.419  30.382  1.00  0.00    -0.014 A 
ATOM     38  C   UNL A   1      35.729  32.175  30.879  1.00  0.00     0.010 A 
ATOM     39  C   UNL A   1      37.221  33.515  29.524  1.00  0.00     0.010 A 
ATOM     40  C   UNL A   1      34.663  33.023  30.553  1.00  0.00     0.020 A 
ATOM     41  C   UNL A   1      36.157  34.370  29.198  1.00  0.00     0.020 A 
ATOM     42  C   UNL A   1      34.886  34.124  29.723  1.00  0.00     0.054 A 
BRANCH  42  43
ATOM     43  S   UNL A   1      33.510  35.269  29.403  1.00  0.00     0.124 S 
ATOM     44  O   UNL A   1      32.485  34.373  28.872  1.00  0.00    -0.237 OA
ATOM     45  O   UNL A   1      33.240  35.821  30.727  1.00  0.00    -0.237 OA
ATOM     46  O   UNL A   1      34.063  36.218  28.438  1.00  0.00    -0.744 OA
ENDBRANCH  42  43
ENDBRANCH  23  37
BRANCH  24  47
ATOM     47  C   UNL A   1      45.718  28.079  32.540  1.00  0.00    -0.014 A 
ATOM     48  C   UNL A   1      46.897  28.542  31.932  1.00  0.00     0.010 A 
ATOM     49  C   UNL A   1      45.789  27.080  33.526  1.00  0.00     0.010 A 
ATOM     50  C   UNL A   1      48.132  28.005  32.298  1.00  0.00     0.020 A 
ATOM     51  C   UNL A   1      47.025  26.560  33.910  1.00  0.00     0.020 A 
ATOM     52  C   UNL A   1      48.187  27.020  33.287  1.00  0.00     0.054 A 
BRANCH  52  53
ATOM     53  S   UNL A   1      49.807  26.392  33.804  1.00  0.00     0.124 S 
ATOM     54  O   UNL A   1      50.695  27.009  32.824  1.00  0.00    -0.237 OA
ATOM     55  O   UNL A   1      49.922  26.896  35.171  1.00  0.00    -0.237 OA
ATOM     56  O   UNL A   1      49.659  24.943  33.696  1.00  0.00    -0.744 OA
ENDBRANCH  52  53
ENDBRANCH  24  47
BRANCH  36  57
ATOM     57  C   UNL A   1      41.729  32.791  35.811  1.00  0.00    -0.014 A 
ATOM     58  C   UNL A   1      42.346  34.054  35.814  1.00  0.00     0.010 A 
ATOM     59  C   UNL A   1      41.241  32.257  37.017  1.00  0.00     0.010 A 
ATOM     60  C   UNL A   1      42.522  34.746  37.012  1.00  0.00     0.020 A 
ATOM     61  C   UNL A   1      41.386  32.961  38.212  1.00  0.00     0.020 A 
ATOM     62  C   UNL A   1      42.046  34.192  38.205  1.00  0.00     0.054 A 
BRANCH  62  63
ATOM     63  S   UNL A   1      42.276  35.114  39.747  1.00  0.00     0.124 S 
ATOM     64  O   UNL A   1      41.711  34.198  40.733  1.00  0.00    -0.237 OA
ATOM     65  O   UNL A   1      43.723  35.289  39.806  1.00  0.00    -0.237 OA
ATOM     66  O   UNL A   1      41.512  36.344  39.531  1.00  0.00    -0.744 OA
ENDBRANCH  62  63
ENDBRANCH  36  57
ENDBRANCH  10  11
ENDBRANCH   3   5
ENDBRANCH   2   3
ENDBRANCH   1   2
BRANCH   1  67
ATOM     67  C   UNL A   1      36.724  22.090  23.826  1.00  0.00     0.274 C 
BRANCH  67  68
ATOM     68  O   UNL A   1      35.284  22.092  24.043  1.00  0.00    -0.462 OA
BRANCH  68  69
ATOM     69  C   UNL A   1      34.590  23.282  23.906  1.00  0.00     0.310 C 
ATOM     70  O   UNL A   1      34.664  24.186  24.723  1.00  0.00    -0.252 OA
BRANCH  69  71
ATOM     71  C   UNL A   1      33.641  23.254  22.650  1.00  0.00     0.115 C 
ATOM     72  C   UNL A   1      32.900  21.899  22.853  1.00  0.00     0.043 C 
ATOM     73  C   UNL A   1      32.517  24.377  22.349  1.00  0.00     0.096 C 
ATOM     74  C   UNL A   1      31.827  22.021  23.901  1.00  0.00    -0.030 C 
ATOM     75  C   UNL A   1      31.411  24.454  23.399  1.00  0.00     0.041 C 
ATOM     76  C   UNL A   1      31.192  23.176  24.160  1.00  0.00    -0.030 C 
BRANCH  73  77
ATOM     77  C   UNL A   1      32.492  25.697  21.420  1.00  0.00     0.224 C 
ATOM     78  O   UNL A   1      33.038  25.600  20.306  1.00  0.00    -0.275 OA
ATOM     79  N   UNL A   1      31.725  26.845  21.555  1.00  0.00    -0.351 N 
ATOM     80  H   UNL A   1      30.874  26.837  21.058  1.00  0.00     0.163 HD
BRANCH  79  81
ATOM     81  C   UNL A   1      31.989  28.104  22.344  1.00  0.00     0.103 C 
ATOM     82  C   UNL A   1      33.476  28.355  22.477  1.00  0.00     0.048 C 
ATOM     83  C   UNL A   1      31.487  28.246  23.844  1.00  0.00     0.141 C 
ATOM     84  C   UNL A   1      33.818  27.767  23.826  1.00  0.00     0.119 C 
ATOM     85  N   UNL A   1      32.712  28.207  24.661  1.00  0.00    -0.369 N 
BRANCH  85  86
ATOM     86  C   UNL A   1      32.910  29.098  25.707  1.00  0.00     0.038 A 
ATOM     87  C   UNL A   1      32.125  30.257  25.865  1.00  0.00     0.026 A 
ATOM     88  C   UNL A   1      33.963  28.919  26.614  1.00  0.00     0.046 A 
ATOM     89  C   UNL A   1      32.427  31.243  26.812  1.00  0.00     0.004 A 
ATOM     90  C   UNL A   1      34.277  29.912  27.555  1.00  0.00     0.043 A 
ATOM     91  C   UNL A   1      33.525  31.081  27.643  1.00  0.00     0.020 A 
ATOM     92  Cl  UNL A   1      35.638  29.722  28.591  1.00  0.00    -0.084 Cl
ENDBRANCH  85  86
ENDBRANCH  79  81
ENDBRANCH  73  77
ENDBRANCH  69  71
ENDBRANCH  68  69
ENDBRANCH  67  68
ENDBRANCH   1  67
TORSDOF 17
ENDMDL
