MODEL 1
REMARK VINA RESULT:     -12.8      0.000      0.000
REMARK SMILES O=C(NC1(C(=O)OCCOC(=O)c2ccc(-c3c4nc(c(-c5ccc(S(=O)(=O)[O-])cc5)c5ccc([nH]5)c(-c5ccc(S(=O)(=O)[O-])cc5)c5nc(c(-c6ccc(S(=O)(=O)[O-])cc6)c6ccc3[nH]6)C=C5)C=C4)cc2)Cc2ccccc2C1)OCC1c2ccccc2-c2ccccc21
REMARK SMILES IDX 8 1 7 2 5 3 6 4 4 5 73 6 80 7 74 8 79 9 75 10 78 11 76 12
REMARK SMILES IDX 77 13 3 14 1 15 2 16 81 18 82 19 83 20 84 21 95 22 85 23
REMARK SMILES IDX 89 24 90 25 94 26 86 27 88 28 91 29 93 30 87 31 92 32 9 33
REMARK SMILES IDX 10 34 11 35 12 36 13 37 14 38 72 39 15 40 71 41 16 42 17 43
REMARK SMILES IDX 18 44 65 45 19 46 70 47 64 48 66 49 20 50 69 51 63 52 62 53
REMARK SMILES IDX 21 55 51 56 32 57 50 58 33 59 36 60 49 61 67 62 34 63 35 64
REMARK SMILES IDX 48 66 68 67 37 68 22 69 23 70 31 71 24 72 30 73 25 74 26 75
REMARK SMILES IDX 27 76 28 77 29 78 52 79 53 80 61 81 54 82 60 83 55 84 56 85
REMARK SMILES IDX 57 86 58 87 59 88 38 89 39 90 47 91 40 92 46 93 41 94 42 95
REMARK SMILES IDX 43 96 44 97 45 98
REMARK H PARENT 3 17 66 54 36 65
REMARK Flexibility Score: inf
ROOT
ATOM      1  C   UNL A   1      31.724  29.712  26.358  1.00  0.00     0.274 C 
ENDROOT
BRANCH   1   2
ATOM      2  O   UNL A   1      31.244  28.514  25.694  1.00  0.00    -0.460 OA
BRANCH   2   3
ATOM      3  C   UNL A   1      31.107  27.388  26.430  1.00  0.00     0.332 C 
ATOM      4  O   UNL A   1      30.983  27.416  27.655  1.00  0.00    -0.249 OA
BRANCH   3   5
ATOM      5  C   UNL A   1      31.010  26.035  25.634  1.00  0.00     0.149 C 
ATOM      6  C   UNL A   1      32.505  25.634  25.362  1.00  0.00     0.076 C 
ATOM      7  C   UNL A   1      30.363  25.830  24.236  1.00  0.00     0.076 C 
ATOM      8  C   UNL A   1      32.671  25.865  23.873  1.00  0.00    -0.042 A 
ATOM      9  C   UNL A   1      31.441  25.871  23.242  1.00  0.00    -0.042 A 
ATOM     10  C   UNL A   1      33.800  26.031  23.096  1.00  0.00     0.004 A 
ATOM     11  C   UNL A   1      31.265  25.925  21.868  1.00  0.00     0.004 A 
ATOM     12  C   UNL A   1      33.652  26.150  21.699  1.00  0.00     0.000 A 
ATOM     13  C   UNL A   1      32.393  26.070  21.084  1.00  0.00     0.000 A 
BRANCH   5  14
ATOM     14  N   UNL A   1      30.198  25.188  26.532  1.00  0.00    -0.305 N 
ATOM     15  O   UNL A   1      30.324  23.171  27.624  1.00  0.00    -0.225 OA
ATOM     16  C   UNL A   1      30.549  23.846  26.646  1.00  0.00     0.408 C 
ATOM     17  H   UNL A   1      29.435  25.560  27.032  1.00  0.00     0.168 HD
BRANCH  16  18
ATOM     18  O   UNL A   1      31.263  23.449  25.550  1.00  0.00    -0.449 OA
BRANCH  18  19
ATOM     19  C   UNL A   1      31.785  22.107  25.498  1.00  0.00     0.248 C 
BRANCH  19  20
ATOM     20  C   UNL A   1      33.110  22.056  24.649  1.00  0.00     0.088 C 
ATOM     21  C   UNL A   1      34.542  22.341  25.204  1.00  0.00    -0.029 A 
ATOM     22  C   UNL A   1      33.273  20.599  24.227  1.00  0.00    -0.029 A 
ATOM     23  C   UNL A   1      35.180  23.530  25.552  1.00  0.00     0.005 A 
ATOM     24  C   UNL A   1      35.334  21.181  25.109  1.00  0.00    -0.014 A 
ATOM     25  C   UNL A   1      34.507  20.090  24.665  1.00  0.00    -0.014 A 
ATOM     26  C   UNL A   1      32.335  19.795  23.604  1.00  0.00     0.005 A 
ATOM     27  C   UNL A   1      36.565  23.584  25.749  1.00  0.00     0.000 A 
ATOM     28  C   UNL A   1      36.720  21.227  25.272  1.00  0.00     0.009 A 
ATOM     29  C   UNL A   1      34.736  18.729  24.664  1.00  0.00     0.009 A 
ATOM     30  C   UNL A   1      32.570  18.426  23.582  1.00  0.00     0.000 A 
ATOM     31  C   UNL A   1      37.338  22.442  25.577  1.00  0.00     0.001 A 
ATOM     32  C   UNL A   1      33.740  17.894  24.150  1.00  0.00     0.001 A 
ENDBRANCH  19  20
ENDBRANCH  18  19
ENDBRANCH  16  18
ENDBRANCH   5  14
ENDBRANCH   3   5
ENDBRANCH   2   3
ENDBRANCH   1   2
BRANCH   1  33
ATOM     33  C   UNL A   1      33.239  29.865  26.237  1.00  0.00     0.275 C 
BRANCH  33  34
ATOM     34  O   UNL A   1      33.801  29.577  27.521  1.00  0.00    -0.458 OA
BRANCH  34  35
ATOM     35  C   UNL A   1      34.460  30.589  28.121  1.00  0.00     0.338 C 
ATOM     36  O   UNL A   1      34.014  31.670  28.467  1.00  0.00    -0.246 OA
BRANCH  35  37
ATOM     37  C   UNL A   1      35.852  30.186  28.346  1.00  0.00     0.060 A 
ATOM     38  C   UNL A   1      36.775  30.198  27.298  1.00  0.00     0.016 A 
ATOM     39  C   UNL A   1      36.206  29.706  29.607  1.00  0.00     0.016 A 
ATOM     40  C   UNL A   1      38.040  29.660  27.494  1.00  0.00     0.010 A 
ATOM     41  C   UNL A   1      37.507  29.277  29.832  1.00  0.00     0.010 A 
ATOM     42  C   UNL A   1      38.432  29.255  28.778  1.00  0.00    -0.014 A 
BRANCH  42  43
ATOM     43  C   UNL A   1      39.855  28.981  29.070  1.00  0.00     0.031 A 
ATOM     44  C   UNL A   1      40.761  30.061  29.579  1.00  0.00     0.074 A 
ATOM     45  C   UNL A   1      40.317  27.754  28.761  1.00  0.00     0.049 A 
ATOM     46  N   UNL A   1      42.065  30.066  29.653  1.00  0.00    -0.248 NA
ATOM     47  C   UNL A   1      40.125  31.306  30.040  1.00  0.00     0.031 C 
ATOM     48  C   UNL A   1      39.495  26.649  28.248  1.00  0.00     0.029 A 
ATOM     49  N   UNL A   1      41.576  27.221  28.820  1.00  0.00    -0.354 N 
ATOM     50  C   UNL A   1      42.415  31.328  30.118  1.00  0.00     0.074 A 
ATOM     51  C   UNL A   1      41.182  32.061  30.318  1.00  0.00     0.031 C 
ATOM     52  C   UNL A   1      40.257  25.562  28.091  1.00  0.00     0.029 A 
ATOM     53  C   UNL A   1      41.635  25.922  28.375  1.00  0.00     0.049 A 
ATOM     54  H   UNL A   1      42.360  27.719  29.148  1.00  0.00     0.167 HD
ATOM     55  C   UNL A   1      43.660  31.820  30.333  1.00  0.00     0.031 A 
ATOM     56  C   UNL A   1      42.692  25.122  28.155  1.00  0.00     0.031 A 
ATOM     57  C   UNL A   1      44.858  31.044  30.120  1.00  0.00     0.049 A 
ATOM     58  C   UNL A   1      44.054  25.690  28.401  1.00  0.00     0.074 A 
ATOM     59  C   UNL A   1      46.176  31.419  30.303  1.00  0.00     0.029 A 
ATOM     60  N   UNL A   1      44.876  29.724  29.681  1.00  0.00    -0.354 N 
ATOM     61  N   UNL A   1      44.372  26.899  28.801  1.00  0.00    -0.248 NA
ATOM     62  C   UNL A   1      45.192  24.803  28.153  1.00  0.00     0.031 C 
ATOM     63  C   UNL A   1      46.991  30.342  29.937  1.00  0.00     0.029 A 
ATOM     64  C   UNL A   1      46.181  29.274  29.577  1.00  0.00     0.049 A 
ATOM     65  H   UNL A   1      44.077  29.188  29.474  1.00  0.00     0.167 HD
ATOM     66  C   UNL A   1      45.756  26.923  28.853  1.00  0.00     0.074 A 
ATOM     67  C   UNL A   1      46.208  25.596  28.471  1.00  0.00     0.031 C 
ATOM     68  C   UNL A   1      46.583  27.949  29.176  1.00  0.00     0.031 A 
BRANCH  55  69
ATOM     69  C   UNL A   1      43.791  33.258  30.771  1.00  0.00    -0.014 A 
ATOM     70  C   UNL A   1      43.782  33.623  32.130  1.00  0.00     0.010 A 
ATOM     71  C   UNL A   1      43.970  34.264  29.802  1.00  0.00     0.010 A 
ATOM     72  C   UNL A   1      43.913  34.964  32.508  1.00  0.00     0.020 A 
ATOM     73  C   UNL A   1      44.126  35.605  30.176  1.00  0.00     0.020 A 
ATOM     74  C   UNL A   1      44.079  35.948  31.529  1.00  0.00     0.054 A 
BRANCH  74  75
ATOM     75  S   UNL A   1      44.265  37.679  32.046  1.00  0.00     0.124 S 
ATOM     76  O   UNL A   1      43.816  38.399  30.857  1.00  0.00    -0.237 OA
ATOM     77  O   UNL A   1      43.378  37.767  33.203  1.00  0.00    -0.237 OA
ATOM     78  O   UNL A   1      45.689  37.803  32.347  1.00  0.00    -0.744 OA
ENDBRANCH  74  75
ENDBRANCH  55  69
BRANCH  56  79
ATOM     79  C   UNL A   1      42.473  23.745  27.636  1.00  0.00    -0.014 A 
ATOM     80  C   UNL A   1      42.410  23.505  26.254  1.00  0.00     0.010 A 
ATOM     81  C   UNL A   1      42.434  22.652  28.524  1.00  0.00     0.010 A 
ATOM     82  C   UNL A   1      42.317  22.196  25.769  1.00  0.00     0.020 A 
ATOM     83  C   UNL A   1      42.374  21.342  28.042  1.00  0.00     0.020 A 
ATOM     84  C   UNL A   1      42.307  21.123  26.666  1.00  0.00     0.054 A 
BRANCH  84  85
ATOM     85  S   UNL A   1      42.276  19.431  26.012  1.00  0.00     0.124 S 
ATOM     86  O   UNL A   1      40.865  19.263  25.678  1.00  0.00    -0.237 OA
ATOM     87  O   UNL A   1      43.190  19.510  24.876  1.00  0.00    -0.237 OA
ATOM     88  O   UNL A   1      42.756  18.623  27.131  1.00  0.00    -0.744 OA
ENDBRANCH  84  85
ENDBRANCH  56  79
BRANCH  68  89
ATOM     89  C   UNL A   1      48.052  27.645  29.144  1.00  0.00    -0.014 A 
ATOM     90  C   UNL A   1      48.801  27.826  27.968  1.00  0.00     0.010 A 
ATOM     91  C   UNL A   1      48.687  27.183  30.309  1.00  0.00     0.010 A 
ATOM     92  C   UNL A   1      50.160  27.511  27.949  1.00  0.00     0.020 A 
ATOM     93  C   UNL A   1      50.051  26.892  30.301  1.00  0.00     0.020 A 
ATOM     94  C   UNL A   1      50.774  27.042  29.116  1.00  0.00     0.054 A 
BRANCH  94  95
ATOM     95  S   UNL A   1      52.547  26.664  29.075  1.00  0.00     0.124 S 
ATOM     96  O   UNL A   1      53.140  27.998  29.028  1.00  0.00    -0.237 OA
ATOM     97  O   UNL A   1      52.747  25.929  30.321  1.00  0.00    -0.237 OA
ATOM     98  O   UNL A   1      52.701  25.869  27.858  1.00  0.00    -0.744 OA
ENDBRANCH  94  95
ENDBRANCH  68  89
ENDBRANCH  42  43
ENDBRANCH  35  37
ENDBRANCH  34  35
ENDBRANCH  33  34
ENDBRANCH   1  33
TORSDOF 18
ENDMDL
MODEL 2
REMARK VINA RESULT:     -12.1      1.162      2.761
REMARK SMILES O=C(NC1(C(=O)OCCOC(=O)c2ccc(-c3c4nc(c(-c5ccc(S(=O)(=O)[O-])cc5)c5ccc([nH]5)c(-c5ccc(S(=O)(=O)[O-])cc5)c5nc(c(-c6ccc(S(=O)(=O)[O-])cc6)c6ccc3[nH]6)C=C5)C=C4)cc2)Cc2ccccc2C1)OCC1c2ccccc2-c2ccccc21
REMARK SMILES IDX 8 1 7 2 5 3 6 4 4 5 73 6 80 7 74 8 79 9 75 10 78 11 76 12
REMARK SMILES IDX 77 13 3 14 1 15 2 16 81 18 82 19 83 20 84 21 95 22 85 23
REMARK SMILES IDX 89 24 90 25 94 26 86 27 88 28 91 29 93 30 87 31 92 32 9 33
REMARK SMILES IDX 10 34 11 35 12 36 13 37 14 38 72 39 15 40 71 41 16 42 17 43
REMARK SMILES IDX 18 44 65 45 19 46 70 47 64 48 66 49 20 50 69 51 63 52 62 53
REMARK SMILES IDX 21 55 51 56 32 57 50 58 33 59 36 60 49 61 67 62 34 63 35 64
REMARK SMILES IDX 48 66 68 67 37 68 22 69 23 70 31 71 24 72 30 73 25 74 26 75
REMARK SMILES IDX 27 76 28 77 29 78 52 79 53 80 61 81 54 82 60 83 55 84 56 85
REMARK SMILES IDX 57 86 58 87 59 88 38 89 39 90 47 91 40 92 46 93 41 94 42 95
REMARK SMILES IDX 43 96 44 97 45 98
REMARK H PARENT 3 17 66 54 36 65
REMARK Flexibility Score: inf
ROOT
ATOM      1  C   UNL A   1      32.488  29.329  25.080  1.00  0.00     0.274 C 
ENDROOT
BRANCH   1   2
ATOM      2  O   UNL A   1      31.511  28.305  25.403  1.00  0.00    -0.460 OA
BRANCH   2   3
ATOM      3  C   UNL A   1      31.147  27.441  24.429  1.00  0.00     0.332 C 
ATOM      4  O   UNL A   1      30.201  27.664  23.674  1.00  0.00    -0.249 OA
BRANCH   3   5
ATOM      5  C   UNL A   1      32.059  26.173  24.238  1.00  0.00     0.149 C 
ATOM      6  C   UNL A   1      31.045  24.993  24.012  1.00  0.00     0.076 C 
ATOM      7  C   UNL A   1      33.030  25.566  25.288  1.00  0.00     0.076 C 
ATOM      8  C   UNL A   1      31.140  24.192  25.296  1.00  0.00    -0.042 A 
ATOM      9  C   UNL A   1      32.327  24.463  25.951  1.00  0.00    -0.042 A 
ATOM     10  C   UNL A   1      30.284  23.267  25.859  1.00  0.00     0.004 A 
ATOM     11  C   UNL A   1      32.769  23.792  27.082  1.00  0.00     0.004 A 
ATOM     12  C   UNL A   1      30.676  22.609  27.042  1.00  0.00     0.000 A 
ATOM     13  C   UNL A   1      31.925  22.849  27.636  1.00  0.00     0.000 A 
BRANCH   5  14
ATOM     14  N   UNL A   1      32.942  26.575  23.124  1.00  0.00    -0.305 N 
ATOM     15  O   UNL A   1      33.464  25.928  20.983  1.00  0.00    -0.225 OA
ATOM     16  C   UNL A   1      33.186  25.638  22.124  1.00  0.00     0.408 C 
ATOM     17  H   UNL A   1      33.345  27.473  23.091  1.00  0.00     0.168 HD
BRANCH  16  18
ATOM     18  O   UNL A   1      32.965  24.375  22.595  1.00  0.00    -0.449 OA
BRANCH  18  19
ATOM     19  C   UNL A   1      34.076  23.464  22.715  1.00  0.00     0.248 C 
BRANCH  19  20
ATOM     20  C   UNL A   1      33.911  22.546  23.984  1.00  0.00     0.088 C 
ATOM     21  C   UNL A   1      33.587  21.018  23.948  1.00  0.00    -0.029 A 
ATOM     22  C   UNL A   1      35.283  22.511  24.648  1.00  0.00    -0.029 A 
ATOM     23  C   UNL A   1      32.405  20.329  23.682  1.00  0.00     0.005 A 
ATOM     24  C   UNL A   1      34.657  20.287  24.495  1.00  0.00    -0.014 A 
ATOM     25  C   UNL A   1      35.745  21.190  24.768  1.00  0.00    -0.014 A 
ATOM     26  C   UNL A   1      36.073  23.592  25.002  1.00  0.00     0.005 A 
ATOM     27  C   UNL A   1      32.266  18.971  23.993  1.00  0.00     0.000 A 
ATOM     28  C   UNL A   1      34.522  18.941  24.841  1.00  0.00     0.009 A 
ATOM     29  C   UNL A   1      37.072  20.941  25.054  1.00  0.00     0.009 A 
ATOM     30  C   UNL A   1      37.405  23.345  25.311  1.00  0.00     0.000 A 
ATOM     31  C   UNL A   1      33.311  18.287  24.601  1.00  0.00     0.001 A 
ATOM     32  C   UNL A   1      37.910  22.034  25.292  1.00  0.00     0.001 A 
ENDBRANCH  19  20
ENDBRANCH  18  19
ENDBRANCH  16  18
ENDBRANCH   5  14
ENDBRANCH   3   5
ENDBRANCH   2   3
ENDBRANCH   1   2
BRANCH   1  33
ATOM     33  C   UNL A   1      33.885  28.963  25.576  1.00  0.00     0.275 C 
BRANCH  33  34
ATOM     34  O   UNL A   1      33.830  28.912  27.005  1.00  0.00    -0.458 OA
BRANCH  34  35
ATOM     35  C   UNL A   1      34.247  30.018  27.655  1.00  0.00     0.338 C 
ATOM     36  O   UNL A   1      33.607  31.026  27.902  1.00  0.00    -0.246 OA
BRANCH  35  37
ATOM     37  C   UNL A   1      35.639  29.829  28.078  1.00  0.00     0.060 A 
ATOM     38  C   UNL A   1      35.938  29.416  29.378  1.00  0.00     0.016 A 
ATOM     39  C   UNL A   1      36.653  30.159  27.179  1.00  0.00     0.016 A 
ATOM     40  C   UNL A   1      37.260  29.402  29.804  1.00  0.00     0.010 A 
ATOM     41  C   UNL A   1      37.979  30.031  27.571  1.00  0.00     0.010 A 
ATOM     42  C   UNL A   1      38.289  29.648  28.884  1.00  0.00    -0.014 A 
BRANCH  42  43
ATOM     43  C   UNL A   1      39.691  29.330  29.233  1.00  0.00     0.031 A 
ATOM     44  C   UNL A   1      40.604  30.378  29.792  1.00  0.00     0.074 A 
ATOM     45  C   UNL A   1      40.130  28.093  28.930  1.00  0.00     0.049 A 
ATOM     46  N   UNL A   1      41.904  30.346  29.920  1.00  0.00    -0.248 NA
ATOM     47  C   UNL A   1      39.986  31.637  30.239  1.00  0.00     0.031 C 
ATOM     48  C   UNL A   1      39.299  27.018  28.372  1.00  0.00     0.029 A 
ATOM     49  N   UNL A   1      41.370  27.524  29.036  1.00  0.00    -0.354 N 
ATOM     50  C   UNL A   1      42.269  31.592  30.413  1.00  0.00     0.074 A 
ATOM     51  C   UNL A   1      41.050  32.358  30.569  1.00  0.00     0.031 C 
ATOM     52  C   UNL A   1      40.037  25.911  28.234  1.00  0.00     0.029 A 
ATOM     53  C   UNL A   1      41.411  26.228  28.580  1.00  0.00     0.049 A 
ATOM     54  H   UNL A   1      42.153  27.996  29.402  1.00  0.00     0.167 HD
ATOM     55  C   UNL A   1      43.517  32.046  30.686  1.00  0.00     0.031 A 
ATOM     56  C   UNL A   1      42.453  25.400  28.396  1.00  0.00     0.031 A 
ATOM     57  C   UNL A   1      44.701  31.238  30.514  1.00  0.00     0.049 A 
ATOM     58  C   UNL A   1      43.818  25.926  28.705  1.00  0.00     0.074 A 
ATOM     59  C   UNL A   1      46.021  31.573  30.757  1.00  0.00     0.029 A 
ATOM     60  N   UNL A   1      44.700  29.922  30.062  1.00  0.00    -0.354 N 
ATOM     61  N   UNL A   1      44.154  27.121  29.131  1.00  0.00    -0.248 NA
ATOM     62  C   UNL A   1      44.941  25.009  28.496  1.00  0.00     0.031 C 
ATOM     63  C   UNL A   1      46.819  30.476  30.413  1.00  0.00     0.029 A 
ATOM     64  C   UNL A   1      45.995  29.436  30.008  1.00  0.00     0.049 A 
ATOM     65  H   UNL A   1      43.896  29.412  29.816  1.00  0.00     0.167 HD
ATOM     66  C   UNL A   1      45.535  27.105  29.241  1.00  0.00     0.074 A 
ATOM     67  C   UNL A   1      45.965  25.769  28.864  1.00  0.00     0.031 C 
ATOM     68  C   UNL A   1      46.376  28.103  29.610  1.00  0.00     0.031 A 
BRANCH  55  69
ATOM     69  C   UNL A   1      43.671  33.476  31.145  1.00  0.00    -0.014 A 
ATOM     70  C   UNL A   1      43.827  34.533  30.231  1.00  0.00     0.010 A 
ATOM     71  C   UNL A   1      43.614  33.772  32.520  1.00  0.00     0.010 A 
ATOM     72  C   UNL A   1      43.960  35.851  30.684  1.00  0.00     0.020 A 
ATOM     73  C   UNL A   1      43.722  35.091  32.977  1.00  0.00     0.020 A 
ATOM     74  C   UNL A   1      43.912  36.122  32.055  1.00  0.00     0.054 A 
BRANCH  74  75
ATOM     75  S   UNL A   1      44.069  37.842  32.616  1.00  0.00     0.124 S 
ATOM     76  O   UNL A   1      43.778  38.587  31.394  1.00  0.00    -0.237 OA
ATOM     77  O   UNL A   1      43.055  37.934  33.663  1.00  0.00    -0.237 OA
ATOM     78  O   UNL A   1      45.451  37.932  33.084  1.00  0.00    -0.744 OA
ENDBRANCH  74  75
ENDBRANCH  55  69
BRANCH  56  79
ATOM     79  C   UNL A   1      42.217  24.035  27.854  1.00  0.00    -0.014 A 
ATOM     80  C   UNL A   1      42.202  23.811  26.468  1.00  0.00     0.010 A 
ATOM     81  C   UNL A   1      42.114  22.934  28.727  1.00  0.00     0.010 A 
ATOM     82  C   UNL A   1      42.092  22.510  25.964  1.00  0.00     0.020 A 
ATOM     83  C   UNL A   1      42.038  21.631  28.228  1.00  0.00     0.020 A 
ATOM     84  C   UNL A   1      42.018  21.429  26.848  1.00  0.00     0.054 A 
BRANCH  84  85
ATOM     85  S   UNL A   1      41.966  19.745  26.174  1.00  0.00     0.124 S 
ATOM     86  O   UNL A   1      42.933  19.827  25.084  1.00  0.00    -0.237 OA
ATOM     87  O   UNL A   1      42.368  18.930  27.317  1.00  0.00    -0.237 OA
ATOM     88  O   UNL A   1      40.572  19.584  25.765  1.00  0.00    -0.744 OA
ENDBRANCH  84  85
ENDBRANCH  56  79
BRANCH  68  89
ATOM     89  C   UNL A   1      47.836  27.758  29.636  1.00  0.00    -0.014 A 
ATOM     90  C   UNL A   1      48.475  27.415  30.840  1.00  0.00     0.010 A 
ATOM     91  C   UNL A   1      48.569  27.768  28.438  1.00  0.00     0.010 A 
ATOM     92  C   UNL A   1      49.840  27.125  30.850  1.00  0.00     0.020 A 
ATOM     93  C   UNL A   1      49.928  27.453  28.440  1.00  0.00     0.020 A 
ATOM     94  C   UNL A   1      50.557  27.150  29.649  1.00  0.00     0.054 A 
BRANCH  94  95
ATOM     95  S   UNL A   1      52.323  26.744  29.681  1.00  0.00     0.124 S 
ATOM     96  O   UNL A   1      52.926  28.042  29.973  1.00  0.00    -0.237 OA
ATOM     97  O   UNL A   1      52.407  25.756  30.754  1.00  0.00    -0.237 OA
ATOM     98  O   UNL A   1      52.582  26.222  28.341  1.00  0.00    -0.744 OA
ENDBRANCH  94  95
ENDBRANCH  68  89
ENDBRANCH  42  43
ENDBRANCH  35  37
ENDBRANCH  34  35
ENDBRANCH  33  34
ENDBRANCH   1  33
TORSDOF 18
ENDMDL
MODEL 3
REMARK VINA RESULT:     -12.1      3.548      8.340
REMARK SMILES O=C(NC1(C(=O)OCCOC(=O)c2ccc(-c3c4nc(c(-c5ccc(S(=O)(=O)[O-])cc5)c5ccc([nH]5)c(-c5ccc(S(=O)(=O)[O-])cc5)c5nc(c(-c6ccc(S(=O)(=O)[O-])cc6)c6ccc3[nH]6)C=C5)C=C4)cc2)Cc2ccccc2C1)OCC1c2ccccc2-c2ccccc21
REMARK SMILES IDX 8 1 7 2 5 3 6 4 4 5 73 6 80 7 74 8 79 9 75 10 78 11 76 12
REMARK SMILES IDX 77 13 3 14 1 15 2 16 81 18 82 19 83 20 84 21 95 22 85 23
REMARK SMILES IDX 89 24 90 25 94 26 86 27 88 28 91 29 93 30 87 31 92 32 9 33
REMARK SMILES IDX 10 34 11 35 12 36 13 37 14 38 72 39 15 40 71 41 16 42 17 43
REMARK SMILES IDX 18 44 65 45 19 46 70 47 64 48 66 49 20 50 69 51 63 52 62 53
REMARK SMILES IDX 21 55 51 56 32 57 50 58 33 59 36 60 49 61 67 62 34 63 35 64
REMARK SMILES IDX 48 66 68 67 37 68 22 69 23 70 31 71 24 72 30 73 25 74 26 75
REMARK SMILES IDX 27 76 28 77 29 78 52 79 53 80 61 81 54 82 60 83 55 84 56 85
REMARK SMILES IDX 57 86 58 87 59 88 38 89 39 90 47 91 40 92 46 93 41 94 42 95
REMARK SMILES IDX 43 96 44 97 45 98
REMARK H PARENT 3 17 66 54 36 65
REMARK Flexibility Score: inf
ROOT
ATOM      1  C   UNL A   1      32.278  29.174  25.500  1.00  0.00     0.274 C 
ENDROOT
BRANCH   1   2
ATOM      2  O   UNL A   1      31.046  28.445  25.743  1.00  0.00    -0.460 OA
BRANCH   2   3
ATOM      3  C   UNL A   1      31.114  27.298  26.456  1.00  0.00     0.332 C 
ATOM      4  O   UNL A   1      31.182  27.293  27.686  1.00  0.00    -0.249 OA
BRANCH   3   5
ATOM      5  C   UNL A   1      30.999  25.957  25.642  1.00  0.00     0.149 C 
ATOM      6  C   UNL A   1      32.489  25.535  25.372  1.00  0.00     0.076 C 
ATOM      7  C   UNL A   1      30.355  25.779  24.240  1.00  0.00     0.076 C 
ATOM      8  C   UNL A   1      32.665  25.782  23.886  1.00  0.00    -0.042 A 
ATOM      9  C   UNL A   1      31.437  25.815  23.251  1.00  0.00    -0.042 A 
ATOM     10  C   UNL A   1      33.799  25.940  23.116  1.00  0.00     0.004 A 
ATOM     11  C   UNL A   1      31.268  25.890  21.876  1.00  0.00     0.004 A 
ATOM     12  C   UNL A   1      33.659  26.079  21.720  1.00  0.00     0.000 A 
ATOM     13  C   UNL A   1      32.402  26.026  21.099  1.00  0.00     0.000 A 
BRANCH   5  14
ATOM     14  N   UNL A   1      30.170  25.112  26.527  1.00  0.00    -0.305 N 
ATOM     15  O   UNL A   1      30.283  23.106  27.641  1.00  0.00    -0.225 OA
ATOM     16  C   UNL A   1      30.529  23.774  26.663  1.00  0.00     0.408 C 
ATOM     17  H   UNL A   1      29.391  25.482  27.002  1.00  0.00     0.168 HD
BRANCH  16  18
ATOM     18  O   UNL A   1      31.274  23.372  25.590  1.00  0.00    -0.449 OA
BRANCH  18  19
ATOM     19  C   UNL A   1      31.825  22.040  25.574  1.00  0.00     0.248 C 
BRANCH  19  20
ATOM     20  C   UNL A   1      33.115  21.981  24.674  1.00  0.00     0.088 C 
ATOM     21  C   UNL A   1      34.570  22.253  25.174  1.00  0.00    -0.029 A 
ATOM     22  C   UNL A   1      33.251  20.523  24.244  1.00  0.00    -0.029 A 
ATOM     23  C   UNL A   1      35.230  23.437  25.499  1.00  0.00     0.005 A 
ATOM     24  C   UNL A   1      35.349  21.088  25.047  1.00  0.00    -0.014 A 
ATOM     25  C   UNL A   1      34.497  20.004  24.634  1.00  0.00    -0.014 A 
ATOM     26  C   UNL A   1      32.283  19.727  23.656  1.00  0.00     0.005 A 
ATOM     27  C   UNL A   1      36.622  23.480  25.643  1.00  0.00     0.000 A 
ATOM     28  C   UNL A   1      36.740  21.122  25.156  1.00  0.00     0.009 A 
ATOM     29  C   UNL A   1      34.714  18.641  24.622  1.00  0.00     0.009 A 
ATOM     30  C   UNL A   1      32.506  18.357  23.624  1.00  0.00     0.000 A 
ATOM     31  C   UNL A   1      37.378  22.332  25.440  1.00  0.00     0.001 A 
ATOM     32  C   UNL A   1      33.693  17.814  24.145  1.00  0.00     0.001 A 
ENDBRANCH  19  20
ENDBRANCH  18  19
ENDBRANCH  16  18
ENDBRANCH   5  14
ENDBRANCH   3   5
ENDBRANCH   2   3
ENDBRANCH   1   2
BRANCH   1  33
ATOM     33  C   UNL A   1      32.448  30.345  26.466  1.00  0.00     0.275 C 
BRANCH  33  34
ATOM     34  O   UNL A   1      33.740  30.217  27.067  1.00  0.00    -0.458 OA
BRANCH  34  35
ATOM     35  C   UNL A   1      34.194  31.298  27.733  1.00  0.00     0.338 C 
ATOM     36  O   UNL A   1      33.631  32.366  27.897  1.00  0.00    -0.246 OA
BRANCH  35  37
ATOM     37  C   UNL A   1      35.516  30.994  28.294  1.00  0.00     0.060 A 
ATOM     38  C   UNL A   1      36.502  31.980  28.368  1.00  0.00     0.016 A 
ATOM     39  C   UNL A   1      35.789  29.677  28.664  1.00  0.00     0.016 A 
ATOM     40  C   UNL A   1      37.791  31.630  28.748  1.00  0.00     0.010 A 
ATOM     41  C   UNL A   1      37.047  29.355  29.155  1.00  0.00     0.010 A 
ATOM     42  C   UNL A   1      38.054  30.331  29.204  1.00  0.00    -0.014 A 
BRANCH  42  43
ATOM     43  C   UNL A   1      39.321  30.028  29.903  1.00  0.00     0.031 A 
ATOM     44  C   UNL A   1      40.229  28.939  29.419  1.00  0.00     0.074 A 
ATOM     45  C   UNL A   1      39.566  30.704  31.043  1.00  0.00     0.049 A 
ATOM     46  N   UNL A   1      41.236  28.380  30.036  1.00  0.00    -0.248 NA
ATOM     47  C   UNL A   1      39.956  28.383  28.084  1.00  0.00     0.031 C 
ATOM     48  C   UNL A   1      38.720  31.775  31.585  1.00  0.00     0.029 A 
ATOM     49  N   UNL A   1      40.580  30.597  31.955  1.00  0.00    -0.354 N 
ATOM     50  C   UNL A   1      41.689  27.374  29.191  1.00  0.00     0.074 A 
ATOM     51  C   UNL A   1      40.850  27.403  28.012  1.00  0.00     0.031 C 
ATOM     52  C   UNL A   1      39.275  32.259  32.701  1.00  0.00     0.029 A 
ATOM     53  C   UNL A   1      40.445  31.459  33.017  1.00  0.00     0.049 A 
ATOM     54  H   UNL A   1      41.330  29.966  31.860  1.00  0.00     0.167 HD
ATOM     55  C   UNL A   1      42.703  26.500  29.408  1.00  0.00     0.031 A 
ATOM     56  C   UNL A   1      41.147  31.556  34.158  1.00  0.00     0.031 A 
ATOM     57  C   UNL A   1      43.511  26.516  30.603  1.00  0.00     0.049 A 
ATOM     58  C   UNL A   1      42.260  30.580  34.371  1.00  0.00     0.074 A 
ATOM     59  C   UNL A   1      44.569  25.693  30.945  1.00  0.00     0.029 A 
ATOM     60  N   UNL A   1      43.352  27.416  31.652  1.00  0.00    -0.354 N 
ATOM     61  N   UNL A   1      42.652  29.605  33.582  1.00  0.00    -0.248 NA
ATOM     62  C   UNL A   1      43.013  30.699  35.621  1.00  0.00     0.031 C 
ATOM     63  C   UNL A   1      45.020  26.067  32.215  1.00  0.00     0.029 A 
ATOM     64  C   UNL A   1      44.282  27.161  32.645  1.00  0.00     0.049 A 
ATOM     65  H   UNL A   1      42.675  28.130  31.684  1.00  0.00     0.167 HD
ATOM     66  C   UNL A   1      43.701  28.988  34.243  1.00  0.00     0.074 A 
ATOM     67  C   UNL A   1      43.899  29.722  35.482  1.00  0.00     0.031 C 
ATOM     68  C   UNL A   1      44.431  27.908  33.869  1.00  0.00     0.031 A 
BRANCH  55  69
ATOM     69  C   UNL A   1      42.960  25.437  28.367  1.00  0.00    -0.014 A 
ATOM     70  C   UNL A   1      43.950  25.592  27.380  1.00  0.00     0.010 A 
ATOM     71  C   UNL A   1      42.224  24.237  28.405  1.00  0.00     0.010 A 
ATOM     72  C   UNL A   1      44.172  24.587  26.431  1.00  0.00     0.020 A 
ATOM     73  C   UNL A   1      42.460  23.218  27.474  1.00  0.00     0.020 A 
ATOM     74  C   UNL A   1      43.423  23.408  26.481  1.00  0.00     0.054 A 
BRANCH  74  75
ATOM     75  S   UNL A   1      43.743  22.112  25.250  1.00  0.00     0.124 S 
ATOM     76  O   UNL A   1      43.465  22.810  23.997  1.00  0.00    -0.237 OA
ATOM     77  O   UNL A   1      45.146  21.782  25.486  1.00  0.00    -0.237 OA
ATOM     78  O   UNL A   1      42.793  21.058  25.598  1.00  0.00    -0.744 OA
ENDBRANCH  74  75
ENDBRANCH  55  69
BRANCH  56  79
ATOM     79  C   UNL A   1      40.765  32.577  35.170  1.00  0.00    -0.014 A 
ATOM     80  C   UNL A   1      39.976  32.225  36.277  1.00  0.00     0.010 A 
ATOM     81  C   UNL A   1      41.281  33.886  35.085  1.00  0.00     0.010 A 
ATOM     82  C   UNL A   1      39.713  33.161  37.282  1.00  0.00     0.020 A 
ATOM     83  C   UNL A   1      41.048  34.813  36.103  1.00  0.00     0.020 A 
ATOM     84  C   UNL A   1      40.257  34.446  37.192  1.00  0.00     0.054 A 
BRANCH  84  85
ATOM     85  S   UNL A   1      39.977  35.616  38.551  1.00  0.00     0.124 S 
ATOM     86  O   UNL A   1      41.238  35.537  39.282  1.00  0.00    -0.237 OA
ATOM     87  O   UNL A   1      39.732  36.872  37.847  1.00  0.00    -0.237 OA
ATOM     88  O   UNL A   1      38.815  35.064  39.243  1.00  0.00    -0.744 OA
ENDBRANCH  84  85
ENDBRANCH  56  79
BRANCH  68  89
ATOM     89  C   UNL A   1      45.516  27.487  34.816  1.00  0.00    -0.014 A 
ATOM     90  C   UNL A   1      45.276  26.520  35.807  1.00  0.00     0.010 A 
ATOM     91  C   UNL A   1      46.793  28.064  34.701  1.00  0.00     0.010 A 
ATOM     92  C   UNL A   1      46.290  26.162  36.696  1.00  0.00     0.020 A 
ATOM     93  C   UNL A   1      47.816  27.689  35.573  1.00  0.00     0.020 A 
ATOM     94  C   UNL A   1      47.552  26.753  36.574  1.00  0.00     0.054 A 
BRANCH  94  95
ATOM     95  S   UNL A   1      48.861  26.255  37.725  1.00  0.00     0.124 S 
ATOM     96  O   UNL A   1      49.561  25.227  36.959  1.00  0.00    -0.237 OA
ATOM     97  O   UNL A   1      49.599  27.498  37.930  1.00  0.00    -0.237 OA
ATOM     98  O   UNL A   1      48.128  25.773  38.893  1.00  0.00    -0.744 OA
ENDBRANCH  94  95
ENDBRANCH  68  89
ENDBRANCH  42  43
ENDBRANCH  35  37
ENDBRANCH  34  35
ENDBRANCH  33  34
ENDBRANCH   1  33
TORSDOF 18
ENDMDL
