MODEL 1
REMARK VINA RESULT:     -10.1      0.000      0.000
REMARK SMILES O=C(CCCCCN1C(=O)/C(=C/c2cccc(O)c2)SC1=S)OCCOC(=O)c1ccc(-c2c3nc(c(-c4ccc(S(=O)(=O)[O-])cc4)c4ccc([nH]4)c(-c4ccc(S(=O)(=O)[O-])cc4)c4nc(c(-c5ccc(S(=O)(=O)[O-])cc5)c5ccc2[nH]5)C=C4)C=C3)cc1
REMARK SMILES IDX 1 1 2 2 3 3 4 4 5 5 6 6 7 7 8 8 9 9 21 10 10 11 11 12 20 13
REMARK SMILES IDX 22 14 12 15 13 16 14 17 19 18 15 19 17 20 16 21 18 22 23 24
REMARK SMILES IDX 24 25 25 26 26 27 27 28 28 29 29 30 30 31 88 32 31 33 87 34
REMARK SMILES IDX 32 35 33 36 34 37 81 38 35 39 86 40 80 41 82 42 36 43 85 44
REMARK SMILES IDX 79 45 78 46 37 48 67 49 48 50 66 51 49 52 52 53 65 54 83 55
REMARK SMILES IDX 50 56 51 57 64 59 84 60 53 61 38 62 39 63 47 64 40 65 46 66
REMARK SMILES IDX 41 67 42 68 43 69 44 70 45 71 68 72 69 73 77 74 70 75 76 76
REMARK SMILES IDX 71 77 72 78 73 79 74 80 75 81 54 82 55 83 63 84 56 85 62 86
REMARK SMILES IDX 57 87 58 88 59 89 60 90 61 91
REMARK H PARENT 18 23 82 47 52 58
REMARK Flexibility Score: inf
ROOT
ATOM      1  O   UNL A   1      34.410  28.980  26.978  1.00  0.00    -0.252 OA
ATOM      2  C   UNL A   1      33.595  29.867  27.215  1.00  0.00     0.305 C 
ENDROOT
BRANCH   2   3
ATOM      3  C   UNL A   1      32.120  29.686  26.928  1.00  0.00     0.123 C 
BRANCH   3   4
ATOM      4  C   UNL A   1      31.721  29.961  25.483  1.00  0.00     0.012 C 
BRANCH   4   5
ATOM      5  C   UNL A   1      31.206  28.747  24.702  1.00  0.00     0.002 C 
BRANCH   5   6
ATOM      6  C   UNL A   1      31.060  27.435  25.493  1.00  0.00     0.022 C 
BRANCH   6   7
ATOM      7  C   UNL A   1      30.772  26.175  24.668  1.00  0.00     0.127 C 
BRANCH   7   8
ATOM      8  N   UNL A   1      31.969  25.364  24.470  1.00  0.00    -0.293 N 
ATOM      9  C   UNL A   1      32.448  24.625  25.542  1.00  0.00     0.266 C 
ATOM     10  C   UNL A   1      32.673  25.266  23.286  1.00  0.00     0.148 C 
ATOM     11  O   UNL A   1      31.933  24.535  26.649  1.00  0.00    -0.268 OA
ATOM     12  C   UNL A   1      33.728  23.972  25.179  1.00  0.00     0.081 C 
ATOM     13  S   UNL A   1      34.125  24.316  23.543  1.00  0.00    -0.054 SA
ATOM     14  S   UNL A   1      32.304  25.911  21.797  1.00  0.00    -0.052 S 
ATOM     15  C   UNL A   1      34.457  23.271  26.060  1.00  0.00     0.029 C 
BRANCH  15  16
ATOM     16  C   UNL A   1      35.781  22.746  25.724  1.00  0.00    -0.021 A 
ATOM     17  C   UNL A   1      35.893  21.424  25.273  1.00  0.00     0.008 A 
ATOM     18  C   UNL A   1      36.933  23.491  25.985  1.00  0.00     0.054 A 
ATOM     19  C   UNL A   1      37.150  20.841  25.117  1.00  0.00     0.004 A 
ATOM     20  C   UNL A   1      38.180  22.895  25.835  1.00  0.00     0.116 A 
ATOM     21  C   UNL A   1      38.300  21.575  25.409  1.00  0.00     0.046 A 
BRANCH  20  22
ATOM     22  O   UNL A   1      39.280  23.636  26.151  1.00  0.00    -0.508 OA
ATOM     23  H   UNL A   1      39.673  23.557  26.997  1.00  0.00     0.293 HD
ENDBRANCH  20  22
ENDBRANCH  15  16
ENDBRANCH   7   8
ENDBRANCH   6   7
ENDBRANCH   5   6
ENDBRANCH   4   5
ENDBRANCH   3   4
ENDBRANCH   2   3
BRANCH   2  24
ATOM     24  O   UNL A   1      34.003  31.096  27.616  1.00  0.00    -0.462 OA
BRANCH  24  25
ATOM     25  C   UNL A   1      35.394  31.368  27.857  1.00  0.00     0.274 C 
BRANCH  25  26
ATOM     26  C   UNL A   1      35.840  31.000  29.274  1.00  0.00     0.275 C 
BRANCH  26  27
ATOM     27  O   UNL A   1      36.174  29.606  29.380  1.00  0.00    -0.458 OA
BRANCH  27  28
ATOM     28  C   UNL A   1      37.104  29.324  30.334  1.00  0.00     0.338 C 
ATOM     29  O   UNL A   1      36.907  29.247  31.530  1.00  0.00    -0.246 OA
BRANCH  28  30
ATOM     30  C   UNL A   1      38.392  28.957  29.698  1.00  0.00     0.060 A 
ATOM     31  C   UNL A   1      39.378  28.398  30.520  1.00  0.00     0.016 A 
ATOM     32  C   UNL A   1      38.649  29.169  28.339  1.00  0.00     0.016 A 
ATOM     33  C   UNL A   1      40.638  28.100  30.002  1.00  0.00     0.010 A 
ATOM     34  C   UNL A   1      39.917  28.874  27.821  1.00  0.00     0.010 A 
ATOM     35  C   UNL A   1      40.929  28.373  28.659  1.00  0.00    -0.014 A 
BRANCH  35  36
ATOM     36  C   UNL A   1      42.333  28.290  28.190  1.00  0.00     0.031 A 
ATOM     37  C   UNL A   1      43.233  29.483  28.379  1.00  0.00     0.074 A 
ATOM     38  C   UNL A   1      42.823  27.162  27.643  1.00  0.00     0.049 A 
ATOM     39  N   UNL A   1      44.506  29.611  28.106  1.00  0.00    -0.248 NA
ATOM     40  C   UNL A   1      42.615  30.688  28.956  1.00  0.00     0.031 C 
ATOM     41  C   UNL A   1      42.069  25.929  27.422  1.00  0.00     0.029 A 
ATOM     42  N   UNL A   1      44.082  26.875  27.175  1.00  0.00    -0.354 N 
ATOM     43  C   UNL A   1      44.844  30.904  28.484  1.00  0.00     0.074 A 
ATOM     44  C   UNL A   1      43.635  31.533  28.971  1.00  0.00     0.031 C 
ATOM     45  C   UNL A   1      42.881  25.018  26.857  1.00  0.00     0.029 A 
ATOM     46  C   UNL A   1      44.206  25.606  26.665  1.00  0.00     0.049 A 
ATOM     47  H   UNL A   1      44.825  27.520  27.203  1.00  0.00     0.167 HD
ATOM     48  C   UNL A   1      46.052  31.514  28.443  1.00  0.00     0.031 A 
ATOM     49  C   UNL A   1      45.266  24.989  26.104  1.00  0.00     0.031 A 
ATOM     50  C   UNL A   1      47.254  30.905  27.942  1.00  0.00     0.049 A 
ATOM     51  C   UNL A   1      46.587  25.711  26.008  1.00  0.00     0.074 A 
ATOM     52  C   UNL A   1      48.528  31.440  27.882  1.00  0.00     0.029 A 
ATOM     53  N   UNL A   1      47.328  29.631  27.401  1.00  0.00    -0.354 N 
ATOM     54  N   UNL A   1      46.902  26.914  26.424  1.00  0.00    -0.248 NA
ATOM     55  C   UNL A   1      47.698  24.982  25.378  1.00  0.00     0.031 C 
ATOM     56  C   UNL A   1      49.365  30.509  27.257  1.00  0.00     0.029 A 
ATOM     57  C   UNL A   1      48.620  29.373  26.977  1.00  0.00     0.049 A 
ATOM     58  H   UNL A   1      46.573  29.003  27.330  1.00  0.00     0.167 HD
ATOM     59  C   UNL A   1      48.252  27.075  26.131  1.00  0.00     0.074 A 
ATOM     60  C   UNL A   1      48.697  25.845  25.510  1.00  0.00     0.031 C 
ATOM     61  C   UNL A   1      49.053  28.146  26.360  1.00  0.00     0.031 A 
BRANCH  48  62
ATOM     62  C   UNL A   1      46.122  32.934  28.935  1.00  0.00    -0.014 A 
ATOM     63  C   UNL A   1      45.903  34.013  28.061  1.00  0.00     0.010 A 
ATOM     64  C   UNL A   1      46.384  33.190  30.292  1.00  0.00     0.010 A 
ATOM     65  C   UNL A   1      45.984  35.327  28.528  1.00  0.00     0.020 A 
ATOM     66  C   UNL A   1      46.444  34.502  30.769  1.00  0.00     0.020 A 
ATOM     67  C   UNL A   1      46.262  35.562  29.879  1.00  0.00     0.054 A 
BRANCH  67  68
ATOM     68  S   UNL A   1      46.353  37.277  30.464  1.00  0.00     0.124 S 
ATOM     69  O   UNL A   1      47.797  37.490  30.544  1.00  0.00    -0.237 OA
ATOM     70  O   UNL A   1      45.668  38.016  29.406  1.00  0.00    -0.237 OA
ATOM     71  O   UNL A   1      45.656  37.242  31.747  1.00  0.00    -0.744 OA
ENDBRANCH  67  68
ENDBRANCH  48  62
BRANCH  49  72
ATOM     72  C   UNL A   1      45.125  23.604  25.580  1.00  0.00    -0.014 A 
ATOM     73  C   UNL A   1      45.536  22.500  26.348  1.00  0.00     0.010 A 
ATOM     74  C   UNL A   1      44.586  23.385  24.299  1.00  0.00     0.010 A 
ATOM     75  C   UNL A   1      45.426  21.203  25.836  1.00  0.00     0.020 A 
ATOM     76  C   UNL A   1      44.454  22.089  23.794  1.00  0.00     0.020 A 
ATOM     77  C   UNL A   1      44.886  21.006  24.561  1.00  0.00     0.054 A 
BRANCH  77  78
ATOM     78  S   UNL A   1      44.715  19.311  23.933  1.00  0.00     0.124 S 
ATOM     79  O   UNL A   1      43.521  18.848  24.630  1.00  0.00    -0.237 OA
ATOM     80  O   UNL A   1      44.568  19.520  22.494  1.00  0.00    -0.237 OA
ATOM     81  O   UNL A   1      45.965  18.671  24.336  1.00  0.00    -0.744 OA
ENDBRANCH  77  78
ENDBRANCH  49  72
BRANCH  61  82
ATOM     82  C   UNL A   1      50.503  28.034  25.967  1.00  0.00    -0.014 A 
ATOM     83  C   UNL A   1      50.947  28.443  24.697  1.00  0.00     0.010 A 
ATOM     84  C   UNL A   1      51.445  27.578  26.908  1.00  0.00     0.010 A 
ATOM     85  C   UNL A   1      52.305  28.376  24.368  1.00  0.00     0.020 A 
ATOM     86  C   UNL A   1      52.805  27.532  26.591  1.00  0.00     0.020 A 
ATOM     87  C   UNL A   1      53.226  27.919  25.317  1.00  0.00     0.054 A 
BRANCH  87  88
ATOM     88  S   UNL A   1      54.988  27.891  24.887  1.00  0.00     0.124 S 
ATOM     89  O   UNL A   1      55.564  28.767  25.903  1.00  0.00    -0.237 OA
ATOM     90  O   UNL A   1      55.328  26.475  25.012  1.00  0.00    -0.237 OA
ATOM     91  O   UNL A   1      55.019  28.411  23.522  1.00  0.00    -0.744 OA
ENDBRANCH  87  88
ENDBRANCH  61  82
ENDBRANCH  35  36
ENDBRANCH  28  30
ENDBRANCH  27  28
ENDBRANCH  26  27
ENDBRANCH  25  26
ENDBRANCH  24  25
ENDBRANCH   2  24
TORSDOF 21
ENDMDL
MODEL 2
REMARK VINA RESULT:      -9.8      6.014     12.390
REMARK SMILES O=C(CCCCCN1C(=O)/C(=C/c2cccc(O)c2)SC1=S)OCCOC(=O)c1ccc(-c2c3nc(c(-c4ccc(S(=O)(=O)[O-])cc4)c4ccc([nH]4)c(-c4ccc(S(=O)(=O)[O-])cc4)c4nc(c(-c5ccc(S(=O)(=O)[O-])cc5)c5ccc2[nH]5)C=C4)C=C3)cc1
REMARK SMILES IDX 1 1 2 2 3 3 4 4 5 5 6 6 7 7 8 8 9 9 21 10 10 11 11 12 20 13
REMARK SMILES IDX 22 14 12 15 13 16 14 17 19 18 15 19 17 20 16 21 18 22 23 24
REMARK SMILES IDX 24 25 25 26 26 27 27 28 28 29 29 30 30 31 88 32 31 33 87 34
REMARK SMILES IDX 32 35 33 36 34 37 81 38 35 39 86 40 80 41 82 42 36 43 85 44
REMARK SMILES IDX 79 45 78 46 37 48 67 49 48 50 66 51 49 52 52 53 65 54 83 55
REMARK SMILES IDX 50 56 51 57 64 59 84 60 53 61 38 62 39 63 47 64 40 65 46 66
REMARK SMILES IDX 41 67 42 68 43 69 44 70 45 71 68 72 69 73 77 74 70 75 76 76
REMARK SMILES IDX 71 77 72 78 73 79 74 80 75 81 54 82 55 83 63 84 56 85 62 86
REMARK SMILES IDX 57 87 58 88 59 89 60 90 61 91
REMARK H PARENT 18 23 82 47 52 58
REMARK Flexibility Score: inf
ROOT
ATOM      1  O   UNL A   1      44.705  18.358  24.598  1.00  0.00    -0.252 OA
ATOM      2  C   UNL A   1      43.943  19.177  25.104  1.00  0.00     0.305 C 
ENDROOT
BRANCH   2   3
ATOM      3  C   UNL A   1      42.989  18.795  26.215  1.00  0.00     0.123 C 
BRANCH   3   4
ATOM      4  C   UNL A   1      41.612  19.440  26.113  1.00  0.00     0.012 C 
BRANCH   4   5
ATOM      5  C   UNL A   1      41.394  20.666  27.007  1.00  0.00     0.002 C 
BRANCH   5   6
ATOM      6  C   UNL A   1      40.025  21.358  26.899  1.00  0.00     0.022 C 
BRANCH   6   7
ATOM      7  C   UNL A   1      39.361  21.336  25.517  1.00  0.00     0.127 C 
BRANCH   7   8
ATOM      8  N   UNL A   1      37.966  21.761  25.571  1.00  0.00    -0.293 N 
ATOM      9  C   UNL A   1      36.988  20.863  25.172  1.00  0.00     0.266 C 
ATOM     10  C   UNL A   1      37.532  23.001  25.997  1.00  0.00     0.148 C 
ATOM     11  O   UNL A   1      37.167  19.704  24.819  1.00  0.00    -0.268 OA
ATOM     12  C   UNL A   1      35.659  21.519  25.183  1.00  0.00     0.081 C 
ATOM     13  S   UNL A   1      35.802  23.136  25.746  1.00  0.00    -0.054 SA
ATOM     14  S   UNL A   1      38.419  24.249  26.652  1.00  0.00    -0.052 S 
ATOM     15  C   UNL A   1      34.547  20.906  24.752  1.00  0.00     0.029 C 
BRANCH  15  16
ATOM     16  C   UNL A   1      33.268  21.609  24.644  1.00  0.00    -0.021 A 
ATOM     17  C   UNL A   1      32.955  22.271  23.449  1.00  0.00     0.008 A 
ATOM     18  C   UNL A   1      32.432  21.749  25.754  1.00  0.00     0.054 A 
ATOM     19  C   UNL A   1      31.833  23.095  23.377  1.00  0.00     0.004 A 
ATOM     20  C   UNL A   1      31.322  22.581  25.673  1.00  0.00     0.116 A 
ATOM     21  C   UNL A   1      31.017  23.260  24.496  1.00  0.00     0.046 A 
BRANCH  20  22
ATOM     22  O   UNL A   1      30.559  22.734  26.793  1.00  0.00    -0.508 OA
ATOM     23  H   UNL A   1      29.756  22.260  26.883  1.00  0.00     0.293 HD
ENDBRANCH  20  22
ENDBRANCH  15  16
ENDBRANCH   7   8
ENDBRANCH   6   7
ENDBRANCH   5   6
ENDBRANCH   4   5
ENDBRANCH   3   4
ENDBRANCH   2   3
BRANCH   2  24
ATOM     24  O   UNL A   1      43.831  20.428  24.593  1.00  0.00    -0.462 OA
BRANCH  24  25
ATOM     25  C   UNL A   1      44.358  21.563  25.300  1.00  0.00     0.274 C 
BRANCH  25  26
ATOM     26  C   UNL A   1      43.688  22.881  24.901  1.00  0.00     0.275 C 
BRANCH  26  27
ATOM     27  O   UNL A   1      43.359  23.679  26.051  1.00  0.00    -0.458 OA
BRANCH  27  28
ATOM     28  C   UNL A   1      43.889  24.932  26.032  1.00  0.00     0.338 C 
ATOM     29  O   UNL A   1      44.705  25.357  25.239  1.00  0.00    -0.246 OA
BRANCH  28  30
ATOM     30  C   UNL A   1      43.208  25.789  27.033  1.00  0.00     0.060 A 
ATOM     31  C   UNL A   1      43.609  27.128  27.112  1.00  0.00     0.016 A 
ATOM     32  C   UNL A   1      42.217  25.302  27.892  1.00  0.00     0.016 A 
ATOM     33  C   UNL A   1      43.064  27.968  28.081  1.00  0.00     0.010 A 
ATOM     34  C   UNL A   1      41.673  26.145  28.869  1.00  0.00     0.010 A 
ATOM     35  C   UNL A   1      42.121  27.473  28.992  1.00  0.00    -0.014 A 
BRANCH  35  36
ATOM     36  C   UNL A   1      41.743  28.298  30.165  1.00  0.00     0.031 A 
ATOM     37  C   UNL A   1      42.532  28.153  31.439  1.00  0.00     0.074 A 
ATOM     38  C   UNL A   1      40.742  29.196  30.096  1.00  0.00     0.049 A 
ATOM     39  N   UNL A   1      42.421  28.815  32.562  1.00  0.00    -0.248 NA
ATOM     40  C   UNL A   1      43.590  27.128  31.445  1.00  0.00     0.031 C 
ATOM     41  C   UNL A   1      39.913  29.453  28.919  1.00  0.00     0.029 A 
ATOM     42  N   UNL A   1      40.259  30.062  31.045  1.00  0.00    -0.354 N 
ATOM     43  C   UNL A   1      43.396  28.295  33.404  1.00  0.00     0.074 A 
ATOM     44  C   UNL A   1      44.064  27.237  32.677  1.00  0.00     0.031 C 
ATOM     45  C   UNL A   1      39.019  30.412  29.220  1.00  0.00     0.029 A 
ATOM     46  C   UNL A   1      39.204  30.826  30.610  1.00  0.00     0.049 A 
ATOM     47  H   UNL A   1      40.634  30.128  31.953  1.00  0.00     0.167 HD
ATOM     48  C   UNL A   1      43.717  28.668  34.665  1.00  0.00     0.031 A 
ATOM     49  C   UNL A   1      38.469  31.752  31.258  1.00  0.00     0.031 A 
ATOM     50  C   UNL A   1      43.046  29.702  35.404  1.00  0.00     0.049 A 
ATOM     51  C   UNL A   1      38.802  32.106  32.686  1.00  0.00     0.074 A 
ATOM     52  C   UNL A   1      43.317  30.163  36.680  1.00  0.00     0.029 A 
ATOM     53  N   UNL A   1      41.959  30.427  34.939  1.00  0.00    -0.354 N 
ATOM     54  N   UNL A   1      39.765  31.644  33.447  1.00  0.00    -0.248 NA
ATOM     55  C   UNL A   1      37.955  33.118  33.335  1.00  0.00     0.031 C 
ATOM     56  C   UNL A   1      42.362  31.132  37.008  1.00  0.00     0.029 A 
ATOM     57  C   UNL A   1      41.529  31.310  35.914  1.00  0.00     0.049 A 
ATOM     58  H   UNL A   1      41.553  30.327  34.047  1.00  0.00     0.167 HD
ATOM     59  C   UNL A   1      39.656  32.328  34.654  1.00  0.00     0.074 A 
ATOM     60  C   UNL A   1      38.540  33.241  34.520  1.00  0.00     0.031 C 
ATOM     61  C   UNL A   1      40.417  32.214  35.771  1.00  0.00     0.031 A 
BRANCH  48  62
ATOM     62  C   UNL A   1      44.839  27.924  35.337  1.00  0.00    -0.014 A 
ATOM     63  C   UNL A   1      44.591  26.750  36.070  1.00  0.00     0.010 A 
ATOM     64  C   UNL A   1      46.159  28.392  35.212  1.00  0.00     0.010 A 
ATOM     65  C   UNL A   1      45.641  26.077  36.699  1.00  0.00     0.020 A 
ATOM     66  C   UNL A   1      47.215  27.710  35.822  1.00  0.00     0.020 A 
ATOM     67  C   UNL A   1      46.946  26.566  36.577  1.00  0.00     0.054 A 
BRANCH  67  68
ATOM     68  S   UNL A   1      48.293  25.670  37.397  1.00  0.00     0.124 S 
ATOM     69  O   UNL A   1      47.620  25.127  38.574  1.00  0.00    -0.237 OA
ATOM     70  O   UNL A   1      48.685  24.686  36.390  1.00  0.00    -0.237 OA
ATOM     71  O   UNL A   1      49.284  26.708  37.668  1.00  0.00    -0.744 OA
ENDBRANCH  67  68
ENDBRANCH  48  62
BRANCH  49  72
ATOM     72  C   UNL A   1      37.332  32.415  30.564  1.00  0.00    -0.014 A 
ATOM     73  C   UNL A   1      37.559  33.455  29.646  1.00  0.00     0.010 A 
ATOM     74  C   UNL A   1      36.011  32.012  30.832  1.00  0.00     0.010 A 
ATOM     75  C   UNL A   1      36.482  34.092  29.019  1.00  0.00     0.020 A 
ATOM     76  C   UNL A   1      34.934  32.631  30.190  1.00  0.00     0.020 A 
ATOM     77  C   UNL A   1      35.177  33.676  29.296  1.00  0.00     0.054 A 
BRANCH  77  78
ATOM     78  S   UNL A   1      33.797  34.489  28.441  1.00  0.00     0.124 S 
ATOM     79  O   UNL A   1      33.602  33.620  27.286  1.00  0.00    -0.237 OA
ATOM     80  O   UNL A   1      32.736  34.453  29.446  1.00  0.00    -0.237 OA
ATOM     81  O   UNL A   1      34.317  35.821  28.145  1.00  0.00    -0.744 OA
ENDBRANCH  77  78
ENDBRANCH  49  72
BRANCH  61  82
ATOM     82  C   UNL A   1      40.093  33.114  36.936  1.00  0.00    -0.014 A 
ATOM     83  C   UNL A   1      39.080  32.782  37.852  1.00  0.00     0.010 A 
ATOM     84  C   UNL A   1      40.861  34.272  37.153  1.00  0.00     0.010 A 
ATOM     85  C   UNL A   1      38.827  33.607  38.953  1.00  0.00     0.020 A 
ATOM     86  C   UNL A   1      40.627  35.086  38.264  1.00  0.00     0.020 A 
ATOM     87  C   UNL A   1      39.601  34.755  39.152  1.00  0.00     0.054 A 
BRANCH  87  88
ATOM     88  S   UNL A   1      39.290  35.781  40.615  1.00  0.00     0.124 S 
ATOM     89  O   UNL A   1      38.692  36.976  40.027  1.00  0.00    -0.237 OA
ATOM     90  O   UNL A   1      38.384  34.949  41.406  1.00  0.00    -0.237 OA
ATOM     91  O   UNL A   1      40.617  35.967  41.196  1.00  0.00    -0.744 OA
ENDBRANCH  87  88
ENDBRANCH  61  82
ENDBRANCH  35  36
ENDBRANCH  28  30
ENDBRANCH  27  28
ENDBRANCH  26  27
ENDBRANCH  25  26
ENDBRANCH  24  25
ENDBRANCH   2  24
TORSDOF 21
ENDMDL
MODEL 3
REMARK VINA RESULT:      -9.8      2.227      2.941
REMARK SMILES O=C(CCCCCN1C(=O)/C(=C/c2cccc(O)c2)SC1=S)OCCOC(=O)c1ccc(-c2c3nc(c(-c4ccc(S(=O)(=O)[O-])cc4)c4ccc([nH]4)c(-c4ccc(S(=O)(=O)[O-])cc4)c4nc(c(-c5ccc(S(=O)(=O)[O-])cc5)c5ccc2[nH]5)C=C4)C=C3)cc1
REMARK SMILES IDX 1 1 2 2 3 3 4 4 5 5 6 6 7 7 8 8 9 9 21 10 10 11 11 12 20 13
REMARK SMILES IDX 22 14 12 15 13 16 14 17 19 18 15 19 17 20 16 21 18 22 23 24
REMARK SMILES IDX 24 25 25 26 26 27 27 28 28 29 29 30 30 31 88 32 31 33 87 34
REMARK SMILES IDX 32 35 33 36 34 37 81 38 35 39 86 40 80 41 82 42 36 43 85 44
REMARK SMILES IDX 79 45 78 46 37 48 67 49 48 50 66 51 49 52 52 53 65 54 83 55
REMARK SMILES IDX 50 56 51 57 64 59 84 60 53 61 38 62 39 63 47 64 40 65 46 66
REMARK SMILES IDX 41 67 42 68 43 69 44 70 45 71 68 72 69 73 77 74 70 75 76 76
REMARK SMILES IDX 71 77 72 78 73 79 74 80 75 81 54 82 55 83 63 84 56 85 62 86
REMARK SMILES IDX 57 87 58 88 59 89 60 90 61 91
REMARK H PARENT 18 23 82 47 52 58
REMARK Flexibility Score: inf
ROOT
ATOM      1  O   UNL A   1      34.828  29.834  27.124  1.00  0.00    -0.252 OA
ATOM      2  C   UNL A   1      33.738  30.368  27.308  1.00  0.00     0.305 C 
ENDROOT
BRANCH   2   3
ATOM      3  C   UNL A   1      32.442  29.664  26.972  1.00  0.00     0.123 C 
BRANCH   3   4
ATOM      4  C   UNL A   1      31.982  29.845  25.530  1.00  0.00     0.012 C 
BRANCH   4   5
ATOM      5  C   UNL A   1      32.598  28.874  24.517  1.00  0.00     0.002 C 
BRANCH   5   6
ATOM      6  C   UNL A   1      31.613  28.039  23.682  1.00  0.00     0.022 C 
BRANCH   6   7
ATOM      7  C   UNL A   1      32.234  26.995  22.746  1.00  0.00     0.127 C 
BRANCH   7   8
ATOM      8  N   UNL A   1      32.035  25.634  23.233  1.00  0.00    -0.293 N 
ATOM      9  C   UNL A   1      33.089  24.738  23.137  1.00  0.00     0.266 C 
ATOM     10  C   UNL A   1      30.866  25.157  23.794  1.00  0.00     0.148 C 
ATOM     11  O   UNL A   1      34.216  24.986  22.725  1.00  0.00    -0.268 OA
ATOM     12  C   UNL A   1      32.653  23.389  23.567  1.00  0.00     0.081 C 
ATOM     13  S   UNL A   1      31.016  23.435  24.089  1.00  0.00    -0.054 SA
ATOM     14  S   UNL A   1      29.474  25.988  24.169  1.00  0.00    -0.052 S 
ATOM     15  C   UNL A   1      33.449  22.312  23.487  1.00  0.00     0.029 C 
BRANCH  15  16
ATOM     16  C   UNL A   1      32.962  20.966  23.790  1.00  0.00    -0.021 A 
ATOM     17  C   UNL A   1      33.101  20.471  25.093  1.00  0.00     0.008 A 
ATOM     18  C   UNL A   1      32.499  20.128  22.774  1.00  0.00     0.054 A 
ATOM     19  C   UNL A   1      32.813  19.135  25.370  1.00  0.00     0.004 A 
ATOM     20  C   UNL A   1      32.225  18.795  23.060  1.00  0.00     0.116 A 
ATOM     21  C   UNL A   1      32.382  18.289  24.347  1.00  0.00     0.046 A 
BRANCH  20  22
ATOM     22  O   UNL A   1      31.827  17.993  22.031  1.00  0.00    -0.508 OA
ATOM     23  H   UNL A   1      31.581  17.105  22.196  1.00  0.00     0.293 HD
ENDBRANCH  20  22
ENDBRANCH  15  16
ENDBRANCH   7   8
ENDBRANCH   6   7
ENDBRANCH   5   6
ENDBRANCH   4   5
ENDBRANCH   3   4
ENDBRANCH   2   3
BRANCH   2  24
ATOM     24  O   UNL A   1      33.657  31.666  27.695  1.00  0.00    -0.462 OA
BRANCH  24  25
ATOM     25  C   UNL A   1      34.845  32.427  27.972  1.00  0.00     0.274 C 
BRANCH  25  26
ATOM     26  C   UNL A   1      35.102  32.610  29.471  1.00  0.00     0.275 C 
BRANCH  26  27
ATOM     27  O   UNL A   1      35.662  31.425  30.062  1.00  0.00    -0.458 OA
BRANCH  27  28
ATOM     28  C   UNL A   1      36.746  31.653  30.852  1.00  0.00     0.338 C 
ATOM     29  O   UNL A   1      36.756  32.267  31.900  1.00  0.00    -0.246 OA
BRANCH  28  30
ATOM     30  C   UNL A   1      37.918  30.901  30.341  1.00  0.00     0.060 A 
ATOM     31  C   UNL A   1      38.865  30.474  31.279  1.00  0.00     0.016 A 
ATOM     32  C   UNL A   1      38.107  30.636  28.981  1.00  0.00     0.016 A 
ATOM     33  C   UNL A   1      40.027  29.829  30.858  1.00  0.00     0.010 A 
ATOM     34  C   UNL A   1      39.277  29.992  28.558  1.00  0.00     0.010 A 
ATOM     35  C   UNL A   1      40.260  29.619  29.492  1.00  0.00    -0.014 A 
BRANCH  35  36
ATOM     36  C   UNL A   1      41.601  29.167  29.046  1.00  0.00     0.031 A 
ATOM     37  C   UNL A   1      42.738  30.154  29.052  1.00  0.00     0.074 A 
ATOM     38  C   UNL A   1      41.823  27.890  28.681  1.00  0.00     0.049 A 
ATOM     39  N   UNL A   1      44.001  29.963  28.767  1.00  0.00    -0.248 NA
ATOM     40  C   UNL A   1      42.408  31.537  29.434  1.00  0.00     0.031 C 
ATOM     41  C   UNL A   1      40.818  26.829  28.650  1.00  0.00     0.029 A 
ATOM     42  N   UNL A   1      42.978  27.274  28.267  1.00  0.00    -0.354 N 
ATOM     43  C   UNL A   1      44.617  31.196  28.942  1.00  0.00     0.074 A 
ATOM     44  C   UNL A   1      43.583  32.136  29.322  1.00  0.00     0.031 C 
ATOM     45  C   UNL A   1      41.401  25.691  28.235  1.00  0.00     0.029 A 
ATOM     46  C   UNL A   1      42.814  25.945  27.959  1.00  0.00     0.049 A 
ATOM     47  H   UNL A   1      43.842  27.741  28.198  1.00  0.00     0.167 HD
ATOM     48  C   UNL A   1      45.925  31.519  28.811  1.00  0.00     0.031 A 
ATOM     49  C   UNL A   1      43.701  25.038  27.503  1.00  0.00     0.031 A 
ATOM     50  C   UNL A   1      46.954  30.598  28.414  1.00  0.00     0.049 A 
ATOM     51  C   UNL A   1      45.142  25.436  27.302  1.00  0.00     0.074 A 
ATOM     52  C   UNL A   1      48.311  30.832  28.276  1.00  0.00     0.029 A 
ATOM     53  N   UNL A   1      46.740  29.271  28.076  1.00  0.00    -0.354 N 
ATOM     54  N   UNL A   1      45.718  26.593  27.528  1.00  0.00    -0.248 NA
ATOM     55  C   UNL A   1      46.054  24.399  26.795  1.00  0.00     0.031 C 
ATOM     56  C   UNL A   1      48.911  29.659  27.805  1.00  0.00     0.029 A 
ATOM     57  C   UNL A   1      47.935  28.681  27.701  1.00  0.00     0.049 A 
ATOM     58  H   UNL A   1      45.868  28.816  28.100  1.00  0.00     0.167 HD
ATOM     59  C   UNL A   1      47.062  26.414  27.218  1.00  0.00     0.074 A 
ATOM     60  C   UNL A   1      47.217  25.038  26.796  1.00  0.00     0.031 C 
ATOM     61  C   UNL A   1      48.079  27.311  27.282  1.00  0.00     0.031 A 
BRANCH  48  62
ATOM     62  C   UNL A   1      46.309  32.949  29.078  1.00  0.00    -0.014 A 
ATOM     63  C   UNL A   1      46.732  33.357  30.356  1.00  0.00     0.010 A 
ATOM     64  C   UNL A   1      46.273  33.888  28.033  1.00  0.00     0.010 A 
ATOM     65  C   UNL A   1      47.073  34.691  30.593  1.00  0.00     0.020 A 
ATOM     66  C   UNL A   1      46.634  35.218  28.260  1.00  0.00     0.020 A 
ATOM     67  C   UNL A   1      47.015  35.614  29.544  1.00  0.00     0.054 A 
BRANCH  67  68
ATOM     68  S   UNL A   1      47.471  37.339  29.875  1.00  0.00     0.124 S 
ATOM     69  O   UNL A   1      48.734  37.460  29.149  1.00  0.00    -0.237 OA
ATOM     70  O   UNL A   1      46.349  38.084  29.308  1.00  0.00    -0.237 OA
ATOM     71  O   UNL A   1      47.580  37.394  31.330  1.00  0.00    -0.744 OA
ENDBRANCH  67  68
ENDBRANCH  48  62
BRANCH  49  72
ATOM     72  C   UNL A   1      43.255  23.651  27.199  1.00  0.00    -0.014 A 
ATOM     73  C   UNL A   1      43.108  23.218  25.870  1.00  0.00     0.010 A 
ATOM     74  C   UNL A   1      42.962  22.759  28.247  1.00  0.00     0.010 A 
ATOM     75  C   UNL A   1      42.660  21.922  25.594  1.00  0.00     0.020 A 
ATOM     76  C   UNL A   1      42.537  21.456  27.975  1.00  0.00     0.020 A 
ATOM     77  C   UNL A   1      42.377  21.049  26.649  1.00  0.00     0.054 A 
BRANCH  77  78
ATOM     78  S   UNL A   1      41.836  19.359  26.268  1.00  0.00     0.124 S 
ATOM     79  O   UNL A   1      42.293  18.623  27.442  1.00  0.00    -0.237 OA
ATOM     80  O   UNL A   1      40.389  19.510  26.140  1.00  0.00    -0.237 OA
ATOM     81  O   UNL A   1      42.535  19.050  25.023  1.00  0.00    -0.744 OA
ENDBRANCH  77  78
ENDBRANCH  49  72
BRANCH  61  82
ATOM     82  C   UNL A   1      49.460  26.832  26.915  1.00  0.00    -0.014 A 
ATOM     83  C   UNL A   1      50.357  26.377  27.896  1.00  0.00     0.010 A 
ATOM     84  C   UNL A   1      49.837  26.773  25.561  1.00  0.00     0.010 A 
ATOM     85  C   UNL A   1      51.618  25.892  27.530  1.00  0.00     0.020 A 
ATOM     86  C   UNL A   1      51.086  26.268  25.190  1.00  0.00     0.020 A 
ATOM     87  C   UNL A   1      51.974  25.842  26.179  1.00  0.00     0.054 A 
BRANCH  87  88
ATOM     88  S   UNL A   1      53.593  25.160  25.724  1.00  0.00     0.124 S 
ATOM     89  O   UNL A   1      54.014  26.063  24.656  1.00  0.00    -0.237 OA
ATOM     90  O   UNL A   1      54.350  25.265  26.970  1.00  0.00    -0.237 OA
ATOM     91  O   UNL A   1      53.288  23.795  25.303  1.00  0.00    -0.744 OA
ENDBRANCH  87  88
ENDBRANCH  61  82
ENDBRANCH  35  36
ENDBRANCH  28  30
ENDBRANCH  27  28
ENDBRANCH  26  27
ENDBRANCH  25  26
ENDBRANCH  24  25
ENDBRANCH   2  24
TORSDOF 21
ENDMDL
