MODEL 1
REMARK VINA RESULT:     -12.8      0.000      0.000
REMARK SMILES O=C(OCCOC(=O)c1cc2c(Cl)c(C(F)(F)F)cnc2n1S(=O)(=O)c1ccccc1)c1ccc(-c2c3nc(c(-c4ccc(S(=O)(=O)[O-])cc4)c4ccc([nH]4)c(-c4ccc(S(=O)(=O)[O-])cc4)c4nc(c(-c5ccc(S(=O)(=O)[O-])cc5)c5ccc2[nH]5)C=C4)C=C3)cc1
REMARK SMILES IDX 4 1 3 2 2 3 1 4 32 5 33 6 91 7 34 8 90 9 35 10 36 11 37 12
REMARK SMILES IDX 84 13 38 14 89 15 83 16 85 17 39 18 88 19 82 20 81 21 40 23
REMARK SMILES IDX 70 24 51 25 69 26 52 27 55 28 68 29 86 30 53 31 54 32 67 34
REMARK SMILES IDX 87 35 56 36 41 37 42 38 50 39 43 40 49 41 44 42 45 43 46 44
REMARK SMILES IDX 47 45 48 46 71 47 72 48 80 49 73 50 79 51 74 52 75 53 76 54
REMARK SMILES IDX 77 55 78 56 57 57 58 58 66 59 59 60 65 61 60 62 61 63 62 64
REMARK SMILES IDX 63 65 64 66 5 67 6 68 7 69 8 70 9 71 10 72 22 73 11 74 21 75
REMARK SMILES IDX 12 76 20 77 13 78 14 79 19 80 23 81 24 82 25 83 26 84 27 85
REMARK SMILES IDX 31 86 28 87 30 88 29 89 15 90 16 91 17 92 18 93
REMARK H PARENT 85 22 55 33
REMARK Flexibility Score: inf
ROOT
ATOM      1  C   UNL A   1      37.503  21.020  25.010  1.00  0.00     0.275 C 
ENDROOT
BRANCH   1   2
ATOM      2  O   UNL A   1      38.253  22.195  25.388  1.00  0.00    -0.458 OA
BRANCH   2   3
ATOM      3  C   UNL A   1      39.217  22.084  26.328  1.00  0.00     0.338 C 
ATOM      4  O   UNL A   1      39.838  21.056  26.553  1.00  0.00    -0.246 OA
BRANCH   3   5
ATOM      5  C   UNL A   1      39.560  23.384  26.956  1.00  0.00     0.060 A 
ATOM      6  C   UNL A   1      38.733  24.503  26.830  1.00  0.00     0.016 A 
ATOM      7  C   UNL A   1      40.742  23.474  27.707  1.00  0.00     0.016 A 
ATOM      8  C   UNL A   1      39.096  25.706  27.416  1.00  0.00     0.010 A 
ATOM      9  C   UNL A   1      41.109  24.684  28.296  1.00  0.00     0.010 A 
ATOM     10  C   UNL A   1      40.296  25.806  28.125  1.00  0.00    -0.014 A 
BRANCH  10  11
ATOM     11  C   UNL A   1      40.657  27.138  28.594  1.00  0.00     0.031 A 
ATOM     12  C   UNL A   1      41.866  27.789  28.021  1.00  0.00     0.074 A 
ATOM     13  C   UNL A   1      39.948  27.799  29.527  1.00  0.00     0.049 A 
ATOM     14  N   UNL A   1      42.989  28.053  28.609  1.00  0.00    -0.248 NA
ATOM     15  C   UNL A   1      41.816  28.187  26.608  1.00  0.00     0.031 C 
ATOM     16  C   UNL A   1      38.598  27.508  30.010  1.00  0.00     0.029 A 
ATOM     17  N   UNL A   1      40.283  28.948  30.181  1.00  0.00    -0.354 N 
ATOM     18  C   UNL A   1      43.740  28.793  27.699  1.00  0.00     0.074 A 
ATOM     19  C   UNL A   1      43.007  28.772  26.455  1.00  0.00     0.031 C 
ATOM     20  C   UNL A   1      38.148  28.570  30.713  1.00  0.00     0.029 A 
ATOM     21  C   UNL A   1      39.224  29.538  30.847  1.00  0.00     0.049 A 
ATOM     22  H   UNL A   1      41.193  29.323  30.179  1.00  0.00     0.167 HD
ATOM     23  C   UNL A   1      44.839  29.515  28.053  1.00  0.00     0.031 A 
ATOM     24  C   UNL A   1      39.215  30.770  31.406  1.00  0.00     0.031 A 
ATOM     25  C   UNL A   1      45.314  29.214  29.375  1.00  0.00     0.049 A 
ATOM     26  C   UNL A   1      40.617  31.156  31.694  1.00  0.00     0.074 A 
ATOM     27  C   UNL A   1      45.842  28.110  30.010  1.00  0.00     0.029 A 
ATOM     28  N   UNL A   1      45.027  30.121  30.365  1.00  0.00    -0.354 N 
ATOM     29  N   UNL A   1      41.369  30.566  32.580  1.00  0.00    -0.248 NA
ATOM     30  C   UNL A   1      41.322  32.033  30.770  1.00  0.00     0.031 C 
ATOM     31  C   UNL A   1      45.454  28.237  31.376  1.00  0.00     0.029 A 
ATOM     32  C   UNL A   1      44.697  29.407  31.488  1.00  0.00     0.049 A 
ATOM     33  H   UNL A   1      45.052  31.102  30.283  1.00  0.00     0.167 HD
ATOM     34  C   UNL A   1      42.662  30.689  32.100  1.00  0.00     0.074 A 
ATOM     35  C   UNL A   1      42.585  31.715  31.069  1.00  0.00     0.031 C 
ATOM     36  C   UNL A   1      43.619  29.760  32.390  1.00  0.00     0.031 A 
BRANCH  23  37
ATOM     37  C   UNL A   1      45.321  30.745  27.325  1.00  0.00    -0.014 A 
ATOM     38  C   UNL A   1      46.707  30.992  27.229  1.00  0.00     0.010 A 
ATOM     39  C   UNL A   1      44.450  31.801  26.987  1.00  0.00     0.010 A 
ATOM     40  C   UNL A   1      47.196  32.253  26.864  1.00  0.00     0.020 A 
ATOM     41  C   UNL A   1      44.930  33.050  26.581  1.00  0.00     0.020 A 
ATOM     42  C   UNL A   1      46.301  33.279  26.556  1.00  0.00     0.054 A 
BRANCH  42  43
ATOM     43  S   UNL A   1      46.945  34.940  26.227  1.00  0.00     0.124 S 
ATOM     44  O   UNL A   1      45.717  35.723  26.115  1.00  0.00    -0.237 OA
ATOM     45  O   UNL A   1      47.756  35.200  27.414  1.00  0.00    -0.237 OA
ATOM     46  O   UNL A   1      47.699  34.776  24.987  1.00  0.00    -0.744 OA
ENDBRANCH  42  43
ENDBRANCH  23  37
BRANCH  24  47
ATOM     47  C   UNL A   1      38.085  31.731  31.406  1.00  0.00    -0.014 A 
ATOM     48  C   UNL A   1      36.855  31.396  30.814  1.00  0.00     0.010 A 
ATOM     49  C   UNL A   1      38.128  32.880  32.226  1.00  0.00     0.010 A 
ATOM     50  C   UNL A   1      35.697  32.140  31.090  1.00  0.00     0.020 A 
ATOM     51  C   UNL A   1      36.984  33.636  32.491  1.00  0.00     0.020 A 
ATOM     52  C   UNL A   1      35.766  33.241  31.950  1.00  0.00     0.054 A 
BRANCH  52  53
ATOM     53  S   UNL A   1      34.237  34.088  32.435  1.00  0.00     0.124 S 
ATOM     54  O   UNL A   1      33.677  34.490  31.149  1.00  0.00    -0.237 OA
ATOM     55  O   UNL A   1      33.513  33.035  33.141  1.00  0.00    -0.237 OA
ATOM     56  O   UNL A   1      34.704  35.188  33.278  1.00  0.00    -0.744 OA
ENDBRANCH  52  53
ENDBRANCH  24  47
BRANCH  36  57
ATOM     57  C   UNL A   1      43.367  28.804  33.528  1.00  0.00    -0.014 A 
ATOM     58  C   UNL A   1      43.772  29.078  34.848  1.00  0.00     0.010 A 
ATOM     59  C   UNL A   1      42.538  27.692  33.294  1.00  0.00     0.010 A 
ATOM     60  C   UNL A   1      43.358  28.260  35.908  1.00  0.00     0.020 A 
ATOM     61  C   UNL A   1      42.111  26.880  34.348  1.00  0.00     0.020 A 
ATOM     62  C   UNL A   1      42.518  27.173  35.652  1.00  0.00     0.054 A 
BRANCH  62  63
ATOM     63  S   UNL A   1      41.914  26.181  37.047  1.00  0.00     0.124 S 
ATOM     64  O   UNL A   1      42.980  26.328  38.033  1.00  0.00    -0.237 OA
ATOM     65  O   UNL A   1      40.652  26.841  37.382  1.00  0.00    -0.237 OA
ATOM     66  O   UNL A   1      41.770  24.838  36.487  1.00  0.00    -0.744 OA
ENDBRANCH  62  63
ENDBRANCH  36  57
ENDBRANCH  10  11
ENDBRANCH   3   5
ENDBRANCH   2   3
ENDBRANCH   1   2
BRANCH   1  67
ATOM     67  C   UNL A   1      35.984  21.085  25.161  1.00  0.00     0.275 C 
BRANCH  67  68
ATOM     68  O   UNL A   1      35.492  22.383  24.793  1.00  0.00    -0.457 OA
BRANCH  68  69
ATOM     69  C   UNL A   1      35.064  23.155  25.821  1.00  0.00     0.356 C 
ATOM     70  O   UNL A   1      35.484  23.126  26.981  1.00  0.00    -0.244 OA
BRANCH  69  71
ATOM     71  C   UNL A   1      34.056  24.055  25.357  1.00  0.00     0.145 A 
ATOM     72  C   UNL A   1      34.219  25.251  24.675  1.00  0.00     0.048 A 
ATOM     73  N   UNL A   1      32.705  23.905  25.574  1.00  0.00    -0.209 N 
ATOM     74  C   UNL A   1      32.935  25.826  24.464  1.00  0.00     0.040 A 
ATOM     75  C   UNL A   1      32.008  24.964  25.049  1.00  0.00     0.156 A 
ATOM     76  C   UNL A   1      32.416  26.988  23.862  1.00  0.00     0.065 A 
ATOM     77  N   UNL A   1      30.680  25.173  25.110  1.00  0.00    -0.237 NA
ATOM     78  Cl  UNL A   1      33.571  27.986  23.089  1.00  0.00    -0.083 Cl
ATOM     79  C   UNL A   1      31.056  27.268  23.922  1.00  0.00     0.093 A 
ATOM     80  C   UNL A   1      30.256  26.327  24.550  1.00  0.00     0.128 A 
BRANCH  73  81
ATOM     81  S   UNL A   1      32.019  22.471  26.157  1.00  0.00     0.270 S 
ATOM     82  O   UNL A   1      32.812  22.129  27.322  1.00  0.00    -0.201 OA
ATOM     83  O   UNL A   1      30.599  22.754  26.280  1.00  0.00    -0.201 OA
BRANCH  81  84
ATOM     84  C   UNL A   1      32.201  21.207  24.934  1.00  0.00     0.088 A 
ATOM     85  C   UNL A   1      32.549  19.910  25.324  1.00  0.00     0.022 A 
ATOM     86  C   UNL A   1      32.052  21.530  23.582  1.00  0.00     0.022 A 
ATOM     87  C   UNL A   1      32.707  18.922  24.351  1.00  0.00     0.001 A 
ATOM     88  C   UNL A   1      32.194  20.534  22.619  1.00  0.00     0.001 A 
ATOM     89  C   UNL A   1      32.519  19.232  23.002  1.00  0.00     0.000 A 
ENDBRANCH  81  84
ENDBRANCH  73  81
BRANCH  79  90
ATOM     90  C   UNL A   1      30.452  28.506  23.351  1.00  0.00     0.419 C 
ATOM     91  F   UNL A   1      30.710  28.664  22.023  1.00  0.00    -0.166 F 
ATOM     92  F   UNL A   1      29.102  28.549  23.492  1.00  0.00    -0.166 F 
ATOM     93  F   UNL A   1      30.924  29.644  23.939  1.00  0.00    -0.166 F 
ENDBRANCH  79  90
ENDBRANCH  69  71
ENDBRANCH  68  69
ENDBRANCH  67  68
ENDBRANCH   1  67
TORSDOF 17
ENDMDL
MODEL 2
REMARK VINA RESULT:     -12.7      3.579      9.274
REMARK SMILES O=C(OCCOC(=O)c1cc2c(Cl)c(C(F)(F)F)cnc2n1S(=O)(=O)c1ccccc1)c1ccc(-c2c3nc(c(-c4ccc(S(=O)(=O)[O-])cc4)c4ccc([nH]4)c(-c4ccc(S(=O)(=O)[O-])cc4)c4nc(c(-c5ccc(S(=O)(=O)[O-])cc5)c5ccc2[nH]5)C=C4)C=C3)cc1
REMARK SMILES IDX 4 1 3 2 2 3 1 4 32 5 33 6 91 7 34 8 90 9 35 10 36 11 37 12
REMARK SMILES IDX 84 13 38 14 89 15 83 16 85 17 39 18 88 19 82 20 81 21 40 23
REMARK SMILES IDX 70 24 51 25 69 26 52 27 55 28 68 29 86 30 53 31 54 32 67 34
REMARK SMILES IDX 87 35 56 36 41 37 42 38 50 39 43 40 49 41 44 42 45 43 46 44
REMARK SMILES IDX 47 45 48 46 71 47 72 48 80 49 73 50 79 51 74 52 75 53 76 54
REMARK SMILES IDX 77 55 78 56 57 57 58 58 66 59 59 60 65 61 60 62 61 63 62 64
REMARK SMILES IDX 63 65 64 66 5 67 6 68 7 69 8 70 9 71 10 72 22 73 11 74 21 75
REMARK SMILES IDX 12 76 20 77 13 78 14 79 19 80 23 81 24 82 25 83 26 84 27 85
REMARK SMILES IDX 31 86 28 87 30 88 29 89 15 90 16 91 17 92 18 93
REMARK H PARENT 85 22 55 33
REMARK Flexibility Score: inf
ROOT
ATOM      1  C   UNL A   1      32.179  30.707  26.738  1.00  0.00     0.275 C 
ENDROOT
BRANCH   1   2
ATOM      2  O   UNL A   1      33.370  30.391  27.493  1.00  0.00    -0.458 OA
BRANCH   2   3
ATOM      3  C   UNL A   1      34.255  31.375  27.765  1.00  0.00     0.338 C 
ATOM      4  O   UNL A   1      33.948  32.547  27.921  1.00  0.00    -0.246 OA
BRANCH   3   5
ATOM      5  C   UNL A   1      35.625  30.862  28.014  1.00  0.00     0.060 A 
ATOM      6  C   UNL A   1      35.974  29.536  27.748  1.00  0.00     0.016 A 
ATOM      7  C   UNL A   1      36.591  31.749  28.514  1.00  0.00     0.016 A 
ATOM      8  C   UNL A   1      37.259  29.089  28.010  1.00  0.00     0.010 A 
ATOM      9  C   UNL A   1      37.884  31.300  28.781  1.00  0.00     0.010 A 
ATOM     10  C   UNL A   1      38.208  29.961  28.552  1.00  0.00    -0.014 A 
BRANCH  10  11
ATOM     11  C   UNL A   1      39.491  29.372  28.916  1.00  0.00     0.031 A 
ATOM     12  C   UNL A   1      39.794  29.165  30.358  1.00  0.00     0.074 A 
ATOM     13  C   UNL A   1      40.413  29.015  28.004  1.00  0.00     0.049 A 
ATOM     14  N   UNL A   1      40.672  29.775  31.088  1.00  0.00    -0.248 NA
ATOM     15  C   UNL A   1      39.008  28.154  31.077  1.00  0.00     0.031 C 
ATOM     16  C   UNL A   1      40.239  28.847  26.561  1.00  0.00     0.029 A 
ATOM     17  N   UNL A   1      41.707  28.640  28.217  1.00  0.00    -0.354 N 
ATOM     18  C   UNL A   1      40.672  29.126  32.320  1.00  0.00     0.074 A 
ATOM     19  C   UNL A   1      39.570  28.194  32.288  1.00  0.00     0.031 C 
ATOM     20  C   UNL A   1      41.315  28.199  26.064  1.00  0.00     0.029 A 
ATOM     21  C   UNL A   1      42.302  28.044  27.121  1.00  0.00     0.049 A 
ATOM     22  H   UNL A   1      42.174  28.781  29.073  1.00  0.00     0.167 HD
ATOM     23  C   UNL A   1      41.668  29.271  33.238  1.00  0.00     0.031 A 
ATOM     24  C   UNL A   1      43.493  27.403  27.104  1.00  0.00     0.031 A 
ATOM     25  C   UNL A   1      42.555  30.361  32.945  1.00  0.00     0.049 A 
ATOM     26  C   UNL A   1      44.301  27.904  28.241  1.00  0.00     0.074 A 
ATOM     27  C   UNL A   1      42.445  31.733  32.857  1.00  0.00     0.029 A 
ATOM     28  N   UNL A   1      43.783  30.045  32.416  1.00  0.00    -0.354 N 
ATOM     29  N   UNL A   1      44.758  29.121  28.332  1.00  0.00    -0.248 NA
ATOM     30  C   UNL A   1      44.367  27.126  29.470  1.00  0.00     0.031 C 
ATOM     31  C   UNL A   1      43.422  32.131  31.898  1.00  0.00     0.029 A 
ATOM     32  C   UNL A   1      44.060  30.973  31.447  1.00  0.00     0.049 A 
ATOM     33  H   UNL A   1      44.357  29.290  32.684  1.00  0.00     0.167 HD
ATOM     34  C   UNL A   1      44.813  29.389  29.690  1.00  0.00     0.074 A 
ATOM     35  C   UNL A   1      44.699  28.088  30.335  1.00  0.00     0.031 C 
ATOM     36  C   UNL A   1      44.670  30.659  30.170  1.00  0.00     0.031 A 
BRANCH  23  37
ATOM     37  C   UNL A   1      42.045  28.226  34.257  1.00  0.00    -0.014 A 
ATOM     38  C   UNL A   1      41.866  28.501  35.629  1.00  0.00     0.010 A 
ATOM     39  C   UNL A   1      42.832  27.105  33.920  1.00  0.00     0.010 A 
ATOM     40  C   UNL A   1      42.488  27.723  36.615  1.00  0.00     0.020 A 
ATOM     41  C   UNL A   1      43.421  26.298  34.898  1.00  0.00     0.020 A 
ATOM     42  C   UNL A   1      43.275  26.634  36.239  1.00  0.00     0.054 A 
BRANCH  42  43
ATOM     43  S   UNL A   1      44.188  25.726  37.514  1.00  0.00     0.124 S 
ATOM     44  O   UNL A   1      43.684  26.339  38.739  1.00  0.00    -0.237 OA
ATOM     45  O   UNL A   1      43.768  24.348  37.276  1.00  0.00    -0.237 OA
ATOM     46  O   UNL A   1      45.586  26.010  37.201  1.00  0.00    -0.744 OA
ENDBRANCH  42  43
ENDBRANCH  23  37
BRANCH  24  47
ATOM     47  C   UNL A   1      43.823  26.173  26.345  1.00  0.00    -0.014 A 
ATOM     48  C   UNL A   1      45.148  25.703  26.276  1.00  0.00     0.010 A 
ATOM     49  C   UNL A   1      42.797  25.307  25.909  1.00  0.00     0.010 A 
ATOM     50  C   UNL A   1      45.425  24.393  25.856  1.00  0.00     0.020 A 
ATOM     51  C   UNL A   1      43.067  24.008  25.473  1.00  0.00     0.020 A 
ATOM     52  C   UNL A   1      44.378  23.545  25.482  1.00  0.00     0.054 A 
BRANCH  52  53
ATOM     53  S   UNL A   1      44.730  21.805  25.108  1.00  0.00     0.124 S 
ATOM     54  O   UNL A   1      46.105  21.655  25.577  1.00  0.00    -0.237 OA
ATOM     55  O   UNL A   1      43.713  21.110  25.892  1.00  0.00    -0.237 OA
ATOM     56  O   UNL A   1      44.558  21.722  23.659  1.00  0.00    -0.744 OA
ENDBRANCH  52  53
ENDBRANCH  24  47
BRANCH  36  57
ATOM     57  C   UNL A   1      44.824  31.809  29.207  1.00  0.00    -0.014 A 
ATOM     58  C   UNL A   1      46.080  32.346  28.867  1.00  0.00     0.010 A 
ATOM     59  C   UNL A   1      43.691  32.232  28.489  1.00  0.00     0.010 A 
ATOM     60  C   UNL A   1      46.200  33.284  27.832  1.00  0.00     0.020 A 
ATOM     61  C   UNL A   1      43.806  33.158  27.447  1.00  0.00     0.020 A 
ATOM     62  C   UNL A   1      45.063  33.673  27.119  1.00  0.00     0.054 A 
BRANCH  62  63
ATOM     63  S   UNL A   1      45.250  34.816  25.721  1.00  0.00     0.124 S 
ATOM     64  O   UNL A   1      46.559  34.458  25.185  1.00  0.00    -0.237 OA
ATOM     65  O   UNL A   1      44.108  34.470  24.876  1.00  0.00    -0.237 OA
ATOM     66  O   UNL A   1      45.175  36.140  26.338  1.00  0.00    -0.744 OA
ENDBRANCH  62  63
ENDBRANCH  36  57
ENDBRANCH  10  11
ENDBRANCH   3   5
ENDBRANCH   2   3
ENDBRANCH   1   2
BRANCH   1  67
ATOM     67  C   UNL A   1      31.884  29.846  25.511  1.00  0.00     0.275 C 
BRANCH  67  68
ATOM     68  O   UNL A   1      32.377  28.509  25.698  1.00  0.00    -0.457 OA
BRANCH  68  69
ATOM     69  C   UNL A   1      33.454  28.178  24.945  1.00  0.00     0.356 C 
ATOM     70  O   UNL A   1      34.264  28.962  24.443  1.00  0.00    -0.244 OA
BRANCH  69  71
ATOM     71  C   UNL A   1      33.546  26.756  24.840  1.00  0.00     0.145 A 
ATOM     72  C   UNL A   1      33.813  25.835  25.841  1.00  0.00     0.048 A 
ATOM     73  N   UNL A   1      33.438  26.044  23.667  1.00  0.00    -0.209 N 
ATOM     74  C   UNL A   1      33.853  24.537  25.258  1.00  0.00     0.040 A 
ATOM     75  C   UNL A   1      33.625  24.704  23.892  1.00  0.00     0.156 A 
ATOM     76  C   UNL A   1      34.070  23.219  25.701  1.00  0.00     0.065 A 
ATOM     77  N   UNL A   1      33.632  23.718  22.976  1.00  0.00    -0.237 NA
ATOM     78  Cl  UNL A   1      34.272  23.041  27.390  1.00  0.00    -0.083 Cl
ATOM     79  C   UNL A   1      34.117  22.168  24.793  1.00  0.00     0.093 A 
ATOM     80  C   UNL A   1      33.888  22.485  23.463  1.00  0.00     0.128 A 
BRANCH  73  81
ATOM     81  S   UNL A   1      32.875  26.727  22.223  1.00  0.00     0.270 S 
ATOM     82  O   UNL A   1      33.883  27.704  21.858  1.00  0.00    -0.201 OA
ATOM     83  O   UNL A   1      32.586  25.597  21.357  1.00  0.00    -0.201 OA
BRANCH  81  84
ATOM     84  C   UNL A   1      31.345  27.555  22.536  1.00  0.00     0.088 A 
ATOM     85  C   UNL A   1      30.304  26.871  23.172  1.00  0.00     0.022 A 
ATOM     86  C   UNL A   1      31.170  28.871  22.095  1.00  0.00     0.022 A 
ATOM     87  C   UNL A   1      29.094  27.528  23.401  1.00  0.00     0.001 A 
ATOM     88  C   UNL A   1      29.964  29.523  22.343  1.00  0.00     0.001 A 
ATOM     89  C   UNL A   1      28.929  28.854  22.997  1.00  0.00     0.000 A 
ENDBRANCH  81  84
ENDBRANCH  73  81
BRANCH  79  90
ATOM     90  C   UNL A   1      34.395  20.758  25.190  1.00  0.00     0.419 C 
ATOM     91  F   UNL A   1      34.260  19.876  24.161  1.00  0.00    -0.166 F 
ATOM     92  F   UNL A   1      35.646  20.585  25.689  1.00  0.00    -0.166 F 
ATOM     93  F   UNL A   1      33.544  20.304  26.156  1.00  0.00    -0.166 F 
ENDBRANCH  79  90
ENDBRANCH  69  71
ENDBRANCH  68  69
ENDBRANCH  67  68
ENDBRANCH   1  67
TORSDOF 17
ENDMDL
MODEL 3
REMARK VINA RESULT:     -12.4      5.628      8.716
REMARK SMILES O=C(OCCOC(=O)c1cc2c(Cl)c(C(F)(F)F)cnc2n1S(=O)(=O)c1ccccc1)c1ccc(-c2c3nc(c(-c4ccc(S(=O)(=O)[O-])cc4)c4ccc([nH]4)c(-c4ccc(S(=O)(=O)[O-])cc4)c4nc(c(-c5ccc(S(=O)(=O)[O-])cc5)c5ccc2[nH]5)C=C4)C=C3)cc1
REMARK SMILES IDX 4 1 3 2 2 3 1 4 32 5 33 6 91 7 34 8 90 9 35 10 36 11 37 12
REMARK SMILES IDX 84 13 38 14 89 15 83 16 85 17 39 18 88 19 82 20 81 21 40 23
REMARK SMILES IDX 70 24 51 25 69 26 52 27 55 28 68 29 86 30 53 31 54 32 67 34
REMARK SMILES IDX 87 35 56 36 41 37 42 38 50 39 43 40 49 41 44 42 45 43 46 44
REMARK SMILES IDX 47 45 48 46 71 47 72 48 80 49 73 50 79 51 74 52 75 53 76 54
REMARK SMILES IDX 77 55 78 56 57 57 58 58 66 59 59 60 65 61 60 62 61 63 62 64
REMARK SMILES IDX 63 65 64 66 5 67 6 68 7 69 8 70 9 71 10 72 22 73 11 74 21 75
REMARK SMILES IDX 12 76 20 77 13 78 14 79 19 80 23 81 24 82 25 83 26 84 27 85
REMARK SMILES IDX 31 86 28 87 30 88 29 89 15 90 16 91 17 92 18 93
REMARK H PARENT 85 22 55 33
REMARK Flexibility Score: inf
ROOT
ATOM      1  C   UNL A   1      43.035  21.941  25.523  1.00  0.00     0.275 C 
ENDROOT
BRANCH   1   2
ATOM      2  O   UNL A   1      41.590  21.943  25.523  1.00  0.00    -0.458 OA
BRANCH   2   3
ATOM      3  C   UNL A   1      40.934  22.206  26.674  1.00  0.00     0.338 C 
ATOM      4  O   UNL A   1      40.461  21.347  27.403  1.00  0.00    -0.246 OA
BRANCH   3   5
ATOM      5  C   UNL A   1      40.984  23.641  27.049  1.00  0.00     0.060 A 
ATOM      6  C   UNL A   1      41.596  24.073  28.228  1.00  0.00     0.016 A 
ATOM      7  C   UNL A   1      40.411  24.581  26.178  1.00  0.00     0.016 A 
ATOM      8  C   UNL A   1      41.607  25.420  28.553  1.00  0.00     0.010 A 
ATOM      9  C   UNL A   1      40.420  25.936  26.505  1.00  0.00     0.010 A 
ATOM     10  C   UNL A   1      40.995  26.350  27.708  1.00  0.00    -0.014 A 
BRANCH  10  11
ATOM     11  C   UNL A   1      40.942  27.723  28.193  1.00  0.00     0.031 A 
ATOM     12  C   UNL A   1      42.075  28.633  27.876  1.00  0.00     0.074 A 
ATOM     13  C   UNL A   1      39.915  28.199  28.921  1.00  0.00     0.049 A 
ATOM     14  N   UNL A   1      42.953  29.133  28.687  1.00  0.00    -0.248 NA
ATOM     15  C   UNL A   1      42.257  29.027  26.473  1.00  0.00     0.031 C 
ATOM     16  C   UNL A   1      38.589  27.610  29.106  1.00  0.00     0.029 A 
ATOM     17  N   UNL A   1      39.835  29.386  29.589  1.00  0.00    -0.354 N 
ATOM     18  C   UNL A   1      43.707  30.032  27.937  1.00  0.00     0.074 A 
ATOM     19  C   UNL A   1      43.293  29.863  26.564  1.00  0.00     0.031 C 
ATOM     20  C   UNL A   1      37.771  28.537  29.651  1.00  0.00     0.029 A 
ATOM     21  C   UNL A   1      38.552  29.718  29.982  1.00  0.00     0.049 A 
ATOM     22  H   UNL A   1      40.618  29.954  29.772  1.00  0.00     0.167 HD
ATOM     23  C   UNL A   1      44.514  30.977  28.497  1.00  0.00     0.031 A 
ATOM     24  C   UNL A   1      38.148  30.910  30.477  1.00  0.00     0.031 A 
ATOM     25  C   UNL A   1      44.735  30.772  29.901  1.00  0.00     0.049 A 
ATOM     26  C   UNL A   1      39.331  31.595  31.052  1.00  0.00     0.074 A 
ATOM     27  C   UNL A   1      45.337  29.806  30.679  1.00  0.00     0.029 A 
ATOM     28  N   UNL A   1      44.043  31.582  30.768  1.00  0.00    -0.354 N 
ATOM     29  N   UNL A   1      39.976  31.176  32.104  1.00  0.00    -0.248 NA
ATOM     30  C   UNL A   1      40.015  32.617  30.273  1.00  0.00     0.031 C 
ATOM     31  C   UNL A   1      44.636  29.828  31.920  1.00  0.00     0.029 A 
ATOM     32  C   UNL A   1      43.636  30.798  31.817  1.00  0.00     0.049 A 
ATOM     33  H   UNL A   1      43.870  32.545  30.656  1.00  0.00     0.167 HD
ATOM     34  C   UNL A   1      41.285  31.590  31.916  1.00  0.00     0.074 A 
ATOM     35  C   UNL A   1      41.217  32.585  30.854  1.00  0.00     0.031 C 
ATOM     36  C   UNL A   1      42.333  30.893  32.445  1.00  0.00     0.031 A 
BRANCH  23  37
ATOM     37  C   UNL A   1      44.864  32.291  27.846  1.00  0.00    -0.014 A 
ATOM     38  C   UNL A   1      46.177  32.793  27.966  1.00  0.00     0.010 A 
ATOM     39  C   UNL A   1      43.874  33.175  27.370  1.00  0.00     0.010 A 
ATOM     40  C   UNL A   1      46.474  34.131  27.675  1.00  0.00     0.020 A 
ATOM     41  C   UNL A   1      44.170  34.501  27.036  1.00  0.00     0.020 A 
ATOM     42  C   UNL A   1      45.461  34.980  27.225  1.00  0.00     0.054 A 
BRANCH  42  43
ATOM     43  S   UNL A   1      45.827  36.739  26.991  1.00  0.00     0.124 S 
ATOM     44  O   UNL A   1      46.597  36.725  25.751  1.00  0.00    -0.237 OA
ATOM     45  O   UNL A   1      44.492  37.325  26.900  1.00  0.00    -0.237 OA
ATOM     46  O   UNL A   1      46.578  37.095  28.192  1.00  0.00    -0.744 OA
ENDBRANCH  42  43
ENDBRANCH  23  37
BRANCH  24  47
ATOM     47  C   UNL A   1      36.865  31.597  30.192  1.00  0.00    -0.014 A 
ATOM     48  C   UNL A   1      36.222  32.361  31.182  1.00  0.00     0.010 A 
ATOM     49  C   UNL A   1      36.404  31.722  28.863  1.00  0.00     0.010 A 
ATOM     50  C   UNL A   1      35.207  33.270  30.843  1.00  0.00     0.020 A 
ATOM     51  C   UNL A   1      35.382  32.611  28.521  1.00  0.00     0.020 A 
ATOM     52  C   UNL A   1      34.812  33.406  29.508  1.00  0.00     0.054 A 
BRANCH  52  53
ATOM     53  S   UNL A   1      33.625  34.703  29.059  1.00  0.00     0.124 S 
ATOM     54  O   UNL A   1      34.485  35.730  28.478  1.00  0.00    -0.237 OA
ATOM     55  O   UNL A   1      32.749  34.005  28.122  1.00  0.00    -0.237 OA
ATOM     56  O   UNL A   1      33.007  35.061  30.334  1.00  0.00    -0.744 OA
ENDBRANCH  52  53
ENDBRANCH  24  47
BRANCH  36  57
ATOM     57  C   UNL A   1      42.048  29.891  33.536  1.00  0.00    -0.014 A 
ATOM     58  C   UNL A   1      41.515  28.616  33.268  1.00  0.00     0.010 A 
ATOM     59  C   UNL A   1      42.504  30.174  34.836  1.00  0.00     0.010 A 
ATOM     60  C   UNL A   1      41.441  27.647  34.278  1.00  0.00     0.020 A 
ATOM     61  C   UNL A   1      42.444  29.207  35.844  1.00  0.00     0.020 A 
ATOM     62  C   UNL A   1      41.919  27.945  35.557  1.00  0.00     0.054 A 
BRANCH  62  63
ATOM     63  S   UNL A   1      41.902  26.647  36.827  1.00  0.00     0.124 S 
ATOM     64  O   UNL A   1      40.581  26.801  37.427  1.00  0.00    -0.237 OA
ATOM     65  O   UNL A   1      42.097  25.431  36.039  1.00  0.00    -0.237 OA
ATOM     66  O   UNL A   1      43.022  26.996  37.700  1.00  0.00    -0.744 OA
ENDBRANCH  62  63
ENDBRANCH  36  57
ENDBRANCH  10  11
ENDBRANCH   3   5
ENDBRANCH   2   3
ENDBRANCH   1   2
BRANCH   1  67
ATOM     67  C   UNL A   1      43.732  22.827  24.491  1.00  0.00     0.275 C 
BRANCH  67  68
ATOM     68  O   UNL A   1      44.655  23.723  25.131  1.00  0.00    -0.457 OA
BRANCH  68  69
ATOM     69  C   UNL A   1      45.635  23.127  25.853  1.00  0.00     0.356 C 
ATOM     70  O   UNL A   1      46.403  22.246  25.455  1.00  0.00    -0.244 OA
BRANCH  69  71
ATOM     71  C   UNL A   1      45.682  23.699  27.161  1.00  0.00     0.145 A 
ATOM     72  C   UNL A   1      44.912  23.378  28.268  1.00  0.00     0.048 A 
ATOM     73  N   UNL A   1      46.493  24.747  27.534  1.00  0.00    -0.209 N 
ATOM     74  C   UNL A   1      45.279  24.244  29.336  1.00  0.00     0.040 A 
ATOM     75  C   UNL A   1      46.264  25.098  28.841  1.00  0.00     0.156 A 
ATOM     76  C   UNL A   1      44.897  24.440  30.677  1.00  0.00     0.065 A 
ATOM     77  N   UNL A   1      46.842  26.101  29.526  1.00  0.00    -0.237 NA
ATOM     78  Cl  UNL A   1      43.742  23.330  31.275  1.00  0.00    -0.083 Cl
ATOM     79  C   UNL A   1      45.440  25.481  31.421  1.00  0.00     0.093 A 
ATOM     80  C   UNL A   1      46.398  26.260  30.792  1.00  0.00     0.128 A 
BRANCH  73  81
ATOM     81  S   UNL A   1      47.773  25.309  26.577  1.00  0.00     0.270 S 
ATOM     82  O   UNL A   1      48.947  24.633  27.095  1.00  0.00    -0.201 OA
ATOM     83  O   UNL A   1      47.338  25.102  25.206  1.00  0.00    -0.201 OA
BRANCH  81  84
ATOM     84  C   UNL A   1      47.948  27.051  26.818  1.00  0.00     0.088 A 
ATOM     85  C   UNL A   1      49.090  27.553  27.451  1.00  0.00     0.022 A 
ATOM     86  C   UNL A   1      46.916  27.909  26.424  1.00  0.00     0.022 A 
ATOM     87  C   UNL A   1      49.213  28.928  27.651  1.00  0.00     0.001 A 
ATOM     88  C   UNL A   1      47.055  29.282  26.612  1.00  0.00     0.001 A 
ATOM     89  C   UNL A   1      48.201  29.791  27.223  1.00  0.00     0.000 A 
ENDBRANCH  81  84
ENDBRANCH  73  81
BRANCH  79  90
ATOM     90  C   UNL A   1      45.039  25.775  32.827  1.00  0.00     0.419 C 
ATOM     91  F   UNL A   1      43.700  25.977  32.970  1.00  0.00    -0.166 F 
ATOM     92  F   UNL A   1      45.378  24.785  33.691  1.00  0.00    -0.166 F 
ATOM     93  F   UNL A   1      45.620  26.910  33.314  1.00  0.00    -0.166 F 
ENDBRANCH  79  90
ENDBRANCH  69  71
ENDBRANCH  68  69
ENDBRANCH  67  68
ENDBRANCH   1  67
TORSDOF 17
ENDMDL
