MODEL 1
REMARK VINA RESULT:     -12.0      0.000      0.000
REMARK SMILES O=C(C[C@H](NC(=O)[C@]12C[C@H]3C[C@H](C[C@H](C3)C1)C2)c1cccc([N+](=O)[O-])c1)OCCOC(=O)c1ccc(-c2c3nc(c(-c4ccc(S(=O)(=O)[O-])cc4)c4ccc([nH]4)c(-c4ccc(S(=O)(=O)[O-])cc4)c4nc(c(-c5ccc(S(=O)(=O)[O-])cc5)c5ccc2[nH]5)C=C4)C=C3)cc1
REMARK SMILES IDX 28 1 27 2 2 3 1 4 3 5 4 6 18 7 19 8 26 9 20 10 22 11 21 12
REMARK SMILES IDX 23 13 24 14 25 15 5 16 6 17 7 19 8 20 9 21 16 22 17 23 10 24
REMARK SMILES IDX 14 25 12 26 11 27 15 28 13 29 29 30 30 31 31 32 32 33 33 34
REMARK SMILES IDX 34 35 92 36 35 37 91 38 36 39 37 40 38 41 85 42 39 43 90 44
REMARK SMILES IDX 84 45 86 46 40 47 89 48 83 49 82 50 41 52 71 53 52 54 70 55
REMARK SMILES IDX 53 56 56 57 69 58 87 59 54 60 55 61 68 63 88 64 57 65 42 66
REMARK SMILES IDX 43 67 51 68 44 69 50 70 45 71 46 72 47 73 48 74 49 75 72 76
REMARK SMILES IDX 73 77 81 78 74 79 80 80 75 81 76 82 77 83 78 84 79 85 58 86
REMARK SMILES IDX 59 87 67 88 60 89 66 90 61 91 62 92 63 93 64 94 65 95
REMARK H PARENT 5 18 86 51 56 62
REMARK Flexibility Score: inf
ROOT
ATOM      1  C   UNL A   1      33.783  30.192  27.182  1.00  0.00     0.274 C 
ENDROOT
BRANCH   1   2
ATOM      2  O   UNL A   1      33.777  29.409  25.964  1.00  0.00    -0.462 OA
BRANCH   2   3
ATOM      3  C   UNL A   1      32.652  28.976  25.346  1.00  0.00     0.308 C 
ATOM      4  O   UNL A   1      31.714  28.521  25.995  1.00  0.00    -0.252 OA
BRANCH   3   5
ATOM      5  C   UNL A   1      32.604  29.036  23.849  1.00  0.00     0.152 C 
BRANCH   5   6
ATOM      6  C   UNL A   1      31.733  27.980  23.173  1.00  0.00     0.123 C 
BRANCH   6   7
ATOM      7  C   UNL A   1      30.307  28.444  22.917  1.00  0.00    -0.018 A 
ATOM      8  C   UNL A   1      29.179  27.696  23.290  1.00  0.00     0.006 A 
ATOM      9  C   UNL A   1      30.106  29.729  22.377  1.00  0.00     0.091 A 
ATOM     10  C   UNL A   1      27.890  28.234  23.181  1.00  0.00     0.007 A 
ATOM     11  C   UNL A   1      28.812  30.250  22.259  1.00  0.00     0.269 A 
ATOM     12  C   UNL A   1      27.700  29.520  22.678  1.00  0.00     0.085 A 
BRANCH  11  13
ATOM     13  N   UNL A   1      28.630  31.572  21.672  1.00  0.00     0.062 N 
ATOM     14  O   UNL A   1      28.085  31.636  20.563  1.00  0.00    -0.258 OA
ATOM     15  O   UNL A   1      29.055  32.534  22.326  1.00  0.00    -0.258 OA
ENDBRANCH  11  13
ENDBRANCH   6   7
BRANCH   6  16
ATOM     16  N   UNL A   1      32.364  27.351  22.022  1.00  0.00    -0.348 N 
ATOM     17  C   UNL A   1      32.814  26.089  21.797  1.00  0.00     0.226 C 
ATOM     18  H   UNL A   1      32.489  27.959  21.257  1.00  0.00     0.164 HD
ATOM     19  O   UNL A   1      33.279  25.894  20.669  1.00  0.00    -0.274 OA
BRANCH  17  20
ATOM     20  C   UNL A   1      32.831  24.981  22.871  1.00  0.00     0.050 C 
ATOM     21  C   UNL A   1      31.352  24.651  23.249  1.00  0.00     0.020 C 
ATOM     22  C   UNL A   1      33.537  25.392  24.185  1.00  0.00     0.020 C 
ATOM     23  C   UNL A   1      33.456  23.681  22.313  1.00  0.00     0.020 C 
ATOM     24  C   UNL A   1      31.275  23.531  24.299  1.00  0.00    -0.010 C 
ATOM     25  C   UNL A   1      33.486  24.264  25.224  1.00  0.00    -0.010 C 
ATOM     26  C   UNL A   1      33.402  22.558  23.367  1.00  0.00    -0.010 C 
ATOM     27  C   UNL A   1      31.937  22.267  23.730  1.00  0.00     0.007 C 
ATOM     28  C   UNL A   1      32.022  23.969  25.566  1.00  0.00     0.007 C 
ATOM     29  C   UNL A   1      34.151  23.009  24.631  1.00  0.00     0.007 C 
ENDBRANCH  17  20
ENDBRANCH   6  16
ENDBRANCH   5   6
ENDBRANCH   3   5
ENDBRANCH   2   3
ENDBRANCH   1   2
BRANCH   1  30
ATOM     30  C   UNL A   1      35.207  30.491  27.664  1.00  0.00     0.275 C 
BRANCH  30  31
ATOM     31  O   UNL A   1      35.877  29.286  28.084  1.00  0.00    -0.458 OA
BRANCH  31  32
ATOM     32  C   UNL A   1      36.662  29.390  29.187  1.00  0.00     0.338 C 
ATOM     33  O   UNL A   1      36.276  29.520  30.336  1.00  0.00    -0.246 OA
BRANCH  32  34
ATOM     34  C   UNL A   1      38.068  29.083  28.817  1.00  0.00     0.060 A 
ATOM     35  C   UNL A   1      38.877  28.452  29.774  1.00  0.00     0.016 A 
ATOM     36  C   UNL A   1      38.578  29.360  27.545  1.00  0.00     0.016 A 
ATOM     37  C   UNL A   1      40.193  28.103  29.463  1.00  0.00     0.010 A 
ATOM     38  C   UNL A   1      39.903  29.031  27.242  1.00  0.00     0.010 A 
ATOM     39  C   UNL A   1      40.722  28.419  28.205  1.00  0.00    -0.014 A 
BRANCH  39  40
ATOM     40  C   UNL A   1      42.174  28.273  27.947  1.00  0.00     0.031 A 
ATOM     41  C   UNL A   1      43.074  29.437  28.248  1.00  0.00     0.074 A 
ATOM     42  C   UNL A   1      42.682  27.142  27.425  1.00  0.00     0.049 A 
ATOM     43  N   UNL A   1      44.359  29.564  28.047  1.00  0.00    -0.248 NA
ATOM     44  C   UNL A   1      42.429  30.623  28.835  1.00  0.00     0.031 C 
ATOM     45  C   UNL A   1      41.914  25.943  27.104  1.00  0.00     0.029 A 
ATOM     46  N   UNL A   1      43.970  26.824  27.075  1.00  0.00    -0.354 N 
ATOM     47  C   UNL A   1      44.674  30.856  28.451  1.00  0.00     0.074 A 
ATOM     48  C   UNL A   1      43.445  31.468  28.912  1.00  0.00     0.031 C 
ATOM     49  C   UNL A   1      42.751  25.006  26.626  1.00  0.00     0.029 A 
ATOM     50  C   UNL A   1      44.104  25.556  26.562  1.00  0.00     0.049 A 
ATOM     51  H   UNL A   1      44.726  27.445  27.180  1.00  0.00     0.167 HD
ATOM     52  C   UNL A   1      45.872  31.485  28.418  1.00  0.00     0.031 A 
ATOM     53  C   UNL A   1      45.191  24.918  26.082  1.00  0.00     0.031 A 
ATOM     54  C   UNL A   1      47.083  30.887  27.927  1.00  0.00     0.049 A 
ATOM     55  C   UNL A   1      46.516  25.633  26.057  1.00  0.00     0.074 A 
ATOM     56  C   UNL A   1      48.346  31.446  27.845  1.00  0.00     0.029 A 
ATOM     57  N   UNL A   1      47.179  29.598  27.423  1.00  0.00    -0.354 N 
ATOM     58  N   UNL A   1      46.804  26.848  26.459  1.00  0.00    -0.248 NA
ATOM     59  C   UNL A   1      47.663  24.896  25.504  1.00  0.00     0.031 C 
ATOM     60  C   UNL A   1      49.195  30.513  27.241  1.00  0.00     0.029 A 
ATOM     61  C   UNL A   1      48.474  29.353  27.001  1.00  0.00     0.049 A 
ATOM     62  H   UNL A   1      46.437  28.954  27.373  1.00  0.00     0.167 HD
ATOM     63  C   UNL A   1      48.163  27.021  26.211  1.00  0.00     0.074 A 
ATOM     64  C   UNL A   1      48.645  25.779  25.642  1.00  0.00     0.031 C 
ATOM     65  C   UNL A   1      48.937  28.113  26.429  1.00  0.00     0.031 A 
BRANCH  52  66
ATOM     66  C   UNL A   1      45.890  32.926  28.847  1.00  0.00    -0.014 A 
ATOM     67  C   UNL A   1      45.784  33.973  27.914  1.00  0.00     0.010 A 
ATOM     68  C   UNL A   1      46.056  33.233  30.210  1.00  0.00     0.010 A 
ATOM     69  C   UNL A   1      45.911  35.301  28.329  1.00  0.00     0.020 A 
ATOM     70  C   UNL A   1      46.156  34.560  30.631  1.00  0.00     0.020 A 
ATOM     71  C   UNL A   1      46.113  35.584  29.683  1.00  0.00     0.054 A 
BRANCH  71  72
ATOM     72  S   UNL A   1      46.319  37.312  30.196  1.00  0.00     0.124 S 
ATOM     73  O   UNL A   1      47.456  37.731  29.382  1.00  0.00    -0.237 OA
ATOM     74  O   UNL A   1      45.036  37.911  29.838  1.00  0.00    -0.237 OA
ATOM     75  O   UNL A   1      46.580  37.218  31.631  1.00  0.00    -0.744 OA
ENDBRANCH  71  72
ENDBRANCH  52  66
BRANCH  53  76
ATOM     76  C   UNL A   1      45.056  23.528  25.565  1.00  0.00    -0.014 A 
ATOM     77  C   UNL A   1      44.856  23.289  24.195  1.00  0.00     0.010 A 
ATOM     78  C   UNL A   1      45.175  22.432  26.440  1.00  0.00     0.010 A 
ATOM     79  C   UNL A   1      44.784  21.979  23.707  1.00  0.00     0.020 A 
ATOM     80  C   UNL A   1      45.128  21.123  25.953  1.00  0.00     0.020 A 
ATOM     81  C   UNL A   1      44.928  20.905  24.589  1.00  0.00     0.054 A 
BRANCH  81  82
ATOM     82  S   UNL A   1      44.931  19.212  23.929  1.00  0.00     0.124 S 
ATOM     83  O   UNL A   1      46.335  18.836  24.067  1.00  0.00    -0.237 OA
ATOM     84  O   UNL A   1      44.001  18.518  24.816  1.00  0.00    -0.237 OA
ATOM     85  O   UNL A   1      44.459  19.383  22.557  1.00  0.00    -0.744 OA
ENDBRANCH  81  82
ENDBRANCH  53  76
BRANCH  65  86
ATOM     86  C   UNL A   1      50.394  28.029  26.058  1.00  0.00    -0.014 A 
ATOM     87  C   UNL A   1      51.363  27.658  27.006  1.00  0.00     0.010 A 
ATOM     88  C   UNL A   1      50.781  28.211  24.717  1.00  0.00     0.010 A 
ATOM     89  C   UNL A   1      52.694  27.477  26.623  1.00  0.00     0.020 A 
ATOM     90  C   UNL A   1      52.108  28.010  24.326  1.00  0.00     0.020 A 
ATOM     91  C   UNL A   1      53.057  27.649  25.283  1.00  0.00     0.054 A 
BRANCH  91  92
ATOM     92  S   UNL A   1      54.774  27.322  24.793  1.00  0.00     0.124 S 
ATOM     93  O   UNL A   1      54.630  26.142  23.946  1.00  0.00    -0.237 OA
ATOM     94  O   UNL A   1      55.151  28.552  24.100  1.00  0.00    -0.237 OA
ATOM     95  O   UNL A   1      55.459  27.097  26.064  1.00  0.00    -0.744 OA
ENDBRANCH  91  92
ENDBRANCH  65  86
ENDBRANCH  39  40
ENDBRANCH  32  34
ENDBRANCH  31  32
ENDBRANCH  30  31
ENDBRANCH   1  30
TORSDOF 19
ENDMDL
MODEL 2
REMARK VINA RESULT:     -11.6      2.266      3.023
REMARK SMILES O=C(C[C@H](NC(=O)[C@]12C[C@H]3C[C@H](C[C@H](C3)C1)C2)c1cccc([N+](=O)[O-])c1)OCCOC(=O)c1ccc(-c2c3nc(c(-c4ccc(S(=O)(=O)[O-])cc4)c4ccc([nH]4)c(-c4ccc(S(=O)(=O)[O-])cc4)c4nc(c(-c5ccc(S(=O)(=O)[O-])cc5)c5ccc2[nH]5)C=C4)C=C3)cc1
REMARK SMILES IDX 28 1 27 2 2 3 1 4 3 5 4 6 18 7 19 8 26 9 20 10 22 11 21 12
REMARK SMILES IDX 23 13 24 14 25 15 5 16 6 17 7 19 8 20 9 21 16 22 17 23 10 24
REMARK SMILES IDX 14 25 12 26 11 27 15 28 13 29 29 30 30 31 31 32 32 33 33 34
REMARK SMILES IDX 34 35 92 36 35 37 91 38 36 39 37 40 38 41 85 42 39 43 90 44
REMARK SMILES IDX 84 45 86 46 40 47 89 48 83 49 82 50 41 52 71 53 52 54 70 55
REMARK SMILES IDX 53 56 56 57 69 58 87 59 54 60 55 61 68 63 88 64 57 65 42 66
REMARK SMILES IDX 43 67 51 68 44 69 50 70 45 71 46 72 47 73 48 74 49 75 72 76
REMARK SMILES IDX 73 77 81 78 74 79 80 80 75 81 76 82 77 83 78 84 79 85 58 86
REMARK SMILES IDX 59 87 67 88 60 89 66 90 61 91 62 92 63 93 64 94 65 95
REMARK H PARENT 5 18 86 51 56 62
REMARK Flexibility Score: inf
ROOT
ATOM      1  C   UNL A   1      32.139  30.333  26.463  1.00  0.00     0.274 C 
ENDROOT
BRANCH   1   2
ATOM      2  O   UNL A   1      31.529  29.050  26.742  1.00  0.00    -0.462 OA
BRANCH   2   3
ATOM      3  C   UNL A   1      31.515  28.011  25.874  1.00  0.00     0.308 C 
ATOM      4  O   UNL A   1      31.235  26.878  26.254  1.00  0.00    -0.252 OA
BRANCH   3   5
ATOM      5  C   UNL A   1      31.886  28.282  24.447  1.00  0.00     0.152 C 
BRANCH   5   6
ATOM      6  C   UNL A   1      30.977  27.651  23.396  1.00  0.00     0.123 C 
BRANCH   6   7
ATOM      7  C   UNL A   1      29.701  28.440  23.145  1.00  0.00    -0.018 A 
ATOM      8  C   UNL A   1      28.420  27.870  23.216  1.00  0.00     0.006 A 
ATOM      9  C   UNL A   1      29.801  29.829  22.936  1.00  0.00     0.091 A 
ATOM     10  C   UNL A   1      27.271  28.668  23.137  1.00  0.00     0.007 A 
ATOM     11  C   UNL A   1      28.646  30.614  22.844  1.00  0.00     0.269 A 
ATOM     12  C   UNL A   1      27.377  30.047  22.964  1.00  0.00     0.085 A 
BRANCH  11  13
ATOM     13  N   UNL A   1      28.778  32.046  22.601  1.00  0.00     0.062 N 
ATOM     14  O   UNL A   1      28.388  32.480  21.510  1.00  0.00    -0.258 OA
ATOM     15  O   UNL A   1      29.291  32.719  23.505  1.00  0.00    -0.258 OA
ENDBRANCH  11  13
ENDBRANCH   6   7
BRANCH   6  16
ATOM     16  N   UNL A   1      31.674  27.255  22.181  1.00  0.00    -0.348 N 
ATOM     17  C   UNL A   1      32.345  26.126  21.835  1.00  0.00     0.226 C 
ATOM     18  H   UNL A   1      31.655  27.938  21.473  1.00  0.00     0.164 HD
ATOM     19  O   UNL A   1      32.798  26.120  20.684  1.00  0.00    -0.274 OA
BRANCH  17  20
ATOM     20  C   UNL A   1      32.608  24.952  22.803  1.00  0.00     0.050 C 
ATOM     21  C   UNL A   1      33.154  23.750  21.969  1.00  0.00     0.020 C 
ATOM     22  C   UNL A   1      31.340  24.443  23.528  1.00  0.00     0.020 C 
ATOM     23  C   UNL A   1      33.700  25.322  23.833  1.00  0.00     0.020 C 
ATOM     24  C   UNL A   1      33.469  22.541  22.865  1.00  0.00    -0.010 C 
ATOM     25  C   UNL A   1      31.659  23.254  24.444  1.00  0.00    -0.010 C 
ATOM     26  C   UNL A   1      34.009  24.122  24.748  1.00  0.00    -0.010 C 
ATOM     27  C   UNL A   1      34.528  22.950  23.900  1.00  0.00     0.007 C 
ATOM     28  C   UNL A   1      32.193  22.098  23.591  1.00  0.00     0.007 C 
ATOM     29  C   UNL A   1      32.723  23.686  25.469  1.00  0.00     0.007 C 
ENDBRANCH  17  20
ENDBRANCH   6  16
ENDBRANCH   5   6
ENDBRANCH   3   5
ENDBRANCH   2   3
ENDBRANCH   1   2
BRANCH   1  30
ATOM     30  C   UNL A   1      33.653  30.310  26.696  1.00  0.00     0.275 C 
BRANCH  30  31
ATOM     31  O   UNL A   1      33.962  30.117  28.090  1.00  0.00    -0.458 OA
BRANCH  31  32
ATOM     32  C   UNL A   1      34.798  31.027  28.651  1.00  0.00     0.338 C 
ATOM     33  O   UNL A   1      34.469  32.065  29.199  1.00  0.00    -0.246 OA
BRANCH  32  34
ATOM     34  C   UNL A   1      36.170  30.461  28.710  1.00  0.00     0.060 A 
ATOM     35  C   UNL A   1      36.619  29.948  29.936  1.00  0.00     0.016 A 
ATOM     36  C   UNL A   1      36.990  30.383  27.580  1.00  0.00     0.016 A 
ATOM     37  C   UNL A   1      37.884  29.365  30.036  1.00  0.00     0.010 A 
ATOM     38  C   UNL A   1      38.266  29.820  27.685  1.00  0.00     0.010 A 
ATOM     39  C   UNL A   1      38.726  29.327  28.918  1.00  0.00    -0.014 A 
BRANCH  39  40
ATOM     40  C   UNL A   1      40.147  28.933  29.066  1.00  0.00     0.031 A 
ATOM     41  C   UNL A   1      41.119  29.950  29.590  1.00  0.00     0.074 A 
ATOM     42  C   UNL A   1      40.575  27.709  28.710  1.00  0.00     0.049 A 
ATOM     43  N   UNL A   1      42.413  29.857  29.745  1.00  0.00    -0.248 NA
ATOM     44  C   UNL A   1      40.554  31.256  29.970  1.00  0.00     0.031 C 
ATOM     45  C   UNL A   1      39.727  26.634  28.203  1.00  0.00     0.029 A 
ATOM     46  N   UNL A   1      41.836  27.168  28.727  1.00  0.00    -0.354 N 
ATOM     47  C   UNL A   1      42.825  31.100  30.209  1.00  0.00     0.074 A 
ATOM     48  C   UNL A   1      41.642  31.928  30.314  1.00  0.00     0.031 C 
ATOM     49  C   UNL A   1      40.488  25.549  27.978  1.00  0.00     0.029 A 
ATOM     50  C   UNL A   1      41.883  25.868  28.280  1.00  0.00     0.049 A 
ATOM     51  H   UNL A   1      42.631  27.662  29.029  1.00  0.00     0.167 HD
ATOM     52  C   UNL A   1      44.078  31.524  30.498  1.00  0.00     0.031 A 
ATOM     53  C   UNL A   1      42.933  25.038  28.119  1.00  0.00     0.031 A 
ATOM     54  C   UNL A   1      45.256  30.712  30.360  1.00  0.00     0.049 A 
ATOM     55  C   UNL A   1      44.319  25.525  28.449  1.00  0.00     0.074 A 
ATOM     56  C   UNL A   1      46.571  31.053  30.620  1.00  0.00     0.029 A 
ATOM     57  N   UNL A   1      45.261  29.399  29.912  1.00  0.00    -0.354 N 
ATOM     58  N   UNL A   1      44.693  26.697  28.905  1.00  0.00    -0.248 NA
ATOM     59  C   UNL A   1      45.428  24.584  28.235  1.00  0.00     0.031 C 
ATOM     60  C   UNL A   1      47.378  29.963  30.278  1.00  0.00     0.029 A 
ATOM     61  C   UNL A   1      46.560  28.924  29.860  1.00  0.00     0.049 A 
ATOM     62  H   UNL A   1      44.460  28.882  29.667  1.00  0.00     0.167 HD
ATOM     63  C   UNL A   1      46.077  26.634  29.035  1.00  0.00     0.074 A 
ATOM     64  C   UNL A   1      46.474  25.301  28.629  1.00  0.00     0.031 C 
ATOM     65  C   UNL A   1      46.940  27.596  29.446  1.00  0.00     0.031 A 
BRANCH  52  66
ATOM     66  C   UNL A   1      44.227  32.964  30.904  1.00  0.00    -0.014 A 
ATOM     67  C   UNL A   1      44.115  33.365  32.247  1.00  0.00     0.010 A 
ATOM     68  C   UNL A   1      44.448  33.936  29.911  1.00  0.00     0.010 A 
ATOM     69  C   UNL A   1      44.152  34.721  32.582  1.00  0.00     0.020 A 
ATOM     70  C   UNL A   1      44.512  35.290  30.246  1.00  0.00     0.020 A 
ATOM     71  C   UNL A   1      44.334  35.675  31.576  1.00  0.00     0.054 A 
BRANCH  71  72
ATOM     72  S   UNL A   1      44.337  37.433  32.025  1.00  0.00     0.124 S 
ATOM     73  O   UNL A   1      43.877  38.058  30.788  1.00  0.00    -0.237 OA
ATOM     74  O   UNL A   1      43.396  37.483  33.141  1.00  0.00    -0.237 OA
ATOM     75  O   UNL A   1      45.730  37.698  32.377  1.00  0.00    -0.744 OA
ENDBRANCH  71  72
ENDBRANCH  52  66
BRANCH  53  76
ATOM     76  C   UNL A   1      42.706  23.661  27.596  1.00  0.00    -0.014 A 
ATOM     77  C   UNL A   1      42.791  23.395  26.220  1.00  0.00     0.010 A 
ATOM     78  C   UNL A   1      42.449  22.600  28.484  1.00  0.00     0.010 A 
ATOM     79  C   UNL A   1      42.629  22.090  25.739  1.00  0.00     0.020 A 
ATOM     80  C   UNL A   1      42.311  21.293  28.010  1.00  0.00     0.020 A 
ATOM     81  C   UNL A   1      42.398  21.046  26.639  1.00  0.00     0.054 A 
BRANCH  81  82
ATOM     82  S   UNL A   1      42.288  19.345  26.012  1.00  0.00     0.124 S 
ATOM     83  O   UNL A   1      43.214  19.377  24.884  1.00  0.00    -0.237 OA
ATOM     84  O   UNL A   1      42.718  18.550  27.160  1.00  0.00    -0.237 OA
ATOM     85  O   UNL A   1      40.877  19.203  25.662  1.00  0.00    -0.744 OA
ENDBRANCH  81  82
ENDBRANCH  53  76
BRANCH  65  86
ATOM     86  C   UNL A   1      48.406  27.257  29.486  1.00  0.00    -0.014 A 
ATOM     87  C   UNL A   1      49.271  27.661  28.454  1.00  0.00     0.010 A 
ATOM     88  C   UNL A   1      48.943  26.628  30.625  1.00  0.00     0.010 A 
ATOM     89  C   UNL A   1      50.647  27.437  28.558  1.00  0.00     0.020 A 
ATOM     90  C   UNL A   1      50.320  26.421  30.741  1.00  0.00     0.020 A 
ATOM     91  C   UNL A   1      51.164  26.823  29.703  1.00  0.00     0.054 A 
BRANCH  91  92
ATOM     92  S   UNL A   1      52.961  26.622  29.853  1.00  0.00     0.124 S 
ATOM     93  O   UNL A   1      53.077  25.804  31.057  1.00  0.00    -0.237 OA
ATOM     94  O   UNL A   1      53.316  25.956  28.602  1.00  0.00    -0.237 OA
ATOM     95  O   UNL A   1      53.453  27.993  29.981  1.00  0.00    -0.744 OA
ENDBRANCH  91  92
ENDBRANCH  65  86
ENDBRANCH  39  40
ENDBRANCH  32  34
ENDBRANCH  31  32
ENDBRANCH  30  31
ENDBRANCH   1  30
TORSDOF 19
ENDMDL
MODEL 3
REMARK VINA RESULT:     -11.4      3.216      8.300
REMARK SMILES O=C(C[C@H](NC(=O)[C@]12C[C@H]3C[C@H](C[C@H](C3)C1)C2)c1cccc([N+](=O)[O-])c1)OCCOC(=O)c1ccc(-c2c3nc(c(-c4ccc(S(=O)(=O)[O-])cc4)c4ccc([nH]4)c(-c4ccc(S(=O)(=O)[O-])cc4)c4nc(c(-c5ccc(S(=O)(=O)[O-])cc5)c5ccc2[nH]5)C=C4)C=C3)cc1
REMARK SMILES IDX 28 1 27 2 2 3 1 4 3 5 4 6 18 7 19 8 26 9 20 10 22 11 21 12
REMARK SMILES IDX 23 13 24 14 25 15 5 16 6 17 7 19 8 20 9 21 16 22 17 23 10 24
REMARK SMILES IDX 14 25 12 26 11 27 15 28 13 29 29 30 30 31 31 32 32 33 33 34
REMARK SMILES IDX 34 35 92 36 35 37 91 38 36 39 37 40 38 41 85 42 39 43 90 44
REMARK SMILES IDX 84 45 86 46 40 47 89 48 83 49 82 50 41 52 71 53 52 54 70 55
REMARK SMILES IDX 53 56 56 57 69 58 87 59 54 60 55 61 68 63 88 64 57 65 42 66
REMARK SMILES IDX 43 67 51 68 44 69 50 70 45 71 46 72 47 73 48 74 49 75 72 76
REMARK SMILES IDX 73 77 81 78 74 79 80 80 75 81 76 82 77 83 78 84 79 85 58 86
REMARK SMILES IDX 59 87 67 88 60 89 66 90 61 91 62 92 63 93 64 94 65 95
REMARK H PARENT 5 18 86 51 56 62
REMARK Flexibility Score: inf
ROOT
ATOM      1  C   UNL A   1      37.622  19.930  24.885  1.00  0.00     0.274 C 
ENDROOT
BRANCH   1   2
ATOM      2  O   UNL A   1      37.372  21.197  25.541  1.00  0.00    -0.462 OA
BRANCH   2   3
ATOM      3  C   UNL A   1      36.294  21.980  25.293  1.00  0.00     0.308 C 
ATOM      4  O   UNL A   1      36.317  22.813  24.391  1.00  0.00    -0.252 OA
BRANCH   3   5
ATOM      5  C   UNL A   1      35.093  21.823  26.175  1.00  0.00     0.152 C 
BRANCH   5   6
ATOM      6  C   UNL A   1      33.745  22.093  25.511  1.00  0.00     0.123 C 
BRANCH   6   7
ATOM      7  C   UNL A   1      33.213  20.909  24.717  1.00  0.00    -0.018 A 
ATOM      8  C   UNL A   1      32.505  21.049  23.513  1.00  0.00     0.006 A 
ATOM      9  C   UNL A   1      33.533  19.610  25.154  1.00  0.00     0.091 A 
ATOM     10  C   UNL A   1      32.176  19.931  22.736  1.00  0.00     0.007 A 
ATOM     11  C   UNL A   1      33.186  18.499  24.377  1.00  0.00     0.269 A 
ATOM     12  C   UNL A   1      32.526  18.649  23.157  1.00  0.00     0.085 A 
BRANCH  11  13
ATOM     13  N   UNL A   1      33.507  17.162  24.866  1.00  0.00     0.062 N 
ATOM     14  O   UNL A   1      34.665  16.758  24.708  1.00  0.00    -0.258 OA
ATOM     15  O   UNL A   1      32.582  16.525  25.388  1.00  0.00    -0.258 OA
ENDBRANCH  11  13
ENDBRANCH   6   7
BRANCH   6  16
ATOM     16  N   UNL A   1      32.764  22.696  26.401  1.00  0.00    -0.348 N 
ATOM     17  C   UNL A   1      32.020  23.829  26.315  1.00  0.00     0.226 C 
ATOM     18  H   UNL A   1      32.610  22.182  27.227  1.00  0.00     0.164 HD
ATOM     19  O   UNL A   1      31.251  24.021  27.263  1.00  0.00    -0.274 OA
BRANCH  17  20
ATOM     20  C   UNL A   1      32.154  24.859  25.173  1.00  0.00     0.050 C 
ATOM     21  C   UNL A   1      31.339  24.332  23.949  1.00  0.00     0.020 C 
ATOM     22  C   UNL A   1      33.606  25.059  24.679  1.00  0.00     0.020 C 
ATOM     23  C   UNL A   1      31.535  26.216  25.579  1.00  0.00     0.020 C 
ATOM     24  C   UNL A   1      31.397  25.316  22.769  1.00  0.00    -0.010 C 
ATOM     25  C   UNL A   1      33.669  26.064  23.519  1.00  0.00    -0.010 C 
ATOM     26  C   UNL A   1      31.607  27.215  24.408  1.00  0.00    -0.010 C 
ATOM     27  C   UNL A   1      30.811  26.665  23.214  1.00  0.00     0.007 C 
ATOM     28  C   UNL A   1      32.858  25.514  22.342  1.00  0.00     0.007 C 
ATOM     29  C   UNL A   1      33.074  27.403  23.988  1.00  0.00     0.007 C 
ENDBRANCH  17  20
ENDBRANCH   6  16
ENDBRANCH   5   6
ENDBRANCH   3   5
ENDBRANCH   2   3
ENDBRANCH   1   2
BRANCH   1  30
ATOM     30  C   UNL A   1      38.890  19.252  25.414  1.00  0.00     0.275 C 
BRANCH  30  31
ATOM     31  O   UNL A   1      39.715  20.184  26.140  1.00  0.00    -0.458 OA
BRANCH  31  32
ATOM     32  C   UNL A   1      41.033  19.875  26.232  1.00  0.00     0.338 C 
ATOM     33  O   UNL A   1      41.536  18.790  25.995  1.00  0.00    -0.246 OA
BRANCH  32  34
ATOM     34  C   UNL A   1      41.815  21.120  26.438  1.00  0.00     0.060 A 
ATOM     35  C   UNL A   1      42.180  21.459  27.750  1.00  0.00     0.016 A 
ATOM     36  C   UNL A   1      42.231  21.921  25.370  1.00  0.00     0.016 A 
ATOM     37  C   UNL A   1      42.953  22.597  27.995  1.00  0.00     0.010 A 
ATOM     38  C   UNL A   1      42.986  23.072  25.618  1.00  0.00     0.010 A 
ATOM     39  C   UNL A   1      43.333  23.425  26.933  1.00  0.00    -0.014 A 
BRANCH  39  40
ATOM     40  C   UNL A   1      43.941  24.750  27.200  1.00  0.00     0.031 A 
ATOM     41  C   UNL A   1      43.062  25.848  27.725  1.00  0.00     0.074 A 
ATOM     42  C   UNL A   1      45.242  24.986  26.950  1.00  0.00     0.049 A 
ATOM     43  N   UNL A   1      43.354  27.097  27.972  1.00  0.00    -0.248 NA
ATOM     44  C   UNL A   1      41.657  25.489  27.985  1.00  0.00     0.031 C 
ATOM     45  C   UNL A   1      46.197  24.000  26.455  1.00  0.00     0.029 A 
ATOM     46  N   UNL A   1      45.979  26.136  27.085  1.00  0.00    -0.354 N 
ATOM     47  C   UNL A   1      42.164  27.685  28.385  1.00  0.00     0.074 A 
ATOM     48  C   UNL A   1      41.149  26.653  28.358  1.00  0.00     0.031 C 
ATOM     49  C   UNL A   1      47.405  24.580  26.348  1.00  0.00     0.029 A 
ATOM     50  C   UNL A   1      47.297  25.990  26.723  1.00  0.00     0.049 A 
ATOM     51  H   UNL A   1      45.601  26.984  27.409  1.00  0.00     0.167 HD
ATOM     52  C   UNL A   1      41.931  28.973  28.730  1.00  0.00     0.031 A 
ATOM     53  C   UNL A   1      48.298  26.893  26.685  1.00  0.00     0.031 A 
ATOM     54  C   UNL A   1      42.933  30.004  28.723  1.00  0.00     0.049 A 
ATOM     55  C   UNL A   1      48.021  28.321  27.077  1.00  0.00     0.074 A 
ATOM     56  C   UNL A   1      42.793  31.341  29.048  1.00  0.00     0.029 A 
ATOM     57  N   UNL A   1      44.257  29.814  28.357  1.00  0.00    -0.354 N 
ATOM     58  N   UNL A   1      46.895  28.859  27.483  1.00  0.00    -0.248 NA
ATOM     59  C   UNL A   1      49.143  29.267  26.996  1.00  0.00     0.031 C 
ATOM     60  C   UNL A   1      44.022  31.972  28.829  1.00  0.00     0.029 A 
ATOM     61  C   UNL A   1      44.941  31.016  28.422  1.00  0.00     0.049 A 
ATOM     62  H   UNL A   1      44.653  28.953  28.092  1.00  0.00     0.167 HD
ATOM     63  C   UNL A   1      47.174  30.203  27.709  1.00  0.00     0.074 A 
ATOM     64  C   UNL A   1      48.580  30.394  27.414  1.00  0.00     0.031 C 
ATOM     65  C   UNL A   1      46.339  31.191  28.117  1.00  0.00     0.031 A 
BRANCH  52  66
ATOM     66  C   UNL A   1      40.509  29.338  29.056  1.00  0.00    -0.014 A 
ATOM     67  C   UNL A   1      39.581  29.649  28.047  1.00  0.00     0.010 A 
ATOM     68  C   UNL A   1      40.111  29.407  30.403  1.00  0.00     0.010 A 
ATOM     69  C   UNL A   1      38.297  30.088  28.384  1.00  0.00     0.020 A 
ATOM     70  C   UNL A   1      38.821  29.819  30.742  1.00  0.00     0.020 A 
ATOM     71  C   UNL A   1      37.932  30.186  29.730  1.00  0.00     0.054 A 
BRANCH  71  72
ATOM     72  S   UNL A   1      36.277  30.799  30.147  1.00  0.00     0.124 S 
ATOM     73  O   UNL A   1      35.503  30.387  28.978  1.00  0.00    -0.237 OA
ATOM     74  O   UNL A   1      35.970  30.087  31.385  1.00  0.00    -0.237 OA
ATOM     75  O   UNL A   1      36.467  32.240  30.292  1.00  0.00    -0.744 OA
ENDBRANCH  71  72
ENDBRANCH  52  66
BRANCH  53  76
ATOM     76  C   UNL A   1      49.652  26.468  26.234  1.00  0.00    -0.014 A 
ATOM     77  C   UNL A   1      50.090  26.740  24.927  1.00  0.00     0.010 A 
ATOM     78  C   UNL A   1      50.528  25.829  27.131  1.00  0.00     0.010 A 
ATOM     79  C   UNL A   1      51.384  26.386  24.525  1.00  0.00     0.020 A 
ATOM     80  C   UNL A   1      51.829  25.496  26.740  1.00  0.00     0.020 A 
ATOM     81  C   UNL A   1      52.247  25.773  25.437  1.00  0.00     0.054 A 
BRANCH  81  82
ATOM     82  S   UNL A   1      53.954  25.409  24.934  1.00  0.00     0.124 S 
ATOM     83  O   UNL A   1      53.992  25.948  23.578  1.00  0.00    -0.237 OA
ATOM     84  O   UNL A   1      54.745  26.134  25.925  1.00  0.00    -0.237 OA
ATOM     85  O   UNL A   1      54.033  23.953  25.032  1.00  0.00    -0.744 OA
ENDBRANCH  81  82
ENDBRANCH  53  76
BRANCH  65  86
ATOM     86  C   UNL A   1      46.909  32.575  28.277  1.00  0.00    -0.014 A 
ATOM     87  C   UNL A   1      46.857  33.506  27.224  1.00  0.00     0.010 A 
ATOM     88  C   UNL A   1      47.397  32.985  29.531  1.00  0.00     0.010 A 
ATOM     89  C   UNL A   1      47.289  34.820  27.421  1.00  0.00     0.020 A 
ATOM     90  C   UNL A   1      47.811  34.305  29.738  1.00  0.00     0.020 A 
ATOM     91  C   UNL A   1      47.758  35.213  28.679  1.00  0.00     0.054 A 
BRANCH  91  92
ATOM     92  S   UNL A   1      48.230  36.947  28.934  1.00  0.00     0.124 S 
ATOM     93  O   UNL A   1      48.263  37.043  30.390  1.00  0.00    -0.237 OA
ATOM     94  O   UNL A   1      49.528  37.028  28.268  1.00  0.00    -0.237 OA
ATOM     95  O   UNL A   1      47.157  37.696  28.284  1.00  0.00    -0.744 OA
ENDBRANCH  91  92
ENDBRANCH  65  86
ENDBRANCH  39  40
ENDBRANCH  32  34
ENDBRANCH  31  32
ENDBRANCH  30  31
ENDBRANCH   1  30
TORSDOF 19
ENDMDL
