MODEL 1
REMARK VINA RESULT:     -11.8      0.000      0.000
REMARK SMILES O=C(OCCOC(=O)c1cc(Cl)cc(Cl)c1NC(=S)NC(=O)c1cccc2ccccc12)c1ccc(-c2c3nc(c(-c4ccc(S(=O)(=O)[O-])cc4)c4ccc([nH]4)c(-c4ccc(S(=O)(=O)[O-])cc4)c4nc(c(-c5ccc(S(=O)(=O)[O-])cc5)c5ccc2[nH]5)C=C4)C=C3)cc1
REMARK SMILES IDX 5 1 4 2 3 3 2 4 1 5 33 6 34 7 92 8 35 9 91 10 36 11 37 12
REMARK SMILES IDX 38 13 85 14 39 15 90 16 84 17 86 18 40 19 89 20 83 21 82 22
REMARK SMILES IDX 41 24 71 25 52 26 70 27 53 28 56 29 69 30 87 31 54 32 55 33
REMARK SMILES IDX 68 35 88 36 57 37 42 38 43 39 51 40 44 41 50 42 45 43 46 44
REMARK SMILES IDX 47 45 48 46 49 47 72 48 73 49 81 50 74 51 80 52 75 53 76 54
REMARK SMILES IDX 77 55 78 56 79 57 58 58 59 59 67 60 60 61 66 62 61 63 62 64
REMARK SMILES IDX 63 65 64 66 65 67 6 68 7 69 8 70 9 71 10 72 16 73 11 74
REMARK SMILES IDX 14 75 12 76 13 77 15 78 17 79 18 81 19 82 20 83 21 84 22 86
REMARK SMILES IDX 23 87 24 88 32 89 25 90 27 91 31 92 26 93 28 94 30 95 29 96
REMARK H PARENT 86 23 56 34 17 80 20 85
REMARK Flexibility Score: inf
ROOT
ATOM      1  C   UNL A   1      38.678  21.291  25.635  1.00  0.00     0.275 C 
ENDROOT
BRANCH   1   2
ATOM      2  C   UNL A   1      39.590  20.070  25.788  1.00  0.00     0.275 C 
BRANCH   2   3
ATOM      3  O   UNL A   1      40.805  20.326  26.493  1.00  0.00    -0.458 OA
BRANCH   3   4
ATOM      4  C   UNL A   1      41.853  21.095  26.130  1.00  0.00     0.338 C 
ATOM      5  O   UNL A   1      42.674  20.590  25.365  1.00  0.00    -0.246 OA
BRANCH   4   6
ATOM      6  C   UNL A   1      42.150  22.475  26.668  1.00  0.00     0.060 A 
ATOM      7  C   UNL A   1      42.972  23.487  26.158  1.00  0.00     0.016 A 
ATOM      8  C   UNL A   1      41.477  22.772  27.852  1.00  0.00     0.016 A 
ATOM      9  C   UNL A   1      43.111  24.740  26.811  1.00  0.00     0.010 A 
ATOM     10  C   UNL A   1      41.495  24.045  28.416  1.00  0.00     0.010 A 
ATOM     11  C   UNL A   1      42.377  25.031  27.958  1.00  0.00    -0.014 A 
BRANCH  11  12
ATOM     12  C   UNL A   1      42.600  26.192  28.883  1.00  0.00     0.031 A 
ATOM     13  C   UNL A   1      43.439  25.895  30.110  1.00  0.00     0.074 A 
ATOM     14  C   UNL A   1      41.970  27.381  28.779  1.00  0.00     0.049 A 
ATOM     15  N   UNL A   1      43.413  26.435  31.298  1.00  0.00    -0.248 NA
ATOM     16  C   UNL A   1      44.355  24.738  29.996  1.00  0.00     0.031 C 
ATOM     17  C   UNL A   1      41.138  27.832  27.663  1.00  0.00     0.029 A 
ATOM     18  N   UNL A   1      41.815  28.379  29.728  1.00  0.00    -0.354 N 
ATOM     19  C   UNL A   1      44.297  25.670  32.055  1.00  0.00     0.074 A 
ATOM     20  C   UNL A   1      44.648  24.516  31.265  1.00  0.00     0.031 C 
ATOM     21  C   UNL A   1      40.429  28.909  28.051  1.00  0.00     0.029 A 
ATOM     22  C   UNL A   1      40.727  29.190  29.453  1.00  0.00     0.049 A 
ATOM     23  H   UNL A   1      42.410  28.498  30.504  1.00  0.00     0.167 HD
ATOM     24  C   UNL A   1      44.880  25.963  33.241  1.00  0.00     0.031 A 
ATOM     25  C   UNL A   1      39.971  29.944  30.282  1.00  0.00     0.031 A 
ATOM     26  C   UNL A   1      44.580  27.163  33.962  1.00  0.00     0.049 A 
ATOM     27  C   UNL A   1      40.442  30.166  31.693  1.00  0.00     0.074 A 
ATOM     28  C   UNL A   1      45.236  27.722  35.040  1.00  0.00     0.029 A 
ATOM     29  N   UNL A   1      43.521  27.999  33.648  1.00  0.00    -0.354 N 
ATOM     30  N   UNL A   1      41.386  29.540  32.354  1.00  0.00    -0.248 NA
ATOM     31  C   UNL A   1      39.808  31.266  32.431  1.00  0.00     0.031 C 
ATOM     32  C   UNL A   1      44.548  28.887  35.400  1.00  0.00     0.029 A 
ATOM     33  C   UNL A   1      43.499  29.073  34.510  1.00  0.00     0.049 A 
ATOM     34  H   UNL A   1      42.879  27.847  32.917  1.00  0.00     0.167 HD
ATOM     35  C   UNL A   1      41.564  30.273  33.524  1.00  0.00     0.074 A 
ATOM     36  C   UNL A   1      40.558  31.314  33.525  1.00  0.00     0.031 C 
ATOM     37  C   UNL A   1      42.534  30.141  34.461  1.00  0.00     0.031 A 
BRANCH  24  38
ATOM     38  C   UNL A   1      45.968  25.037  33.729  1.00  0.00    -0.014 A 
ATOM     39  C   UNL A   1      45.645  23.908  34.511  1.00  0.00     0.010 A 
ATOM     40  C   UNL A   1      47.318  25.284  33.430  1.00  0.00     0.010 A 
ATOM     41  C   UNL A   1      46.643  23.118  35.079  1.00  0.00     0.020 A 
ATOM     42  C   UNL A   1      48.324  24.462  33.957  1.00  0.00     0.020 A 
ATOM     43  C   UNL A   1      47.979  23.407  34.806  1.00  0.00     0.054 A 
BRANCH  43  44
ATOM     44  S   UNL A   1      49.252  22.369  35.572  1.00  0.00     0.124 S 
ATOM     45  O   UNL A   1      49.173  21.152  34.767  1.00  0.00    -0.237 OA
ATOM     46  O   UNL A   1      50.466  23.162  35.388  1.00  0.00    -0.237 OA
ATOM     47  O   UNL A   1      48.804  22.234  36.956  1.00  0.00    -0.744 OA
ENDBRANCH  43  44
ENDBRANCH  24  38
BRANCH  25  48
ATOM     48  C   UNL A   1      38.661  30.507  29.842  1.00  0.00    -0.014 A 
ATOM     49  C   UNL A   1      37.496  29.727  29.849  1.00  0.00     0.010 A 
ATOM     50  C   UNL A   1      38.579  31.835  29.376  1.00  0.00     0.010 A 
ATOM     51  C   UNL A   1      36.277  30.269  29.423  1.00  0.00     0.020 A 
ATOM     52  C   UNL A   1      37.359  32.393  28.978  1.00  0.00     0.020 A 
ATOM     53  C   UNL A   1      36.211  31.603  29.006  1.00  0.00     0.054 A 
BRANCH  53  54
ATOM     54  S   UNL A   1      34.597  32.291  28.537  1.00  0.00     0.124 S 
ATOM     55  O   UNL A   1      33.941  31.142  27.922  1.00  0.00    -0.237 OA
ATOM     56  O   UNL A   1      34.058  32.711  29.828  1.00  0.00    -0.237 OA
ATOM     57  O   UNL A   1      34.936  33.382  27.626  1.00  0.00    -0.744 OA
ENDBRANCH  53  54
ENDBRANCH  25  48
BRANCH  37  58
ATOM     58  C   UNL A   1      42.721  31.260  35.444  1.00  0.00    -0.014 A 
ATOM     59  C   UNL A   1      42.168  31.241  36.731  1.00  0.00     0.010 A 
ATOM     60  C   UNL A   1      43.595  32.305  35.078  1.00  0.00     0.010 A 
ATOM     61  C   UNL A   1      42.500  32.246  37.645  1.00  0.00     0.020 A 
ATOM     62  C   UNL A   1      43.950  33.291  35.994  1.00  0.00     0.020 A 
ATOM     63  C   UNL A   1      43.399  33.255  37.275  1.00  0.00     0.054 A 
BRANCH  63  64
ATOM     64  S   UNL A   1      43.906  34.478  38.514  1.00  0.00     0.124 S 
ATOM     65  O   UNL A   1      45.320  34.661  38.198  1.00  0.00    -0.237 OA
ATOM     66  O   UNL A   1      43.041  35.615  38.211  1.00  0.00    -0.237 OA
ATOM     67  O   UNL A   1      43.632  33.816  39.788  1.00  0.00    -0.744 OA
ENDBRANCH  63  64
ENDBRANCH  37  58
ENDBRANCH  11  12
ENDBRANCH   4   6
ENDBRANCH   3   4
ENDBRANCH   2   3
ENDBRANCH   1   2
BRANCH   1  68
ATOM     68  O   UNL A   1      37.409  20.987  25.038  1.00  0.00    -0.458 OA
BRANCH  68  69
ATOM     69  C   UNL A   1      36.607  22.039  24.707  1.00  0.00     0.340 C 
ATOM     70  O   UNL A   1      36.945  23.174  24.432  1.00  0.00    -0.246 OA
BRANCH  69  71
ATOM     71  C   UNL A   1      35.234  21.517  24.629  1.00  0.00     0.086 A 
ATOM     72  C   UNL A   1      35.011  20.138  24.633  1.00  0.00     0.038 A 
ATOM     73  C   UNL A   1      34.107  22.320  24.586  1.00  0.00     0.074 A 
ATOM     74  C   UNL A   1      33.643  19.627  24.631  1.00  0.00     0.043 A 
ATOM     75  C   UNL A   1      33.103  21.876  23.773  1.00  0.00     0.066 A 
ATOM     76  Cl  UNL A   1      32.574  17.981  26.124  1.00  0.00    -0.084 Cl
ATOM     77  C   UNL A   1      32.998  20.510  23.643  1.00  0.00     0.043 A 
ATOM     78  Cl  UNL A   1      31.882  22.900  23.104  1.00  0.00    -0.082 Cl
BRANCH  73  79
ATOM     79  N   UNL A   1      33.839  23.248  25.598  1.00  0.00    -0.330 N 
ATOM     80  H   UNL A   1      34.425  24.039  25.635  1.00  0.00     0.169 HD
BRANCH  79  81
ATOM     81  C   UNL A   1      32.857  23.178  26.538  1.00  0.00     0.177 C 
ATOM     82  S   UNL A   1      33.119  22.204  27.877  1.00  0.00    -0.040 S 
BRANCH  81  83
ATOM     83  N   UNL A   1      31.624  23.849  26.465  1.00  0.00    -0.299 N 
ATOM     84  C   UNL A   1      30.882  25.054  26.241  1.00  0.00     0.258 C 
ATOM     85  H   UNL A   1      30.947  23.161  26.660  1.00  0.00     0.172 HD
ATOM     86  O   UNL A   1      29.711  25.099  26.617  1.00  0.00    -0.269 OA
BRANCH  84  87
ATOM     87  C   UNL A   1      31.451  26.261  25.611  1.00  0.00     0.048 A 
ATOM     88  C   UNL A   1      33.028  26.901  26.218  1.00  0.00     0.014 A 
ATOM     89  C   UNL A   1      30.406  27.217  24.413  1.00  0.00    -0.006 A 
ATOM     90  C   UNL A   1      33.627  28.518  25.669  1.00  0.00     0.001 A 
ATOM     91  C   UNL A   1      30.935  28.923  24.013  1.00  0.00    -0.018 A 
ATOM     92  C   UNL A   1      29.172  26.857  23.839  1.00  0.00     0.009 A 
ATOM     93  C   UNL A   1      32.547  29.550  24.621  1.00  0.00     0.009 A 
ATOM     94  C   UNL A   1      30.036  29.691  23.312  1.00  0.00     0.009 A 
ATOM     95  C   UNL A   1      28.386  27.828  23.188  1.00  0.00     0.001 A 
ATOM     96  C   UNL A   1      28.785  29.169  22.968  1.00  0.00     0.001 A 
ENDBRANCH  84  87
ENDBRANCH  81  83
ENDBRANCH  79  81
ENDBRANCH  73  79
ENDBRANCH  69  71
ENDBRANCH  68  69
ENDBRANCH   1  68
TORSDOF 18
ENDMDL
MODEL 2
REMARK VINA RESULT:     -11.8      1.601      2.333
REMARK SMILES O=C(OCCOC(=O)c1cc(Cl)cc(Cl)c1NC(=S)NC(=O)c1cccc2ccccc12)c1ccc(-c2c3nc(c(-c4ccc(S(=O)(=O)[O-])cc4)c4ccc([nH]4)c(-c4ccc(S(=O)(=O)[O-])cc4)c4nc(c(-c5ccc(S(=O)(=O)[O-])cc5)c5ccc2[nH]5)C=C4)C=C3)cc1
REMARK SMILES IDX 5 1 4 2 3 3 2 4 1 5 33 6 34 7 92 8 35 9 91 10 36 11 37 12
REMARK SMILES IDX 38 13 85 14 39 15 90 16 84 17 86 18 40 19 89 20 83 21 82 22
REMARK SMILES IDX 41 24 71 25 52 26 70 27 53 28 56 29 69 30 87 31 54 32 55 33
REMARK SMILES IDX 68 35 88 36 57 37 42 38 43 39 51 40 44 41 50 42 45 43 46 44
REMARK SMILES IDX 47 45 48 46 49 47 72 48 73 49 81 50 74 51 80 52 75 53 76 54
REMARK SMILES IDX 77 55 78 56 79 57 58 58 59 59 67 60 60 61 66 62 61 63 62 64
REMARK SMILES IDX 63 65 64 66 65 67 6 68 7 69 8 70 9 71 10 72 16 73 11 74
REMARK SMILES IDX 14 75 12 76 13 77 15 78 17 79 18 81 19 82 20 83 21 84 22 86
REMARK SMILES IDX 23 87 24 88 32 89 25 90 27 91 31 92 26 93 28 94 30 95 29 96
REMARK H PARENT 86 23 56 34 17 80 20 85
REMARK Flexibility Score: inf
ROOT
ATOM      1  C   UNL A   1      37.964  21.501  24.726  1.00  0.00     0.275 C 
ENDROOT
BRANCH   1   2
ATOM      2  C   UNL A   1      38.738  21.918  25.980  1.00  0.00     0.275 C 
BRANCH   2   3
ATOM      3  O   UNL A   1      39.995  21.261  26.142  1.00  0.00    -0.458 OA
BRANCH   3   4
ATOM      4  C   UNL A   1      41.238  21.783  26.105  1.00  0.00     0.338 C 
ATOM      5  O   UNL A   1      42.137  21.046  25.699  1.00  0.00    -0.246 OA
BRANCH   4   6
ATOM      6  C   UNL A   1      41.627  23.150  26.616  1.00  0.00     0.060 A 
ATOM      7  C   UNL A   1      42.555  24.071  26.118  1.00  0.00     0.016 A 
ATOM      8  C   UNL A   1      40.927  23.542  27.756  1.00  0.00     0.016 A 
ATOM      9  C   UNL A   1      42.770  25.329  26.740  1.00  0.00     0.010 A 
ATOM     10  C   UNL A   1      41.027  24.826  28.282  1.00  0.00     0.010 A 
ATOM     11  C   UNL A   1      42.011  25.720  27.841  1.00  0.00    -0.014 A 
BRANCH  11  12
ATOM     12  C   UNL A   1      42.288  26.888  28.740  1.00  0.00     0.031 A 
ATOM     13  C   UNL A   1      43.166  26.591  29.940  1.00  0.00     0.074 A 
ATOM     14  C   UNL A   1      41.677  28.087  28.643  1.00  0.00     0.049 A 
ATOM     15  N   UNL A   1      43.194  27.146  31.121  1.00  0.00    -0.248 NA
ATOM     16  C   UNL A   1      44.056  25.416  29.808  1.00  0.00     0.031 C 
ATOM     17  C   UNL A   1      40.812  28.538  27.553  1.00  0.00     0.029 A 
ATOM     18  N   UNL A   1      41.575  29.100  29.584  1.00  0.00    -0.354 N 
ATOM     19  C   UNL A   1      44.091  26.375  31.855  1.00  0.00     0.074 A 
ATOM     20  C   UNL A   1      44.392  25.205  31.069  1.00  0.00     0.031 C 
ATOM     21  C   UNL A   1      40.137  29.633  27.952  1.00  0.00     0.029 A 
ATOM     22  C   UNL A   1      40.492  29.927  29.338  1.00  0.00     0.049 A 
ATOM     23  H   UNL A   1      42.199  29.217  30.336  1.00  0.00     0.167 HD
ATOM     24  C   UNL A   1      44.722  26.673  33.016  1.00  0.00     0.031 A 
ATOM     25  C   UNL A   1      39.781  30.706  30.184  1.00  0.00     0.031 A 
ATOM     26  C   UNL A   1      44.471  27.887  33.731  1.00  0.00     0.049 A 
ATOM     27  C   UNL A   1      40.307  30.936  31.573  1.00  0.00     0.074 A 
ATOM     28  C   UNL A   1      45.176  28.448  34.777  1.00  0.00     0.029 A 
ATOM     29  N   UNL A   1      43.416  28.738  33.444  1.00  0.00    -0.354 N 
ATOM     30  N   UNL A   1      41.263  30.302  32.208  1.00  0.00    -0.248 NA
ATOM     31  C   UNL A   1      39.721  32.058  32.320  1.00  0.00     0.031 C 
ATOM     32  C   UNL A   1      44.522  29.630  35.145  1.00  0.00     0.029 A 
ATOM     33  C   UNL A   1      43.446  29.823  34.292  1.00  0.00     0.049 A 
ATOM     34  H   UNL A   1      42.745  28.589  32.739  1.00  0.00     0.167 HD
ATOM     35  C   UNL A   1      41.497  31.046  33.361  1.00  0.00     0.074 A 
ATOM     36  C   UNL A   1      40.511  32.106  33.385  1.00  0.00     0.031 C 
ATOM     37  C   UNL A   1      42.499  30.908  34.263  1.00  0.00     0.031 A 
BRANCH  24  38
ATOM     38  C   UNL A   1      45.811  25.732  33.475  1.00  0.00    -0.014 A 
ATOM     39  C   UNL A   1      47.168  26.058  33.265  1.00  0.00     0.010 A 
ATOM     40  C   UNL A   1      45.501  24.515  34.103  1.00  0.00     0.010 A 
ATOM     41  C   UNL A   1      48.179  25.146  33.562  1.00  0.00     0.020 A 
ATOM     42  C   UNL A   1      46.518  23.616  34.451  1.00  0.00     0.020 A 
ATOM     43  C   UNL A   1      47.847  23.924  34.144  1.00  0.00     0.054 A 
BRANCH  43  44
ATOM     44  S   UNL A   1      49.185  22.756  34.504  1.00  0.00     0.124 S 
ATOM     45  O   UNL A   1      48.469  21.483  34.550  1.00  0.00    -0.237 OA
ATOM     46  O   UNL A   1      50.077  22.930  33.360  1.00  0.00    -0.237 OA
ATOM     47  O   UNL A   1      49.718  23.222  35.782  1.00  0.00    -0.744 OA
ENDBRANCH  43  44
ENDBRANCH  24  38
BRANCH  25  48
ATOM     48  C   UNL A   1      38.466  31.287  29.784  1.00  0.00    -0.014 A 
ATOM     49  C   UNL A   1      38.372  32.591  29.277  1.00  0.00     0.010 A 
ATOM     50  C   UNL A   1      37.282  30.538  29.940  1.00  0.00     0.010 A 
ATOM     51  C   UNL A   1      37.128  33.123  28.915  1.00  0.00     0.020 A 
ATOM     52  C   UNL A   1      36.039  31.052  29.551  1.00  0.00     0.020 A 
ATOM     53  C   UNL A   1      35.971  32.345  29.038  1.00  0.00     0.054 A 
BRANCH  53  54
ATOM     54  S   UNL A   1      34.388  33.043  28.484  1.00  0.00     0.124 S 
ATOM     55  O   UNL A   1      33.827  33.556  29.730  1.00  0.00    -0.237 OA
ATOM     56  O   UNL A   1      34.822  34.054  27.522  1.00  0.00    -0.237 OA
ATOM     57  O   UNL A   1      33.688  31.900  27.904  1.00  0.00    -0.744 OA
ENDBRANCH  53  54
ENDBRANCH  25  48
BRANCH  37  58
ATOM     58  C   UNL A   1      42.742  32.037  35.223  1.00  0.00    -0.014 A 
ATOM     59  C   UNL A   1      43.486  33.174  34.885  1.00  0.00     0.010 A 
ATOM     60  C   UNL A   1      42.079  31.984  36.467  1.00  0.00     0.010 A 
ATOM     61  C   UNL A   1      43.554  34.251  35.775  1.00  0.00     0.020 A 
ATOM     62  C   UNL A   1      42.120  33.066  37.343  1.00  0.00     0.020 A 
ATOM     63  C   UNL A   1      42.858  34.195  36.990  1.00  0.00     0.054 A 
BRANCH  63  64
ATOM     64  S   UNL A   1      42.862  35.649  38.073  1.00  0.00     0.124 S 
ATOM     65  O   UNL A   1      44.130  35.498  38.780  1.00  0.00    -0.237 OA
ATOM     66  O   UNL A   1      42.800  36.755  37.120  1.00  0.00    -0.237 OA
ATOM     67  O   UNL A   1      41.665  35.475  38.893  1.00  0.00    -0.744 OA
ENDBRANCH  63  64
ENDBRANCH  37  58
ENDBRANCH  11  12
ENDBRANCH   4   6
ENDBRANCH   3   4
ENDBRANCH   2   3
ENDBRANCH   1   2
BRANCH   1  68
ATOM     68  O   UNL A   1      36.694  20.896  25.011  1.00  0.00    -0.458 OA
BRANCH  68  69
ATOM     69  C   UNL A   1      36.617  19.537  24.927  1.00  0.00     0.340 C 
ATOM     70  O   UNL A   1      37.525  18.733  25.019  1.00  0.00    -0.246 OA
BRANCH  69  71
ATOM     71  C   UNL A   1      35.190  19.199  24.816  1.00  0.00     0.086 A 
ATOM     72  C   UNL A   1      34.805  17.918  24.412  1.00  0.00     0.038 A 
ATOM     73  C   UNL A   1      34.166  20.078  25.126  1.00  0.00     0.074 A 
ATOM     74  C   UNL A   1      33.388  17.567  24.376  1.00  0.00     0.043 A 
ATOM     75  C   UNL A   1      33.072  20.012  24.311  1.00  0.00     0.066 A 
ATOM     76  Cl  UNL A   1      32.217  15.641  25.375  1.00  0.00    -0.084 Cl
ATOM     77  C   UNL A   1      32.798  18.776  23.773  1.00  0.00     0.043 A 
ATOM     78  Cl  UNL A   1      31.945  21.307  24.106  1.00  0.00    -0.082 Cl
BRANCH  73  79
ATOM     79  N   UNL A   1      34.066  20.656  26.397  1.00  0.00    -0.330 N 
ATOM     80  H   UNL A   1      34.065  20.036  27.162  1.00  0.00     0.169 HD
BRANCH  79  81
ATOM     81  C   UNL A   1      33.971  21.981  26.691  1.00  0.00     0.177 C 
ATOM     82  S   UNL A   1      32.660  22.492  27.602  1.00  0.00    -0.040 S 
BRANCH  81  83
ATOM     83  N   UNL A   1      34.883  22.965  26.272  1.00  0.00    -0.299 N 
ATOM     84  C   UNL A   1      35.227  24.037  25.385  1.00  0.00     0.258 C 
ATOM     85  H   UNL A   1      35.653  22.876  26.879  1.00  0.00     0.172 HD
ATOM     86  O   UNL A   1      36.405  24.387  25.319  1.00  0.00    -0.269 OA
BRANCH  84  87
ATOM     87  C   UNL A   1      34.253  24.728  24.519  1.00  0.00     0.048 A 
ATOM     88  C   UNL A   1      33.845  24.004  22.914  1.00  0.00     0.014 A 
ATOM     89  C   UNL A   1      33.692  26.432  24.992  1.00  0.00    -0.006 A 
ATOM     90  C   UNL A   1      32.874  24.945  21.711  1.00  0.00     0.001 A 
ATOM     91  C   UNL A   1      32.872  27.435  23.699  1.00  0.00    -0.018 A 
ATOM     92  C   UNL A   1      33.910  27.128  26.196  1.00  0.00     0.009 A 
ATOM     93  C   UNL A   1      32.448  26.680  22.082  1.00  0.00     0.009 A 
ATOM     94  C   UNL A   1      32.672  28.762  23.993  1.00  0.00     0.009 A 
ATOM     95  C   UNL A   1      33.668  28.514  26.263  1.00  0.00     0.001 A 
ATOM     96  C   UNL A   1      33.112  29.285  25.213  1.00  0.00     0.001 A 
ENDBRANCH  84  87
ENDBRANCH  81  83
ENDBRANCH  79  81
ENDBRANCH  73  79
ENDBRANCH  69  71
ENDBRANCH  68  69
ENDBRANCH   1  68
TORSDOF 18
ENDMDL
MODEL 3
REMARK VINA RESULT:     -11.6      5.090      5.924
REMARK SMILES O=C(OCCOC(=O)c1cc(Cl)cc(Cl)c1NC(=S)NC(=O)c1cccc2ccccc12)c1ccc(-c2c3nc(c(-c4ccc(S(=O)(=O)[O-])cc4)c4ccc([nH]4)c(-c4ccc(S(=O)(=O)[O-])cc4)c4nc(c(-c5ccc(S(=O)(=O)[O-])cc5)c5ccc2[nH]5)C=C4)C=C3)cc1
REMARK SMILES IDX 5 1 4 2 3 3 2 4 1 5 33 6 34 7 92 8 35 9 91 10 36 11 37 12
REMARK SMILES IDX 38 13 85 14 39 15 90 16 84 17 86 18 40 19 89 20 83 21 82 22
REMARK SMILES IDX 41 24 71 25 52 26 70 27 53 28 56 29 69 30 87 31 54 32 55 33
REMARK SMILES IDX 68 35 88 36 57 37 42 38 43 39 51 40 44 41 50 42 45 43 46 44
REMARK SMILES IDX 47 45 48 46 49 47 72 48 73 49 81 50 74 51 80 52 75 53 76 54
REMARK SMILES IDX 77 55 78 56 79 57 58 58 59 59 67 60 60 61 66 62 61 63 62 64
REMARK SMILES IDX 63 65 64 66 65 67 6 68 7 69 8 70 9 71 10 72 16 73 11 74
REMARK SMILES IDX 14 75 12 76 13 77 15 78 17 79 18 81 19 82 20 83 21 84 22 86
REMARK SMILES IDX 23 87 24 88 32 89 25 90 27 91 31 92 26 93 28 94 30 95 29 96
REMARK H PARENT 86 23 56 34 17 80 20 85
REMARK Flexibility Score: inf
ROOT
ATOM      1  C   UNL A   1      38.848  20.929  25.421  1.00  0.00     0.275 C 
ENDROOT
BRANCH   1   2
ATOM      2  C   UNL A   1      39.569  19.614  25.732  1.00  0.00     0.275 C 
BRANCH   2   3
ATOM      3  O   UNL A   1      40.626  19.732  26.684  1.00  0.00    -0.458 OA
BRANCH   3   4
ATOM      4  C   UNL A   1      41.912  20.091  26.487  1.00  0.00     0.338 C 
ATOM      5  O   UNL A   1      42.686  19.204  26.128  1.00  0.00    -0.246 OA
BRANCH   4   6
ATOM      6  C   UNL A   1      42.490  21.456  26.774  1.00  0.00     0.060 A 
ATOM      7  C   UNL A   1      42.914  22.022  27.982  1.00  0.00     0.016 A 
ATOM      8  C   UNL A   1      42.630  22.255  25.641  1.00  0.00     0.016 A 
ATOM      9  C   UNL A   1      43.453  23.335  28.046  1.00  0.00     0.010 A 
ATOM     10  C   UNL A   1      43.289  23.481  25.675  1.00  0.00     0.010 A 
ATOM     11  C   UNL A   1      43.638  24.086  26.889  1.00  0.00    -0.014 A 
BRANCH  11  12
ATOM     12  C   UNL A   1      43.955  25.552  26.824  1.00  0.00     0.031 A 
ATOM     13  C   UNL A   1      45.431  25.897  26.779  1.00  0.00     0.074 A 
ATOM     14  C   UNL A   1      43.046  26.536  26.982  1.00  0.00     0.049 A 
ATOM     15  N   UNL A   1      46.062  26.953  27.215  1.00  0.00    -0.248 NA
ATOM     16  C   UNL A   1      46.323  24.831  26.269  1.00  0.00     0.031 C 
ATOM     17  C   UNL A   1      41.592  26.380  27.033  1.00  0.00     0.029 A 
ATOM     18  N   UNL A   1      43.243  27.873  27.290  1.00  0.00    -0.354 N 
ATOM     19  C   UNL A   1      47.411  26.659  27.036  1.00  0.00     0.074 A 
ATOM     20  C   UNL A   1      47.502  25.265  26.681  1.00  0.00     0.031 C 
ATOM     21  C   UNL A   1      41.046  27.510  27.519  1.00  0.00     0.029 A 
ATOM     22  C   UNL A   1      42.116  28.445  27.854  1.00  0.00     0.049 A 
ATOM     23  H   UNL A   1      44.084  28.357  27.124  1.00  0.00     0.167 HD
ATOM     24  C   UNL A   1      48.474  27.498  27.028  1.00  0.00     0.031 A 
ATOM     25  C   UNL A   1      41.999  29.513  28.675  1.00  0.00     0.031 A 
ATOM     26  C   UNL A   1      48.342  28.899  27.294  1.00  0.00     0.049 A 
ATOM     27  C   UNL A   1      43.194  30.400  28.885  1.00  0.00     0.074 A 
ATOM     28  C   UNL A   1      49.255  29.915  27.101  1.00  0.00     0.029 A 
ATOM     29  N   UNL A   1      47.191  29.473  27.809  1.00  0.00    -0.354 N 
ATOM     30  N   UNL A   1      44.449  30.181  28.574  1.00  0.00    -0.248 NA
ATOM     31  C   UNL A   1      42.935  31.724  29.468  1.00  0.00     0.031 C 
ATOM     32  C   UNL A   1      48.662  31.107  27.533  1.00  0.00     0.029 A 
ATOM     33  C   UNL A   1      47.366  30.833  27.944  1.00  0.00     0.049 A 
ATOM     34  H   UNL A   1      46.371  28.982  28.045  1.00  0.00     0.167 HD
ATOM     35  C   UNL A   1      45.098  31.395  28.778  1.00  0.00     0.074 A 
ATOM     36  C   UNL A   1      44.122  32.304  29.342  1.00  0.00     0.031 C 
ATOM     37  C   UNL A   1      46.364  31.740  28.442  1.00  0.00     0.031 A 
BRANCH  24  38
ATOM     38  C   UNL A   1      49.804  26.930  26.594  1.00  0.00    -0.014 A 
ATOM     39  C   UNL A   1      50.136  26.860  25.225  1.00  0.00     0.010 A 
ATOM     40  C   UNL A   1      50.729  26.448  27.535  1.00  0.00     0.010 A 
ATOM     41  C   UNL A   1      51.299  26.220  24.799  1.00  0.00     0.020 A 
ATOM     42  C   UNL A   1      51.924  25.849  27.115  1.00  0.00     0.020 A 
ATOM     43  C   UNL A   1      52.182  25.708  25.749  1.00  0.00     0.054 A 
BRANCH  43  44
ATOM     44  S   UNL A   1      53.677  24.870  25.161  1.00  0.00     0.124 S 
ATOM     45  O   UNL A   1      53.950  25.580  23.914  1.00  0.00    -0.237 OA
ATOM     46  O   UNL A   1      54.629  25.117  26.242  1.00  0.00    -0.237 OA
ATOM     47  O   UNL A   1      53.258  23.478  25.010  1.00  0.00    -0.744 OA
ENDBRANCH  43  44
ENDBRANCH  24  38
BRANCH  25  48
ATOM     48  C   UNL A   1      40.733  29.788  29.415  1.00  0.00    -0.014 A 
ATOM     49  C   UNL A   1      39.678  30.491  28.814  1.00  0.00     0.010 A 
ATOM     50  C   UNL A   1      40.586  29.370  30.753  1.00  0.00     0.010 A 
ATOM     51  C   UNL A   1      38.500  30.748  29.527  1.00  0.00     0.020 A 
ATOM     52  C   UNL A   1      39.400  29.596  31.461  1.00  0.00     0.020 A 
ATOM     53  C   UNL A   1      38.360  30.285  30.840  1.00  0.00     0.054 A 
BRANCH  53  54
ATOM     54  S   UNL A   1      36.788  30.570  31.702  1.00  0.00     0.124 S 
ATOM     55  O   UNL A   1      35.849  30.705  30.592  1.00  0.00    -0.237 OA
ATOM     56  O   UNL A   1      36.653  29.352  32.499  1.00  0.00    -0.237 OA
ATOM     57  O   UNL A   1      37.029  31.787  32.472  1.00  0.00    -0.744 OA
ENDBRANCH  53  54
ENDBRANCH  25  48
BRANCH  37  58
ATOM     58  C   UNL A   1      46.721  33.198  28.445  1.00  0.00    -0.014 A 
ATOM     59  C   UNL A   1      47.367  33.819  29.523  1.00  0.00     0.010 A 
ATOM     60  C   UNL A   1      46.501  33.922  27.256  1.00  0.00     0.010 A 
ATOM     61  C   UNL A   1      47.800  35.143  29.404  1.00  0.00     0.020 A 
ATOM     62  C   UNL A   1      46.956  35.232  27.123  1.00  0.00     0.020 A 
ATOM     63  C   UNL A   1      47.604  35.835  28.201  1.00  0.00     0.054 A 
BRANCH  63  64
ATOM     64  S   UNL A   1      48.281  37.508  28.029  1.00  0.00     0.124 S 
ATOM     65  O   UNL A   1      47.529  38.024  26.889  1.00  0.00    -0.237 OA
ATOM     66  O   UNL A   1      47.962  38.114  29.320  1.00  0.00    -0.237 OA
ATOM     67  O   UNL A   1      49.705  37.285  27.788  1.00  0.00    -0.744 OA
ENDBRANCH  63  64
ENDBRANCH  37  58
ENDBRANCH  11  12
ENDBRANCH   4   6
ENDBRANCH   3   4
ENDBRANCH   2   3
ENDBRANCH   1   2
BRANCH   1  68
ATOM     68  O   UNL A   1      37.535  20.746  24.870  1.00  0.00    -0.458 OA
BRANCH  68  69
ATOM     69  C   UNL A   1      36.763  21.860  24.716  1.00  0.00     0.340 C 
ATOM     70  O   UNL A   1      37.134  23.010  24.584  1.00  0.00    -0.246 OA
BRANCH  69  71
ATOM     71  C   UNL A   1      35.369  21.398  24.621  1.00  0.00     0.086 A 
ATOM     72  C   UNL A   1      35.084  20.031  24.647  1.00  0.00     0.038 A 
ATOM     73  C   UNL A   1      34.281  22.250  24.540  1.00  0.00     0.074 A 
ATOM     74  C   UNL A   1      33.694  19.582  24.628  1.00  0.00     0.043 A 
ATOM     75  C   UNL A   1      33.273  21.835  23.717  1.00  0.00     0.066 A 
ATOM     76  Cl  UNL A   1      32.524  18.016  26.132  1.00  0.00    -0.084 Cl
ATOM     77  C   UNL A   1      33.108  20.474  23.611  1.00  0.00     0.043 A 
ATOM     78  Cl  UNL A   1      32.112  22.899  23.005  1.00  0.00    -0.082 Cl
BRANCH  73  79
ATOM     79  N   UNL A   1      34.036  23.210  25.530  1.00  0.00    -0.330 N 
ATOM     80  H   UNL A   1      34.661  23.970  25.567  1.00  0.00     0.169 HD
BRANCH  79  81
ATOM     81  C   UNL A   1      33.030  23.206  26.446  1.00  0.00     0.177 C 
ATOM     82  S   UNL A   1      33.190  22.210  27.785  1.00  0.00    -0.040 S 
BRANCH  81  83
ATOM     83  N   UNL A   1      31.851  23.965  26.348  1.00  0.00    -0.299 N 
ATOM     84  C   UNL A   1      31.195  25.239  26.354  1.00  0.00     0.258 C 
ATOM     85  H   UNL A   1      31.133  23.306  26.207  1.00  0.00     0.172 HD
ATOM     86  O   UNL A   1      29.973  25.267  26.507  1.00  0.00    -0.269 OA
BRANCH  84  87
ATOM     87  C   UNL A   1      31.903  26.526  26.218  1.00  0.00     0.048 A 
ATOM     88  C   UNL A   1      31.690  27.778  27.504  1.00  0.00     0.014 A 
ATOM     89  C   UNL A   1      32.763  26.906  24.619  1.00  0.00    -0.006 A 
ATOM     90  C   UNL A   1      32.313  29.458  27.251  1.00  0.00     0.001 A 
ATOM     91  C   UNL A   1      33.221  28.650  24.306  1.00  0.00    -0.018 A 
ATOM     92  C   UNL A   1      33.020  26.048  23.533  1.00  0.00     0.009 A 
ATOM     93  C   UNL A   1      33.016  29.905  25.628  1.00  0.00     0.009 A 
ATOM     94  C   UNL A   1      33.644  28.950  23.033  1.00  0.00     0.009 A 
ATOM     95  C   UNL A   1      33.416  26.582  22.291  1.00  0.00     0.001 A 
ATOM     96  C   UNL A   1      33.680  27.953  22.053  1.00  0.00     0.001 A 
ENDBRANCH  84  87
ENDBRANCH  81  83
ENDBRANCH  79  81
ENDBRANCH  73  79
ENDBRANCH  69  71
ENDBRANCH  68  69
ENDBRANCH   1  68
TORSDOF 18
ENDMDL
