MODEL 1
REMARK VINA RESULT:     -11.0      0.000      0.000
REMARK SMILES C[C@@H](C(=O)OCCOC(=O)c1ccc(-c2c3nc(c(-c4ccc(S(=O)(=O)[O-])cc4)c4ccc([nH]4)c(-c4ccc(S(=O)(=O)[O-])cc4)c4nc(c(-c5ccc(S(=O)(=O)[O-])cc5)c5ccc2[nH]5)C=C4)C=C3)cc1)c1ccc(-c2cccc(OC(=O)NCCC3CCCCC3)c2)c(F)c1
REMARK SMILES IDX 3 1 4 2 2 3 1 4 71 5 72 6 95 7 73 8 93 9 74 10 94 11 75 12
REMARK SMILES IDX 76 13 92 14 77 15 79 16 78 17 80 18 81 19 82 20 83 21 84 23
REMARK SMILES IDX 85 24 86 25 87 26 91 27 88 28 90 29 89 30 5 31 6 32 7 33
REMARK SMILES IDX 8 34 9 35 10 36 11 37 12 38 70 39 13 40 69 41 14 42 15 43
REMARK SMILES IDX 16 44 63 45 17 46 68 47 62 48 64 49 18 50 67 51 61 52 60 53
REMARK SMILES IDX 19 55 49 56 30 57 48 58 31 59 34 60 47 61 65 62 32 63 33 64
REMARK SMILES IDX 46 66 66 67 35 68 20 69 21 70 29 71 22 72 28 73 23 74 24 75
REMARK SMILES IDX 25 76 26 77 27 78 50 79 51 80 59 81 52 82 58 83 53 84 54 85
REMARK SMILES IDX 55 86 56 87 57 88 36 89 37 90 45 91 38 92 44 93 39 94 40 95
REMARK SMILES IDX 41 96 42 97 43 98
REMARK H PARENT 83 22 64 54 34 65
REMARK Flexibility Score: inf
ROOT
ATOM      1  C   UNL A   1      35.324  33.180  28.122  1.00  0.00     0.313 C 
ATOM      2  O   UNL A   1      35.887  33.684  27.157  1.00  0.00    -0.252 OA
ENDROOT
BRANCH   1   3
ATOM      3  C   UNL A   1      35.520  31.717  28.543  1.00  0.00     0.126 C 
ATOM      4  C   UNL A   1      36.961  31.221  28.378  1.00  0.00     0.025 C 
BRANCH   3   5
ATOM      5  C   UNL A   1      34.504  30.780  27.894  1.00  0.00    -0.031 A 
ATOM      6  C   UNL A   1      33.219  31.238  27.567  1.00  0.00     0.005 A 
ATOM      7  C   UNL A   1      34.812  29.454  27.572  1.00  0.00     0.044 A 
ATOM      8  C   UNL A   1      32.281  30.398  26.935  1.00  0.00     0.012 A 
ATOM      9  C   UNL A   1      33.875  28.628  26.938  1.00  0.00     0.131 A 
ATOM     10  C   UNL A   1      32.588  29.069  26.587  1.00  0.00     0.018 A 
ATOM     11  F   UNL A   1      34.288  27.396  26.604  1.00  0.00    -0.206 F 
BRANCH  10  12
ATOM     12  C   UNL A   1      31.631  28.210  25.834  1.00  0.00    -0.012 A 
ATOM     13  C   UNL A   1      30.995  28.670  24.664  1.00  0.00     0.009 A 
ATOM     14  C   UNL A   1      31.348  26.885  26.235  1.00  0.00     0.056 A 
ATOM     15  C   UNL A   1      30.141  27.846  23.920  1.00  0.00     0.004 A 
ATOM     16  C   UNL A   1      30.516  26.051  25.477  1.00  0.00     0.133 A 
ATOM     17  C   UNL A   1      29.910  26.532  24.319  1.00  0.00     0.047 A 
BRANCH  16  18
ATOM     18  O   UNL A   1      30.185  24.710  25.822  1.00  0.00    -0.410 OA
BRANCH  18  19
ATOM     19  C   UNL A   1      31.056  23.797  26.415  1.00  0.00     0.412 C 
ATOM     20  O   UNL A   1      31.363  23.761  27.603  1.00  0.00    -0.224 OA
ATOM     21  N   UNL A   1      31.573  22.858  25.562  1.00  0.00    -0.321 N 
ATOM     22  H   UNL A   1      32.151  22.179  25.978  1.00  0.00     0.167 HD
BRANCH  21  23
ATOM     23  C   UNL A   1      31.388  22.726  24.129  1.00  0.00     0.119 C 
BRANCH  23  24
ATOM     24  C   UNL A   1      32.565  23.287  23.323  1.00  0.00     0.025 C 
BRANCH  24  25
ATOM     25  C   UNL A   1      32.614  24.821  23.134  1.00  0.00    -0.009 C 
ATOM     26  C   UNL A   1      33.864  25.474  23.738  1.00  0.00     0.003 C 
ATOM     27  C   UNL A   1      32.533  25.165  21.632  1.00  0.00     0.003 C 
ATOM     28  C   UNL A   1      33.881  26.986  23.489  1.00  0.00     0.000 C 
ATOM     29  C   UNL A   1      32.545  26.669  21.382  1.00  0.00     0.000 C 
ATOM     30  C   UNL A   1      33.762  27.331  22.008  1.00  0.00     0.000 C 
ENDBRANCH  24  25
ENDBRANCH  23  24
ENDBRANCH  21  23
ENDBRANCH  18  19
ENDBRANCH  16  18
ENDBRANCH  10  12
ENDBRANCH   3   5
ENDBRANCH   1   3
BRANCH   1  31
ATOM     31  O   UNL A   1      34.416  33.835  28.899  1.00  0.00    -0.462 OA
BRANCH  31  32
ATOM     32  C   UNL A   1      34.100  35.200  28.551  1.00  0.00     0.274 C 
BRANCH  32  33
ATOM     33  C   UNL A   1      32.925  35.709  29.382  1.00  0.00     0.275 C 
BRANCH  33  34
ATOM     34  O   UNL A   1      32.804  34.921  30.577  1.00  0.00    -0.458 OA
BRANCH  34  35
ATOM     35  C   UNL A   1      32.892  35.616  31.732  1.00  0.00     0.338 C 
ATOM     36  O   UNL A   1      32.215  36.567  32.083  1.00  0.00    -0.246 OA
BRANCH  35  37
ATOM     37  C   UNL A   1      33.911  34.996  32.587  1.00  0.00     0.060 A 
ATOM     38  C   UNL A   1      35.169  35.588  32.656  1.00  0.00     0.016 A 
ATOM     39  C   UNL A   1      33.683  33.749  33.162  1.00  0.00     0.016 A 
ATOM     40  C   UNL A   1      36.238  34.866  33.174  1.00  0.00     0.010 A 
ATOM     41  C   UNL A   1      34.741  33.079  33.784  1.00  0.00     0.010 A 
ATOM     42  C   UNL A   1      36.052  33.593  33.730  1.00  0.00    -0.014 A 
BRANCH  42  43
ATOM     43  C   UNL A   1      37.225  32.758  34.137  1.00  0.00     0.031 A 
ATOM     44  C   UNL A   1      37.895  33.004  35.466  1.00  0.00     0.074 A 
ATOM     45  C   UNL A   1      37.699  31.775  33.350  1.00  0.00     0.049 A 
ATOM     46  N   UNL A   1      39.087  32.651  35.880  1.00  0.00    -0.248 NA
ATOM     47  C   UNL A   1      37.148  33.830  36.422  1.00  0.00     0.031 C 
ATOM     48  C   UNL A   1      37.156  31.388  32.048  1.00  0.00     0.029 A 
ATOM     49  N   UNL A   1      38.751  30.911  33.538  1.00  0.00    -0.354 N 
ATOM     50  C   UNL A   1      39.272  33.311  37.093  1.00  0.00     0.074 A 
ATOM     51  C   UNL A   1      38.083  34.106  37.315  1.00  0.00     0.031 C 
ATOM     52  C   UNL A   1      37.842  30.337  31.580  1.00  0.00     0.029 A 
ATOM     53  C   UNL A   1      38.940  30.044  32.492  1.00  0.00     0.049 A 
ATOM     54  H   UNL A   1      39.313  30.915  34.347  1.00  0.00     0.167 HD
ATOM     55  C   UNL A   1      40.328  33.254  37.946  1.00  0.00     0.031 A 
ATOM     56  C   UNL A   1      39.917  29.149  32.255  1.00  0.00     0.031 A 
ATOM     57  C   UNL A   1      41.448  32.353  37.755  1.00  0.00     0.049 A 
ATOM     58  C   UNL A   1      41.017  28.988  33.261  1.00  0.00     0.074 A 
ATOM     59  C   UNL A   1      42.601  32.203  38.508  1.00  0.00     0.029 A 
ATOM     60  N   UNL A   1      41.511  31.380  36.759  1.00  0.00    -0.354 N 
ATOM     61  N   UNL A   1      41.202  29.636  34.387  1.00  0.00    -0.248 NA
ATOM     62  C   UNL A   1      42.042  27.980  32.965  1.00  0.00     0.031 C 
ATOM     63  C   UNL A   1      43.332  31.117  38.001  1.00  0.00     0.029 A 
ATOM     64  C   UNL A   1      42.659  30.613  36.901  1.00  0.00     0.049 A 
ATOM     65  H   UNL A   1      40.837  31.256  36.053  1.00  0.00     0.167 HD
ATOM     66  C   UNL A   1      42.375  29.126  34.927  1.00  0.00     0.074 A 
ATOM     67  C   UNL A   1      42.821  28.073  34.034  1.00  0.00     0.031 C 
ATOM     68  C   UNL A   1      43.049  29.524  36.036  1.00  0.00     0.031 A 
BRANCH  55  69
ATOM     69  C   UNL A   1      40.289  34.193  39.140  1.00  0.00    -0.014 A 
ATOM     70  C   UNL A   1      40.933  35.446  39.108  1.00  0.00     0.010 A 
ATOM     71  C   UNL A   1      39.651  33.818  40.335  1.00  0.00     0.010 A 
ATOM     72  C   UNL A   1      41.004  36.268  40.236  1.00  0.00     0.020 A 
ATOM     73  C   UNL A   1      39.677  34.657  41.462  1.00  0.00     0.020 A 
ATOM     74  C   UNL A   1      40.380  35.864  41.413  1.00  0.00     0.054 A 
BRANCH  74  75
ATOM     75  S   UNL A   1      40.410  36.967  42.856  1.00  0.00     0.124 S 
ATOM     76  O   UNL A   1      39.191  36.580  43.559  1.00  0.00    -0.237 OA
ATOM     77  O   UNL A   1      41.657  36.609  43.529  1.00  0.00    -0.237 OA
ATOM     78  O   UNL A   1      40.397  38.300  42.257  1.00  0.00    -0.744 OA
ENDBRANCH  74  75
ENDBRANCH  55  69
BRANCH  56  79
ATOM     79  C   UNL A   1      39.909  28.401  30.968  1.00  0.00    -0.014 A 
ATOM     80  C   UNL A   1      40.755  28.766  29.907  1.00  0.00     0.010 A 
ATOM     81  C   UNL A   1      39.105  27.251  30.838  1.00  0.00     0.010 A 
ATOM     82  C   UNL A   1      40.808  27.985  28.748  1.00  0.00     0.020 A 
ATOM     83  C   UNL A   1      39.184  26.449  29.699  1.00  0.00     0.020 A 
ATOM     84  C   UNL A   1      40.032  26.824  28.657  1.00  0.00     0.054 A 
BRANCH  84  85
ATOM     85  S   UNL A   1      40.205  25.758  27.199  1.00  0.00     0.124 S 
ATOM     86  O   UNL A   1      38.854  25.229  27.049  1.00  0.00    -0.237 OA
ATOM     87  O   UNL A   1      40.635  26.699  26.167  1.00  0.00    -0.237 OA
ATOM     88  O   UNL A   1      41.219  24.788  27.605  1.00  0.00    -0.744 OA
ENDBRANCH  84  85
ENDBRANCH  56  79
BRANCH  68  89
ATOM     89  C   UNL A   1      44.323  28.781  36.339  1.00  0.00    -0.014 A 
ATOM     90  C   UNL A   1      44.305  27.646  37.172  1.00  0.00     0.010 A 
ATOM     91  C   UNL A   1      45.549  29.228  35.817  1.00  0.00     0.010 A 
ATOM     92  C   UNL A   1      45.495  26.998  37.513  1.00  0.00     0.020 A 
ATOM     93  C   UNL A   1      46.741  28.570  36.140  1.00  0.00     0.020 A 
ATOM     94  C   UNL A   1      46.707  27.469  37.000  1.00  0.00     0.054 A 
BRANCH  94  95
ATOM     95  S   UNL A   1      48.237  26.606  37.459  1.00  0.00     0.124 S 
ATOM     96  O   UNL A   1      49.153  27.025  36.402  1.00  0.00    -0.237 OA
ATOM     97  O   UNL A   1      48.522  27.143  38.787  1.00  0.00    -0.237 OA
ATOM     98  O   UNL A   1      47.859  25.195  37.431  1.00  0.00    -0.744 OA
ENDBRANCH  94  95
ENDBRANCH  68  89
ENDBRANCH  42  43
ENDBRANCH  35  37
ENDBRANCH  34  35
ENDBRANCH  33  34
ENDBRANCH  32  33
ENDBRANCH  31  32
ENDBRANCH   1  31
TORSDOF 21
ENDMDL
MODEL 2
REMARK VINA RESULT:     -10.4      5.761      7.978
REMARK SMILES C[C@@H](C(=O)OCCOC(=O)c1ccc(-c2c3nc(c(-c4ccc(S(=O)(=O)[O-])cc4)c4ccc([nH]4)c(-c4ccc(S(=O)(=O)[O-])cc4)c4nc(c(-c5ccc(S(=O)(=O)[O-])cc5)c5ccc2[nH]5)C=C4)C=C3)cc1)c1ccc(-c2cccc(OC(=O)NCCC3CCCCC3)c2)c(F)c1
REMARK SMILES IDX 3 1 4 2 2 3 1 4 71 5 72 6 95 7 73 8 93 9 74 10 94 11 75 12
REMARK SMILES IDX 76 13 92 14 77 15 79 16 78 17 80 18 81 19 82 20 83 21 84 23
REMARK SMILES IDX 85 24 86 25 87 26 91 27 88 28 90 29 89 30 5 31 6 32 7 33
REMARK SMILES IDX 8 34 9 35 10 36 11 37 12 38 70 39 13 40 69 41 14 42 15 43
REMARK SMILES IDX 16 44 63 45 17 46 68 47 62 48 64 49 18 50 67 51 61 52 60 53
REMARK SMILES IDX 19 55 49 56 30 57 48 58 31 59 34 60 47 61 65 62 32 63 33 64
REMARK SMILES IDX 46 66 66 67 35 68 20 69 21 70 29 71 22 72 28 73 23 74 24 75
REMARK SMILES IDX 25 76 26 77 27 78 50 79 51 80 59 81 52 82 58 83 53 84 54 85
REMARK SMILES IDX 55 86 56 87 57 88 36 89 37 90 45 91 38 92 44 93 39 94 40 95
REMARK SMILES IDX 41 96 42 97 43 98
REMARK H PARENT 83 22 64 54 34 65
REMARK Flexibility Score: inf
ROOT
ATOM      1  C   UNL A   1      32.912  27.318  24.126  1.00  0.00     0.313 C 
ATOM      2  O   UNL A   1      34.080  27.690  24.123  1.00  0.00    -0.252 OA
ENDROOT
BRANCH   1   3
ATOM      3  C   UNL A   1      32.196  26.781  22.879  1.00  0.00     0.126 C 
ATOM      4  C   UNL A   1      30.813  27.401  22.653  1.00  0.00     0.025 C 
BRANCH   3   5
ATOM      5  C   UNL A   1      32.164  25.255  22.833  1.00  0.00    -0.031 A 
ATOM      6  C   UNL A   1      32.914  24.554  21.876  1.00  0.00     0.005 A 
ATOM      7  C   UNL A   1      31.425  24.498  23.747  1.00  0.00     0.044 A 
ATOM      8  C   UNL A   1      32.925  23.146  21.843  1.00  0.00     0.012 A 
ATOM      9  C   UNL A   1      31.447  23.097  23.710  1.00  0.00     0.131 A 
ATOM     10  C   UNL A   1      32.202  22.374  22.771  1.00  0.00     0.018 A 
ATOM     11  F   UNL A   1      30.764  22.459  24.673  1.00  0.00    -0.206 F 
BRANCH  10  12
ATOM     12  C   UNL A   1      32.287  20.886  22.796  1.00  0.00    -0.012 A 
ATOM     13  C   UNL A   1      31.880  20.109  21.694  1.00  0.00     0.009 A 
ATOM     14  C   UNL A   1      32.816  20.190  23.907  1.00  0.00     0.056 A 
ATOM     15  C   UNL A   1      32.013  18.715  21.689  1.00  0.00     0.004 A 
ATOM     16  C   UNL A   1      32.975  18.799  23.892  1.00  0.00     0.133 A 
ATOM     17  C   UNL A   1      32.572  18.059  22.783  1.00  0.00     0.047 A 
BRANCH  16  18
ATOM     18  O   UNL A   1      33.495  18.033  24.974  1.00  0.00    -0.410 OA
BRANCH  18  19
ATOM     19  C   UNL A   1      34.680  17.301  24.939  1.00  0.00     0.412 C 
ATOM     20  O   UNL A   1      34.772  16.077  24.942  1.00  0.00    -0.224 OA
ATOM     21  N   UNL A   1      35.822  18.057  24.871  1.00  0.00    -0.321 N 
ATOM     22  H   UNL A   1      36.662  17.550  24.797  1.00  0.00     0.167 HD
BRANCH  21  23
ATOM     23  C   UNL A   1      35.963  19.500  24.893  1.00  0.00     0.119 C 
BRANCH  23  24
ATOM     24  C   UNL A   1      37.428  19.954  24.884  1.00  0.00     0.025 C 
BRANCH  24  25
ATOM     25  C   UNL A   1      37.687  21.478  24.933  1.00  0.00    -0.009 C 
ATOM     26  C   UNL A   1      36.415  22.309  25.147  1.00  0.00     0.003 C 
ATOM     27  C   UNL A   1      38.701  21.799  26.050  1.00  0.00     0.003 C 
ATOM     28  C   UNL A   1      36.733  23.806  25.226  1.00  0.00     0.000 C 
ATOM     29  C   UNL A   1      39.022  23.288  26.128  1.00  0.00     0.000 C 
ATOM     30  C   UNL A   1      37.765  24.124  26.304  1.00  0.00     0.000 C 
ENDBRANCH  24  25
ENDBRANCH  23  24
ENDBRANCH  21  23
ENDBRANCH  18  19
ENDBRANCH  16  18
ENDBRANCH  10  12
ENDBRANCH   3   5
ENDBRANCH   1   3
BRANCH   1  31
ATOM     31  O   UNL A   1      32.094  27.390  25.213  1.00  0.00    -0.462 OA
BRANCH  31  32
ATOM     32  C   UNL A   1      32.168  28.580  26.027  1.00  0.00     0.274 C 
BRANCH  32  33
ATOM     33  C   UNL A   1      32.801  28.268  27.381  1.00  0.00     0.275 C 
BRANCH  33  34
ATOM     34  O   UNL A   1      34.184  28.652  27.364  1.00  0.00    -0.458 OA
BRANCH  34  35
ATOM     35  C   UNL A   1      34.440  29.891  27.839  1.00  0.00     0.338 C 
ATOM     36  O   UNL A   1      33.653  30.810  27.987  1.00  0.00    -0.246 OA
BRANCH  35  37
ATOM     37  C   UNL A   1      35.848  29.966  28.247  1.00  0.00     0.060 A 
ATOM     38  C   UNL A   1      36.792  30.362  27.304  1.00  0.00     0.016 A 
ATOM     39  C   UNL A   1      36.247  29.475  29.487  1.00  0.00     0.016 A 
ATOM     40  C   UNL A   1      38.141  30.127  27.547  1.00  0.00     0.010 A 
ATOM     41  C   UNL A   1      37.612  29.352  29.766  1.00  0.00     0.010 A 
ATOM     42  C   UNL A   1      38.578  29.602  28.770  1.00  0.00    -0.014 A 
BRANCH  42  43
ATOM     43  C   UNL A   1      40.007  29.204  28.965  1.00  0.00     0.031 A 
ATOM     44  C   UNL A   1      40.996  30.205  29.509  1.00  0.00     0.074 A 
ATOM     45  C   UNL A   1      40.440  27.963  28.677  1.00  0.00     0.049 A 
ATOM     46  N   UNL A   1      42.305  30.201  29.453  1.00  0.00    -0.248 NA
ATOM     47  C   UNL A   1      40.425  31.408  30.124  1.00  0.00     0.031 C 
ATOM     48  C   UNL A   1      39.613  26.869  28.168  1.00  0.00     0.029 A 
ATOM     49  N   UNL A   1      41.693  27.409  28.781  1.00  0.00    -0.354 N 
ATOM     50  C   UNL A   1      42.702  31.452  29.920  1.00  0.00     0.074 A 
ATOM     51  C   UNL A   1      41.489  32.186  30.214  1.00  0.00     0.031 C 
ATOM     52  C   UNL A   1      40.365  25.766  28.052  1.00  0.00     0.029 A 
ATOM     53  C   UNL A   1      41.747  26.100  28.372  1.00  0.00     0.049 A 
ATOM     54  H   UNL A   1      42.475  27.904  29.116  1.00  0.00     0.167 HD
ATOM     55  C   UNL A   1      43.958  31.941  30.096  1.00  0.00     0.031 A 
ATOM     56  C   UNL A   1      42.795  25.269  28.215  1.00  0.00     0.031 A 
ATOM     57  C   UNL A   1      45.150  31.137  29.911  1.00  0.00     0.049 A 
ATOM     58  C   UNL A   1      44.173  25.765  28.536  1.00  0.00     0.074 A 
ATOM     59  C   UNL A   1      46.484  31.496  30.017  1.00  0.00     0.029 A 
ATOM     60  N   UNL A   1      45.140  29.768  29.650  1.00  0.00    -0.354 N 
ATOM     61  N   UNL A   1      44.543  26.956  28.946  1.00  0.00    -0.248 NA
ATOM     62  C   UNL A   1      45.275  24.810  28.372  1.00  0.00     0.031 C 
ATOM     63  C   UNL A   1      47.273  30.344  29.871  1.00  0.00     0.029 A 
ATOM     64  C   UNL A   1      46.436  29.269  29.628  1.00  0.00     0.049 A 
ATOM     65  H   UNL A   1      44.329  29.231  29.502  1.00  0.00     0.167 HD
ATOM     66  C   UNL A   1      45.924  26.899  29.072  1.00  0.00     0.074 A 
ATOM     67  C   UNL A   1      46.315  25.538  28.754  1.00  0.00     0.031 C 
ATOM     68  C   UNL A   1      46.796  27.894  29.375  1.00  0.00     0.031 A 
BRANCH  55  69
ATOM     69  C   UNL A   1      44.068  33.400  30.508  1.00  0.00    -0.014 A 
ATOM     70  C   UNL A   1      44.051  33.781  31.864  1.00  0.00     0.010 A 
ATOM     71  C   UNL A   1      44.139  34.421  29.545  1.00  0.00     0.010 A 
ATOM     72  C   UNL A   1      44.035  35.123  32.254  1.00  0.00     0.020 A 
ATOM     73  C   UNL A   1      44.168  35.773  29.926  1.00  0.00     0.020 A 
ATOM     74  C   UNL A   1      44.085  36.115  31.279  1.00  0.00     0.054 A 
BRANCH  74  75
ATOM     75  S   UNL A   1      44.139  37.858  31.788  1.00  0.00     0.124 S 
ATOM     76  O   UNL A   1      45.572  38.085  31.944  1.00  0.00    -0.237 OA
ATOM     77  O   UNL A   1      43.516  38.557  30.665  1.00  0.00    -0.237 OA
ATOM     78  O   UNL A   1      43.360  37.868  33.024  1.00  0.00    -0.744 OA
ENDBRANCH  74  75
ENDBRANCH  55  69
BRANCH  56  79
ATOM     79  C   UNL A   1      42.555  23.909  27.659  1.00  0.00    -0.014 A 
ATOM     80  C   UNL A   1      42.825  23.613  26.313  1.00  0.00     0.010 A 
ATOM     81  C   UNL A   1      42.134  22.873  28.516  1.00  0.00     0.010 A 
ATOM     82  C   UNL A   1      42.696  22.304  25.839  1.00  0.00     0.020 A 
ATOM     83  C   UNL A   1      42.039  21.559  28.056  1.00  0.00     0.020 A 
ATOM     84  C   UNL A   1      42.316  21.283  26.718  1.00  0.00     0.054 A 
BRANCH  84  85
ATOM     85  S   UNL A   1      42.271  19.572  26.116  1.00  0.00     0.124 S 
ATOM     86  O   UNL A   1      42.687  18.824  27.296  1.00  0.00    -0.237 OA
ATOM     87  O   UNL A   1      40.873  19.410  25.724  1.00  0.00    -0.237 OA
ATOM     88  O   UNL A   1      43.222  19.576  25.006  1.00  0.00    -0.744 OA
ENDBRANCH  84  85
ENDBRANCH  56  79
BRANCH  68  89
ATOM     89  C   UNL A   1      48.253  27.512  29.401  1.00  0.00    -0.014 A 
ATOM     90  C   UNL A   1      48.849  27.055  30.592  1.00  0.00     0.010 A 
ATOM     91  C   UNL A   1      49.041  27.634  28.243  1.00  0.00     0.010 A 
ATOM     92  C   UNL A   1      50.216  26.769  30.636  1.00  0.00     0.020 A 
ATOM     93  C   UNL A   1      50.406  27.330  28.278  1.00  0.00     0.020 A 
ATOM     94  C   UNL A   1      50.988  26.916  29.480  1.00  0.00     0.054 A 
BRANCH  94  95
ATOM     95  S   UNL A   1      52.761  26.537  29.566  1.00  0.00     0.124 S 
ATOM     96  O   UNL A   1      52.983  25.823  28.313  1.00  0.00    -0.237 OA
ATOM     97  O   UNL A   1      53.369  27.862  29.652  1.00  0.00    -0.237 OA
ATOM     98  O   UNL A   1      52.881  25.724  30.775  1.00  0.00    -0.744 OA
ENDBRANCH  94  95
ENDBRANCH  68  89
ENDBRANCH  42  43
ENDBRANCH  35  37
ENDBRANCH  34  35
ENDBRANCH  33  34
ENDBRANCH  32  33
ENDBRANCH  31  32
ENDBRANCH   1  31
TORSDOF 21
ENDMDL
MODEL 3
REMARK VINA RESULT:     -10.2      3.540      5.924
REMARK SMILES C[C@@H](C(=O)OCCOC(=O)c1ccc(-c2c3nc(c(-c4ccc(S(=O)(=O)[O-])cc4)c4ccc([nH]4)c(-c4ccc(S(=O)(=O)[O-])cc4)c4nc(c(-c5ccc(S(=O)(=O)[O-])cc5)c5ccc2[nH]5)C=C4)C=C3)cc1)c1ccc(-c2cccc(OC(=O)NCCC3CCCCC3)c2)c(F)c1
REMARK SMILES IDX 3 1 4 2 2 3 1 4 71 5 72 6 95 7 73 8 93 9 74 10 94 11 75 12
REMARK SMILES IDX 76 13 92 14 77 15 79 16 78 17 80 18 81 19 82 20 83 21 84 23
REMARK SMILES IDX 85 24 86 25 87 26 91 27 88 28 90 29 89 30 5 31 6 32 7 33
REMARK SMILES IDX 8 34 9 35 10 36 11 37 12 38 70 39 13 40 69 41 14 42 15 43
REMARK SMILES IDX 16 44 63 45 17 46 68 47 62 48 64 49 18 50 67 51 61 52 60 53
REMARK SMILES IDX 19 55 49 56 30 57 48 58 31 59 34 60 47 61 65 62 32 63 33 64
REMARK SMILES IDX 46 66 66 67 35 68 20 69 21 70 29 71 22 72 28 73 23 74 24 75
REMARK SMILES IDX 25 76 26 77 27 78 50 79 51 80 59 81 52 82 58 83 53 84 54 85
REMARK SMILES IDX 55 86 56 87 57 88 36 89 37 90 45 91 38 92 44 93 39 94 40 95
REMARK SMILES IDX 41 96 42 97 43 98
REMARK H PARENT 83 22 64 54 34 65
REMARK Flexibility Score: inf
ROOT
ATOM      1  C   UNL A   1      32.527  28.289  24.378  1.00  0.00     0.313 C 
ATOM      2  O   UNL A   1      33.744  28.254  24.525  1.00  0.00    -0.252 OA
ENDROOT
BRANCH   1   3
ATOM      3  C   UNL A   1      31.814  27.760  23.126  1.00  0.00     0.126 C 
ATOM      4  C   UNL A   1      30.401  28.324  22.944  1.00  0.00     0.025 C 
BRANCH   3   5
ATOM      5  C   UNL A   1      31.850  26.237  23.031  1.00  0.00    -0.031 A 
ATOM      6  C   UNL A   1      32.722  25.599  22.137  1.00  0.00     0.005 A 
ATOM      7  C   UNL A   1      31.052  25.421  23.839  1.00  0.00     0.044 A 
ATOM      8  C   UNL A   1      32.795  24.194  22.061  1.00  0.00     0.012 A 
ATOM      9  C   UNL A   1      31.136  24.024  23.762  1.00  0.00     0.131 A 
ATOM     10  C   UNL A   1      32.013  23.363  22.886  1.00  0.00     0.018 A 
ATOM     11  F   UNL A   1      30.384  23.327  24.628  1.00  0.00    -0.206 F 
BRANCH  10  12
ATOM     12  C   UNL A   1      32.156  21.880  22.874  1.00  0.00    -0.012 A 
ATOM     13  C   UNL A   1      31.692  21.106  21.791  1.00  0.00     0.009 A 
ATOM     14  C   UNL A   1      32.797  21.186  23.925  1.00  0.00     0.056 A 
ATOM     15  C   UNL A   1      31.878  19.718  21.748  1.00  0.00     0.004 A 
ATOM     16  C   UNL A   1      33.008  19.803  23.869  1.00  0.00     0.133 A 
ATOM     17  C   UNL A   1      32.546  19.067  22.781  1.00  0.00     0.047 A 
BRANCH  16  18
ATOM     18  O   UNL A   1      33.641  19.040  24.891  1.00  0.00    -0.410 OA
BRANCH  18  19
ATOM     19  C   UNL A   1      34.904  18.460  24.791  1.00  0.00     0.412 C 
ATOM     20  O   UNL A   1      35.140  17.292  24.493  1.00  0.00    -0.224 OA
ATOM     21  N   UNL A   1      35.950  19.312  25.029  1.00  0.00    -0.321 N 
ATOM     22  H   UNL A   1      36.847  18.926  24.913  1.00  0.00     0.167 HD
BRANCH  21  23
ATOM     23  C   UNL A   1      35.918  20.707  25.429  1.00  0.00     0.119 C 
BRANCH  23  24
ATOM     24  C   UNL A   1      36.671  21.622  24.456  1.00  0.00     0.025 C 
BRANCH  24  25
ATOM     25  C   UNL A   1      37.794  22.502  25.051  1.00  0.00    -0.009 C 
ATOM     26  C   UNL A   1      37.276  23.620  25.966  1.00  0.00     0.003 C 
ATOM     27  C   UNL A   1      38.787  21.620  25.835  1.00  0.00     0.003 C 
ATOM     28  C   UNL A   1      38.430  24.436  26.559  1.00  0.00     0.000 C 
ATOM     29  C   UNL A   1      39.939  22.429  26.422  1.00  0.00     0.000 C 
ATOM     30  C   UNL A   1      39.436  23.563  27.302  1.00  0.00     0.000 C 
ENDBRANCH  24  25
ENDBRANCH  23  24
ENDBRANCH  21  23
ENDBRANCH  18  19
ENDBRANCH  16  18
ENDBRANCH  10  12
ENDBRANCH   3   5
ENDBRANCH   1   3
BRANCH   1  31
ATOM     31  O   UNL A   1      31.669  28.851  25.275  1.00  0.00    -0.462 OA
BRANCH  31  32
ATOM     32  C   UNL A   1      31.807  30.265  25.535  1.00  0.00     0.274 C 
BRANCH  32  33
ATOM     33  C   UNL A   1      32.348  30.503  26.942  1.00  0.00     0.275 C 
BRANCH  33  34
ATOM     34  O   UNL A   1      33.782  30.420  26.926  1.00  0.00    -0.458 OA
BRANCH  34  35
ATOM     35  C   UNL A   1      34.417  31.313  27.715  1.00  0.00     0.338 C 
ATOM     36  O   UNL A   1      33.959  32.331  28.207  1.00  0.00    -0.246 OA
BRANCH  35  37
ATOM     37  C   UNL A   1      35.779  30.836  27.979  1.00  0.00     0.060 A 
ATOM     38  C   UNL A   1      36.002  29.463  28.041  1.00  0.00     0.016 A 
ATOM     39  C   UNL A   1      36.780  31.733  28.344  1.00  0.00     0.016 A 
ATOM     40  C   UNL A   1      37.177  28.986  28.609  1.00  0.00     0.010 A 
ATOM     41  C   UNL A   1      38.004  31.240  28.807  1.00  0.00     0.010 A 
ATOM     42  C   UNL A   1      38.192  29.860  29.020  1.00  0.00    -0.014 A 
BRANCH  42  43
ATOM     43  C   UNL A   1      39.380  29.351  29.774  1.00  0.00     0.031 A 
ATOM     44  C   UNL A   1      39.709  29.924  31.131  1.00  0.00     0.074 A 
ATOM     45  C   UNL A   1      40.169  28.380  29.278  1.00  0.00     0.049 A 
ATOM     46  N   UNL A   1      40.831  29.887  31.805  1.00  0.00    -0.248 NA
ATOM     47  C   UNL A   1      38.649  30.712  31.771  1.00  0.00     0.031 C 
ATOM     48  C   UNL A   1      39.982  27.701  27.996  1.00  0.00     0.029 A 
ATOM     49  N   UNL A   1      41.291  27.787  29.804  1.00  0.00    -0.354 N 
ATOM     50  C   UNL A   1      40.645  30.743  32.888  1.00  0.00     0.074 A 
ATOM     51  C   UNL A   1      39.317  31.303  32.747  1.00  0.00     0.031 C 
ATOM     52  C   UNL A   1      40.919  26.755  27.858  1.00  0.00     0.029 A 
ATOM     53  C   UNL A   1      41.839  26.831  28.986  1.00  0.00     0.049 A 
ATOM     54  H   UNL A   1      41.664  28.025  30.684  1.00  0.00     0.167 HD
ATOM     55  C   UNL A   1      41.496  31.030  33.908  1.00  0.00     0.031 A 
ATOM     56  C   UNL A   1      42.982  26.129  29.094  1.00  0.00     0.031 A 
ATOM     57  C   UNL A   1      42.768  30.358  34.086  1.00  0.00     0.049 A 
ATOM     58  C   UNL A   1      43.861  26.347  30.289  1.00  0.00     0.074 A 
ATOM     59  C   UNL A   1      43.748  30.561  35.044  1.00  0.00     0.029 A 
ATOM     60  N   UNL A   1      43.202  29.282  33.314  1.00  0.00    -0.354 N 
ATOM     61  N   UNL A   1      43.694  27.179  31.290  1.00  0.00    -0.248 NA
ATOM     62  C   UNL A   1      45.082  25.537  30.369  1.00  0.00     0.031 C 
ATOM     63  C   UNL A   1      44.743  29.584  34.883  1.00  0.00     0.029 A 
ATOM     64  C   UNL A   1      44.410  28.795  33.795  1.00  0.00     0.049 A 
ATOM     65  H   UNL A   1      42.720  28.920  32.537  1.00  0.00     0.167 HD
ATOM     66  C   UNL A   1      44.800  27.005  32.112  1.00  0.00     0.074 A 
ATOM     67  C   UNL A   1      45.595  25.945  31.522  1.00  0.00     0.031 C 
ATOM     68  C   UNL A   1      45.150  27.693  33.229  1.00  0.00     0.031 A 
BRANCH  55  69
ATOM     69  C   UNL A   1      41.050  32.108  34.882  1.00  0.00    -0.014 A 
ATOM     70  C   UNL A   1      41.384  33.462  34.679  1.00  0.00     0.010 A 
ATOM     71  C   UNL A   1      40.330  31.781  36.044  1.00  0.00     0.010 A 
ATOM     72  C   UNL A   1      41.082  34.446  35.624  1.00  0.00     0.020 A 
ATOM     73  C   UNL A   1      39.981  32.770  36.980  1.00  0.00     0.020 A 
ATOM     74  C   UNL A   1      40.387  34.092  36.777  1.00  0.00     0.054 A 
BRANCH  74  75
ATOM     75  S   UNL A   1      39.928  35.384  37.969  1.00  0.00     0.124 S 
ATOM     76  O   UNL A   1      41.093  35.414  38.847  1.00  0.00    -0.237 OA
ATOM     77  O   UNL A   1      39.750  36.568  37.130  1.00  0.00    -0.237 OA
ATOM     78  O   UNL A   1      38.700  34.865  38.567  1.00  0.00    -0.744 OA
ENDBRANCH  74  75
ENDBRANCH  55  69
BRANCH  56  79
ATOM     79  C   UNL A   1      43.369  25.213  27.986  1.00  0.00    -0.014 A 
ATOM     80  C   UNL A   1      44.123  25.668  26.892  1.00  0.00     0.010 A 
ATOM     81  C   UNL A   1      43.053  23.842  28.077  1.00  0.00     0.010 A 
ATOM     82  C   UNL A   1      44.567  24.768  25.919  1.00  0.00     0.020 A 
ATOM     83  C   UNL A   1      43.526  22.935  27.127  1.00  0.00     0.020 A 
ATOM     84  C   UNL A   1      44.276  23.405  26.050  1.00  0.00     0.054 A 
BRANCH  84  85
ATOM     85  S   UNL A   1      44.963  22.236  24.844  1.00  0.00     0.124 S 
ATOM     86  O   UNL A   1      44.022  21.125  24.930  1.00  0.00    -0.237 OA
ATOM     87  O   UNL A   1      44.925  23.003  23.601  1.00  0.00    -0.237 OA
ATOM     88  O   UNL A   1      46.304  21.966  25.356  1.00  0.00    -0.744 OA
ENDBRANCH  84  85
ENDBRANCH  56  79
BRANCH  68  89
ATOM     89  C   UNL A   1      46.443  27.279  33.883  1.00  0.00    -0.014 A 
ATOM     90  C   UNL A   1      46.465  26.218  34.808  1.00  0.00     0.010 A 
ATOM     91  C   UNL A   1      47.636  27.965  33.598  1.00  0.00     0.010 A 
ATOM     92  C   UNL A   1      47.648  25.879  35.469  1.00  0.00     0.020 A 
ATOM     93  C   UNL A   1      48.827  27.616  34.244  1.00  0.00     0.020 A 
ATOM     94  C   UNL A   1      48.821  26.586  35.188  1.00  0.00     0.054 A 
BRANCH  94  95
ATOM     95  S   UNL A   1      50.343  26.123  36.062  1.00  0.00     0.124 S 
ATOM     96  O   UNL A   1      50.183  24.680  36.212  1.00  0.00    -0.237 OA
ATOM     97  O   UNL A   1      51.388  26.546  35.133  1.00  0.00    -0.237 OA
ATOM     98  O   UNL A   1      50.275  26.890  37.304  1.00  0.00    -0.744 OA
ENDBRANCH  94  95
ENDBRANCH  68  89
ENDBRANCH  42  43
ENDBRANCH  35  37
ENDBRANCH  34  35
ENDBRANCH  33  34
ENDBRANCH  32  33
ENDBRANCH  31  32
ENDBRANCH   1  31
TORSDOF 21
ENDMDL
