MODEL 1
REMARK VINA RESULT:     -10.2      0.000      0.000
REMARK SMILES C[C@@]([NH2+]CC(=O)NC1CCOCC1)(C(=O)OCCOC(=O)c1ccc(-c2c3nc(c(-c4ccc(S(=O)(=O)[O-])cc4)c4ccc([nH]4)c(-c4ccc(S(=O)(=O)[O-])cc4)c4nc(c(-c5ccc(S(=O)(=O)[O-])cc5)c5ccc2[nH]5)C=C4)C=C3)cc1)C(F)(F)F
REMARK SMILES IDX 17 1 16 2 14 3 15 4 2 5 1 6 3 7 4 10 5 11 6 12 7 13 8 15
REMARK SMILES IDX 9 16 13 17 10 18 12 19 11 20 82 21 83 22 84 23 85 24 18 25
REMARK SMILES IDX 19 26 20 27 21 28 22 29 23 30 81 31 24 32 80 33 25 34 26 35
REMARK SMILES IDX 27 36 74 37 28 38 79 39 73 40 75 41 29 42 78 43 72 44 71 45
REMARK SMILES IDX 30 47 60 48 41 49 59 50 42 51 45 52 58 53 76 54 43 55 44 56
REMARK SMILES IDX 57 58 77 59 46 60 31 61 32 62 40 63 33 64 39 65 34 66 35 67
REMARK SMILES IDX 36 68 37 69 38 70 61 71 62 72 70 73 63 74 69 75 64 76 65 77
REMARK SMILES IDX 66 78 67 79 68 80 47 81 48 82 56 83 49 84 55 85 50 86 51 87
REMARK SMILES IDX 52 88 53 89 54 90
REMARK H PARENT 3 8 3 9 7 14 75 46 45 57
REMARK Flexibility Score: inf
ROOT
ATOM      1  C   UNL A   1      38.448  21.443  25.837  1.00  0.00     0.274 C 
ENDROOT
BRANCH   1   2
ATOM      2  O   UNL A   1      37.608  22.195  24.878  1.00  0.00    -0.457 OA
BRANCH   2   3
ATOM      3  C   UNL A   1      36.919  23.245  25.440  1.00  0.00     0.377 C 
ATOM      4  O   UNL A   1      37.507  23.920  26.286  1.00  0.00    -0.244 OA
BRANCH   3   5
ATOM      5  C   UNL A   1      35.317  23.441  25.063  1.00  0.00     0.287 C 
ATOM      6  C   UNL A   1      35.131  22.465  23.874  1.00  0.00     0.103 C 
BRANCH   5   7
ATOM      7  N   UNL A   1      34.677  23.019  26.360  1.00  0.00    -0.317 N 
ATOM      8  H   UNL A   1      33.738  23.418  26.405  1.00  0.00     0.347 HD
ATOM      9  H   UNL A   1      35.270  23.358  27.118  1.00  0.00     0.347 HD
BRANCH   7  10
ATOM     10  C   UNL A   1      34.568  21.493  26.505  1.00  0.00     0.363 C 
BRANCH  10  11
ATOM     11  C   UNL A   1      33.352  20.629  25.899  1.00  0.00     0.275 C 
ATOM     12  O   UNL A   1      32.396  21.206  25.371  1.00  0.00    -0.268 OA
ATOM     13  N   UNL A   1      33.220  19.278  26.202  1.00  0.00    -0.348 N 
ATOM     14  H   UNL A   1      33.352  19.044  27.148  1.00  0.00     0.163 HD
BRANCH  13  15
ATOM     15  C   UNL A   1      32.903  18.124  25.292  1.00  0.00     0.086 C 
ATOM     16  C   UNL A   1      32.907  16.778  26.008  1.00  0.00     0.053 C 
ATOM     17  C   UNL A   1      33.711  18.037  23.998  1.00  0.00     0.053 C 
ATOM     18  C   UNL A   1      32.832  15.614  25.022  1.00  0.00     0.162 C 
ATOM     19  C   UNL A   1      33.810  16.733  23.242  1.00  0.00     0.162 C 
ATOM     20  O   UNL A   1      33.943  15.651  24.133  1.00  0.00    -0.381 OA
ENDBRANCH  13  15
ENDBRANCH  10  11
ENDBRANCH   7  10
ENDBRANCH   5   7
BRANCH   5  21
ATOM     21  C   UNL A   1      34.395  24.681  24.587  1.00  0.00     0.455 C 
ATOM     22  F   UNL A   1      34.187  24.853  23.274  1.00  0.00    -0.164 F 
ATOM     23  F   UNL A   1      33.135  24.517  25.113  1.00  0.00    -0.164 F 
ATOM     24  F   UNL A   1      34.748  25.884  25.120  1.00  0.00    -0.164 F 
ENDBRANCH   5  21
ENDBRANCH   3   5
ENDBRANCH   2   3
ENDBRANCH   1   2
BRANCH   1  25
ATOM     25  C   UNL A   1      39.171  20.146  25.339  1.00  0.00     0.275 C 
BRANCH  25  26
ATOM     26  O   UNL A   1      40.163  19.562  26.232  1.00  0.00    -0.458 OA
BRANCH  26  27
ATOM     27  C   UNL A   1      41.469  19.934  25.963  1.00  0.00     0.338 C 
ATOM     28  O   UNL A   1      42.228  19.305  25.263  1.00  0.00    -0.246 OA
BRANCH  27  29
ATOM     29  C   UNL A   1      41.799  21.323  26.459  1.00  0.00     0.060 A 
ATOM     30  C   UNL A   1      41.943  22.391  25.591  1.00  0.00     0.016 A 
ATOM     31  C   UNL A   1      42.146  21.537  27.805  1.00  0.00     0.016 A 
ATOM     32  C   UNL A   1      42.663  23.531  26.000  1.00  0.00     0.010 A 
ATOM     33  C   UNL A   1      42.709  22.767  28.243  1.00  0.00     0.010 A 
ATOM     34  C   UNL A   1      43.033  23.785  27.336  1.00  0.00    -0.014 A 
BRANCH  34  35
ATOM     35  C   UNL A   1      43.688  25.094  27.748  1.00  0.00     0.031 A 
ATOM     36  C   UNL A   1      42.910  26.273  28.335  1.00  0.00     0.074 A 
ATOM     37  C   UNL A   1      45.027  25.260  27.602  1.00  0.00     0.049 A 
ATOM     38  N   UNL A   1      43.275  27.530  28.471  1.00  0.00    -0.248 NA
ATOM     39  C   UNL A   1      41.555  26.012  28.846  1.00  0.00     0.031 C 
ATOM     40  C   UNL A   1      45.968  24.242  27.124  1.00  0.00     0.029 A 
ATOM     41  N   UNL A   1      45.842  26.349  27.840  1.00  0.00    -0.354 N 
ATOM     42  C   UNL A   1      42.183  28.213  29.017  1.00  0.00     0.074 A 
ATOM     43  C   UNL A   1      41.148  27.222  29.219  1.00  0.00     0.031 C 
ATOM     44  C   UNL A   1      47.216  24.713  27.182  1.00  0.00     0.029 A 
ATOM     45  C   UNL A   1      47.157  26.131  27.486  1.00  0.00     0.049 A 
ATOM     46  H   UNL A   1      45.517  27.196  28.222  1.00  0.00     0.167 HD
ATOM     47  C   UNL A   1      42.048  29.539  29.297  1.00  0.00     0.031 A 
ATOM     48  C   UNL A   1      48.198  26.963  27.286  1.00  0.00     0.031 A 
ATOM     49  C   UNL A   1      43.099  30.517  29.119  1.00  0.00     0.049 A 
ATOM     50  C   UNL A   1      48.000  28.433  27.467  1.00  0.00     0.074 A 
ATOM     51  C   UNL A   1      43.059  31.883  29.362  1.00  0.00     0.029 A 
ATOM     52  N   UNL A   1      44.380  30.239  28.664  1.00  0.00    -0.354 N 
ATOM     53  N   UNL A   1      46.925  29.071  27.859  1.00  0.00    -0.248 NA
ATOM     54  C   UNL A   1      49.144  29.296  27.152  1.00  0.00     0.031 C 
ATOM     55  C   UNL A   1      44.290  32.436  28.990  1.00  0.00     0.029 A 
ATOM     56  C   UNL A   1      45.124  31.407  28.590  1.00  0.00     0.049 A 
ATOM     57  H   UNL A   1      44.712  29.343  28.429  1.00  0.00     0.167 HD
ATOM     58  C   UNL A   1      47.267  30.415  27.852  1.00  0.00     0.074 A 
ATOM     59  C   UNL A   1      48.654  30.494  27.436  1.00  0.00     0.031 C 
ATOM     60  C   UNL A   1      46.498  31.486  28.164  1.00  0.00     0.031 A 
BRANCH  47  61
ATOM     61  C   UNL A   1      40.700  30.064  29.759  1.00  0.00    -0.014 A 
ATOM     62  C   UNL A   1      39.643  30.324  28.868  1.00  0.00     0.010 A 
ATOM     63  C   UNL A   1      40.450  30.180  31.144  1.00  0.00     0.010 A 
ATOM     64  C   UNL A   1      38.382  30.713  29.350  1.00  0.00     0.020 A 
ATOM     65  C   UNL A   1      39.188  30.540  31.630  1.00  0.00     0.020 A 
ATOM     66  C   UNL A   1      38.162  30.820  30.727  1.00  0.00     0.054 A 
BRANCH  66  67
ATOM     67  S   UNL A   1      36.513  31.296  31.324  1.00  0.00     0.124 S 
ATOM     68  O   UNL A   1      36.231  30.246  32.300  1.00  0.00    -0.237 OA
ATOM     69  O   UNL A   1      36.744  32.626  31.882  1.00  0.00    -0.237 OA
ATOM     70  O   UNL A   1      35.682  31.264  30.123  1.00  0.00    -0.744 OA
ENDBRANCH  66  67
ENDBRANCH  47  61
BRANCH  48  71
ATOM     71  C   UNL A   1      49.473  26.414  26.739  1.00  0.00    -0.014 A 
ATOM     72  C   UNL A   1      49.770  26.485  25.370  1.00  0.00     0.010 A 
ATOM     73  C   UNL A   1      50.436  25.876  27.620  1.00  0.00     0.010 A 
ATOM     74  C   UNL A   1      51.009  26.042  24.894  1.00  0.00     0.020 A 
ATOM     75  C   UNL A   1      51.690  25.477  27.156  1.00  0.00     0.020 A 
ATOM     76  C   UNL A   1      51.965  25.555  25.791  1.00  0.00     0.054 A 
BRANCH  76  77
ATOM     77  S   UNL A   1      53.599  25.076  25.164  1.00  0.00     0.124 S 
ATOM     78  O   UNL A   1      54.492  25.777  26.081  1.00  0.00    -0.237 OA
ATOM     79  O   UNL A   1      53.573  23.622  25.292  1.00  0.00    -0.237 OA
ATOM     80  O   UNL A   1      53.597  25.572  23.789  1.00  0.00    -0.744 OA
ENDBRANCH  76  77
ENDBRANCH  48  71
BRANCH  60  81
ATOM     81  C   UNL A   1      47.164  32.833  28.119  1.00  0.00    -0.014 A 
ATOM     82  C   UNL A   1      47.814  33.368  29.245  1.00  0.00     0.010 A 
ATOM     83  C   UNL A   1      47.131  33.577  26.926  1.00  0.00     0.010 A 
ATOM     84  C   UNL A   1      48.382  34.643  29.191  1.00  0.00     0.020 A 
ATOM     85  C   UNL A   1      47.724  34.839  26.859  1.00  0.00     0.020 A 
ATOM     86  C   UNL A   1      48.331  35.372  27.998  1.00  0.00     0.054 A 
BRANCH  86  87
ATOM     87  S   UNL A   1      49.093  37.016  27.948  1.00  0.00     0.124 S 
ATOM     88  O   UNL A   1      50.515  36.690  27.896  1.00  0.00    -0.237 OA
ATOM     89  O   UNL A   1      48.534  37.590  26.727  1.00  0.00    -0.237 OA
ATOM     90  O   UNL A   1      48.642  37.645  29.189  1.00  0.00    -0.744 OA
ENDBRANCH  86  87
ENDBRANCH  60  81
ENDBRANCH  34  35
ENDBRANCH  27  29
ENDBRANCH  26  27
ENDBRANCH  25  26
ENDBRANCH   1  25
TORSDOF 19
ENDMDL
MODEL 2
REMARK VINA RESULT:     -10.2      2.133      3.095
REMARK SMILES C[C@@]([NH2+]CC(=O)NC1CCOCC1)(C(=O)OCCOC(=O)c1ccc(-c2c3nc(c(-c4ccc(S(=O)(=O)[O-])cc4)c4ccc([nH]4)c(-c4ccc(S(=O)(=O)[O-])cc4)c4nc(c(-c5ccc(S(=O)(=O)[O-])cc5)c5ccc2[nH]5)C=C4)C=C3)cc1)C(F)(F)F
REMARK SMILES IDX 17 1 16 2 14 3 15 4 2 5 1 6 3 7 4 10 5 11 6 12 7 13 8 15
REMARK SMILES IDX 9 16 13 17 10 18 12 19 11 20 82 21 83 22 84 23 85 24 18 25
REMARK SMILES IDX 19 26 20 27 21 28 22 29 23 30 81 31 24 32 80 33 25 34 26 35
REMARK SMILES IDX 27 36 74 37 28 38 79 39 73 40 75 41 29 42 78 43 72 44 71 45
REMARK SMILES IDX 30 47 60 48 41 49 59 50 42 51 45 52 58 53 76 54 43 55 44 56
REMARK SMILES IDX 57 58 77 59 46 60 31 61 32 62 40 63 33 64 39 65 34 66 35 67
REMARK SMILES IDX 36 68 37 69 38 70 61 71 62 72 70 73 63 74 69 75 64 76 65 77
REMARK SMILES IDX 66 78 67 79 68 80 47 81 48 82 56 83 49 84 55 85 50 86 51 87
REMARK SMILES IDX 52 88 53 89 54 90
REMARK H PARENT 3 8 3 9 7 14 75 46 45 57
REMARK Flexibility Score: inf
ROOT
ATOM      1  C   UNL A   1      36.081  22.950  23.583  1.00  0.00     0.274 C 
ENDROOT
BRANCH   1   2
ATOM      2  O   UNL A   1      35.425  24.030  24.354  1.00  0.00    -0.457 OA
BRANCH   2   3
ATOM      3  C   UNL A   1      34.249  24.481  23.800  1.00  0.00     0.377 C 
ATOM      4  O   UNL A   1      34.207  24.588  22.573  1.00  0.00    -0.244 OA
BRANCH   3   5
ATOM      5  C   UNL A   1      33.035  24.989  24.807  1.00  0.00     0.287 C 
ATOM      6  C   UNL A   1      31.762  24.511  24.064  1.00  0.00     0.103 C 
BRANCH   5   7
ATOM      7  N   UNL A   1      33.383  24.230  26.061  1.00  0.00    -0.317 N 
ATOM      8  H   UNL A   1      33.167  24.816  26.867  1.00  0.00     0.347 HD
ATOM      9  H   UNL A   1      34.375  24.000  26.013  1.00  0.00     0.347 HD
BRANCH   7  10
ATOM     10  C   UNL A   1      32.609  22.909  26.195  1.00  0.00     0.363 C 
BRANCH  10  11
ATOM     11  C   UNL A   1      33.315  21.461  26.179  1.00  0.00     0.275 C 
ATOM     12  O   UNL A   1      33.883  21.048  27.195  1.00  0.00    -0.268 OA
ATOM     13  N   UNL A   1      33.541  20.794  24.980  1.00  0.00    -0.348 N 
ATOM     14  H   UNL A   1      33.904  21.347  24.252  1.00  0.00     0.163 HD
BRANCH  13  15
ATOM     15  C   UNL A   1      33.311  19.349  24.636  1.00  0.00     0.086 C 
ATOM     16  C   UNL A   1      34.601  18.540  24.553  1.00  0.00     0.053 C 
ATOM     17  C   UNL A   1      32.435  19.073  23.416  1.00  0.00     0.053 C 
ATOM     18  C   UNL A   1      34.359  17.152  23.962  1.00  0.00     0.162 C 
ATOM     19  C   UNL A   1      32.491  17.734  22.718  1.00  0.00     0.162 C 
ATOM     20  O   UNL A   1      33.818  17.265  22.651  1.00  0.00    -0.381 OA
ENDBRANCH  13  15
ENDBRANCH  10  11
ENDBRANCH   7  10
ENDBRANCH   5   7
BRANCH   5  21
ATOM     21  C   UNL A   1      32.539  26.421  25.372  1.00  0.00     0.455 C 
ATOM     22  F   UNL A   1      32.303  27.405  24.494  1.00  0.00    -0.164 F 
ATOM     23  F   UNL A   1      31.337  26.244  26.017  1.00  0.00    -0.164 F 
ATOM     24  F   UNL A   1      33.305  26.926  26.379  1.00  0.00    -0.164 F 
ENDBRANCH   5  21
ENDBRANCH   3   5
ENDBRANCH   2   3
ENDBRANCH   1   2
BRANCH   1  25
ATOM     25  C   UNL A   1      36.998  21.937  24.349  1.00  0.00     0.275 C 
BRANCH  25  26
ATOM     26  O   UNL A   1      37.271  22.228  25.751  1.00  0.00    -0.458 OA
BRANCH  26  27
ATOM     27  C   UNL A   1      38.585  22.025  26.135  1.00  0.00     0.338 C 
ATOM     28  O   UNL A   1      39.272  21.103  25.761  1.00  0.00    -0.246 OA
BRANCH  27  29
ATOM     29  C   UNL A   1      39.157  23.190  26.910  1.00  0.00     0.060 A 
ATOM     30  C   UNL A   1      38.589  24.451  26.854  1.00  0.00     0.016 A 
ATOM     31  C   UNL A   1      40.393  23.070  27.572  1.00  0.00     0.016 A 
ATOM     32  C   UNL A   1      39.358  25.580  27.202  1.00  0.00     0.010 A 
ATOM     33  C   UNL A   1      41.077  24.207  28.083  1.00  0.00     0.010 A 
ATOM     34  C   UNL A   1      40.600  25.505  27.864  1.00  0.00    -0.014 A 
BRANCH  34  35
ATOM     35  C   UNL A   1      41.326  26.754  28.340  1.00  0.00     0.031 A 
ATOM     36  C   UNL A   1      40.636  27.884  29.107  1.00  0.00     0.074 A 
ATOM     37  C   UNL A   1      42.651  26.908  28.091  1.00  0.00     0.049 A 
ATOM     38  N   UNL A   1      41.047  29.114  29.331  1.00  0.00    -0.248 NA
ATOM     39  C   UNL A   1      39.324  27.600  29.711  1.00  0.00     0.031 C 
ATOM     40  C   UNL A   1      43.517  25.924  27.433  1.00  0.00     0.029 A 
ATOM     41  N   UNL A   1      43.514  27.952  28.359  1.00  0.00    -0.354 N 
ATOM     42  C   UNL A   1      40.026  29.760  30.038  1.00  0.00     0.074 A 
ATOM     43  C   UNL A   1      38.986  28.774  30.234  1.00  0.00     0.031 C 
ATOM     44  C   UNL A   1      44.778  26.363  27.424  1.00  0.00     0.029 A 
ATOM     45  C   UNL A   1      44.786  27.744  27.869  1.00  0.00     0.049 A 
ATOM     46  H   UNL A   1      43.248  28.762  28.849  1.00  0.00     0.167 HD
ATOM     47  C   UNL A   1      39.954  31.054  30.456  1.00  0.00     0.031 A 
ATOM     48  C   UNL A   1      45.829  28.572  27.657  1.00  0.00     0.031 A 
ATOM     49  C   UNL A   1      41.013  32.024  30.280  1.00  0.00     0.049 A 
ATOM     50  C   UNL A   1      45.688  30.020  27.997  1.00  0.00     0.074 A 
ATOM     51  C   UNL A   1      41.033  33.360  30.656  1.00  0.00     0.029 A 
ATOM     52  N   UNL A   1      42.240  31.769  29.685  1.00  0.00    -0.354 N 
ATOM     53  N   UNL A   1      44.670  30.636  28.545  1.00  0.00    -0.248 NA
ATOM     54  C   UNL A   1      46.824  30.888  27.666  1.00  0.00     0.031 C 
ATOM     55  C   UNL A   1      42.241  33.923  30.231  1.00  0.00     0.029 A 
ATOM     56  C   UNL A   1      43.007  32.924  29.659  1.00  0.00     0.049 A 
ATOM     57  H   UNL A   1      42.525  30.893  29.336  1.00  0.00     0.167 HD
ATOM     58  C   UNL A   1      45.049  31.968  28.638  1.00  0.00     0.074 A 
ATOM     59  C   UNL A   1      46.396  32.061  28.108  1.00  0.00     0.031 C 
ATOM     60  C   UNL A   1      44.341  33.017  29.120  1.00  0.00     0.031 A 
BRANCH  47  61
ATOM     61  C   UNL A   1      38.667  31.557  31.087  1.00  0.00    -0.014 A 
ATOM     62  C   UNL A   1      38.429  31.495  32.471  1.00  0.00     0.010 A 
ATOM     63  C   UNL A   1      37.724  32.224  30.275  1.00  0.00     0.010 A 
ATOM     64  C   UNL A   1      37.267  32.062  33.022  1.00  0.00     0.020 A 
ATOM     65  C   UNL A   1      36.580  32.815  30.823  1.00  0.00     0.020 A 
ATOM     66  C   UNL A   1      36.350  32.717  32.195  1.00  0.00     0.054 A 
BRANCH  66  67
ATOM     67  S   UNL A   1      34.871  33.469  32.938  1.00  0.00     0.124 S 
ATOM     68  O   UNL A   1      34.958  34.846  32.456  1.00  0.00    -0.237 OA
ATOM     69  O   UNL A   1      33.785  32.674  32.368  1.00  0.00    -0.237 OA
ATOM     70  O   UNL A   1      35.075  33.301  34.374  1.00  0.00    -0.744 OA
ENDBRANCH  66  67
ENDBRANCH  47  61
BRANCH  48  71
ATOM     71  C   UNL A   1      47.035  28.055  26.947  1.00  0.00    -0.014 A 
ATOM     72  C   UNL A   1      47.080  27.980  25.546  1.00  0.00     0.010 A 
ATOM     73  C   UNL A   1      48.183  27.700  27.687  1.00  0.00     0.010 A 
ATOM     74  C   UNL A   1      48.253  27.574  24.900  1.00  0.00     0.020 A 
ATOM     75  C   UNL A   1      49.368  27.341  27.045  1.00  0.00     0.020 A 
ATOM     76  C   UNL A   1      49.392  27.271  25.653  1.00  0.00     0.054 A 
BRANCH  76  77
ATOM     77  S   UNL A   1      50.929  26.841  24.790  1.00  0.00     0.124 S 
ATOM     78  O   UNL A   1      51.253  25.545  25.379  1.00  0.00    -0.237 OA
ATOM     79  O   UNL A   1      50.511  26.814  23.391  1.00  0.00    -0.237 OA
ATOM     80  O   UNL A   1      51.836  27.933  25.140  1.00  0.00    -0.744 OA
ENDBRANCH  76  77
ENDBRANCH  48  71
BRANCH  60  81
ATOM     81  C   UNL A   1      45.037  34.349  29.146  1.00  0.00    -0.014 A 
ATOM     82  C   UNL A   1      44.997  35.218  28.041  1.00  0.00     0.010 A 
ATOM     83  C   UNL A   1      45.748  34.732  30.297  1.00  0.00     0.010 A 
ATOM     84  C   UNL A   1      45.693  36.429  28.073  1.00  0.00     0.020 A 
ATOM     85  C   UNL A   1      46.420  35.955  30.343  1.00  0.00     0.020 A 
ATOM     86  C   UNL A   1      46.403  36.788  29.223  1.00  0.00     0.054 A 
BRANCH  86  87
ATOM     87  S   UNL A   1      47.282  38.373  29.246  1.00  0.00     0.124 S 
ATOM     88  O   UNL A   1      48.585  37.991  29.781  1.00  0.00    -0.237 OA
ATOM     89  O   UNL A   1      47.270  38.766  27.839  1.00  0.00    -0.237 OA
ATOM     90  O   UNL A   1      46.467  39.209  30.127  1.00  0.00    -0.744 OA
ENDBRANCH  86  87
ENDBRANCH  60  81
ENDBRANCH  34  35
ENDBRANCH  27  29
ENDBRANCH  26  27
ENDBRANCH  25  26
ENDBRANCH   1  25
TORSDOF 19
ENDMDL
MODEL 3
REMARK VINA RESULT:     -10.2      3.310      7.979
REMARK SMILES C[C@@]([NH2+]CC(=O)NC1CCOCC1)(C(=O)OCCOC(=O)c1ccc(-c2c3nc(c(-c4ccc(S(=O)(=O)[O-])cc4)c4ccc([nH]4)c(-c4ccc(S(=O)(=O)[O-])cc4)c4nc(c(-c5ccc(S(=O)(=O)[O-])cc5)c5ccc2[nH]5)C=C4)C=C3)cc1)C(F)(F)F
REMARK SMILES IDX 17 1 16 2 14 3 15 4 2 5 1 6 3 7 4 10 5 11 6 12 7 13 8 15
REMARK SMILES IDX 9 16 13 17 10 18 12 19 11 20 82 21 83 22 84 23 85 24 18 25
REMARK SMILES IDX 19 26 20 27 21 28 22 29 23 30 81 31 24 32 80 33 25 34 26 35
REMARK SMILES IDX 27 36 74 37 28 38 79 39 73 40 75 41 29 42 78 43 72 44 71 45
REMARK SMILES IDX 30 47 60 48 41 49 59 50 42 51 45 52 58 53 76 54 43 55 44 56
REMARK SMILES IDX 57 58 77 59 46 60 31 61 32 62 40 63 33 64 39 65 34 66 35 67
REMARK SMILES IDX 36 68 37 69 38 70 61 71 62 72 70 73 63 74 69 75 64 76 65 77
REMARK SMILES IDX 66 78 67 79 68 80 47 81 48 82 56 83 49 84 55 85 50 86 51 87
REMARK SMILES IDX 52 88 53 89 54 90
REMARK H PARENT 3 8 3 9 7 14 75 46 45 57
REMARK Flexibility Score: inf
ROOT
ATOM      1  C   UNL A   1      31.975  29.727  25.594  1.00  0.00     0.274 C 
ENDROOT
BRANCH   1   2
ATOM      2  O   UNL A   1      32.731  28.685  24.863  1.00  0.00    -0.457 OA
BRANCH   2   3
ATOM      3  C   UNL A   1      32.415  28.597  23.527  1.00  0.00     0.377 C 
ATOM      4  O   UNL A   1      33.105  29.245  22.739  1.00  0.00    -0.244 OA
BRANCH   3   5
ATOM      5  C   UNL A   1      31.054  27.762  23.082  1.00  0.00     0.287 C 
ATOM      6  C   UNL A   1      30.175  28.869  22.448  1.00  0.00     0.103 C 
BRANCH   5   7
ATOM      7  N   UNL A   1      31.647  26.767  22.118  1.00  0.00    -0.317 N 
ATOM      8  H   UNL A   1      32.056  27.276  21.335  1.00  0.00     0.347 HD
ATOM      9  H   UNL A   1      30.894  26.148  21.817  1.00  0.00     0.347 HD
BRANCH   7  10
ATOM     10  C   UNL A   1      32.737  25.892  22.757  1.00  0.00     0.363 C 
BRANCH  10  11
ATOM     11  C   UNL A   1      33.004  24.360  22.338  1.00  0.00     0.275 C 
ATOM     12  O   UNL A   1      33.398  24.099  21.197  1.00  0.00    -0.268 OA
ATOM     13  N   UNL A   1      32.538  23.315  23.128  1.00  0.00    -0.348 N 
ATOM     14  H   UNL A   1      31.615  23.413  23.454  1.00  0.00     0.163 HD
BRANCH  13  15
ATOM     15  C   UNL A   1      33.240  22.057  23.556  1.00  0.00     0.086 C 
ATOM     16  C   UNL A   1      32.338  20.828  23.531  1.00  0.00     0.053 C 
ATOM     17  C   UNL A   1      34.007  22.123  24.876  1.00  0.00     0.053 C 
ATOM     18  C   UNL A   1      33.002  19.627  24.204  1.00  0.00     0.162 C 
ATOM     19  C   UNL A   1      34.365  20.858  25.620  1.00  0.00     0.162 C 
ATOM     20  O   UNL A   1      33.306  19.931  25.560  1.00  0.00    -0.381 OA
ENDBRANCH  13  15
ENDBRANCH  10  11
ENDBRANCH   7  10
ENDBRANCH   5   7
BRANCH   5  21
ATOM     21  C   UNL A   1      29.936  26.893  23.863  1.00  0.00     0.455 C 
ATOM     22  F   UNL A   1      30.061  26.742  25.189  1.00  0.00    -0.164 F 
ATOM     23  F   UNL A   1      28.716  27.506  23.703  1.00  0.00    -0.164 F 
ATOM     24  F   UNL A   1      29.690  25.669  23.319  1.00  0.00    -0.164 F 
ENDBRANCH   5  21
ENDBRANCH   3   5
ENDBRANCH   2   3
ENDBRANCH   1   2
BRANCH   1  25
ATOM     25  C   UNL A   1      32.747  30.630  26.617  1.00  0.00     0.275 C 
BRANCH  25  26
ATOM     26  O   UNL A   1      33.549  29.945  27.622  1.00  0.00    -0.458 OA
BRANCH  26  27
ATOM     27  C   UNL A   1      34.478  30.748  28.261  1.00  0.00     0.338 C 
ATOM     28  O   UNL A   1      34.215  31.788  28.816  1.00  0.00    -0.246 OA
BRANCH  27  29
ATOM     29  C   UNL A   1      35.835  30.092  28.386  1.00  0.00     0.060 A 
ATOM     30  C   UNL A   1      36.335  29.680  29.609  1.00  0.00     0.016 A 
ATOM     31  C   UNL A   1      36.707  30.041  27.284  1.00  0.00     0.016 A 
ATOM     32  C   UNL A   1      37.722  29.494  29.769  1.00  0.00     0.010 A 
ATOM     33  C   UNL A   1      38.073  29.673  27.432  1.00  0.00     0.010 A 
ATOM     34  C   UNL A   1      38.633  29.438  28.695  1.00  0.00    -0.014 A 
BRANCH  34  35
ATOM     35  C   UNL A   1      40.100  29.098  28.909  1.00  0.00     0.031 A 
ATOM     36  C   UNL A   1      41.143  30.127  29.347  1.00  0.00     0.074 A 
ATOM     37  C   UNL A   1      40.540  27.829  28.712  1.00  0.00     0.049 A 
ATOM     38  N   UNL A   1      42.457  30.055  29.303  1.00  0.00    -0.248 NA
ATOM     39  C   UNL A   1      40.658  31.392  29.920  1.00  0.00     0.031 C 
ATOM     40  C   UNL A   1      39.703  26.679  28.355  1.00  0.00     0.029 A 
ATOM     41  N   UNL A   1      41.806  27.283  28.780  1.00  0.00    -0.354 N 
ATOM     42  C   UNL A   1      42.945  31.278  29.775  1.00  0.00     0.074 A 
ATOM     43  C   UNL A   1      41.785  32.065  30.134  1.00  0.00     0.031 C 
ATOM     44  C   UNL A   1      40.445  25.570  28.321  1.00  0.00     0.029 A 
ATOM     45  C   UNL A   1      41.842  25.950  28.430  1.00  0.00     0.049 A 
ATOM     46  H   UNL A   1      42.603  27.793  29.051  1.00  0.00     0.167 HD
ATOM     47  C   UNL A   1      44.233  31.711  29.875  1.00  0.00     0.031 A 
ATOM     48  C   UNL A   1      42.851  25.121  28.094  1.00  0.00     0.031 A 
ATOM     49  C   UNL A   1      45.388  30.906  29.541  1.00  0.00     0.049 A 
ATOM     50  C   UNL A   1      44.249  25.647  28.078  1.00  0.00     0.074 A 
ATOM     51  C   UNL A   1      46.730  31.254  29.596  1.00  0.00     0.029 A 
ATOM     52  N   UNL A   1      45.345  29.592  29.098  1.00  0.00    -0.354 N 
ATOM     53  N   UNL A   1      44.677  26.842  28.403  1.00  0.00    -0.248 NA
ATOM     54  C   UNL A   1      45.295  24.725  27.622  1.00  0.00     0.031 C 
ATOM     55  C   UNL A   1      47.488  30.177  29.124  1.00  0.00     0.029 A 
ATOM     56  C   UNL A   1      46.628  29.129  28.849  1.00  0.00     0.049 A 
ATOM     57  H   UNL A   1      44.522  29.063  28.981  1.00  0.00     0.167 HD
ATOM     58  C   UNL A   1      46.050  26.811  28.205  1.00  0.00     0.074 A 
ATOM     59  C   UNL A   1      46.380  25.474  27.751  1.00  0.00     0.031 C 
ATOM     60  C   UNL A   1      46.953  27.804  28.386  1.00  0.00     0.031 A 
BRANCH  47  61
ATOM     61  C   UNL A   1      44.501  33.147  30.291  1.00  0.00    -0.014 A 
ATOM     62  C   UNL A   1      44.364  34.230  29.405  1.00  0.00     0.010 A 
ATOM     63  C   UNL A   1      44.776  33.424  31.648  1.00  0.00     0.010 A 
ATOM     64  C   UNL A   1      44.525  35.549  29.859  1.00  0.00     0.020 A 
ATOM     65  C   UNL A   1      44.910  34.738  32.111  1.00  0.00     0.020 A 
ATOM     66  C   UNL A   1      44.798  35.796  31.208  1.00  0.00     0.054 A 
BRANCH  66  67
ATOM     67  S   UNL A   1      44.970  37.514  31.776  1.00  0.00     0.124 S 
ATOM     68  O   UNL A   1      45.049  38.243  30.512  1.00  0.00    -0.237 OA
ATOM     69  O   UNL A   1      43.746  37.723  32.545  1.00  0.00    -0.237 OA
ATOM     70  O   UNL A   1      46.202  37.502  32.562  1.00  0.00    -0.744 OA
ENDBRANCH  66  67
ENDBRANCH  47  61
BRANCH  48  71
ATOM     71  C   UNL A   1      42.531  23.750  27.599  1.00  0.00    -0.014 A 
ATOM     72  C   UNL A   1      42.306  23.502  26.236  1.00  0.00     0.010 A 
ATOM     73  C   UNL A   1      42.525  22.665  28.501  1.00  0.00     0.010 A 
ATOM     74  C   UNL A   1      42.095  22.194  25.785  1.00  0.00     0.020 A 
ATOM     75  C   UNL A   1      42.363  21.356  28.048  1.00  0.00     0.020 A 
ATOM     76  C   UNL A   1      42.138  21.130  26.691  1.00  0.00     0.054 A 
BRANCH  76  77
ATOM     77  S   UNL A   1      41.957  19.435  26.069  1.00  0.00     0.124 S 
ATOM     78  O   UNL A   1      42.415  18.645  27.208  1.00  0.00    -0.237 OA
ATOM     79  O   UNL A   1      40.529  19.356  25.776  1.00  0.00    -0.237 OA
ATOM     80  O   UNL A   1      42.828  19.406  24.895  1.00  0.00    -0.744 OA
ENDBRANCH  76  77
ENDBRANCH  48  71
BRANCH  60  81
ATOM     81  C   UNL A   1      48.396  27.459  28.142  1.00  0.00    -0.014 A 
ATOM     82  C   UNL A   1      48.980  27.608  26.871  1.00  0.00     0.010 A 
ATOM     83  C   UNL A   1      49.177  26.973  29.205  1.00  0.00     0.010 A 
ATOM     84  C   UNL A   1      50.310  27.234  26.660  1.00  0.00     0.020 A 
ATOM     85  C   UNL A   1      50.515  26.627  29.004  1.00  0.00     0.020 A 
ATOM     86  C   UNL A   1      51.067  26.743  27.728  1.00  0.00     0.054 A 
BRANCH  86  87
ATOM     87  S   UNL A   1      52.796  26.284  27.432  1.00  0.00     0.124 S 
ATOM     88  O   UNL A   1      53.265  27.387  26.598  1.00  0.00    -0.237 OA
ATOM     89  O   UNL A   1      53.350  26.236  28.782  1.00  0.00    -0.237 OA
ATOM     90  O   UNL A   1      52.700  24.990  26.757  1.00  0.00    -0.744 OA
ENDBRANCH  86  87
ENDBRANCH  60  81
ENDBRANCH  34  35
ENDBRANCH  27  29
ENDBRANCH  26  27
ENDBRANCH  25  26
ENDBRANCH   1  25
TORSDOF 19
ENDMDL
