MODEL 1
REMARK VINA RESULT:      -9.7      0.000      0.000
REMARK SMILES O=C(NC[C@@H]1CCOC1)NC[C@@H]1CC[C@H](C(=O)OCCOC(=O)c2ccc(-c3c4nc(c(-c5ccc(S(=O)(=O)[O-])cc5)c5ccc([nH]5)c(-c5ccc(S(=O)(=O)[O-])cc5)c5nc(c(-c6ccc(S(=O)(=O)[O-])cc6)c6ccc3[nH]6)C=C5)C=C4)cc2)O1
REMARK SMILES IDX 19 1 18 2 16 3 17 4 15 5 12 6 13 7 84 8 14 9 11 10 10 11
REMARK SMILES IDX 1 12 2 13 3 14 4 17 5 18 6 19 9 20 7 21 8 22 20 23 21 24
REMARK SMILES IDX 22 25 23 26 24 27 25 28 83 29 26 30 82 31 27 32 28 33 29 34
REMARK SMILES IDX 76 35 30 36 81 37 75 38 77 39 31 40 80 41 74 42 73 43 32 45
REMARK SMILES IDX 62 46 43 47 61 48 44 49 47 50 60 51 78 52 45 53 46 54 59 56
REMARK SMILES IDX 79 57 48 58 33 59 34 60 42 61 35 62 41 63 36 64 37 65 38 66
REMARK SMILES IDX 39 67 40 68 63 69 64 70 72 71 65 72 71 73 66 74 67 75 68 76
REMARK SMILES IDX 69 77 70 78 49 79 50 80 58 81 51 82 57 83 52 84 53 85 54 86
REMARK SMILES IDX 55 87 56 88
REMARK H PARENT 3 15 10 16 77 44 47 55
REMARK Flexibility Score: inf
ROOT
ATOM      1  C   UNL A   1      35.754  32.899  32.337  1.00  0.00     0.274 C 
ENDROOT
BRANCH   1   2
ATOM      2  O   UNL A   1      35.303  34.092  31.670  1.00  0.00    -0.460 OA
BRANCH   2   3
ATOM      3  C   UNL A   1      34.909  35.127  32.461  1.00  0.00     0.335 C 
ATOM      4  O   UNL A   1      35.592  35.616  33.355  1.00  0.00    -0.249 OA
BRANCH   3   5
ATOM      5  C   UNL A   1      33.492  35.626  32.124  1.00  0.00     0.228 C 
ATOM      6  C   UNL A   1      32.924  35.748  29.864  1.00  0.00     0.138 C 
ATOM      7  C   UNL A   1      33.569  37.067  30.267  1.00  0.00     0.037 C 
ATOM      8  O   UNL A   1      32.916  34.903  31.028  1.00  0.00    -0.361 OA
ATOM      9  C   UNL A   1      33.381  37.096  31.761  1.00  0.00     0.047 C 
BRANCH   6  10
ATOM     10  C   UNL A   1      33.624  35.005  28.721  1.00  0.00     0.149 C 
BRANCH  10  11
ATOM     11  N   UNL A   1      35.042  34.810  28.948  1.00  0.00    -0.336 N 
ATOM     12  O   UNL A   1      35.213  32.983  27.588  1.00  0.00    -0.249 OA
ATOM     13  C   UNL A   1      35.707  33.768  28.393  1.00  0.00     0.314 C 
ATOM     14  N   UNL A   1      36.989  33.577  28.767  1.00  0.00    -0.338 N 
ATOM     15  H   UNL A   1      37.444  32.852  28.279  1.00  0.00     0.165 HD
ATOM     16  H   UNL A   1      35.532  35.447  29.517  1.00  0.00     0.165 HD
BRANCH  14  17
ATOM     17  C   UNL A   1      37.824  34.235  29.749  1.00  0.00     0.123 C 
BRANCH  17  18
ATOM     18  C   UNL A   1      39.175  33.550  30.025  1.00  0.00     0.036 C 
ATOM     19  C   UNL A   1      39.388  33.062  31.445  1.00  0.00     0.036 C 
ATOM     20  C   UNL A   1      40.375  34.462  29.817  1.00  0.00     0.165 C 
ATOM     21  C   UNL A   1      40.106  34.215  32.118  1.00  0.00     0.160 C 
ATOM     22  O   UNL A   1      40.830  34.906  31.097  1.00  0.00    -0.381 OA
ENDBRANCH  17  18
ENDBRANCH  14  17
ENDBRANCH  10  11
ENDBRANCH   6  10
ENDBRANCH   3   5
ENDBRANCH   2   3
ENDBRANCH   1   2
BRANCH   1  23
ATOM     23  C   UNL A   1      35.438  31.658  31.501  1.00  0.00     0.275 C 
BRANCH  23  24
ATOM     24  O   UNL A   1      36.626  31.144  30.870  1.00  0.00    -0.458 OA
BRANCH  24  25
ATOM     25  C   UNL A   1      37.138  30.025  31.434  1.00  0.00     0.338 C 
ATOM     26  O   UNL A   1      36.646  29.343  32.316  1.00  0.00    -0.246 OA
BRANCH  25  27
ATOM     27  C   UNL A   1      38.369  29.648  30.729  1.00  0.00     0.060 A 
ATOM     28  C   UNL A   1      39.415  29.104  31.476  1.00  0.00     0.016 A 
ATOM     29  C   UNL A   1      38.530  29.915  29.369  1.00  0.00     0.016 A 
ATOM     30  C   UNL A   1      40.636  28.826  30.872  1.00  0.00     0.010 A 
ATOM     31  C   UNL A   1      39.756  29.628  28.760  1.00  0.00     0.010 A 
ATOM     32  C   UNL A   1      40.819  29.093  29.510  1.00  0.00    -0.014 A 
BRANCH  32  33
ATOM     33  C   UNL A   1      42.142  28.853  28.886  1.00  0.00     0.031 A 
ATOM     34  C   UNL A   1      42.466  27.501  28.318  1.00  0.00     0.074 A 
ATOM     35  C   UNL A   1      43.041  29.852  28.818  1.00  0.00     0.049 A 
ATOM     36  N   UNL A   1      43.593  27.067  27.815  1.00  0.00    -0.248 NA
ATOM     37  C   UNL A   1      41.381  26.507  28.316  1.00  0.00     0.031 C 
ATOM     38  C   UNL A   1      42.823  31.220  29.293  1.00  0.00     0.029 A 
ATOM     39  N   UNL A   1      44.322  29.867  28.328  1.00  0.00    -0.354 N 
ATOM     40  C   UNL A   1      43.366  25.743  27.466  1.00  0.00     0.074 A 
ATOM     41  C   UNL A   1      41.993  25.442  27.817  1.00  0.00     0.031 C 
ATOM     42  C   UNL A   1      43.934  31.940  29.071  1.00  0.00     0.029 A 
ATOM     43  C   UNL A   1      44.954  31.076  28.485  1.00  0.00     0.049 A 
ATOM     44  H   UNL A   1      44.746  29.087  27.903  1.00  0.00     0.167 HD
ATOM     45  C   UNL A   1      44.225  24.856  26.909  1.00  0.00     0.031 A 
ATOM     46  C   UNL A   1      46.223  31.439  28.221  1.00  0.00     0.031 A 
ATOM     47  C   UNL A   1      45.585  25.162  26.556  1.00  0.00     0.049 A 
ATOM     48  C   UNL A   1      47.173  30.426  27.647  1.00  0.00     0.074 A 
ATOM     49  C   UNL A   1      46.530  24.337  25.970  1.00  0.00     0.029 A 
ATOM     50  N   UNL A   1      46.197  26.389  26.758  1.00  0.00    -0.354 N 
ATOM     51  N   UNL A   1      46.945  29.174  27.328  1.00  0.00    -0.248 NA
ATOM     52  C   UNL A   1      48.552  30.870  27.405  1.00  0.00     0.031 C 
ATOM     53  C   UNL A   1      47.727  25.054  25.857  1.00  0.00     0.029 A 
ATOM     54  C   UNL A   1      47.514  26.339  26.332  1.00  0.00     0.049 A 
ATOM     55  H   UNL A   1      45.760  27.181  27.148  1.00  0.00     0.167 HD
ATOM     56  C   UNL A   1      48.151  28.681  26.844  1.00  0.00     0.074 A 
ATOM     57  C   UNL A   1      49.100  29.776  26.893  1.00  0.00     0.031 C 
ATOM     58  C   UNL A   1      48.447  27.435  26.402  1.00  0.00     0.031 A 
BRANCH  45  59
ATOM     59  C   UNL A   1      43.725  23.453  26.694  1.00  0.00    -0.014 A 
ATOM     60  C   UNL A   1      43.887  22.800  25.460  1.00  0.00     0.010 A 
ATOM     61  C   UNL A   1      43.095  22.775  27.754  1.00  0.00     0.010 A 
ATOM     62  C   UNL A   1      43.392  21.506  25.277  1.00  0.00     0.020 A 
ATOM     63  C   UNL A   1      42.616  21.474  27.580  1.00  0.00     0.020 A 
ATOM     64  C   UNL A   1      42.750  20.855  26.336  1.00  0.00     0.054 A 
BRANCH  64  65
ATOM     65  S   UNL A   1      42.116  19.174  26.077  1.00  0.00     0.124 S 
ATOM     66  O   UNL A   1      42.506  18.511  27.319  1.00  0.00    -0.237 OA
ATOM     67  O   UNL A   1      40.681  19.392  25.907  1.00  0.00    -0.237 OA
ATOM     68  O   UNL A   1      42.819  18.720  24.880  1.00  0.00    -0.744 OA
ENDBRANCH  64  65
ENDBRANCH  45  59
BRANCH  46  69
ATOM     69  C   UNL A   1      46.674  32.819  28.542  1.00  0.00    -0.014 A 
ATOM     70  C   UNL A   1      46.553  33.853  27.599  1.00  0.00     0.010 A 
ATOM     71  C   UNL A   1      47.195  33.109  29.817  1.00  0.00     0.010 A 
ATOM     72  C   UNL A   1      46.948  35.154  27.924  1.00  0.00     0.020 A 
ATOM     73  C   UNL A   1      47.570  34.413  30.153  1.00  0.00     0.020 A 
ATOM     74  C   UNL A   1      47.451  35.427  29.201  1.00  0.00     0.054 A 
BRANCH  74  75
ATOM     75  S   UNL A   1      47.887  37.136  29.631  1.00  0.00     0.124 S 
ATOM     76  O   UNL A   1      49.072  37.361  28.810  1.00  0.00    -0.237 OA
ATOM     77  O   UNL A   1      46.693  37.880  29.236  1.00  0.00    -0.237 OA
ATOM     78  O   UNL A   1      48.122  37.073  31.071  1.00  0.00    -0.744 OA
ENDBRANCH  74  75
ENDBRANCH  46  69
BRANCH  58  79
ATOM     79  C   UNL A   1      49.852  27.189  25.930  1.00  0.00    -0.014 A 
ATOM     80  C   UNL A   1      50.856  26.792  26.831  1.00  0.00     0.010 A 
ATOM     81  C   UNL A   1      50.161  27.308  24.563  1.00  0.00     0.010 A 
ATOM     82  C   UNL A   1      52.153  26.541  26.376  1.00  0.00     0.020 A 
ATOM     83  C   UNL A   1      51.452  27.039  24.102  1.00  0.00     0.020 A 
ATOM     84  C   UNL A   1      52.443  26.670  25.014  1.00  0.00     0.054 A 
BRANCH  84  85
ATOM     85  S   UNL A   1      54.122  26.294  24.436  1.00  0.00     0.124 S 
ATOM     86  O   UNL A   1      54.007  26.526  23.000  1.00  0.00    -0.237 OA
ATOM     87  O   UNL A   1      54.940  27.261  25.166  1.00  0.00    -0.237 OA
ATOM     88  O   UNL A   1      54.318  24.901  24.831  1.00  0.00    -0.744 OA
ENDBRANCH  84  85
ENDBRANCH  58  79
ENDBRANCH  32  33
ENDBRANCH  25  27
ENDBRANCH  24  25
ENDBRANCH  23  24
ENDBRANCH   1  23
TORSDOF 18
ENDMDL
MODEL 2
REMARK VINA RESULT:      -9.4      1.560      8.917
REMARK SMILES O=C(NC[C@@H]1CCOC1)NC[C@@H]1CC[C@H](C(=O)OCCOC(=O)c2ccc(-c3c4nc(c(-c5ccc(S(=O)(=O)[O-])cc5)c5ccc([nH]5)c(-c5ccc(S(=O)(=O)[O-])cc5)c5nc(c(-c6ccc(S(=O)(=O)[O-])cc6)c6ccc3[nH]6)C=C5)C=C4)cc2)O1
REMARK SMILES IDX 19 1 18 2 16 3 17 4 15 5 12 6 13 7 84 8 14 9 11 10 10 11
REMARK SMILES IDX 1 12 2 13 3 14 4 17 5 18 6 19 9 20 7 21 8 22 20 23 21 24
REMARK SMILES IDX 22 25 23 26 24 27 25 28 83 29 26 30 82 31 27 32 28 33 29 34
REMARK SMILES IDX 76 35 30 36 81 37 75 38 77 39 31 40 80 41 74 42 73 43 32 45
REMARK SMILES IDX 62 46 43 47 61 48 44 49 47 50 60 51 78 52 45 53 46 54 59 56
REMARK SMILES IDX 79 57 48 58 33 59 34 60 42 61 35 62 41 63 36 64 37 65 38 66
REMARK SMILES IDX 39 67 40 68 63 69 64 70 72 71 65 72 71 73 66 74 67 75 68 76
REMARK SMILES IDX 69 77 70 78 49 79 50 80 58 81 51 82 57 83 52 84 53 85 54 86
REMARK SMILES IDX 55 87 56 88
REMARK H PARENT 3 15 10 16 77 44 47 55
REMARK Flexibility Score: inf
ROOT
ATOM      1  C   UNL A   1      35.934  33.344  28.222  1.00  0.00     0.274 C 
ENDROOT
BRANCH   1   2
ATOM      2  O   UNL A   1      37.239  33.133  28.789  1.00  0.00    -0.460 OA
BRANCH   2   3
ATOM      3  C   UNL A   1      37.387  33.412  30.112  1.00  0.00     0.335 C 
ATOM      4  O   UNL A   1      36.586  34.059  30.779  1.00  0.00    -0.249 OA
BRANCH   3   5
ATOM      5  C   UNL A   1      38.689  32.836  30.700  1.00  0.00     0.228 C 
ATOM      6  C   UNL A   1      38.659  32.245  32.957  1.00  0.00     0.138 C 
ATOM      7  C   UNL A   1      39.056  33.711  32.852  1.00  0.00     0.037 C 
ATOM      8  O   UNL A   1      38.434  31.767  31.619  1.00  0.00    -0.361 OA
ATOM      9  C   UNL A   1      39.571  33.824  31.441  1.00  0.00     0.047 C 
BRANCH   6  10
ATOM     10  C   UNL A   1      37.407  31.969  33.796  1.00  0.00     0.149 C 
BRANCH  10  11
ATOM     11  N   UNL A   1      36.336  32.916  33.555  1.00  0.00    -0.336 N 
ATOM     12  O   UNL A   1      36.172  33.589  35.732  1.00  0.00    -0.249 OA
ATOM     13  C   UNL A   1      35.772  33.612  34.571  1.00  0.00     0.314 C 
ATOM     14  N   UNL A   1      34.688  34.365  34.284  1.00  0.00    -0.338 N 
ATOM     15  H   UNL A   1      34.365  34.904  35.041  1.00  0.00     0.165 HD
ATOM     16  H   UNL A   1      36.012  33.055  32.636  1.00  0.00     0.165 HD
BRANCH  14  17
ATOM     17  C   UNL A   1      33.911  34.529  33.074  1.00  0.00     0.123 C 
BRANCH  17  18
ATOM     18  C   UNL A   1      33.023  35.785  33.031  1.00  0.00     0.036 C 
ATOM     19  C   UNL A   1      32.303  36.038  31.720  1.00  0.00     0.036 C 
ATOM     20  C   UNL A   1      33.792  37.083  33.228  1.00  0.00     0.165 C 
ATOM     21  C   UNL A   1      33.239  36.964  30.969  1.00  0.00     0.160 C 
ATOM     22  O   UNL A   1      33.975  37.697  31.951  1.00  0.00    -0.381 OA
ENDBRANCH  17  18
ENDBRANCH  14  17
ENDBRANCH  10  11
ENDBRANCH   6  10
ENDBRANCH   3   5
ENDBRANCH   2   3
ENDBRANCH   1   2
BRANCH   1  23
ATOM     23  C   UNL A   1      35.109  32.056  28.264  1.00  0.00     0.275 C 
BRANCH  23  24
ATOM     24  O   UNL A   1      35.690  31.100  29.171  1.00  0.00    -0.458 OA
BRANCH  24  25
ATOM     25  C   UNL A   1      35.911  29.872  28.647  1.00  0.00     0.338 C 
ATOM     26  O   UNL A   1      35.088  29.098  28.190  1.00  0.00    -0.246 OA
BRANCH  25  27
ATOM     27  C   UNL A   1      37.356  29.626  28.585  1.00  0.00     0.060 A 
ATOM     28  C   UNL A   1      37.986  29.718  27.343  1.00  0.00     0.016 A 
ATOM     29  C   UNL A   1      38.065  29.215  29.714  1.00  0.00     0.016 A 
ATOM     30  C   UNL A   1      39.333  29.395  27.216  1.00  0.00     0.010 A 
ATOM     31  C   UNL A   1      39.421  28.897  29.587  1.00  0.00     0.010 A 
ATOM     32  C   UNL A   1      40.059  28.973  28.336  1.00  0.00    -0.014 A 
BRANCH  32  33
ATOM     33  C   UNL A   1      41.477  28.570  28.183  1.00  0.00     0.031 A 
ATOM     34  C   UNL A   1      42.564  29.601  28.293  1.00  0.00     0.074 A 
ATOM     35  C   UNL A   1      41.786  27.280  27.960  1.00  0.00     0.049 A 
ATOM     36  N   UNL A   1      43.851  29.466  28.100  1.00  0.00    -0.248 NA
ATOM     37  C   UNL A   1      42.149  30.962  28.668  1.00  0.00     0.031 C 
ATOM     38  C   UNL A   1      40.821  26.181  27.880  1.00  0.00     0.029 A 
ATOM     39  N   UNL A   1      43.000  26.676  27.754  1.00  0.00    -0.354 N 
ATOM     40  C   UNL A   1      44.397  30.728  28.298  1.00  0.00     0.074 A 
ATOM     41  C   UNL A   1      43.301  31.618  28.623  1.00  0.00     0.031 C 
ATOM     42  C   UNL A   1      41.482  25.037  27.641  1.00  0.00     0.029 A 
ATOM     43  C   UNL A   1      42.906  25.328  27.503  1.00  0.00     0.049 A 
ATOM     44  H   UNL A   1      43.856  27.161  27.784  1.00  0.00     0.167 HD
ATOM     45  C   UNL A   1      45.693  31.111  28.211  1.00  0.00     0.031 A 
ATOM     46  C   UNL A   1      43.854  24.434  27.165  1.00  0.00     0.031 A 
ATOM     47  C   UNL A   1      46.778  30.222  27.894  1.00  0.00     0.049 A 
ATOM     48  C   UNL A   1      45.279  24.891  27.027  1.00  0.00     0.074 A 
ATOM     49  C   UNL A   1      48.129  30.511  27.800  1.00  0.00     0.029 A 
ATOM     50  N   UNL A   1      46.639  28.871  27.618  1.00  0.00    -0.354 N 
ATOM     51  N   UNL A   1      45.779  26.090  27.211  1.00  0.00    -0.248 NA
ATOM     52  C   UNL A   1      46.266  23.879  26.628  1.00  0.00     0.031 C 
ATOM     53  C   UNL A   1      48.801  29.342  27.425  1.00  0.00     0.029 A 
ATOM     54  C   UNL A   1      47.874  28.316  27.328  1.00  0.00     0.049 A 
ATOM     55  H   UNL A   1      45.786  28.378  27.627  1.00  0.00     0.167 HD
ATOM     56  C   UNL A   1      47.140  25.975  26.954  1.00  0.00     0.074 A 
ATOM     57  C   UNL A   1      47.388  24.586  26.622  1.00  0.00     0.031 C 
ATOM     58  C   UNL A   1      48.098  26.934  26.987  1.00  0.00     0.031 A 
BRANCH  45  59
ATOM     59  C   UNL A   1      45.995  32.571  28.415  1.00  0.00    -0.014 A 
ATOM     60  C   UNL A   1      45.868  33.498  27.366  1.00  0.00     0.010 A 
ATOM     61  C   UNL A   1      46.400  33.020  29.686  1.00  0.00     0.010 A 
ATOM     62  C   UNL A   1      46.180  34.845  27.574  1.00  0.00     0.020 A 
ATOM     63  C   UNL A   1      46.693  34.370  29.902  1.00  0.00     0.020 A 
ATOM     64  C   UNL A   1      46.600  35.270  28.839  1.00  0.00     0.054 A 
BRANCH  64  65
ATOM     65  S   UNL A   1      46.998  37.023  29.088  1.00  0.00     0.124 S 
ATOM     66  O   UNL A   1      47.999  36.956  30.150  1.00  0.00    -0.237 OA
ATOM     67  O   UNL A   1      47.500  37.430  27.778  1.00  0.00    -0.237 OA
ATOM     68  O   UNL A   1      45.719  37.616  29.473  1.00  0.00    -0.744 OA
ENDBRANCH  64  65
ENDBRANCH  45  59
BRANCH  46  69
ATOM     69  C   UNL A   1      43.469  23.025  26.890  1.00  0.00    -0.014 A 
ATOM     70  C   UNL A   1      43.626  22.475  25.607  1.00  0.00     0.010 A 
ATOM     71  C   UNL A   1      42.976  22.215  27.929  1.00  0.00     0.010 A 
ATOM     72  C   UNL A   1      43.294  21.137  25.368  1.00  0.00     0.020 A 
ATOM     73  C   UNL A   1      42.663  20.872  27.699  1.00  0.00     0.020 A 
ATOM     74  C   UNL A   1      42.817  20.343  26.416  1.00  0.00     0.054 A 
BRANCH  74  75
ATOM     75  S   UNL A   1      42.463  18.591  26.105  1.00  0.00     0.124 S 
ATOM     76  O   UNL A   1      41.049  18.628  25.745  1.00  0.00    -0.237 OA
ATOM     77  O   UNL A   1      43.384  18.266  25.019  1.00  0.00    -0.237 OA
ATOM     78  O   UNL A   1      42.770  17.951  27.382  1.00  0.00    -0.744 OA
ENDBRANCH  74  75
ENDBRANCH  46  69
BRANCH  58  79
ATOM     79  C   UNL A   1      49.503  26.512  26.662  1.00  0.00    -0.014 A 
ATOM     80  C   UNL A   1      50.343  25.978  27.656  1.00  0.00     0.010 A 
ATOM     81  C   UNL A   1      49.973  26.603  25.340  1.00  0.00     0.010 A 
ATOM     82  C   UNL A   1      51.639  25.564  27.337  1.00  0.00     0.020 A 
ATOM     83  C   UNL A   1      51.261  26.173  25.014  1.00  0.00     0.020 A 
ATOM     84  C   UNL A   1      52.090  25.668  26.017  1.00  0.00     0.054 A 
BRANCH  84  85
ATOM     85  S   UNL A   1      53.760  25.083  25.614  1.00  0.00     0.124 S 
ATOM     86  O   UNL A   1      54.503  25.431  26.822  1.00  0.00    -0.237 OA
ATOM     87  O   UNL A   1      53.558  23.653  25.390  1.00  0.00    -0.237 OA
ATOM     88  O   UNL A   1      54.114  25.849  24.421  1.00  0.00    -0.744 OA
ENDBRANCH  84  85
ENDBRANCH  58  79
ENDBRANCH  32  33
ENDBRANCH  25  27
ENDBRANCH  24  25
ENDBRANCH  23  24
ENDBRANCH   1  23
TORSDOF 18
ENDMDL
MODEL 3
REMARK VINA RESULT:      -9.4      6.427      9.129
REMARK SMILES O=C(NC[C@@H]1CCOC1)NC[C@@H]1CC[C@H](C(=O)OCCOC(=O)c2ccc(-c3c4nc(c(-c5ccc(S(=O)(=O)[O-])cc5)c5ccc([nH]5)c(-c5ccc(S(=O)(=O)[O-])cc5)c5nc(c(-c6ccc(S(=O)(=O)[O-])cc6)c6ccc3[nH]6)C=C5)C=C4)cc2)O1
REMARK SMILES IDX 19 1 18 2 16 3 17 4 15 5 12 6 13 7 84 8 14 9 11 10 10 11
REMARK SMILES IDX 1 12 2 13 3 14 4 17 5 18 6 19 9 20 7 21 8 22 20 23 21 24
REMARK SMILES IDX 22 25 23 26 24 27 25 28 83 29 26 30 82 31 27 32 28 33 29 34
REMARK SMILES IDX 76 35 30 36 81 37 75 38 77 39 31 40 80 41 74 42 73 43 32 45
REMARK SMILES IDX 62 46 43 47 61 48 44 49 47 50 60 51 78 52 45 53 46 54 59 56
REMARK SMILES IDX 79 57 48 58 33 59 34 60 42 61 35 62 41 63 36 64 37 65 38 66
REMARK SMILES IDX 39 67 40 68 63 69 64 70 72 71 65 72 71 73 66 74 67 75 68 76
REMARK SMILES IDX 69 77 70 78 49 79 50 80 58 81 51 82 57 83 52 84 53 85 54 86
REMARK SMILES IDX 55 87 56 88
REMARK H PARENT 3 15 10 16 77 44 47 55
REMARK Flexibility Score: inf
ROOT
ATOM      1  C   UNL A   1      32.307  28.228  27.586  1.00  0.00     0.274 C 
ENDROOT
BRANCH   1   2
ATOM      2  O   UNL A   1      31.039  27.619  27.283  1.00  0.00    -0.460 OA
BRANCH   2   3
ATOM      3  C   UNL A   1      31.060  26.523  26.477  1.00  0.00     0.335 C 
ATOM      4  O   UNL A   1      31.460  25.416  26.822  1.00  0.00    -0.249 OA
BRANCH   3   5
ATOM      5  C   UNL A   1      30.531  26.816  25.061  1.00  0.00     0.228 C 
ATOM      6  C   UNL A   1      30.807  25.139  23.462  1.00  0.00     0.138 C 
ATOM      7  C   UNL A   1      32.052  26.016  23.455  1.00  0.00     0.037 C 
ATOM      8  O   UNL A   1      29.921  25.663  24.468  1.00  0.00    -0.361 OA
ATOM      9  C   UNL A   1      31.564  27.305  24.062  1.00  0.00     0.047 C 
BRANCH   6  10
ATOM     10  C   UNL A   1      31.058  23.656  23.751  1.00  0.00     0.149 C 
BRANCH  10  11
ATOM     11  N   UNL A   1      32.146  23.430  24.681  1.00  0.00    -0.336 N 
ATOM     12  O   UNL A   1      31.298  21.477  25.509  1.00  0.00    -0.249 OA
ATOM     13  C   UNL A   1      32.141  22.370  25.526  1.00  0.00     0.314 C 
ATOM     14  N   UNL A   1      33.117  22.310  26.456  1.00  0.00    -0.338 N 
ATOM     15  H   UNL A   1      33.107  21.485  26.994  1.00  0.00     0.165 HD
ATOM     16  H   UNL A   1      32.904  24.057  24.700  1.00  0.00     0.165 HD
BRANCH  14  17
ATOM     17  C   UNL A   1      34.177  23.228  26.813  1.00  0.00     0.123 C 
BRANCH  17  18
ATOM     18  C   UNL A   1      35.575  22.852  26.289  1.00  0.00     0.036 C 
ATOM     19  C   UNL A   1      36.043  23.610  25.061  1.00  0.00     0.036 C 
ATOM     20  C   UNL A   1      35.686  21.405  25.832  1.00  0.00     0.165 C 
ATOM     21  C   UNL A   1      35.631  22.717  23.908  1.00  0.00     0.160 C 
ATOM     22  O   UNL A   1      35.617  21.377  24.405  1.00  0.00    -0.381 OA
ENDBRANCH  17  18
ENDBRANCH  14  17
ENDBRANCH  10  11
ENDBRANCH   6  10
ENDBRANCH   3   5
ENDBRANCH   2   3
ENDBRANCH   1   2
BRANCH   1  23
ATOM     23  C   UNL A   1      32.373  29.650  27.028  1.00  0.00     0.275 C 
BRANCH  23  24
ATOM     24  O   UNL A   1      33.734  30.041  26.768  1.00  0.00    -0.458 OA
BRANCH  24  25
ATOM     25  C   UNL A   1      34.175  31.101  27.485  1.00  0.00     0.338 C 
ATOM     26  O   UNL A   1      33.579  32.137  27.726  1.00  0.00    -0.246 OA
BRANCH  25  27
ATOM     27  C   UNL A   1      35.483  30.781  28.068  1.00  0.00     0.060 A 
ATOM     28  C   UNL A   1      35.596  29.617  28.830  1.00  0.00     0.016 A 
ATOM     29  C   UNL A   1      36.559  31.661  27.948  1.00  0.00     0.016 A 
ATOM     30  C   UNL A   1      36.788  29.324  29.487  1.00  0.00     0.010 A 
ATOM     31  C   UNL A   1      37.759  31.362  28.602  1.00  0.00     0.010 A 
ATOM     32  C   UNL A   1      37.875  30.199  29.384  1.00  0.00    -0.014 A 
BRANCH  32  33
ATOM     33  C   UNL A   1      39.120  29.913  30.136  1.00  0.00     0.031 A 
ATOM     34  C   UNL A   1      40.052  28.836  29.658  1.00  0.00     0.074 A 
ATOM     35  C   UNL A   1      39.418  30.630  31.235  1.00  0.00     0.049 A 
ATOM     36  N   UNL A   1      41.138  28.375  30.223  1.00  0.00    -0.248 NA
ATOM     37  C   UNL A   1      39.717  28.192  28.378  1.00  0.00     0.031 C 
ATOM     38  C   UNL A   1      38.615  31.731  31.769  1.00  0.00     0.029 A 
ATOM     39  N   UNL A   1      40.475  30.533  32.104  1.00  0.00    -0.354 N 
ATOM     40  C   UNL A   1      41.600  27.367  29.387  1.00  0.00     0.074 A 
ATOM     41  C   UNL A   1      40.674  27.280  28.276  1.00  0.00     0.031 C 
ATOM     42  C   UNL A   1      39.209  32.207  32.875  1.00  0.00     0.029 A 
ATOM     43  C   UNL A   1      40.404  31.415  33.154  1.00  0.00     0.049 A 
ATOM     44  H   UNL A   1      41.214  29.893  31.985  1.00  0.00     0.167 HD
ATOM     45  C   UNL A   1      42.693  26.581  29.534  1.00  0.00     0.031 A 
ATOM     46  C   UNL A   1      41.192  31.550  34.238  1.00  0.00     0.031 A 
ATOM     47  C   UNL A   1      43.613  26.676  30.636  1.00  0.00     0.049 A 
ATOM     48  C   UNL A   1      42.372  30.636  34.406  1.00  0.00     0.074 A 
ATOM     49  C   UNL A   1      44.761  25.937  30.867  1.00  0.00     0.029 A 
ATOM     50  N   UNL A   1      43.490  27.563  31.694  1.00  0.00    -0.354 N 
ATOM     51  N   UNL A   1      42.793  29.682  33.609  1.00  0.00    -0.248 NA
ATOM     52  C   UNL A   1      43.179  30.808  35.620  1.00  0.00     0.031 C 
ATOM     53  C   UNL A   1      45.309  26.350  32.087  1.00  0.00     0.029 A 
ATOM     54  C   UNL A   1      44.526  27.375  32.594  1.00  0.00     0.049 A 
ATOM     55  H   UNL A   1      42.772  28.230  31.792  1.00  0.00     0.167 HD
ATOM     56  C   UNL A   1      43.917  29.143  34.224  1.00  0.00     0.074 A 
ATOM     57  C   UNL A   1      44.122  29.891  35.449  1.00  0.00     0.031 C 
ATOM     58  C   UNL A   1      44.705  28.120  33.815  1.00  0.00     0.031 A 
BRANCH  45  59
ATOM     59  C   UNL A   1      42.922  25.516  28.497  1.00  0.00    -0.014 A 
ATOM     60  C   UNL A   1      43.792  25.725  27.413  1.00  0.00     0.010 A 
ATOM     61  C   UNL A   1      42.264  24.278  28.622  1.00  0.00     0.010 A 
ATOM     62  C   UNL A   1      43.968  24.729  26.448  1.00  0.00     0.020 A 
ATOM     63  C   UNL A   1      42.453  23.273  27.670  1.00  0.00     0.020 A 
ATOM     64  C   UNL A   1      43.290  23.512  26.578  1.00  0.00     0.054 A 
BRANCH  64  65
ATOM     65  S   UNL A   1      43.535  22.233  25.315  1.00  0.00     0.124 S 
ATOM     66  O   UNL A   1      42.466  21.288  25.634  1.00  0.00    -0.237 OA
ATOM     67  O   UNL A   1      43.366  22.972  24.067  1.00  0.00    -0.237 OA
ATOM     68  O   UNL A   1      44.890  21.750  25.571  1.00  0.00    -0.744 OA
ENDBRANCH  64  65
ENDBRANCH  45  59
BRANCH  46  69
ATOM     69  C   UNL A   1      40.854  32.566  35.269  1.00  0.00    -0.014 A 
ATOM     70  C   UNL A   1      39.990  32.252  36.331  1.00  0.00     0.010 A 
ATOM     71  C   UNL A   1      41.431  33.848  35.208  1.00  0.00     0.010 A 
ATOM     72  C   UNL A   1      39.707  33.205  37.315  1.00  0.00     0.020 A 
ATOM     73  C   UNL A   1      41.168  34.795  36.202  1.00  0.00     0.020 A 
ATOM     74  C   UNL A   1      40.300  34.469  37.246  1.00  0.00     0.054 A 
BRANCH  74  75
ATOM     75  S   UNL A   1      39.982  35.667  38.572  1.00  0.00     0.124 S 
ATOM     76  O   UNL A   1      39.649  36.871  37.817  1.00  0.00    -0.237 OA
ATOM     77  O   UNL A   1      38.876  35.051  39.301  1.00  0.00    -0.237 OA
ATOM     78  O   UNL A   1      41.247  35.712  39.300  1.00  0.00    -0.744 OA
ENDBRANCH  74  75
ENDBRANCH  46  69
BRANCH  58  79
ATOM     79  C   UNL A   1      45.867  27.754  34.695  1.00  0.00    -0.014 A 
ATOM     80  C   UNL A   1      45.734  26.768  35.689  1.00  0.00     0.010 A 
ATOM     81  C   UNL A   1      47.118  28.364  34.492  1.00  0.00     0.010 A 
ATOM     82  C   UNL A   1      46.828  26.417  36.484  1.00  0.00     0.020 A 
ATOM     83  C   UNL A   1      48.218  28.001  35.272  1.00  0.00     0.020 A 
ATOM     84  C   UNL A   1      48.063  27.039  36.272  1.00  0.00     0.054 A 
BRANCH  84  85
ATOM     85  S   UNL A   1      49.483  26.536  37.283  1.00  0.00     0.124 S 
ATOM     86  O   UNL A   1      50.294  27.750  37.293  1.00  0.00    -0.237 OA
ATOM     87  O   UNL A   1      48.864  26.183  38.559  1.00  0.00    -0.237 OA
ATOM     88  O   UNL A   1      50.051  25.411  36.543  1.00  0.00    -0.744 OA
ENDBRANCH  84  85
ENDBRANCH  58  79
ENDBRANCH  32  33
ENDBRANCH  25  27
ENDBRANCH  24  25
ENDBRANCH  23  24
ENDBRANCH   1  23
TORSDOF 18
ENDMDL
