MODEL 1
REMARK VINA RESULT:      -9.7      0.000      0.000
REMARK SMILES C[C@H]1Cc2ccc(C3CC3)cc2[C@H](C(=O)OCCOC(=O)c2ccc(-c3c4nc(c(-c5ccc(S(=O)(=O)[O-])cc5)c5ccc([nH]5)c(-c5ccc(S(=O)(=O)[O-])cc5)c5nc(c(-c6ccc(S(=O)(=O)[O-])cc6)c6ccc3[nH]6)C=C5)C=C4)cc2)[NH2+]1
REMARK SMILES IDX 18 1 17 2 16 3 14 4 15 5 13 6 1 7 2 8 3 9 82 10 4 11 5 14
REMARK SMILES IDX 12 15 6 16 11 17 7 18 8 19 9 20 10 21 19 22 20 23 21 24
REMARK SMILES IDX 22 25 23 26 81 27 24 28 80 29 25 30 26 31 27 32 74 33 28 34
REMARK SMILES IDX 79 35 73 36 75 37 29 38 78 39 72 40 71 41 30 43 60 44 41 45
REMARK SMILES IDX 59 46 42 47 45 48 58 49 76 50 43 51 44 52 57 54 77 55 46 56
REMARK SMILES IDX 31 57 32 58 40 59 33 60 39 61 34 62 35 63 36 64 37 65 38 66
REMARK SMILES IDX 61 67 62 68 70 69 63 70 69 71 64 72 65 73 66 74 67 75 68 76
REMARK SMILES IDX 47 77 48 78 56 79 49 80 55 81 50 82 51 83 52 84 53 85 54 86
REMARK H PARENT 82 12 82 13 75 42 45 53
REMARK Flexibility Score: inf
ROOT
ATOM      1  C   UNL A   1      42.630  23.431  25.498  1.00  0.00     0.275 C 
ENDROOT
BRANCH   1   2
ATOM      2  C   UNL A   1      43.470  22.689  26.533  1.00  0.00     0.274 C 
BRANCH   2   3
ATOM      3  O   UNL A   1      43.323  23.255  27.853  1.00  0.00    -0.457 OA
BRANCH   3   4
ATOM      4  C   UNL A   1      44.470  23.821  28.347  1.00  0.00     0.369 C 
ATOM      5  O   UNL A   1      45.562  23.262  28.314  1.00  0.00    -0.245 OA
BRANCH   4   6
ATOM      6  C   UNL A   1      44.186  25.179  29.050  1.00  0.00     0.325 C 
ATOM      7  C   UNL A   1      46.587  27.777  27.653  1.00  0.00     0.075 C 
ATOM      8  C   UNL A   1      46.103  26.622  28.528  1.00  0.00     0.184 C 
ATOM      9  C   UNL A   1      46.365  26.937  30.012  1.00  0.00     0.100 C 
ATOM     10  N   UNL A   1      44.685  26.345  28.268  1.00  0.00    -0.328 N 
ATOM     11  C   UNL A   1      45.739  25.924  30.933  1.00  0.00    -0.032 A 
ATOM     12  H   UNL A   1      44.565  26.150  27.274  1.00  0.00     0.347 HD
ATOM     13  H   UNL A   1      44.148  27.165  28.552  1.00  0.00     0.347 HD
ATOM     14  C   UNL A   1      46.203  25.776  32.244  1.00  0.00     0.005 A 
ATOM     15  C   UNL A   1      44.656  25.153  30.499  1.00  0.00     0.025 A 
ATOM     16  C   UNL A   1      45.609  24.846  33.107  1.00  0.00     0.004 A 
ATOM     17  C   UNL A   1      44.050  24.253  31.402  1.00  0.00     0.014 A 
ATOM     18  C   UNL A   1      44.517  24.059  32.711  1.00  0.00    -0.044 A 
BRANCH  18  19
ATOM     19  C   UNL A   1      43.931  23.034  33.666  1.00  0.00     0.019 C 
ATOM     20  C   UNL A   1      44.269  22.971  35.137  1.00  0.00     0.009 C 
ATOM     21  C   UNL A   1      42.932  23.496  34.703  1.00  0.00     0.009 C 
ENDBRANCH  18  19
ENDBRANCH   4   6
ENDBRANCH   3   4
ENDBRANCH   2   3
ENDBRANCH   1   2
BRANCH   1  22
ATOM     22  O   UNL A   1      41.682  24.296  26.143  1.00  0.00    -0.458 OA
BRANCH  22  23
ATOM     23  C   UNL A   1      41.749  25.597  25.781  1.00  0.00     0.338 C 
ATOM     24  O   UNL A   1      42.141  26.042  24.714  1.00  0.00    -0.246 OA
BRANCH  23  25
ATOM     25  C   UNL A   1      41.270  26.470  26.870  1.00  0.00     0.060 A 
ATOM     26  C   UNL A   1      40.578  25.888  27.932  1.00  0.00     0.016 A 
ATOM     27  C   UNL A   1      41.642  27.812  26.932  1.00  0.00     0.016 A 
ATOM     28  C   UNL A   1      40.267  26.657  29.055  1.00  0.00     0.010 A 
ATOM     29  C   UNL A   1      41.445  28.535  28.109  1.00  0.00     0.010 A 
ATOM     30  C   UNL A   1      40.739  27.977  29.183  1.00  0.00    -0.014 A 
BRANCH  30  31
ATOM     31  C   UNL A   1      40.501  28.745  30.440  1.00  0.00     0.031 A 
ATOM     32  C   UNL A   1      41.418  28.603  31.629  1.00  0.00     0.074 A 
ATOM     33  C   UNL A   1      39.446  29.584  30.520  1.00  0.00     0.049 A 
ATOM     34  N   UNL A   1      41.401  29.264  32.760  1.00  0.00    -0.248 NA
ATOM     35  C   UNL A   1      42.461  27.566  31.564  1.00  0.00     0.031 C 
ATOM     36  C   UNL A   1      38.419  29.757  29.489  1.00  0.00     0.029 A 
ATOM     37  N   UNL A   1      39.078  30.477  31.500  1.00  0.00    -0.354 N 
ATOM     38  C   UNL A   1      42.402  28.703  33.544  1.00  0.00     0.074 A 
ATOM     39  C   UNL A   1      42.970  27.613  32.786  1.00  0.00     0.031 C 
ATOM     40  C   UNL A   1      37.602  30.759  29.843  1.00  0.00     0.029 A 
ATOM     41  C   UNL A   1      38.021  31.281  31.141  1.00  0.00     0.049 A 
ATOM     42  H   UNL A   1      39.529  30.535  32.374  1.00  0.00     0.167 HD
ATOM     43  C   UNL A   1      42.837  29.079  34.770  1.00  0.00     0.031 A 
ATOM     44  C   UNL A   1      37.471  32.349  31.757  1.00  0.00     0.031 A 
ATOM     45  C   UNL A   1      42.321  30.202  35.502  1.00  0.00     0.049 A 
ATOM     46  C   UNL A   1      38.033  32.820  33.066  1.00  0.00     0.074 A 
ATOM     47  C   UNL A   1      42.759  30.710  36.713  1.00  0.00     0.029 A 
ATOM     48  N   UNL A   1      41.270  31.003  35.086  1.00  0.00    -0.354 N 
ATOM     49  N   UNL A   1      39.028  32.321  33.757  1.00  0.00    -0.248 NA
ATOM     50  C   UNL A   1      37.409  34.005  33.675  1.00  0.00     0.031 C 
ATOM     51  C   UNL A   1      41.956  31.805  37.041  1.00  0.00     0.029 A 
ATOM     52  C   UNL A   1      41.042  32.001  36.016  1.00  0.00     0.049 A 
ATOM     53  H   UNL A   1      40.761  30.880  34.252  1.00  0.00     0.167 HD
ATOM     54  C   UNL A   1      39.159  33.135  34.876  1.00  0.00     0.074 A 
ATOM     55  C   UNL A   1      38.150  34.167  34.766  1.00  0.00     0.031 C 
ATOM     56  C   UNL A   1      40.038  33.028  35.900  1.00  0.00     0.031 A 
BRANCH  43  57
ATOM     57  C   UNL A   1      43.957  28.283  35.387  1.00  0.00    -0.014 A 
ATOM     58  C   UNL A   1      45.292  28.658  35.160  1.00  0.00     0.010 A 
ATOM     59  C   UNL A   1      43.687  27.136  36.154  1.00  0.00     0.010 A 
ATOM     60  C   UNL A   1      46.340  27.906  35.696  1.00  0.00     0.020 A 
ATOM     61  C   UNL A   1      44.731  26.396  36.714  1.00  0.00     0.020 A 
ATOM     62  C   UNL A   1      46.053  26.778  36.471  1.00  0.00     0.054 A 
BRANCH  62  63
ATOM     63  S   UNL A   1      47.413  25.835  37.213  1.00  0.00     0.124 S 
ATOM     64  O   UNL A   1      47.463  26.379  38.565  1.00  0.00    -0.237 OA
ATOM     65  O   UNL A   1      46.952  24.452  37.104  1.00  0.00    -0.237 OA
ATOM     66  O   UNL A   1      48.553  26.165  36.360  1.00  0.00    -0.744 OA
ENDBRANCH  62  63
ENDBRANCH  43  57
BRANCH  44  67
ATOM     67  C   UNL A   1      36.389  33.098  31.064  1.00  0.00    -0.014 A 
ATOM     68  C   UNL A   1      36.629  33.742  29.837  1.00  0.00     0.010 A 
ATOM     69  C   UNL A   1      35.141  33.256  31.691  1.00  0.00     0.010 A 
ATOM     70  C   UNL A   1      35.654  34.571  29.274  1.00  0.00     0.020 A 
ATOM     71  C   UNL A   1      34.158  34.070  31.122  1.00  0.00     0.020 A 
ATOM     72  C   UNL A   1      34.433  34.746  29.932  1.00  0.00     0.054 A 
BRANCH  72  73
ATOM     73  S   UNL A   1      33.206  35.881  29.223  1.00  0.00     0.124 S 
ATOM     74  O   UNL A   1      34.056  36.815  28.488  1.00  0.00    -0.237 OA
ATOM     75  O   UNL A   1      32.385  34.997  28.402  1.00  0.00    -0.237 OA
ATOM     76  O   UNL A   1      32.537  36.435  30.397  1.00  0.00    -0.744 OA
ENDBRANCH  72  73
ENDBRANCH  44  67
BRANCH  56  77
ATOM     77  C   UNL A   1      39.974  34.044  37.005  1.00  0.00    -0.014 A 
ATOM     78  C   UNL A   1      39.130  33.819  38.109  1.00  0.00     0.010 A 
ATOM     79  C   UNL A   1      40.627  35.281  36.877  1.00  0.00     0.010 A 
ATOM     80  C   UNL A   1      38.912  34.829  39.049  1.00  0.00     0.020 A 
ATOM     81  C   UNL A   1      40.425  36.288  37.825  1.00  0.00     0.020 A 
ATOM     82  C   UNL A   1      39.548  36.064  38.890  1.00  0.00     0.054 A 
BRANCH  82  83
ATOM     83  S   UNL A   1      39.215  37.385  40.089  1.00  0.00     0.124 S 
ATOM     84  O   UNL A   1      38.319  38.260  39.340  1.00  0.00    -0.237 OA
ATOM     85  O   UNL A   1      38.605  36.666  41.206  1.00  0.00    -0.237 OA
ATOM     86  O   UNL A   1      40.541  37.934  40.364  1.00  0.00    -0.744 OA
ENDBRANCH  82  83
ENDBRANCH  56  77
ENDBRANCH  30  31
ENDBRANCH  23  25
ENDBRANCH  22  23
ENDBRANCH   1  22
TORSDOF 15
ENDMDL
MODEL 2
REMARK VINA RESULT:      -9.5      2.157      3.724
REMARK SMILES C[C@H]1Cc2ccc(C3CC3)cc2[C@H](C(=O)OCCOC(=O)c2ccc(-c3c4nc(c(-c5ccc(S(=O)(=O)[O-])cc5)c5ccc([nH]5)c(-c5ccc(S(=O)(=O)[O-])cc5)c5nc(c(-c6ccc(S(=O)(=O)[O-])cc6)c6ccc3[nH]6)C=C5)C=C4)cc2)[NH2+]1
REMARK SMILES IDX 18 1 17 2 16 3 14 4 15 5 13 6 1 7 2 8 3 9 82 10 4 11 5 14
REMARK SMILES IDX 12 15 6 16 11 17 7 18 8 19 9 20 10 21 19 22 20 23 21 24
REMARK SMILES IDX 22 25 23 26 81 27 24 28 80 29 25 30 26 31 27 32 74 33 28 34
REMARK SMILES IDX 79 35 73 36 75 37 29 38 78 39 72 40 71 41 30 43 60 44 41 45
REMARK SMILES IDX 59 46 42 47 45 48 58 49 76 50 43 51 44 52 57 54 77 55 46 56
REMARK SMILES IDX 31 57 32 58 40 59 33 60 39 61 34 62 35 63 36 64 37 65 38 66
REMARK SMILES IDX 61 67 62 68 70 69 63 70 69 71 64 72 65 73 66 74 67 75 68 76
REMARK SMILES IDX 47 77 48 78 56 79 49 80 55 81 50 82 51 83 52 84 53 85 54 86
REMARK H PARENT 82 12 82 13 75 42 45 53
REMARK Flexibility Score: inf
ROOT
ATOM      1  C   UNL A   1      46.161  25.356  25.940  1.00  0.00     0.275 C 
ENDROOT
BRANCH   1   2
ATOM      2  C   UNL A   1      46.249  24.233  24.910  1.00  0.00     0.274 C 
BRANCH   2   3
ATOM      3  O   UNL A   1      45.011  24.067  24.187  1.00  0.00    -0.457 OA
BRANCH   3   4
ATOM      4  C   UNL A   1      44.565  22.772  24.138  1.00  0.00     0.369 C 
ATOM      5  O   UNL A   1      44.191  22.230  23.103  1.00  0.00    -0.245 OA
BRANCH   4   6
ATOM      6  C   UNL A   1      44.480  22.137  25.556  1.00  0.00     0.325 C 
ATOM      7  C   UNL A   1      45.251  18.424  25.255  1.00  0.00     0.075 C 
ATOM      8  C   UNL A   1      44.422  19.707  25.204  1.00  0.00     0.184 C 
ATOM      9  C   UNL A   1      43.139  19.542  26.037  1.00  0.00     0.100 C 
ATOM     10  N   UNL A   1      45.226  20.851  25.654  1.00  0.00    -0.328 N 
ATOM     11  C   UNL A   1      42.377  20.832  26.181  1.00  0.00    -0.032 A 
ATOM     12  H   UNL A   1      46.064  20.912  25.076  1.00  0.00     0.347 HD
ATOM     13  H   UNL A   1      45.462  20.701  26.635  1.00  0.00     0.347 HD
ATOM     14  C   UNL A   1      41.018  20.820  26.509  1.00  0.00     0.005 A 
ATOM     15  C   UNL A   1      43.035  22.058  26.032  1.00  0.00     0.025 A 
ATOM     16  C   UNL A   1      40.313  22.021  26.661  1.00  0.00     0.004 A 
ATOM     17  C   UNL A   1      42.310  23.252  26.231  1.00  0.00     0.014 A 
ATOM     18  C   UNL A   1      40.938  23.270  26.526  1.00  0.00    -0.044 A 
BRANCH  18  19
ATOM     19  C   UNL A   1      40.127  24.546  26.658  1.00  0.00     0.019 C 
ATOM     20  C   UNL A   1      38.648  24.570  26.966  1.00  0.00     0.009 C 
ATOM     21  C   UNL A   1      39.635  24.956  28.029  1.00  0.00     0.009 C 
ENDBRANCH  18  19
ENDBRANCH   4   6
ENDBRANCH   3   4
ENDBRANCH   2   3
ENDBRANCH   1   2
BRANCH   1  22
ATOM     22  O   UNL A   1      44.790  25.673  26.226  1.00  0.00    -0.458 OA
BRANCH  22  23
ATOM     23  C   UNL A   1      44.393  26.909  25.850  1.00  0.00     0.338 C 
ATOM     24  O   UNL A   1      44.622  27.460  24.785  1.00  0.00    -0.246 OA
BRANCH  23  25
ATOM     25  C   UNL A   1      43.610  27.556  26.920  1.00  0.00     0.060 A 
ATOM     26  C   UNL A   1      42.955  26.747  27.847  1.00  0.00     0.016 A 
ATOM     27  C   UNL A   1      43.656  28.937  27.109  1.00  0.00     0.016 A 
ATOM     28  C   UNL A   1      42.353  27.327  28.966  1.00  0.00     0.010 A 
ATOM     29  C   UNL A   1      43.169  29.493  28.294  1.00  0.00     0.010 A 
ATOM     30  C   UNL A   1      42.495  28.702  29.232  1.00  0.00    -0.014 A 
BRANCH  30  31
ATOM     31  C   UNL A   1      41.949  29.286  30.492  1.00  0.00     0.031 A 
ATOM     32  C   UNL A   1      42.723  29.218  31.785  1.00  0.00     0.074 A 
ATOM     33  C   UNL A   1      40.739  29.886  30.482  1.00  0.00     0.049 A 
ATOM     34  N   UNL A   1      42.430  29.755  32.944  1.00  0.00    -0.248 NA
ATOM     35  C   UNL A   1      43.961  28.422  31.796  1.00  0.00     0.031 C 
ATOM     36  C   UNL A   1      39.833  29.946  29.332  1.00  0.00     0.029 A 
ATOM     37  N   UNL A   1      40.075  30.591  31.459  1.00  0.00    -0.354 N 
ATOM     38  C   UNL A   1      43.424  29.334  33.821  1.00  0.00     0.074 A 
ATOM     39  C   UNL A   1      44.297  28.454  33.077  1.00  0.00     0.031 C 
ATOM     40  C   UNL A   1      38.786  30.727  29.636  1.00  0.00     0.029 A 
ATOM     41  C   UNL A   1      38.925  31.199  31.011  1.00  0.00     0.049 A 
ATOM     42  H   UNL A   1      40.394  30.657  32.388  1.00  0.00     0.167 HD
ATOM     43  C   UNL A   1      43.617  29.672  35.117  1.00  0.00     0.031 A 
ATOM     44  C   UNL A   1      38.092  32.072  31.615  1.00  0.00     0.031 A 
ATOM     45  C   UNL A   1      42.792  30.596  35.844  1.00  0.00     0.049 A 
ATOM     46  C   UNL A   1      38.378  32.522  33.018  1.00  0.00     0.074 A 
ATOM     47  C   UNL A   1      42.963  31.065  37.135  1.00  0.00     0.029 A 
ATOM     48  N   UNL A   1      41.655  31.207  35.340  1.00  0.00    -0.354 N 
ATOM     49  N   UNL A   1      39.365  32.169  33.805  1.00  0.00    -0.248 NA
ATOM     50  C   UNL A   1      37.451  33.496  33.612  1.00  0.00     0.031 C 
ATOM     51  C   UNL A   1      41.913  31.943  37.421  1.00  0.00     0.029 A 
ATOM     52  C   UNL A   1      41.111  32.047  36.294  1.00  0.00     0.049 A 
ATOM     53  H   UNL A   1      41.289  31.063  34.438  1.00  0.00     0.167 HD
ATOM     54  C   UNL A   1      39.184  32.884  34.982  1.00  0.00     0.074 A 
ATOM     55  C   UNL A   1      38.002  33.700  34.803  1.00  0.00     0.031 C 
ATOM     56  C   UNL A   1      39.935  32.860  36.109  1.00  0.00     0.031 A 
BRANCH  43  57
ATOM     57  C   UNL A   1      44.796  29.061  35.828  1.00  0.00    -0.014 A 
ATOM     58  C   UNL A   1      44.638  27.866  36.550  1.00  0.00     0.010 A 
ATOM     59  C   UNL A   1      46.051  29.697  35.819  1.00  0.00     0.010 A 
ATOM     60  C   UNL A   1      45.716  27.309  37.244  1.00  0.00     0.020 A 
ATOM     61  C   UNL A   1      47.137  29.131  36.490  1.00  0.00     0.020 A 
ATOM     62  C   UNL A   1      46.960  27.946  37.209  1.00  0.00     0.054 A 
BRANCH  62  63
ATOM     63  S   UNL A   1      48.371  27.194  38.065  1.00  0.00     0.124 S 
ATOM     64  O   UNL A   1      48.299  27.815  39.383  1.00  0.00    -0.237 OA
ATOM     65  O   UNL A   1      48.060  25.766  38.021  1.00  0.00    -0.237 OA
ATOM     66  O   UNL A   1      49.513  27.593  37.244  1.00  0.00    -0.744 OA
ENDBRANCH  62  63
ENDBRANCH  43  57
BRANCH  44  67
ATOM     67  C   UNL A   1      36.970  32.652  30.830  1.00  0.00    -0.014 A 
ATOM     68  C   UNL A   1      37.175  33.754  29.980  1.00  0.00     0.010 A 
ATOM     69  C   UNL A   1      35.665  32.164  31.018  1.00  0.00     0.010 A 
ATOM     70  C   UNL A   1      36.088  34.387  29.370  1.00  0.00     0.020 A 
ATOM     71  C   UNL A   1      34.577  32.784  30.396  1.00  0.00     0.020 A 
ATOM     72  C   UNL A   1      34.794  33.910  29.600  1.00  0.00     0.054 A 
BRANCH  72  73
ATOM     73  S   UNL A   1      33.389  34.787  28.858  1.00  0.00     0.124 S 
ATOM     74  O   UNL A   1      34.037  35.976  28.309  1.00  0.00    -0.237 OA
ATOM     75  O   UNL A   1      32.895  33.829  27.873  1.00  0.00    -0.237 OA
ATOM     76  O   UNL A   1      32.499  35.025  29.991  1.00  0.00    -0.744 OA
ENDBRANCH  72  73
ENDBRANCH  44  67
BRANCH  56  77
ATOM     77  C   UNL A   1      39.525  33.734  37.260  1.00  0.00    -0.014 A 
ATOM     78  C   UNL A   1      39.911  35.087  37.278  1.00  0.00     0.010 A 
ATOM     79  C   UNL A   1      38.895  33.181  38.387  1.00  0.00     0.010 A 
ATOM     80  C   UNL A   1      39.704  35.865  38.420  1.00  0.00     0.020 A 
ATOM     81  C   UNL A   1      38.673  33.961  39.526  1.00  0.00     0.020 A 
ATOM     82  C   UNL A   1      39.102  35.291  39.543  1.00  0.00     0.054 A 
BRANCH  82  83
ATOM     83  S   UNL A   1      38.889  36.298  41.037  1.00  0.00     0.124 S 
ATOM     84  O   UNL A   1      38.594  37.614  40.482  1.00  0.00    -0.237 OA
ATOM     85  O   UNL A   1      37.776  35.639  41.718  1.00  0.00    -0.237 OA
ATOM     86  O   UNL A   1      40.180  36.178  41.713  1.00  0.00    -0.744 OA
ENDBRANCH  82  83
ENDBRANCH  56  77
ENDBRANCH  30  31
ENDBRANCH  23  25
ENDBRANCH  22  23
ENDBRANCH   1  22
TORSDOF 15
ENDMDL
MODEL 3
REMARK VINA RESULT:      -9.4      5.577     13.661
REMARK SMILES C[C@H]1Cc2ccc(C3CC3)cc2[C@H](C(=O)OCCOC(=O)c2ccc(-c3c4nc(c(-c5ccc(S(=O)(=O)[O-])cc5)c5ccc([nH]5)c(-c5ccc(S(=O)(=O)[O-])cc5)c5nc(c(-c6ccc(S(=O)(=O)[O-])cc6)c6ccc3[nH]6)C=C5)C=C4)cc2)[NH2+]1
REMARK SMILES IDX 18 1 17 2 16 3 14 4 15 5 13 6 1 7 2 8 3 9 82 10 4 11 5 14
REMARK SMILES IDX 12 15 6 16 11 17 7 18 8 19 9 20 10 21 19 22 20 23 21 24
REMARK SMILES IDX 22 25 23 26 81 27 24 28 80 29 25 30 26 31 27 32 74 33 28 34
REMARK SMILES IDX 79 35 73 36 75 37 29 38 78 39 72 40 71 41 30 43 60 44 41 45
REMARK SMILES IDX 59 46 42 47 45 48 58 49 76 50 43 51 44 52 57 54 77 55 46 56
REMARK SMILES IDX 31 57 32 58 40 59 33 60 39 61 34 62 35 63 36 64 37 65 38 66
REMARK SMILES IDX 61 67 62 68 70 69 63 70 69 71 64 72 65 73 66 74 67 75 68 76
REMARK SMILES IDX 47 77 48 78 56 79 49 80 55 81 50 82 51 83 52 84 53 85 54 86
REMARK H PARENT 82 12 82 13 75 42 45 53
REMARK Flexibility Score: inf
ROOT
ATOM      1  C   UNL A   1      37.151  32.035  34.321  1.00  0.00     0.275 C 
ENDROOT
BRANCH   1   2
ATOM      2  C   UNL A   1      36.671  33.460  34.061  1.00  0.00     0.274 C 
BRANCH   2   3
ATOM      3  O   UNL A   1      35.235  33.572  34.159  1.00  0.00    -0.457 OA
BRANCH   3   4
ATOM      4  C   UNL A   1      34.581  33.402  32.966  1.00  0.00     0.369 C 
ATOM      5  O   UNL A   1      33.679  32.586  32.806  1.00  0.00    -0.245 OA
BRANCH   4   6
ATOM      6  C   UNL A   1      35.205  34.271  31.837  1.00  0.00     0.325 C 
ATOM      7  C   UNL A   1      33.171  37.470  31.526  1.00  0.00     0.075 C 
ATOM      8  C   UNL A   1      33.540  36.002  31.322  1.00  0.00     0.184 C 
ATOM      9  C   UNL A   1      33.540  35.660  29.821  1.00  0.00     0.100 C 
ATOM     10  N   UNL A   1      34.835  35.710  31.951  1.00  0.00    -0.328 N 
ATOM     11  C   UNL A   1      34.080  34.282  29.545  1.00  0.00    -0.032 A 
ATOM     12  H   UNL A   1      34.784  35.959  32.938  1.00  0.00     0.347 HD
ATOM     13  H   UNL A   1      35.548  36.255  31.467  1.00  0.00     0.347 HD
ATOM     14  C   UNL A   1      33.773  33.626  28.349  1.00  0.00     0.005 A 
ATOM     15  C   UNL A   1      34.933  33.664  30.467  1.00  0.00     0.025 A 
ATOM     16  C   UNL A   1      34.291  32.351  28.085  1.00  0.00     0.004 A 
ATOM     17  C   UNL A   1      35.473  32.397  30.157  1.00  0.00     0.014 A 
ATOM     18  C   UNL A   1      35.154  31.701  28.980  1.00  0.00    -0.044 A 
BRANCH  18  19
ATOM     19  C   UNL A   1      35.658  30.303  28.672  1.00  0.00     0.019 C 
ATOM     20  C   UNL A   1      35.029  29.393  27.643  1.00  0.00     0.009 C 
ATOM     21  C   UNL A   1      36.344  30.053  27.347  1.00  0.00     0.009 C 
ENDBRANCH  18  19
ENDBRANCH   4   6
ENDBRANCH   3   4
ENDBRANCH   2   3
ENDBRANCH   1   2
BRANCH   1  22
ATOM     22  O   UNL A   1      37.997  31.584  33.252  1.00  0.00    -0.458 OA
BRANCH  22  23
ATOM     23  C   UNL A   1      37.532  30.521  32.558  1.00  0.00     0.338 C 
ATOM     24  O   UNL A   1      36.397  30.073  32.578  1.00  0.00    -0.246 OA
BRANCH  23  25
ATOM     25  C   UNL A   1      38.599  29.930  31.728  1.00  0.00     0.060 A 
ATOM     26  C   UNL A   1      38.607  30.205  30.361  1.00  0.00     0.016 A 
ATOM     27  C   UNL A   1      39.671  29.255  32.309  1.00  0.00     0.016 A 
ATOM     28  C   UNL A   1      39.695  29.805  29.583  1.00  0.00     0.010 A 
ATOM     29  C   UNL A   1      40.811  28.977  31.553  1.00  0.00     0.010 A 
ATOM     30  C   UNL A   1      40.836  29.231  30.175  1.00  0.00    -0.014 A 
BRANCH  30  31
ATOM     31  C   UNL A   1      42.039  28.920  29.349  1.00  0.00     0.031 A 
ATOM     32  C   UNL A   1      43.170  29.908  29.211  1.00  0.00     0.074 A 
ATOM     33  C   UNL A   1      42.121  27.733  28.710  1.00  0.00     0.049 A 
ATOM     34  N   UNL A   1      44.321  29.755  28.604  1.00  0.00    -0.248 NA
ATOM     35  C   UNL A   1      42.977  31.248  29.789  1.00  0.00     0.031 C 
ATOM     36  C   UNL A   1      41.068  26.715  28.672  1.00  0.00     0.029 A 
ATOM     37  N   UNL A   1      43.151  27.164  27.996  1.00  0.00    -0.354 N 
ATOM     38  C   UNL A   1      44.968  30.982  28.701  1.00  0.00     0.074 A 
ATOM     39  C   UNL A   1      44.062  31.885  29.374  1.00  0.00     0.031 C 
ATOM     40  C   UNL A   1      41.537  25.617  28.062  1.00  0.00     0.029 A 
ATOM     41  C   UNL A   1      42.912  25.858  27.635  1.00  0.00     0.049 A 
ATOM     42  H   UNL A   1      43.980  27.645  27.768  1.00  0.00     0.167 HD
ATOM     43  C   UNL A   1      46.215  31.323  28.300  1.00  0.00     0.031 A 
ATOM     44  C   UNL A   1      43.716  24.937  27.064  1.00  0.00     0.031 A 
ATOM     45  C   UNL A   1      47.146  30.414  27.690  1.00  0.00     0.049 A 
ATOM     46  C   UNL A   1      45.132  25.297  26.721  1.00  0.00     0.074 A 
ATOM     47  C   UNL A   1      48.461  30.648  27.330  1.00  0.00     0.029 A 
ATOM     48  N   UNL A   1      46.869  29.095  27.370  1.00  0.00    -0.354 N 
ATOM     49  N   UNL A   1      45.748  26.441  26.888  1.00  0.00    -0.248 NA
ATOM     50  C   UNL A   1      45.967  24.242  26.127  1.00  0.00     0.031 C 
ATOM     51  C   UNL A   1      48.973  29.475  26.768  1.00  0.00     0.029 A 
ATOM     52  C   UNL A   1      47.987  28.501  26.813  1.00  0.00     0.049 A 
ATOM     53  H   UNL A   1      46.004  28.647  27.516  1.00  0.00     0.167 HD
ATOM     54  C   UNL A   1      47.045  26.243  26.430  1.00  0.00     0.074 A 
ATOM     55  C   UNL A   1      47.131  24.866  25.990  1.00  0.00     0.031 C 
ATOM     56  C   UNL A   1      48.068  27.129  26.380  1.00  0.00     0.031 A 
BRANCH  43  57
ATOM     57  C   UNL A   1      46.662  32.740  28.542  1.00  0.00    -0.014 A 
ATOM     58  C   UNL A   1      46.469  33.716  27.550  1.00  0.00     0.010 A 
ATOM     59  C   UNL A   1      47.316  33.095  29.736  1.00  0.00     0.010 A 
ATOM     60  C   UNL A   1      46.912  35.027  27.748  1.00  0.00     0.020 A 
ATOM     61  C   UNL A   1      47.738  34.410  29.949  1.00  0.00     0.020 A 
ATOM     62  C   UNL A   1      47.545  35.365  28.948  1.00  0.00     0.054 A 
BRANCH  62  63
ATOM     63  S   UNL A   1      48.070  37.079  29.227  1.00  0.00     0.124 S 
ATOM     64  O   UNL A   1      48.757  37.397  27.980  1.00  0.00    -0.237 OA
ATOM     65  O   UNL A   1      46.806  37.779  29.448  1.00  0.00    -0.237 OA
ATOM     66  O   UNL A   1      48.926  36.979  30.408  1.00  0.00    -0.744 OA
ENDBRANCH  62  63
ENDBRANCH  43  57
BRANCH  44  67
ATOM     67  C   UNL A   1      43.206  23.550  26.890  1.00  0.00    -0.014 A 
ATOM     68  C   UNL A   1      43.229  22.633  27.955  1.00  0.00     0.010 A 
ATOM     69  C   UNL A   1      42.794  23.116  25.618  1.00  0.00     0.010 A 
ATOM     70  C   UNL A   1      42.894  21.293  27.740  1.00  0.00     0.020 A 
ATOM     71  C   UNL A   1      42.442  21.780  25.402  1.00  0.00     0.020 A 
ATOM     72  C   UNL A   1      42.524  20.871  26.459  1.00  0.00     0.054 A 
BRANCH  72  73
ATOM     73  S   UNL A   1      42.163  19.114  26.181  1.00  0.00     0.124 S 
ATOM     74  O   UNL A   1      43.177  18.755  25.193  1.00  0.00    -0.237 OA
ATOM     75  O   UNL A   1      42.344  18.534  27.508  1.00  0.00    -0.237 OA
ATOM     76  O   UNL A   1      40.787  19.123  25.691  1.00  0.00    -0.744 OA
ENDBRANCH  72  73
ENDBRANCH  44  67
BRANCH  56  77
ATOM     77  C   UNL A   1      49.388  26.666  25.832  1.00  0.00    -0.014 A 
ATOM     78  C   UNL A   1      50.326  26.065  26.693  1.00  0.00     0.010 A 
ATOM     79  C   UNL A   1      49.757  26.964  24.510  1.00  0.00     0.010 A 
ATOM     80  C   UNL A   1      51.624  25.802  26.249  1.00  0.00     0.020 A 
ATOM     81  C   UNL A   1      51.050  26.686  24.058  1.00  0.00     0.020 A 
ATOM     82  C   UNL A   1      51.982  26.131  24.939  1.00  0.00     0.054 A 
BRANCH  82  83
ATOM     83  S   UNL A   1      53.686  25.832  24.391  1.00  0.00     0.124 S 
ATOM     84  O   UNL A   1      54.421  26.884  25.086  1.00  0.00    -0.237 OA
ATOM     85  O   UNL A   1      53.945  24.472  24.857  1.00  0.00    -0.237 OA
ATOM     86  O   UNL A   1      53.606  25.979  22.939  1.00  0.00    -0.744 OA
ENDBRANCH  82  83
ENDBRANCH  56  77
ENDBRANCH  30  31
ENDBRANCH  23  25
ENDBRANCH  22  23
ENDBRANCH   1  22
TORSDOF 15
ENDMDL
