MODEL 1
REMARK VINA RESULT:     -10.3      0.000      0.000
REMARK SMILES C=CCOc1ccccc1-c1cc(C(=O)OCCOC(=O)c2ccc(-c3c4nc(c(-c5ccc(S(=O)(=O)[O-])cc5)c5ccc([nH]5)c(-c5ccc(S(=O)(=O)[O-])cc5)c5nc(c(-c6ccc(S(=O)(=O)[O-])cc6)c6ccc3[nH]6)C=C5)C=C4)cc2)nc(N)n1
REMARK SMILES IDX 17 1 16 2 14 3 15 4 13 5 11 6 12 7 85 8 83 9 82 10 10 11
REMARK SMILES IDX 5 12 6 13 7 14 9 15 8 16 4 17 3 18 2 19 1 20 84 21 18 24
REMARK SMILES IDX 19 25 20 26 21 27 22 28 23 29 81 30 24 31 80 32 25 33 26 34
REMARK SMILES IDX 27 35 74 36 28 37 79 38 73 39 75 40 29 41 78 42 72 43 71 44
REMARK SMILES IDX 30 46 60 47 41 48 59 49 42 50 45 51 58 52 76 53 43 54 44 55
REMARK SMILES IDX 57 57 77 58 46 59 31 60 32 61 40 62 33 63 39 64 34 65 35 66
REMARK SMILES IDX 36 67 37 68 38 69 61 70 62 71 70 72 63 73 69 74 64 75 65 76
REMARK SMILES IDX 66 77 67 78 68 79 47 80 48 81 56 82 49 83 55 84 50 85 51 86
REMARK SMILES IDX 52 87 53 88 54 89
REMARK H PARENT 84 22 84 23 75 45 45 56
REMARK Flexibility Score: inf
ROOT
ATOM      1  C   UNL A   1      32.936  28.880  24.674  1.00  0.00     0.275 C 
ENDROOT
BRANCH   1   2
ATOM      2  O   UNL A   1      32.184  27.699  25.023  1.00  0.00    -0.457 OA
BRANCH   2   3
ATOM      3  C   UNL A   1      31.385  27.200  24.041  1.00  0.00     0.357 C 
ATOM      4  O   UNL A   1      30.233  27.525  23.813  1.00  0.00    -0.244 OA
BRANCH   3   5
ATOM      5  C   UNL A   1      32.148  26.271  23.163  1.00  0.00     0.154 A 
ATOM      6  C   UNL A   1      33.584  24.455  22.946  1.00  0.00     0.080 A 
ATOM      7  C   UNL A   1      33.004  25.385  23.772  1.00  0.00     0.065 A 
ATOM      8  N   UNL A   1      33.438  24.501  21.605  1.00  0.00    -0.213 NA
ATOM      9  C   UNL A   1      32.621  25.437  21.111  1.00  0.00     0.221 A 
ATOM     10  N   UNL A   1      31.931  26.318  21.834  1.00  0.00    -0.206 NA
BRANCH   6  11
ATOM     11  C   UNL A   1      34.323  23.314  23.500  1.00  0.00     0.042 A 
ATOM     12  C   UNL A   1      33.652  22.199  24.041  1.00  0.00     0.129 A 
ATOM     13  C   UNL A   1      34.346  21.155  24.658  1.00  0.00     0.047 A 
ATOM     14  C   UNL A   1      35.737  21.192  24.707  1.00  0.00     0.004 A 
ATOM     15  C   UNL A   1      35.725  23.317  23.542  1.00  0.00     0.014 A 
ATOM     16  C   UNL A   1      36.425  22.266  24.144  1.00  0.00     0.001 A 
BRANCH  12  17
ATOM     17  O   UNL A   1      32.279  22.158  24.048  1.00  0.00    -0.489 OA
BRANCH  17  18
ATOM     18  C   UNL A   1      31.773  21.704  25.309  1.00  0.00     0.257 C 
BRANCH  18  19
ATOM     19  C   UNL A   1      31.120  22.875  25.984  1.00  0.00     0.006 C 
ATOM     20  C   UNL A   1      31.739  23.687  26.851  1.00  0.00     0.007 C 
ENDBRANCH  18  19
ENDBRANCH  17  18
ENDBRANCH  12  17
ENDBRANCH   6  11
BRANCH   9  21
ATOM     21  N   UNL A   1      32.469  25.481  19.757  1.00  0.00    -0.368 N 
ATOM     22  H   UNL A   1      32.756  26.278  19.256  1.00  0.00     0.159 HD
ATOM     23  H   UNL A   1      32.073  24.715  19.281  1.00  0.00     0.159 HD
ENDBRANCH   9  21
ENDBRANCH   3   5
ENDBRANCH   2   3
ENDBRANCH   1   2
BRANCH   1  24
ATOM     24  C   UNL A   1      33.058  29.817  25.876  1.00  0.00     0.275 C 
BRANCH  24  25
ATOM     25  O   UNL A   1      34.306  29.572  26.544  1.00  0.00    -0.458 OA
BRANCH  25  26
ATOM     26  C   UNL A   1      34.544  30.317  27.650  1.00  0.00     0.338 C 
ATOM     27  O   UNL A   1      33.765  31.080  28.199  1.00  0.00    -0.246 OA
BRANCH  26  28
ATOM     28  C   UNL A   1      35.923  30.069  28.124  1.00  0.00     0.060 A 
ATOM     29  C   UNL A   1      36.994  30.162  27.238  1.00  0.00     0.016 A 
ATOM     30  C   UNL A   1      36.151  29.658  29.436  1.00  0.00     0.016 A 
ATOM     31  C   UNL A   1      38.275  29.773  27.630  1.00  0.00     0.010 A 
ATOM     32  C   UNL A   1      37.454  29.355  29.855  1.00  0.00     0.010 A 
ATOM     33  C   UNL A   1      38.530  29.371  28.947  1.00  0.00    -0.014 A 
BRANCH  33  34
ATOM     34  C   UNL A   1      39.892  28.914  29.362  1.00  0.00     0.031 A 
ATOM     35  C   UNL A   1      40.766  29.812  30.204  1.00  0.00     0.074 A 
ATOM     36  C   UNL A   1      40.359  27.698  29.006  1.00  0.00     0.049 A 
ATOM     37  N   UNL A   1      42.039  29.697  30.491  1.00  0.00    -0.248 NA
ATOM     38  C   UNL A   1      40.129  31.004  30.788  1.00  0.00     0.031 C 
ATOM     39  C   UNL A   1      39.621  26.686  28.248  1.00  0.00     0.029 A 
ATOM     40  N   UNL A   1      41.576  27.102  29.247  1.00  0.00    -0.354 N 
ATOM     41  C   UNL A   1      42.371  30.833  31.221  1.00  0.00     0.074 A 
ATOM     42  C   UNL A   1      41.164  31.622  31.340  1.00  0.00     0.031 C 
ATOM     43  C   UNL A   1      40.376  25.583  28.131  1.00  0.00     0.029 A 
ATOM     44  C   UNL A   1      41.687  25.838  28.717  1.00  0.00     0.049 A 
ATOM     45  H   UNL A   1      42.299  27.539  29.753  1.00  0.00     0.167 HD
ATOM     46  C   UNL A   1      43.571  31.190  31.740  1.00  0.00     0.031 A 
ATOM     47  C   UNL A   1      42.733  24.989  28.664  1.00  0.00     0.031 A 
ATOM     48  C   UNL A   1      44.760  30.382  31.674  1.00  0.00     0.049 A 
ATOM     49  C   UNL A   1      44.060  25.414  29.226  1.00  0.00     0.074 A 
ATOM     50  C   UNL A   1      46.022  30.664  32.170  1.00  0.00     0.029 A 
ATOM     51  N   UNL A   1      44.831  29.125  31.096  1.00  0.00    -0.354 N 
ATOM     52  N   UNL A   1      44.377  26.532  29.836  1.00  0.00    -0.248 NA
ATOM     53  C   UNL A   1      45.179  24.473  29.073  1.00  0.00     0.031 C 
ATOM     54  C   UNL A   1      46.864  29.587  31.869  1.00  0.00     0.029 A 
ATOM     55  C   UNL A   1      46.113  28.618  31.223  1.00  0.00     0.049 A 
ATOM     56  H   UNL A   1      44.081  28.661  30.659  1.00  0.00     0.167 HD
ATOM     57  C   UNL A   1      45.728  26.423  30.144  1.00  0.00     0.074 A 
ATOM     58  C   UNL A   1      46.164  25.124  29.675  1.00  0.00     0.031 C 
ATOM     59  C   UNL A   1      46.537  27.324  30.754  1.00  0.00     0.031 A 
BRANCH  46  60
ATOM     60  C   UNL A   1      43.670  32.541  32.399  1.00  0.00    -0.014 A 
ATOM     61  C   UNL A   1      43.971  33.699  31.661  1.00  0.00     0.010 A 
ATOM     62  C   UNL A   1      43.415  32.656  33.779  1.00  0.00     0.010 A 
ATOM     63  C   UNL A   1      44.055  34.941  32.298  1.00  0.00     0.020 A 
ATOM     64  C   UNL A   1      43.472  33.899  34.415  1.00  0.00     0.020 A 
ATOM     65  C   UNL A   1      43.811  35.032  33.673  1.00  0.00     0.054 A 
BRANCH  65  66
ATOM     66  S   UNL A   1      43.906  36.657  34.474  1.00  0.00     0.124 S 
ATOM     67  O   UNL A   1      45.202  37.144  34.006  1.00  0.00    -0.237 OA
ATOM     68  O   UNL A   1      42.742  37.353  33.932  1.00  0.00    -0.237 OA
ATOM     69  O   UNL A   1      43.834  36.346  35.899  1.00  0.00    -0.744 OA
ENDBRANCH  65  66
ENDBRANCH  46  60
BRANCH  47  70
ATOM     70  C   UNL A   1      42.581  23.663  28.003  1.00  0.00    -0.014 A 
ATOM     71  C   UNL A   1      42.888  23.506  26.640  1.00  0.00     0.010 A 
ATOM     72  C   UNL A   1      42.138  22.549  28.737  1.00  0.00     0.010 A 
ATOM     73  C   UNL A   1      42.747  22.260  26.022  1.00  0.00     0.020 A 
ATOM     74  C   UNL A   1      42.023  21.296  28.130  1.00  0.00     0.020 A 
ATOM     75  C   UNL A   1      42.318  21.162  26.772  1.00  0.00     0.054 A 
BRANCH  75  76
ATOM     76  S   UNL A   1      42.203  19.537  25.972  1.00  0.00     0.124 S 
ATOM     77  O   UNL A   1      43.058  19.716  24.803  1.00  0.00    -0.237 OA
ATOM     78  O   UNL A   1      42.716  18.636  27.001  1.00  0.00    -0.237 OA
ATOM     79  O   UNL A   1      40.776  19.398  25.691  1.00  0.00    -0.744 OA
ENDBRANCH  75  76
ENDBRANCH  47  70
BRANCH  59  80
ATOM     80  C   UNL A   1      47.969  26.923  30.980  1.00  0.00    -0.014 A 
ATOM     81  C   UNL A   1      48.973  27.272  30.061  1.00  0.00     0.010 A 
ATOM     82  C   UNL A   1      48.317  26.221  32.147  1.00  0.00     0.010 A 
ATOM     83  C   UNL A   1      50.300  26.899  30.291  1.00  0.00     0.020 A 
ATOM     84  C   UNL A   1      49.646  25.864  32.391  1.00  0.00     0.020 A 
ATOM     85  C   UNL A   1      50.628  26.193  31.454  1.00  0.00     0.054 A 
BRANCH  85  86
ATOM     86  S   UNL A   1      52.361  25.748  31.751  1.00  0.00     0.124 S 
ATOM     87  O   UNL A   1      52.965  25.991  30.444  1.00  0.00    -0.237 OA
ATOM     88  O   UNL A   1      52.756  26.675  32.809  1.00  0.00    -0.237 OA
ATOM     89  O   UNL A   1      52.293  24.345  32.156  1.00  0.00    -0.744 OA
ENDBRANCH  85  86
ENDBRANCH  59  80
ENDBRANCH  33  34
ENDBRANCH  26  28
ENDBRANCH  25  26
ENDBRANCH  24  25
ENDBRANCH   1  24
TORSDOF 19
ENDMDL
MODEL 2
REMARK VINA RESULT:     -10.3      4.556      9.747
REMARK SMILES C=CCOc1ccccc1-c1cc(C(=O)OCCOC(=O)c2ccc(-c3c4nc(c(-c5ccc(S(=O)(=O)[O-])cc5)c5ccc([nH]5)c(-c5ccc(S(=O)(=O)[O-])cc5)c5nc(c(-c6ccc(S(=O)(=O)[O-])cc6)c6ccc3[nH]6)C=C5)C=C4)cc2)nc(N)n1
REMARK SMILES IDX 17 1 16 2 14 3 15 4 13 5 11 6 12 7 85 8 83 9 82 10 10 11
REMARK SMILES IDX 5 12 6 13 7 14 9 15 8 16 4 17 3 18 2 19 1 20 84 21 18 24
REMARK SMILES IDX 19 25 20 26 21 27 22 28 23 29 81 30 24 31 80 32 25 33 26 34
REMARK SMILES IDX 27 35 74 36 28 37 79 38 73 39 75 40 29 41 78 42 72 43 71 44
REMARK SMILES IDX 30 46 60 47 41 48 59 49 42 50 45 51 58 52 76 53 43 54 44 55
REMARK SMILES IDX 57 57 77 58 46 59 31 60 32 61 40 62 33 63 39 64 34 65 35 66
REMARK SMILES IDX 36 67 37 68 38 69 61 70 62 71 70 72 63 73 69 74 64 75 65 76
REMARK SMILES IDX 66 77 67 78 68 79 47 80 48 81 56 82 49 83 55 84 50 85 51 86
REMARK SMILES IDX 52 87 53 88 54 89
REMARK H PARENT 84 22 84 23 75 45 45 56
REMARK Flexibility Score: inf
ROOT
ATOM      1  C   UNL A   1      39.045  22.088  26.210  1.00  0.00     0.275 C 
ENDROOT
BRANCH   1   2
ATOM      2  O   UNL A   1      37.918  22.680  25.531  1.00  0.00    -0.457 OA
BRANCH   2   3
ATOM      3  C   UNL A   1      36.806  21.898  25.449  1.00  0.00     0.357 C 
ATOM      4  O   UNL A   1      36.779  20.706  25.197  1.00  0.00    -0.244 OA
BRANCH   3   5
ATOM      5  C   UNL A   1      35.593  22.665  25.845  1.00  0.00     0.154 A 
ATOM      6  C   UNL A   1      34.296  24.587  25.661  1.00  0.00     0.080 A 
ATOM      7  C   UNL A   1      35.487  23.959  25.393  1.00  0.00     0.065 A 
ATOM      8  N   UNL A   1      33.352  24.023  26.443  1.00  0.00    -0.213 NA
ATOM      9  C   UNL A   1      33.579  22.778  26.874  1.00  0.00     0.221 A 
ATOM     10  N   UNL A   1      34.652  22.045  26.584  1.00  0.00    -0.206 NA
BRANCH   6  11
ATOM     11  C   UNL A   1      33.965  25.871  25.032  1.00  0.00     0.042 A 
ATOM     12  C   UNL A   1      33.824  25.988  23.634  1.00  0.00     0.129 A 
ATOM     13  C   UNL A   1      33.606  27.224  23.021  1.00  0.00     0.047 A 
ATOM     14  C   UNL A   1      33.485  28.367  23.807  1.00  0.00     0.004 A 
ATOM     15  C   UNL A   1      33.818  27.032  25.803  1.00  0.00     0.014 A 
ATOM     16  C   UNL A   1      33.584  28.270  25.195  1.00  0.00     0.001 A 
BRANCH  12  17
ATOM     17  O   UNL A   1      33.983  24.885  22.831  1.00  0.00    -0.489 OA
BRANCH  17  18
ATOM     18  C   UNL A   1      32.725  24.265  22.534  1.00  0.00     0.257 C 
BRANCH  18  19
ATOM     19  C   UNL A   1      32.973  22.794  22.364  1.00  0.00     0.006 C 
ATOM     20  C   UNL A   1      32.841  21.889  23.342  1.00  0.00     0.007 C 
ENDBRANCH  18  19
ENDBRANCH  17  18
ENDBRANCH  12  17
ENDBRANCH   6  11
BRANCH   9  21
ATOM     21  N   UNL A   1      32.623  22.206  27.660  1.00  0.00    -0.368 N 
ATOM     22  H   UNL A   1      32.368  21.266  27.519  1.00  0.00     0.159 HD
ATOM     23  H   UNL A   1      32.188  22.733  28.370  1.00  0.00     0.159 HD
ENDBRANCH   9  21
ENDBRANCH   3   5
ENDBRANCH   2   3
ENDBRANCH   1   2
BRANCH   1  24
ATOM     24  C   UNL A   1      40.112  23.143  26.504  1.00  0.00     0.275 C 
BRANCH  24  25
ATOM     25  O   UNL A   1      39.524  24.451  26.417  1.00  0.00    -0.458 OA
BRANCH  25  26
ATOM     26  C   UNL A   1      40.390  25.484  26.289  1.00  0.00     0.338 C 
ATOM     27  O   UNL A   1      41.030  25.784  25.294  1.00  0.00    -0.246 OA
BRANCH  26  28
ATOM     28  C   UNL A   1      40.456  26.232  27.564  1.00  0.00     0.060 A 
ATOM     29  C   UNL A   1      39.576  25.926  28.600  1.00  0.00     0.016 A 
ATOM     30  C   UNL A   1      41.337  27.302  27.706  1.00  0.00     0.016 A 
ATOM     31  C   UNL A   1      39.517  26.727  29.741  1.00  0.00     0.010 A 
ATOM     32  C   UNL A   1      41.340  28.051  28.890  1.00  0.00     0.010 A 
ATOM     33  C   UNL A   1      40.403  27.798  29.911  1.00  0.00    -0.014 A 
BRANCH  33  34
ATOM     34  C   UNL A   1      40.317  28.684  31.112  1.00  0.00     0.031 A 
ATOM     35  C   UNL A   1      39.280  29.780  31.168  1.00  0.00     0.074 A 
ATOM     36  C   UNL A   1      41.145  28.519  32.165  1.00  0.00     0.049 A 
ATOM     37  N   UNL A   1      39.172  30.778  32.010  1.00  0.00    -0.248 NA
ATOM     38  C   UNL A   1      38.234  29.761  30.132  1.00  0.00     0.031 C 
ATOM     39  C   UNL A   1      42.160  27.471  32.298  1.00  0.00     0.029 A 
ATOM     40  N   UNL A   1      41.258  29.232  33.336  1.00  0.00    -0.354 N 
ATOM     41  C   UNL A   1      38.100  31.542  31.564  1.00  0.00     0.074 A 
ATOM     42  C   UNL A   1      37.584  30.889  30.380  1.00  0.00     0.031 C 
ATOM     43  C   UNL A   1      42.753  27.580  33.496  1.00  0.00     0.029 A 
ATOM     44  C   UNL A   1      42.234  28.758  34.181  1.00  0.00     0.049 A 
ATOM     45  H   UNL A   1      40.691  30.009  33.549  1.00  0.00     0.167 HD
ATOM     46  C   UNL A   1      37.594  32.686  32.087  1.00  0.00     0.031 A 
ATOM     47  C   UNL A   1      42.698  29.236  35.353  1.00  0.00     0.031 A 
ATOM     48  C   UNL A   1      38.067  33.308  33.296  1.00  0.00     0.049 A 
ATOM     49  C   UNL A   1      42.137  30.517  35.904  1.00  0.00     0.074 A 
ATOM     50  C   UNL A   1      37.616  34.469  33.901  1.00  0.00     0.029 A 
ATOM     51  N   UNL A   1      39.081  32.809  34.097  1.00  0.00    -0.354 N 
ATOM     52  N   UNL A   1      41.182  31.273  35.421  1.00  0.00    -0.248 NA
ATOM     53  C   UNL A   1      42.735  31.021  37.149  1.00  0.00     0.031 C 
ATOM     54  C   UNL A   1      38.376  34.686  35.056  1.00  0.00     0.029 A 
ATOM     55  C   UNL A   1      39.270  33.637  35.191  1.00  0.00     0.049 A 
ATOM     56  H   UNL A   1      39.592  31.987  33.916  1.00  0.00     0.167 HD
ATOM     57  C   UNL A   1      41.060  32.338  36.305  1.00  0.00     0.074 A 
ATOM     58  C   UNL A   1      42.022  32.118  37.365  1.00  0.00     0.031 C 
ATOM     59  C   UNL A   1      40.230  33.408  36.240  1.00  0.00     0.031 A 
BRANCH  46  60
ATOM     60  C   UNL A   1      36.485  33.367  31.329  1.00  0.00    -0.014 A 
ATOM     61  C   UNL A   1      35.206  33.533  31.887  1.00  0.00     0.010 A 
ATOM     62  C   UNL A   1      36.745  33.886  30.046  1.00  0.00     0.010 A 
ATOM     63  C   UNL A   1      34.196  34.172  31.161  1.00  0.00     0.020 A 
ATOM     64  C   UNL A   1      35.745  34.548  29.327  1.00  0.00     0.020 A 
ATOM     65  C   UNL A   1      34.470  34.669  29.883  1.00  0.00     0.054 A 
BRANCH  65  66
ATOM     66  S   UNL A   1      33.149  35.510  28.968  1.00  0.00     0.124 S 
ATOM     67  O   UNL A   1      32.562  34.407  28.210  1.00  0.00    -0.237 OA
ATOM     68  O   UNL A   1      32.312  36.053  30.035  1.00  0.00    -0.237 OA
ATOM     69  O   UNL A   1      33.859  36.506  28.170  1.00  0.00    -0.744 OA
ENDBRANCH  65  66
ENDBRANCH  46  60
BRANCH  47  70
ATOM     70  C   UNL A   1      43.794  28.521  36.064  1.00  0.00    -0.014 A 
ATOM     71  C   UNL A   1      45.136  28.890  35.860  1.00  0.00     0.010 A 
ATOM     72  C   UNL A   1      43.500  27.475  36.957  1.00  0.00     0.010 A 
ATOM     73  C   UNL A   1      46.163  28.220  36.530  1.00  0.00     0.020 A 
ATOM     74  C   UNL A   1      44.522  26.822  37.650  1.00  0.00     0.020 A 
ATOM     75  C   UNL A   1      45.849  27.192  37.424  1.00  0.00     0.054 A 
BRANCH  75  76
ATOM     76  S   UNL A   1      47.189  26.376  38.336  1.00  0.00     0.124 S 
ATOM     77  O   UNL A   1      46.450  25.482  39.222  1.00  0.00    -0.237 OA
ATOM     78  O   UNL A   1      47.951  25.726  37.273  1.00  0.00    -0.237 OA
ATOM     79  O   UNL A   1      47.876  27.485  38.993  1.00  0.00    -0.744 OA
ENDBRANCH  75  76
ENDBRANCH  47  70
BRANCH  59  80
ATOM     80  C   UNL A   1      40.301  34.405  37.364  1.00  0.00    -0.014 A 
ATOM     81  C   UNL A   1      41.188  35.495  37.310  1.00  0.00     0.010 A 
ATOM     82  C   UNL A   1      39.442  34.270  38.468  1.00  0.00     0.010 A 
ATOM     83  C   UNL A   1      41.235  36.417  38.360  1.00  0.00     0.020 A 
ATOM     84  C   UNL A   1      39.472  35.202  39.509  1.00  0.00     0.020 A 
ATOM     85  C   UNL A   1      40.379  36.263  39.455  1.00  0.00     0.054 A 
BRANCH  85  86
ATOM     86  S   UNL A   1      40.431  37.490  40.789  1.00  0.00     0.124 S 
ATOM     87  O   UNL A   1      41.628  37.090  41.522  1.00  0.00    -0.237 OA
ATOM     88  O   UNL A   1      40.532  38.754  40.062  1.00  0.00    -0.237 OA
ATOM     89  O   UNL A   1      39.168  37.286  41.496  1.00  0.00    -0.744 OA
ENDBRANCH  85  86
ENDBRANCH  59  80
ENDBRANCH  33  34
ENDBRANCH  26  28
ENDBRANCH  25  26
ENDBRANCH  24  25
ENDBRANCH   1  24
TORSDOF 19
ENDMDL
MODEL 3
REMARK VINA RESULT:     -10.2      4.367     10.239
REMARK SMILES C=CCOc1ccccc1-c1cc(C(=O)OCCOC(=O)c2ccc(-c3c4nc(c(-c5ccc(S(=O)(=O)[O-])cc5)c5ccc([nH]5)c(-c5ccc(S(=O)(=O)[O-])cc5)c5nc(c(-c6ccc(S(=O)(=O)[O-])cc6)c6ccc3[nH]6)C=C5)C=C4)cc2)nc(N)n1
REMARK SMILES IDX 17 1 16 2 14 3 15 4 13 5 11 6 12 7 85 8 83 9 82 10 10 11
REMARK SMILES IDX 5 12 6 13 7 14 9 15 8 16 4 17 3 18 2 19 1 20 84 21 18 24
REMARK SMILES IDX 19 25 20 26 21 27 22 28 23 29 81 30 24 31 80 32 25 33 26 34
REMARK SMILES IDX 27 35 74 36 28 37 79 38 73 39 75 40 29 41 78 42 72 43 71 44
REMARK SMILES IDX 30 46 60 47 41 48 59 49 42 50 45 51 58 52 76 53 43 54 44 55
REMARK SMILES IDX 57 57 77 58 46 59 31 60 32 61 40 62 33 63 39 64 34 65 35 66
REMARK SMILES IDX 36 67 37 68 38 69 61 70 62 71 70 72 63 73 69 74 64 75 65 76
REMARK SMILES IDX 66 77 67 78 68 79 47 80 48 81 56 82 49 83 55 84 50 85 51 86
REMARK SMILES IDX 52 87 53 88 54 89
REMARK H PARENT 84 22 84 23 75 45 45 56
REMARK Flexibility Score: inf
ROOT
ATOM      1  C   UNL A   1      37.883  23.123  25.825  1.00  0.00     0.275 C 
ENDROOT
BRANCH   1   2
ATOM      2  O   UNL A   1      37.346  22.343  24.737  1.00  0.00    -0.457 OA
BRANCH   2   3
ATOM      3  C   UNL A   1      36.365  22.946  24.011  1.00  0.00     0.357 C 
ATOM      4  O   UNL A   1      36.342  23.078  22.799  1.00  0.00    -0.244 OA
BRANCH   3   5
ATOM      5  C   UNL A   1      35.222  23.326  24.883  1.00  0.00     0.154 A 
ATOM      6  C   UNL A   1      33.709  24.938  25.606  1.00  0.00     0.080 A 
ATOM      7  C   UNL A   1      34.850  24.649  24.899  1.00  0.00     0.065 A 
ATOM      8  N   UNL A   1      33.079  24.010  26.356  1.00  0.00    -0.213 NA
ATOM      9  C   UNL A   1      33.555  22.762  26.310  1.00  0.00     0.221 A 
ATOM     10  N   UNL A   1      34.590  22.357  25.576  1.00  0.00    -0.206 NA
BRANCH   6  11
ATOM     11  C   UNL A   1      33.076  26.258  25.504  1.00  0.00     0.042 A 
ATOM     12  C   UNL A   1      32.286  26.609  24.390  1.00  0.00     0.129 A 
ATOM     13  C   UNL A   1      31.762  27.895  24.240  1.00  0.00     0.047 A 
ATOM     14  C   UNL A   1      31.987  28.847  25.230  1.00  0.00     0.004 A 
ATOM     15  C   UNL A   1      33.270  27.228  26.498  1.00  0.00     0.014 A 
ATOM     16  C   UNL A   1      32.734  28.512  26.360  1.00  0.00     0.001 A 
BRANCH  12  17
ATOM     17  O   UNL A   1      32.085  25.704  23.376  1.00  0.00    -0.489 OA
BRANCH  17  18
ATOM     18  C   UNL A   1      30.730  25.238  23.349  1.00  0.00     0.257 C 
BRANCH  18  19
ATOM     19  C   UNL A   1      30.758  23.749  23.539  1.00  0.00     0.006 C 
ATOM     20  C   UNL A   1      31.735  22.950  23.087  1.00  0.00     0.007 C 
ENDBRANCH  18  19
ENDBRANCH  17  18
ENDBRANCH  12  17
ENDBRANCH   6  11
BRANCH   9  21
ATOM     21  N   UNL A   1      32.917  21.822  27.064  1.00  0.00    -0.368 N 
ATOM     22  H   UNL A   1      32.520  22.073  27.930  1.00  0.00     0.159 HD
ATOM     23  H   UNL A   1      32.852  20.893  26.743  1.00  0.00     0.159 HD
ENDBRANCH   9  21
ENDBRANCH   3   5
ENDBRANCH   2   3
ENDBRANCH   1   2
BRANCH   1  24
ATOM     24  C   UNL A   1      39.229  22.559  26.281  1.00  0.00     0.275 C 
BRANCH  24  25
ATOM     25  O   UNL A   1      39.733  23.352  27.367  1.00  0.00    -0.458 OA
BRANCH  25  26
ATOM     26  C   UNL A   1      40.703  24.244  27.051  1.00  0.00     0.338 C 
ATOM     27  O   UNL A   1      41.566  24.114  26.199  1.00  0.00    -0.246 OA
BRANCH  26  28
ATOM     28  C   UNL A   1      40.566  25.444  27.906  1.00  0.00     0.060 A 
ATOM     29  C   UNL A   1      41.584  26.394  27.946  1.00  0.00     0.016 A 
ATOM     30  C   UNL A   1      39.460  25.589  28.740  1.00  0.00     0.016 A 
ATOM     31  C   UNL A   1      41.542  27.442  28.865  1.00  0.00     0.010 A 
ATOM     32  C   UNL A   1      39.375  26.692  29.601  1.00  0.00     0.010 A 
ATOM     33  C   UNL A   1      40.433  27.615  29.703  1.00  0.00    -0.014 A 
BRANCH  33  34
ATOM     34  C   UNL A   1      40.402  28.711  30.719  1.00  0.00     0.031 A 
ATOM     35  C   UNL A   1      41.406  28.725  31.847  1.00  0.00     0.074 A 
ATOM     36  C   UNL A   1      39.494  29.707  30.645  1.00  0.00     0.049 A 
ATOM     37  N   UNL A   1      41.422  29.456  32.934  1.00  0.00    -0.248 NA
ATOM     38  C   UNL A   1      42.533  27.784  31.746  1.00  0.00     0.031 C 
ATOM     39  C   UNL A   1      38.495  29.878  29.588  1.00  0.00     0.029 A 
ATOM     40  N   UNL A   1      39.270  30.778  31.480  1.00  0.00    -0.354 N 
ATOM     41  C   UNL A   1      42.510  29.012  33.677  1.00  0.00     0.074 A 
ATOM     42  C   UNL A   1      43.136  27.953  32.914  1.00  0.00     0.031 C 
ATOM     43  C   UNL A   1      37.803  31.006  29.809  1.00  0.00     0.029 A 
ATOM     44  C   UNL A   1      38.239  31.592  31.072  1.00  0.00     0.049 A 
ATOM     45  H   UNL A   1      39.799  30.947  32.293  1.00  0.00     0.167 HD
ATOM     46  C   UNL A   1      42.946  29.441  34.887  1.00  0.00     0.031 A 
ATOM     47  C   UNL A   1      37.670  32.663  31.661  1.00  0.00     0.031 A 
ATOM     48  C   UNL A   1      42.361  30.531  35.624  1.00  0.00     0.049 A 
ATOM     49  C   UNL A   1      38.154  33.108  33.013  1.00  0.00     0.074 A 
ATOM     50  C   UNL A   1      42.735  31.035  36.858  1.00  0.00     0.029 A 
ATOM     51  N   UNL A   1      41.296  31.301  35.185  1.00  0.00    -0.354 N 
ATOM     52  N   UNL A   1      39.129  32.619  33.740  1.00  0.00    -0.248 NA
ATOM     53  C   UNL A   1      37.446  34.237  33.633  1.00  0.00     0.031 C 
ATOM     54  C   UNL A   1      41.879  32.094  37.178  1.00  0.00     0.029 A 
ATOM     55  C   UNL A   1      41.000  32.276  36.123  1.00  0.00     0.049 A 
ATOM     56  H   UNL A   1      40.821  31.174  34.333  1.00  0.00     0.167 HD
ATOM     57  C   UNL A   1      39.155  33.385  34.900  1.00  0.00     0.074 A 
ATOM     58  C   UNL A   1      38.114  34.384  34.768  1.00  0.00     0.031 C 
ATOM     59  C   UNL A   1      39.963  33.265  35.981  1.00  0.00     0.031 A 
BRANCH  46  60
ATOM     60  C   UNL A   1      44.098  28.700  35.515  1.00  0.00    -0.014 A 
ATOM     61  C   UNL A   1      45.429  29.105  35.315  1.00  0.00     0.010 A 
ATOM     62  C   UNL A   1      43.834  27.601  36.354  1.00  0.00     0.010 A 
ATOM     63  C   UNL A   1      46.478  28.400  35.912  1.00  0.00     0.020 A 
ATOM     64  C   UNL A   1      44.880  26.909  36.973  1.00  0.00     0.020 A 
ATOM     65  C   UNL A   1      46.197  27.302  36.733  1.00  0.00     0.054 A 
BRANCH  65  66
ATOM     66  S   UNL A   1      47.574  26.414  37.510  1.00  0.00     0.124 S 
ATOM     67  O   UNL A   1      47.764  27.177  38.742  1.00  0.00    -0.237 OA
ATOM     68  O   UNL A   1      47.034  25.068  37.684  1.00  0.00    -0.237 OA
ATOM     69  O   UNL A   1      48.655  26.527  36.535  1.00  0.00    -0.744 OA
ENDBRANCH  65  66
ENDBRANCH  46  60
BRANCH  47  70
ATOM     70  C   UNL A   1      36.535  33.361  30.996  1.00  0.00    -0.014 A 
ATOM     71  C   UNL A   1      35.294  33.485  31.646  1.00  0.00     0.010 A 
ATOM     72  C   UNL A   1      36.693  33.913  29.713  1.00  0.00     0.010 A 
ATOM     73  C   UNL A   1      34.231  34.143  31.021  1.00  0.00     0.020 A 
ATOM     74  C   UNL A   1      35.642  34.597  29.097  1.00  0.00     0.020 A 
ATOM     75  C   UNL A   1      34.413  34.698  29.751  1.00  0.00     0.054 A 
BRANCH  75  76
ATOM     76  S   UNL A   1      33.044  35.606  28.981  1.00  0.00     0.124 S 
ATOM     77  O   UNL A   1      33.750  36.656  28.254  1.00  0.00    -0.237 OA
ATOM     78  O   UNL A   1      32.406  34.584  28.155  1.00  0.00    -0.237 OA
ATOM     79  O   UNL A   1      32.251  36.057  30.122  1.00  0.00    -0.744 OA
ENDBRANCH  75  76
ENDBRANCH  47  70
BRANCH  59  80
ATOM     80  C   UNL A   1      39.777  34.260  37.094  1.00  0.00    -0.014 A 
ATOM     81  C   UNL A   1      38.936  33.979  38.185  1.00  0.00     0.010 A 
ATOM     82  C   UNL A   1      40.486  35.473  37.066  1.00  0.00     0.010 A 
ATOM     83  C   UNL A   1      38.782  34.911  39.215  1.00  0.00     0.020 A 
ATOM     84  C   UNL A   1      40.350  36.399  38.104  1.00  0.00     0.020 A 
ATOM     85  C   UNL A   1      39.487  36.118  39.166  1.00  0.00     0.054 A 
BRANCH  85  86
ATOM     86  S   UNL A   1      39.301  37.299  40.530  1.00  0.00     0.124 S 
ATOM     87  O   UNL A   1      38.859  36.436  41.621  1.00  0.00    -0.237 OA
ATOM     88  O   UNL A   1      40.647  37.848  40.668  1.00  0.00    -0.237 OA
ATOM     89  O   UNL A   1      38.299  38.242  40.035  1.00  0.00    -0.744 OA
ENDBRANCH  85  86
ENDBRANCH  59  80
ENDBRANCH  33  34
ENDBRANCH  26  28
ENDBRANCH  25  26
ENDBRANCH  24  25
ENDBRANCH   1  24
TORSDOF 19
ENDMDL
