MODEL 1
REMARK VINA RESULT:      -9.8      0.000      0.000
REMARK SMILES COc1ccc(COc2cncc(C(=O)OCCOC(=O)c3ccc(-c4c5nc(c(-c6ccc(S(=O)(=O)[O-])cc6)c6ccc([nH]6)c(-c6ccc(S(=O)(=O)[O-])cc6)c6nc(c(-c7ccc(S(=O)(=O)[O-])cc7)c7ccc4[nH]7)C=C6)C=C5)cc3)n2)cc1
REMARK SMILES IDX 17 1 16 2 14 3 15 4 13 5 9 6 10 7 82 8 11 9 12 10 8 11 7 12
REMARK SMILES IDX 6 13 3 14 4 15 84 16 5 17 83 18 2 19 1 20 18 21 19 22 20 23
REMARK SMILES IDX 21 24 22 25 23 26 81 27 24 28 80 29 25 30 26 31 27 32 74 33
REMARK SMILES IDX 28 34 79 35 73 36 75 37 29 38 78 39 72 40 71 41 30 43 60 44
REMARK SMILES IDX 41 45 59 46 42 47 45 48 58 49 76 50 43 51 44 52 57 54 77 55
REMARK SMILES IDX 46 56 31 57 32 58 40 59 33 60 39 61 34 62 35 63 36 64 37 65
REMARK SMILES IDX 38 66 61 67 62 68 70 69 63 70 69 71 64 72 65 73 66 74 67 75
REMARK SMILES IDX 68 76 47 77 48 78 56 79 49 80 55 81 50 82 51 83 52 84 53 85
REMARK SMILES IDX 54 86
REMARK H PARENT 75 42 45 53
REMARK Flexibility Score: inf
ROOT
ATOM      1  C   UNL A   1      41.359  21.494  26.050  1.00  0.00     0.275 C 
ENDROOT
BRANCH   1   2
ATOM      2  O   UNL A   1      42.125  20.510  26.777  1.00  0.00    -0.457 OA
BRANCH   2   3
ATOM      3  C   UNL A   1      42.610  19.498  26.011  1.00  0.00     0.358 C 
ATOM      4  O   UNL A   1      42.020  18.468  25.733  1.00  0.00    -0.244 OA
BRANCH   3   5
ATOM      5  C   UNL A   1      43.927  19.815  25.417  1.00  0.00     0.170 A 
ATOM      6  C   UNL A   1      45.737  21.174  25.113  1.00  0.00     0.233 A 
ATOM      7  C   UNL A   1      46.470  20.062  24.686  1.00  0.00     0.179 A 
ATOM      8  N   UNL A   1      44.439  21.075  25.497  1.00  0.00    -0.203 NA
ATOM      9  N   UNL A   1      45.943  18.833  24.549  1.00  0.00    -0.257 NA
ATOM     10  C   UNL A   1      44.664  18.736  24.950  1.00  0.00     0.147 A 
BRANCH   6  11
ATOM     11  O   UNL A   1      46.326  22.396  25.331  1.00  0.00    -0.472 OA
BRANCH  11  12
ATOM     12  C   UNL A   1      45.808  23.088  26.480  1.00  0.00     0.267 C 
BRANCH  12  13
ATOM     13  C   UNL A   1      45.973  24.591  26.392  1.00  0.00    -0.010 A 
ATOM     14  C   UNL A   1      46.502  27.305  25.859  1.00  0.00     0.118 A 
ATOM     15  C   UNL A   1      47.354  26.563  26.681  1.00  0.00     0.047 A 
ATOM     16  C   UNL A   1      45.359  26.700  25.338  1.00  0.00     0.047 A 
ATOM     17  C   UNL A   1      47.086  25.222  26.964  1.00  0.00     0.011 A 
ATOM     18  C   UNL A   1      45.090  25.353  25.610  1.00  0.00     0.011 A 
BRANCH  14  19
ATOM     19  O   UNL A   1      46.916  28.586  25.616  1.00  0.00    -0.497 OA
ATOM     20  C   UNL A   1      46.174  29.630  26.234  1.00  0.00     0.278 C 
ENDBRANCH  14  19
ENDBRANCH  12  13
ENDBRANCH  11  12
ENDBRANCH   6  11
ENDBRANCH   3   5
ENDBRANCH   2   3
ENDBRANCH   1   2
BRANCH   1  21
ATOM     21  C   UNL A   1      39.899  21.527  26.507  1.00  0.00     0.275 C 
BRANCH  21  22
ATOM     22  O   UNL A   1      39.075  22.242  25.565  1.00  0.00    -0.458 OA
BRANCH  22  23
ATOM     23  C   UNL A   1      38.280  23.196  26.093  1.00  0.00     0.338 C 
ATOM     24  O   UNL A   1      37.054  23.210  26.106  1.00  0.00    -0.246 OA
BRANCH  23  25
ATOM     25  C   UNL A   1      39.075  24.252  26.743  1.00  0.00     0.060 A 
ATOM     26  C   UNL A   1      38.866  24.519  28.090  1.00  0.00     0.016 A 
ATOM     27  C   UNL A   1      39.869  25.110  25.985  1.00  0.00     0.016 A 
ATOM     28  C   UNL A   1      39.285  25.734  28.630  1.00  0.00     0.010 A 
ATOM     29  C   UNL A   1      40.440  26.242  26.586  1.00  0.00     0.010 A 
ATOM     30  C   UNL A   1      40.114  26.604  27.905  1.00  0.00    -0.014 A 
BRANCH  30  31
ATOM     31  C   UNL A   1      40.632  27.867  28.524  1.00  0.00     0.031 A 
ATOM     32  C   UNL A   1      42.091  28.013  28.898  1.00  0.00     0.074 A 
ATOM     33  C   UNL A   1      39.799  28.907  28.756  1.00  0.00     0.049 A 
ATOM     34  N   UNL A   1      42.672  28.940  29.621  1.00  0.00    -0.248 NA
ATOM     35  C   UNL A   1      43.015  26.974  28.416  1.00  0.00     0.031 C 
ATOM     36  C   UNL A   1      38.374  28.952  28.417  1.00  0.00     0.029 A 
ATOM     37  N   UNL A   1      40.033  30.140  29.317  1.00  0.00    -0.354 N 
ATOM     38  C   UNL A   1      44.007  28.561  29.737  1.00  0.00     0.074 A 
ATOM     39  C   UNL A   1      44.150  27.316  29.012  1.00  0.00     0.031 C 
ATOM     40  C   UNL A   1      37.886  30.166  28.698  1.00  0.00     0.029 A 
ATOM     41  C   UNL A   1      38.919  30.947  29.363  1.00  0.00     0.049 A 
ATOM     42  H   UNL A   1      40.915  30.419  29.655  1.00  0.00     0.167 HD
ATOM     43  C   UNL A   1      45.018  29.185  30.393  1.00  0.00     0.031 A 
ATOM     44  C   UNL A   1      38.715  32.154  29.925  1.00  0.00     0.031 A 
ATOM     45  C   UNL A   1      44.886  30.449  31.074  1.00  0.00     0.049 A 
ATOM     46  C   UNL A   1      39.830  32.804  30.687  1.00  0.00     0.074 A 
ATOM     47  C   UNL A   1      45.854  31.167  31.756  1.00  0.00     0.029 A 
ATOM     48  N   UNL A   1      43.718  31.194  31.144  1.00  0.00    -0.354 N 
ATOM     49  N   UNL A   1      41.062  32.387  30.854  1.00  0.00    -0.248 NA
ATOM     50  C   UNL A   1      39.517  34.068  31.365  1.00  0.00     0.031 C 
ATOM     51  C   UNL A   1      45.261  32.321  32.277  1.00  0.00     0.029 A 
ATOM     52  C   UNL A   1      43.935  32.350  31.875  1.00  0.00     0.049 A 
ATOM     53  H   UNL A   1      42.860  30.938  30.733  1.00  0.00     0.167 HD
ATOM     54  C   UNL A   1      41.673  33.339  31.660  1.00  0.00     0.074 A 
ATOM     55  C   UNL A   1      40.684  34.366  31.922  1.00  0.00     0.031 C 
ATOM     56  C   UNL A   1      42.939  33.356  32.144  1.00  0.00     0.031 A 
BRANCH  43  57
ATOM     57  C   UNL A   1      46.353  28.483  30.452  1.00  0.00    -0.014 A 
ATOM     58  C   UNL A   1      47.409  28.821  29.588  1.00  0.00     0.010 A 
ATOM     59  C   UNL A   1      46.560  27.477  31.418  1.00  0.00     0.010 A 
ATOM     60  C   UNL A   1      48.625  28.133  29.653  1.00  0.00     0.020 A 
ATOM     61  C   UNL A   1      47.783  26.806  31.503  1.00  0.00     0.020 A 
ATOM     62  C   UNL A   1      48.802  27.123  30.603  1.00  0.00     0.054 A 
BRANCH  62  63
ATOM     63  S   UNL A   1      50.385  26.239  30.661  1.00  0.00     0.124 S 
ATOM     64  O   UNL A   1      50.793  26.262  29.258  1.00  0.00    -0.237 OA
ATOM     65  O   UNL A   1      51.185  27.068  31.559  1.00  0.00    -0.237 OA
ATOM     66  O   UNL A   1      50.030  24.923  31.184  1.00  0.00    -0.744 OA
ENDBRANCH  62  63
ENDBRANCH  43  57
BRANCH  44  67
ATOM     67  C   UNL A   1      37.369  32.787  29.839  1.00  0.00    -0.014 A 
ATOM     68  C   UNL A   1      36.624  33.042  31.002  1.00  0.00     0.010 A 
ATOM     69  C   UNL A   1      36.849  33.183  28.591  1.00  0.00     0.010 A 
ATOM     70  C   UNL A   1      35.388  33.691  30.921  1.00  0.00     0.020 A 
ATOM     71  C   UNL A   1      35.630  33.860  28.510  1.00  0.00     0.020 A 
ATOM     72  C   UNL A   1      34.903  34.103  29.676  1.00  0.00     0.054 A 
BRANCH  72  73
ATOM     73  S   UNL A   1      33.341  35.023  29.601  1.00  0.00     0.124 S 
ATOM     74  O   UNL A   1      32.566  34.227  28.655  1.00  0.00    -0.237 OA
ATOM     75  O   UNL A   1      32.881  34.983  30.988  1.00  0.00    -0.237 OA
ATOM     76  O   UNL A   1      33.746  36.344  29.126  1.00  0.00    -0.744 OA
ENDBRANCH  72  73
ENDBRANCH  44  67
BRANCH  56  77
ATOM     77  C   UNL A   1      43.327  34.530  32.999  1.00  0.00    -0.014 A 
ATOM     78  C   UNL A   1      43.749  35.740  32.418  1.00  0.00     0.010 A 
ATOM     79  C   UNL A   1      43.244  34.431  34.400  1.00  0.00     0.010 A 
ATOM     80  C   UNL A   1      44.107  36.822  33.227  1.00  0.00     0.020 A 
ATOM     81  C   UNL A   1      43.579  35.518  35.209  1.00  0.00     0.020 A 
ATOM     82  C   UNL A   1      44.022  36.703  34.617  1.00  0.00     0.054 A 
BRANCH  82  83
ATOM     83  S   UNL A   1      44.457  38.133  35.644  1.00  0.00     0.124 S 
ATOM     84  O   UNL A   1      43.692  37.878  36.861  1.00  0.00    -0.237 OA
ATOM     85  O   UNL A   1      45.906  38.007  35.775  1.00  0.00    -0.237 OA
ATOM     86  O   UNL A   1      44.008  39.277  34.853  1.00  0.00    -0.744 OA
ENDBRANCH  82  83
ENDBRANCH  56  77
ENDBRANCH  30  31
ENDBRANCH  23  25
ENDBRANCH  22  23
ENDBRANCH  21  22
ENDBRANCH   1  21
TORSDOF 18
ENDMDL
MODEL 2
REMARK VINA RESULT:      -9.6      3.679      6.671
REMARK SMILES COc1ccc(COc2cncc(C(=O)OCCOC(=O)c3ccc(-c4c5nc(c(-c6ccc(S(=O)(=O)[O-])cc6)c6ccc([nH]6)c(-c6ccc(S(=O)(=O)[O-])cc6)c6nc(c(-c7ccc(S(=O)(=O)[O-])cc7)c7ccc4[nH]7)C=C6)C=C5)cc3)n2)cc1
REMARK SMILES IDX 17 1 16 2 14 3 15 4 13 5 9 6 10 7 82 8 11 9 12 10 8 11 7 12
REMARK SMILES IDX 6 13 3 14 4 15 84 16 5 17 83 18 2 19 1 20 18 21 19 22 20 23
REMARK SMILES IDX 21 24 22 25 23 26 81 27 24 28 80 29 25 30 26 31 27 32 74 33
REMARK SMILES IDX 28 34 79 35 73 36 75 37 29 38 78 39 72 40 71 41 30 43 60 44
REMARK SMILES IDX 41 45 59 46 42 47 45 48 58 49 76 50 43 51 44 52 57 54 77 55
REMARK SMILES IDX 46 56 31 57 32 58 40 59 33 60 39 61 34 62 35 63 36 64 37 65
REMARK SMILES IDX 38 66 61 67 62 68 70 69 63 70 69 71 64 72 65 73 66 74 67 75
REMARK SMILES IDX 68 76 47 77 48 78 56 79 49 80 55 81 50 82 51 83 52 84 53 85
REMARK SMILES IDX 54 86
REMARK H PARENT 75 42 45 53
REMARK Flexibility Score: inf
ROOT
ATOM      1  C   UNL A   1      36.475  21.881  24.231  1.00  0.00     0.275 C 
ENDROOT
BRANCH   1   2
ATOM      2  O   UNL A   1      35.408  22.101  25.177  1.00  0.00    -0.457 OA
BRANCH   2   3
ATOM      3  C   UNL A   1      34.319  21.312  24.989  1.00  0.00     0.358 C 
ATOM      4  O   UNL A   1      34.311  20.092  24.990  1.00  0.00    -0.244 OA
BRANCH   3   5
ATOM      5  C   UNL A   1      33.063  22.089  24.897  1.00  0.00     0.170 A 
ATOM      6  C   UNL A   1      31.598  23.666  25.657  1.00  0.00     0.233 A 
ATOM      7  C   UNL A   1      31.046  23.737  24.375  1.00  0.00     0.179 A 
ATOM      8  N   UNL A   1      32.632  22.837  25.950  1.00  0.00    -0.203 NA
ATOM      9  N   UNL A   1      31.432  22.952  23.354  1.00  0.00    -0.257 NA
ATOM     10  C   UNL A   1      32.469  22.148  23.643  1.00  0.00     0.147 A 
BRANCH   6  11
ATOM     11  O   UNL A   1      31.246  24.545  26.653  1.00  0.00    -0.472 OA
BRANCH  11  12
ATOM     12  C   UNL A   1      30.880  25.849  26.169  1.00  0.00     0.267 C 
BRANCH  12  13
ATOM     13  C   UNL A   1      31.868  26.927  26.563  1.00  0.00    -0.010 A 
ATOM     14  C   UNL A   1      33.574  29.137  26.929  1.00  0.00     0.118 A 
ATOM     15  C   UNL A   1      34.029  27.989  26.275  1.00  0.00     0.047 A 
ATOM     16  C   UNL A   1      32.278  29.163  27.440  1.00  0.00     0.047 A 
ATOM     17  C   UNL A   1      33.193  26.883  26.108  1.00  0.00     0.011 A 
ATOM     18  C   UNL A   1      31.431  28.061  27.266  1.00  0.00     0.011 A 
BRANCH  14  19
ATOM     19  O   UNL A   1      34.475  30.165  26.969  1.00  0.00    -0.497 OA
ATOM     20  C   UNL A   1      34.144  31.279  27.789  1.00  0.00     0.278 C 
ENDBRANCH  14  19
ENDBRANCH  12  13
ENDBRANCH  11  12
ENDBRANCH   6  11
ENDBRANCH   3   5
ENDBRANCH   2   3
ENDBRANCH   1   2
BRANCH   1  21
ATOM     21  C   UNL A   1      37.682  21.204  24.885  1.00  0.00     0.275 C 
BRANCH  21  22
ATOM     22  O   UNL A   1      38.063  21.880  26.099  1.00  0.00    -0.458 OA
BRANCH  22  23
ATOM     23  C   UNL A   1      39.388  21.923  26.352  1.00  0.00     0.338 C 
ATOM     24  O   UNL A   1      40.217  21.060  26.086  1.00  0.00    -0.246 OA
BRANCH  23  25
ATOM     25  C   UNL A   1      39.774  23.209  26.958  1.00  0.00     0.060 A 
ATOM     26  C   UNL A   1      39.241  24.382  26.441  1.00  0.00     0.016 A 
ATOM     27  C   UNL A   1      40.810  23.271  27.887  1.00  0.00     0.016 A 
ATOM     28  C   UNL A   1      39.863  25.603  26.704  1.00  0.00     0.010 A 
ATOM     29  C   UNL A   1      41.312  24.520  28.286  1.00  0.00     0.010 A 
ATOM     30  C   UNL A   1      40.886  25.705  27.660  1.00  0.00    -0.014 A 
BRANCH  30  31
ATOM     31  C   UNL A   1      41.490  27.034  28.000  1.00  0.00     0.031 A 
ATOM     32  C   UNL A   1      42.965  27.300  27.787  1.00  0.00     0.074 A 
ATOM     33  C   UNL A   1      40.721  28.028  28.500  1.00  0.00     0.049 A 
ATOM     34  N   UNL A   1      43.695  28.305  28.206  1.00  0.00    -0.248 NA
ATOM     35  C   UNL A   1      43.723  26.298  27.019  1.00  0.00     0.031 C 
ATOM     36  C   UNL A   1      39.275  27.957  28.728  1.00  0.00     0.029 A 
ATOM     37  N   UNL A   1      41.045  29.305  28.895  1.00  0.00    -0.354 N 
ATOM     38  C   UNL A   1      45.002  28.023  27.818  1.00  0.00     0.074 A 
ATOM     39  C   UNL A   1      44.966  26.750  27.129  1.00  0.00     0.031 C 
ATOM     40  C   UNL A   1      38.829  29.150  29.138  1.00  0.00     0.029 A 
ATOM     41  C   UNL A   1      39.967  30.036  29.338  1.00  0.00     0.049 A 
ATOM     42  H   UNL A   1      41.963  29.662  28.864  1.00  0.00     0.167 HD
ATOM     43  C   UNL A   1      46.129  28.751  28.022  1.00  0.00     0.031 A 
ATOM     44  C   UNL A   1      39.888  31.258  29.900  1.00  0.00     0.031 A 
ATOM     45  C   UNL A   1      46.157  30.041  28.664  1.00  0.00     0.049 A 
ATOM     46  C   UNL A   1      41.149  32.024  30.161  1.00  0.00     0.074 A 
ATOM     47  C   UNL A   1      47.247  30.861  28.907  1.00  0.00     0.029 A 
ATOM     48  N   UNL A   1      45.044  30.709  29.152  1.00  0.00    -0.354 N 
ATOM     49  N   UNL A   1      42.384  31.702  29.859  1.00  0.00    -0.248 NA
ATOM     50  C   UNL A   1      41.009  33.303  30.870  1.00  0.00     0.031 C 
ATOM     51  C   UNL A   1      46.798  32.002  29.580  1.00  0.00     0.029 A 
ATOM     52  C   UNL A   1      45.422  31.918  29.712  1.00  0.00     0.049 A 
ATOM     53  H   UNL A   1      44.119  30.372  29.106  1.00  0.00     0.167 HD
ATOM     54  C   UNL A   1      43.170  32.739  30.344  1.00  0.00     0.074 A 
ATOM     55  C   UNL A   1      42.271  33.710  30.933  1.00  0.00     0.031 C 
ATOM     56  C   UNL A   1      44.519  32.868  30.310  1.00  0.00     0.031 A 
BRANCH  43  57
ATOM     57  C   UNL A   1      47.442  28.144  27.589  1.00  0.00    -0.014 A 
ATOM     58  C   UNL A   1      48.071  28.515  26.388  1.00  0.00     0.010 A 
ATOM     59  C   UNL A   1      48.072  27.200  28.424  1.00  0.00     0.010 A 
ATOM     60  C   UNL A   1      49.275  27.915  26.004  1.00  0.00     0.020 A 
ATOM     61  C   UNL A   1      49.289  26.617  28.057  1.00  0.00     0.020 A 
ATOM     62  C   UNL A   1      49.872  26.962  26.836  1.00  0.00     0.054 A 
BRANCH  62  63
ATOM     63  S   UNL A   1      51.429  26.192  26.312  1.00  0.00     0.124 S 
ATOM     64  O   UNL A   1      52.421  27.081  26.912  1.00  0.00    -0.237 OA
ATOM     65  O   UNL A   1      51.344  24.859  26.905  1.00  0.00    -0.237 OA
ATOM     66  O   UNL A   1      51.361  26.226  24.854  1.00  0.00    -0.744 OA
ENDBRANCH  62  63
ENDBRANCH  43  57
BRANCH  44  67
ATOM     67  C   UNL A   1      38.561  31.792  30.313  1.00  0.00    -0.014 A 
ATOM     68  C   UNL A   1      38.063  31.547  31.604  1.00  0.00     0.010 A 
ATOM     69  C   UNL A   1      37.811  32.595  29.431  1.00  0.00     0.010 A 
ATOM     70  C   UNL A   1      36.844  32.101  32.008  1.00  0.00     0.020 A 
ATOM     71  C   UNL A   1      36.610  33.176  29.842  1.00  0.00     0.020 A 
ATOM     72  C   UNL A   1      36.130  32.919  31.127  1.00  0.00     0.054 A 
BRANCH  72  73
ATOM     73  S   UNL A   1      34.597  33.702  31.701  1.00  0.00     0.124 S 
ATOM     74  O   UNL A   1      33.909  33.979  30.444  1.00  0.00    -0.237 OA
ATOM     75  O   UNL A   1      33.999  32.659  32.533  1.00  0.00    -0.237 OA
ATOM     76  O   UNL A   1      35.067  34.876  32.431  1.00  0.00    -0.744 OA
ENDBRANCH  72  73
ENDBRANCH  44  67
BRANCH  56  77
ATOM     77  C   UNL A   1      45.101  34.114  30.919  1.00  0.00    -0.014 A 
ATOM     78  C   UNL A   1      45.184  35.309  30.181  1.00  0.00     0.010 A 
ATOM     79  C   UNL A   1      45.544  34.097  32.254  1.00  0.00     0.010 A 
ATOM     80  C   UNL A   1      45.728  36.459  30.761  1.00  0.00     0.020 A 
ATOM     81  C   UNL A   1      46.066  35.250  32.843  1.00  0.00     0.020 A 
ATOM     82  C   UNL A   1      46.168  36.421  32.087  1.00  0.00     0.054 A 
BRANCH  82  83
ATOM     83  S   UNL A   1      46.835  37.935  32.829  1.00  0.00     0.124 S 
ATOM     84  O   UNL A   1      47.460  37.427  34.047  1.00  0.00    -0.237 OA
ATOM     85  O   UNL A   1      47.757  38.417  31.804  1.00  0.00    -0.237 OA
ATOM     86  O   UNL A   1      45.653  38.770  33.036  1.00  0.00    -0.744 OA
ENDBRANCH  82  83
ENDBRANCH  56  77
ENDBRANCH  30  31
ENDBRANCH  23  25
ENDBRANCH  22  23
ENDBRANCH  21  22
ENDBRANCH   1  21
TORSDOF 18
ENDMDL
MODEL 3
REMARK VINA RESULT:      -9.5      4.826     12.254
REMARK SMILES COc1ccc(COc2cncc(C(=O)OCCOC(=O)c3ccc(-c4c5nc(c(-c6ccc(S(=O)(=O)[O-])cc6)c6ccc([nH]6)c(-c6ccc(S(=O)(=O)[O-])cc6)c6nc(c(-c7ccc(S(=O)(=O)[O-])cc7)c7ccc4[nH]7)C=C6)C=C5)cc3)n2)cc1
REMARK SMILES IDX 17 1 16 2 14 3 15 4 13 5 9 6 10 7 82 8 11 9 12 10 8 11 7 12
REMARK SMILES IDX 6 13 3 14 4 15 84 16 5 17 83 18 2 19 1 20 18 21 19 22 20 23
REMARK SMILES IDX 21 24 22 25 23 26 81 27 24 28 80 29 25 30 26 31 27 32 74 33
REMARK SMILES IDX 28 34 79 35 73 36 75 37 29 38 78 39 72 40 71 41 30 43 60 44
REMARK SMILES IDX 41 45 59 46 42 47 45 48 58 49 76 50 43 51 44 52 57 54 77 55
REMARK SMILES IDX 46 56 31 57 32 58 40 59 33 60 39 61 34 62 35 63 36 64 37 65
REMARK SMILES IDX 38 66 61 67 62 68 70 69 63 70 69 71 64 72 65 73 66 74 67 75
REMARK SMILES IDX 68 76 47 77 48 78 56 79 49 80 55 81 50 82 51 83 52 84 53 85
REMARK SMILES IDX 54 86
REMARK H PARENT 75 42 45 53
REMARK Flexibility Score: inf
ROOT
ATOM      1  C   UNL A   1      34.774  33.206  30.207  1.00  0.00     0.275 C 
ENDROOT
BRANCH   1   2
ATOM      2  O   UNL A   1      35.056  32.816  28.847  1.00  0.00    -0.457 OA
BRANCH   2   3
ATOM      3  C   UNL A   1      33.954  32.650  28.070  1.00  0.00     0.358 C 
ATOM      4  O   UNL A   1      33.227  33.540  27.661  1.00  0.00    -0.244 OA
BRANCH   3   5
ATOM      5  C   UNL A   1      33.766  31.246  27.643  1.00  0.00     0.170 A 
ATOM      6  C   UNL A   1      32.592  29.584  26.607  1.00  0.00     0.233 A 
ATOM      7  C   UNL A   1      33.769  28.835  26.527  1.00  0.00     0.179 A 
ATOM      8  N   UNL A   1      32.564  30.820  27.167  1.00  0.00    -0.203 NA
ATOM      9  N   UNL A   1      34.941  29.231  27.053  1.00  0.00    -0.257 NA
ATOM     10  C   UNL A   1      34.913  30.464  27.588  1.00  0.00     0.147 A 
BRANCH   6  11
ATOM     11  O   UNL A   1      31.434  29.194  25.979  1.00  0.00    -0.472 OA
BRANCH  11  12
ATOM     12  C   UNL A   1      31.551  29.117  24.548  1.00  0.00     0.267 C 
BRANCH  12  13
ATOM     13  C   UNL A   1      30.354  29.695  23.822  1.00  0.00    -0.010 A 
ATOM     14  C   UNL A   1      28.424  30.990  22.232  1.00  0.00     0.118 A 
ATOM     15  C   UNL A   1      28.820  31.536  23.456  1.00  0.00     0.047 A 
ATOM     16  C   UNL A   1      28.964  29.772  21.823  1.00  0.00     0.047 A 
ATOM     17  C   UNL A   1      29.763  30.888  24.258  1.00  0.00     0.011 A 
ATOM     18  C   UNL A   1      29.917  29.122  22.617  1.00  0.00     0.011 A 
BRANCH  14  19
ATOM     19  O   UNL A   1      27.542  31.758  21.523  1.00  0.00    -0.497 OA
ATOM     20  C   UNL A   1      28.011  32.313  20.301  1.00  0.00     0.278 C 
ENDBRANCH  14  19
ENDBRANCH  12  13
ENDBRANCH  11  12
ENDBRANCH   6  11
ENDBRANCH   3   5
ENDBRANCH   2   3
ENDBRANCH   1   2
BRANCH   1  21
ATOM     21  C   UNL A   1      35.616  32.415  31.210  1.00  0.00     0.275 C 
BRANCH  21  22
ATOM     22  O   UNL A   1      36.678  31.700  30.547  1.00  0.00    -0.458 OA
BRANCH  22  23
ATOM     23  C   UNL A   1      36.931  30.462  31.021  1.00  0.00     0.338 C 
ATOM     24  O   UNL A   1      36.276  29.842  31.851  1.00  0.00    -0.246 OA
BRANCH  23  25
ATOM     25  C   UNL A   1      38.106  29.869  30.360  1.00  0.00     0.060 A 
ATOM     26  C   UNL A   1      39.107  29.309  31.143  1.00  0.00     0.016 A 
ATOM     27  C   UNL A   1      38.317  30.049  28.995  1.00  0.00     0.016 A 
ATOM     28  C   UNL A   1      40.378  29.108  30.606  1.00  0.00     0.010 A 
ATOM     29  C   UNL A   1      39.544  29.673  28.425  1.00  0.00     0.010 A 
ATOM     30  C   UNL A   1      40.615  29.247  29.229  1.00  0.00    -0.014 A 
BRANCH  30  31
ATOM     31  C   UNL A   1      41.964  28.945  28.647  1.00  0.00     0.031 A 
ATOM     32  C   UNL A   1      42.299  27.564  28.127  1.00  0.00     0.074 A 
ATOM     33  C   UNL A   1      42.908  29.911  28.572  1.00  0.00     0.049 A 
ATOM     34  N   UNL A   1      43.462  27.069  27.782  1.00  0.00    -0.248 NA
ATOM     35  C   UNL A   1      41.187  26.609  27.994  1.00  0.00     0.031 C 
ATOM     36  C   UNL A   1      42.739  31.306  28.987  1.00  0.00     0.029 A 
ATOM     37  N   UNL A   1      44.200  29.870  28.102  1.00  0.00    -0.354 N 
ATOM     38  C   UNL A   1      43.235  25.733  27.461  1.00  0.00     0.074 A 
ATOM     39  C   UNL A   1      41.821  25.494  27.655  1.00  0.00     0.031 C 
ATOM     40  C   UNL A   1      43.842  32.000  28.681  1.00  0.00     0.029 A 
ATOM     41  C   UNL A   1      44.851  31.081  28.174  1.00  0.00     0.049 A 
ATOM     42  H   UNL A   1      44.619  29.053  27.748  1.00  0.00     0.167 HD
ATOM     43  C   UNL A   1      44.121  24.791  27.052  1.00  0.00     0.031 A 
ATOM     44  C   UNL A   1      46.131  31.421  27.924  1.00  0.00     0.031 A 
ATOM     45  C   UNL A   1      45.521  25.042  26.812  1.00  0.00     0.049 A 
ATOM     46  C   UNL A   1      47.104  30.357  27.521  1.00  0.00     0.074 A 
ATOM     47  C   UNL A   1      46.496  24.155  26.385  1.00  0.00     0.029 A 
ATOM     48  N   UNL A   1      46.143  26.272  26.962  1.00  0.00    -0.354 N 
ATOM     49  N   UNL A   1      46.885  29.082  27.303  1.00  0.00    -0.248 NA
ATOM     50  C   UNL A   1      48.505  30.768  27.364  1.00  0.00     0.031 C 
ATOM     51  C   UNL A   1      47.714  24.839  26.320  1.00  0.00     0.029 A 
ATOM     52  C   UNL A   1      47.490  26.164  26.657  1.00  0.00     0.049 A 
ATOM     53  H   UNL A   1      45.693  27.102  27.243  1.00  0.00     0.167 HD
ATOM     54  C   UNL A   1      48.122  28.538  26.984  1.00  0.00     0.074 A 
ATOM     55  C   UNL A   1      49.080  29.625  27.010  1.00  0.00     0.031 C 
ATOM     56  C   UNL A   1      48.436  27.250  26.702  1.00  0.00     0.031 A 
BRANCH  43  57
ATOM     57  C   UNL A   1      43.614  23.379  26.884  1.00  0.00    -0.014 A 
ATOM     58  C   UNL A   1      43.227  22.593  27.983  1.00  0.00     0.010 A 
ATOM     59  C   UNL A   1      43.497  22.839  25.587  1.00  0.00     0.010 A 
ATOM     60  C   UNL A   1      42.785  21.279  27.795  1.00  0.00     0.020 A 
ATOM     61  C   UNL A   1      43.030  21.536  25.393  1.00  0.00     0.020 A 
ATOM     62  C   UNL A   1      42.699  20.755  26.502  1.00  0.00     0.054 A 
BRANCH  62  63
ATOM     63  S   UNL A   1      42.131  19.045  26.284  1.00  0.00     0.124 S 
ATOM     64  O   UNL A   1      42.201  18.529  27.649  1.00  0.00    -0.237 OA
ATOM     65  O   UNL A   1      40.782  19.219  25.749  1.00  0.00    -0.237 OA
ATOM     66  O   UNL A   1      43.098  18.474  25.351  1.00  0.00    -0.744 OA
ENDBRANCH  62  63
ENDBRANCH  43  57
BRANCH  44  67
ATOM     67  C   UNL A   1      46.567  32.832  28.120  1.00  0.00    -0.014 A 
ATOM     68  C   UNL A   1      46.438  33.770  27.082  1.00  0.00     0.010 A 
ATOM     69  C   UNL A   1      47.067  33.254  29.367  1.00  0.00     0.010 A 
ATOM     70  C   UNL A   1      46.792  35.107  27.290  1.00  0.00     0.020 A 
ATOM     71  C   UNL A   1      47.392  34.594  29.588  1.00  0.00     0.020 A 
ATOM     72  C   UNL A   1      47.259  35.512  28.545  1.00  0.00     0.054 A 
BRANCH  72  73
ATOM     73  S   UNL A   1      47.628  37.267  28.822  1.00  0.00     0.124 S 
ATOM     74  O   UNL A   1      46.306  37.875  28.709  1.00  0.00    -0.237 OA
ATOM     75  O   UNL A   1      48.211  37.263  30.161  1.00  0.00    -0.237 OA
ATOM     76  O   UNL A   1      48.562  37.591  27.746  1.00  0.00    -0.744 OA
ENDBRANCH  72  73
ENDBRANCH  44  67
BRANCH  56  77
ATOM     77  C   UNL A   1      49.876  26.951  26.389  1.00  0.00    -0.014 A 
ATOM     78  C   UNL A   1      50.352  26.997  25.066  1.00  0.00     0.010 A 
ATOM     79  C   UNL A   1      50.769  26.647  27.432  1.00  0.00     0.010 A 
ATOM     80  C   UNL A   1      51.693  26.716  24.790  1.00  0.00     0.020 A 
ATOM     81  C   UNL A   1      52.114  26.389  27.161  1.00  0.00     0.020 A 
ATOM     82  C   UNL A   1      52.565  26.411  25.839  1.00  0.00     0.054 A 
BRANCH  82  83
ATOM     83  S   UNL A   1      54.308  26.087  25.460  1.00  0.00     0.124 S 
ATOM     84  O   UNL A   1      54.645  25.056  26.439  1.00  0.00    -0.237 OA
ATOM     85  O   UNL A   1      54.258  25.641  24.070  1.00  0.00    -0.237 OA
ATOM     86  O   UNL A   1      54.955  27.381  25.670  1.00  0.00    -0.744 OA
ENDBRANCH  82  83
ENDBRANCH  56  77
ENDBRANCH  30  31
ENDBRANCH  23  25
ENDBRANCH  22  23
ENDBRANCH  21  22
ENDBRANCH   1  21
TORSDOF 18
ENDMDL
