MODEL 1
REMARK VINA RESULT:     -11.6      0.000      0.000
REMARK SMILES Cc1cc(C(=O)OCCOC(=O)c2ccc(-c3c4nc(c(-c5ccc(S(=O)(=O)[O-])cc5)c5ccc([nH]5)c(-c5ccc(S(=O)(=O)[O-])cc5)c5nc(c(-c6ccc(S(=O)(=O)[O-])cc6)c6ccc3[nH]6)C=C5)C=C4)cc2)nc(N2CCN(c3ccccc3Cl)CC2)n1
REMARK SMILES IDX 9 1 8 2 7 3 5 4 6 5 4 6 1 7 2 8 3 9 88 10 74 11 73 12 75 13
REMARK SMILES IDX 76 14 87 15 77 16 86 17 78 18 79 19 80 20 84 21 81 22 83 23
REMARK SMILES IDX 85 24 82 25 10 26 11 27 12 28 13 29 14 30 72 31 15 32 71 33
REMARK SMILES IDX 16 34 17 35 18 36 65 37 19 38 70 39 64 40 66 41 20 42 69 43
REMARK SMILES IDX 63 44 62 45 21 47 51 48 32 49 50 50 33 51 36 52 49 53 67 54
REMARK SMILES IDX 34 55 35 56 48 58 68 59 37 60 22 61 23 62 31 63 24 64 30 65
REMARK SMILES IDX 25 66 26 67 27 68 28 69 29 70 52 71 53 72 61 73 54 74 60 75
REMARK SMILES IDX 55 76 56 77 57 78 58 79 59 80 38 81 39 82 47 83 40 84 46 85
REMARK SMILES IDX 41 86 42 87 43 88 44 89 45 90
REMARK H PARENT 66 46 36 57
REMARK Flexibility Score: inf
ROOT
ATOM      1  C   UNL A   1      34.314  31.003  27.654  1.00  0.00     0.275 C 
ENDROOT
BRANCH   1   2
ATOM      2  C   UNL A   1      34.189  29.846  26.663  1.00  0.00     0.275 C 
BRANCH   2   3
ATOM      3  O   UNL A   1      33.586  28.693  27.287  1.00  0.00    -0.457 OA
BRANCH   3   4
ATOM      4  C   UNL A   1      32.234  28.610  27.152  1.00  0.00     0.357 C 
ATOM      5  O   UNL A   1      31.410  29.044  27.938  1.00  0.00    -0.244 OA
BRANCH   4   6
ATOM      6  C   UNL A   1      31.880  27.963  25.857  1.00  0.00     0.154 A 
ATOM      7  C   UNL A   1      30.780  28.664  22.378  1.00  0.00     0.067 C 
ATOM      8  C   UNL A   1      31.240  27.986  23.632  1.00  0.00     0.044 A 
ATOM      9  C   UNL A   1      31.426  28.701  24.793  1.00  0.00     0.059 A 
ATOM     10  N   UNL A   1      31.485  26.658  23.545  1.00  0.00    -0.218 NA
ATOM     11  C   UNL A   1      31.882  26.011  24.650  1.00  0.00     0.226 A 
ATOM     12  N   UNL A   1      32.099  26.634  25.808  1.00  0.00    -0.206 NA
BRANCH  11  13
ATOM     13  N   UNL A   1      32.046  24.643  24.644  1.00  0.00    -0.337 N 
ATOM     14  C   UNL A   1      32.396  23.993  25.912  1.00  0.00     0.141 C 
ATOM     15  C   UNL A   1      32.814  24.160  23.483  1.00  0.00     0.141 C 
ATOM     16  C   UNL A   1      32.271  22.449  25.778  1.00  0.00     0.138 C 
ATOM     17  C   UNL A   1      32.716  22.626  23.355  1.00  0.00     0.138 C 
ATOM     18  N   UNL A   1      33.069  21.974  24.633  1.00  0.00    -0.367 N 
BRANCH  18  19
ATOM     19  C   UNL A   1      33.403  20.621  24.512  1.00  0.00     0.056 A 
ATOM     20  C   UNL A   1      32.488  19.684  24.005  1.00  0.00     0.027 A 
ATOM     21  C   UNL A   1      34.694  20.147  24.846  1.00  0.00     0.064 A 
ATOM     22  C   UNL A   1      32.840  18.340  23.833  1.00  0.00     0.002 A 
ATOM     23  C   UNL A   1      35.046  18.804  24.676  1.00  0.00     0.023 A 
ATOM     24  Cl  UNL A   1      35.895  21.201  25.527  1.00  0.00    -0.082 Cl
ATOM     25  C   UNL A   1      34.117  17.901  24.167  1.00  0.00     0.002 A 
ENDBRANCH  18  19
ENDBRANCH  11  13
ENDBRANCH   4   6
ENDBRANCH   3   4
ENDBRANCH   2   3
ENDBRANCH   1   2
BRANCH   1  26
ATOM     26  O   UNL A   1      35.699  31.280  27.928  1.00  0.00    -0.458 OA
BRANCH  26  27
ATOM     27  C   UNL A   1      36.181  30.772  29.086  1.00  0.00     0.338 C 
ATOM     28  O   UNL A   1      35.680  30.856  30.196  1.00  0.00    -0.246 OA
BRANCH  27  29
ATOM     29  C   UNL A   1      37.429  30.040  28.825  1.00  0.00     0.060 A 
ATOM     30  C   UNL A   1      38.197  29.622  29.904  1.00  0.00     0.016 A 
ATOM     31  C   UNL A   1      37.920  29.901  27.527  1.00  0.00     0.016 A 
ATOM     32  C   UNL A   1      39.498  29.172  29.702  1.00  0.00     0.010 A 
ATOM     33  C   UNL A   1      39.196  29.356  27.323  1.00  0.00     0.010 A 
ATOM     34  C   UNL A   1      40.029  29.035  28.411  1.00  0.00    -0.014 A 
BRANCH  34  35
ATOM     35  C   UNL A   1      41.457  28.626  28.218  1.00  0.00     0.031 A 
ATOM     36  C   UNL A   1      42.576  29.629  28.392  1.00  0.00     0.074 A 
ATOM     37  C   UNL A   1      41.779  27.344  27.941  1.00  0.00     0.049 A 
ATOM     38  N   UNL A   1      43.852  29.503  28.118  1.00  0.00    -0.248 NA
ATOM     39  C   UNL A   1      42.216  30.949  28.938  1.00  0.00     0.031 C 
ATOM     40  C   UNL A   1      40.831  26.236  27.804  1.00  0.00     0.029 A 
ATOM     41  N   UNL A   1      43.003  26.748  27.744  1.00  0.00    -0.354 N 
ATOM     42  C   UNL A   1      44.430  30.738  28.396  1.00  0.00     0.074 A 
ATOM     43  C   UNL A   1      43.368  31.602  28.864  1.00  0.00     0.031 C 
ATOM     44  C   UNL A   1      41.506  25.095  27.606  1.00  0.00     0.029 A 
ATOM     45  C   UNL A   1      42.927  25.398  27.490  1.00  0.00     0.049 A 
ATOM     46  H   UNL A   1      43.854  27.242  27.781  1.00  0.00     0.167 HD
ATOM     47  C   UNL A   1      45.724  31.123  28.269  1.00  0.00     0.031 A 
ATOM     48  C   UNL A   1      43.876  24.503  27.151  1.00  0.00     0.031 A 
ATOM     49  C   UNL A   1      46.796  30.254  27.859  1.00  0.00     0.049 A 
ATOM     50  C   UNL A   1      45.295  24.960  26.973  1.00  0.00     0.074 A 
ATOM     51  C   UNL A   1      48.137  30.561  27.695  1.00  0.00     0.029 A 
ATOM     52  N   UNL A   1      46.659  28.906  27.570  1.00  0.00    -0.354 N 
ATOM     53  N   UNL A   1      45.806  26.151  27.166  1.00  0.00    -0.248 NA
ATOM     54  C   UNL A   1      46.261  23.956  26.506  1.00  0.00     0.031 C 
ATOM     55  C   UNL A   1      48.803  29.409  27.263  1.00  0.00     0.029 A 
ATOM     56  C   UNL A   1      47.886  28.373  27.209  1.00  0.00     0.049 A 
ATOM     57  H   UNL A   1      45.814  28.401  27.614  1.00  0.00     0.167 HD
ATOM     58  C   UNL A   1      47.154  26.038  26.846  1.00  0.00     0.074 A 
ATOM     59  C   UNL A   1      47.386  24.657  26.478  1.00  0.00     0.031 C 
ATOM     60  C   UNL A   1      48.110  26.998  26.847  1.00  0.00     0.031 A 
BRANCH  47  61
ATOM     61  C   UNL A   1      46.056  32.570  28.527  1.00  0.00    -0.014 A 
ATOM     62  C   UNL A   1      45.938  33.546  27.523  1.00  0.00     0.010 A 
ATOM     63  C   UNL A   1      46.429  32.966  29.827  1.00  0.00     0.010 A 
ATOM     64  C   UNL A   1      46.216  34.887  27.807  1.00  0.00     0.020 A 
ATOM     65  C   UNL A   1      46.683  34.308  30.120  1.00  0.00     0.020 A 
ATOM     66  C   UNL A   1      46.587  35.260  29.104  1.00  0.00     0.054 A 
BRANCH  66  67
ATOM     67  S   UNL A   1      46.902  37.012  29.457  1.00  0.00     0.124 S 
ATOM     68  O   UNL A   1      48.172  37.234  28.769  1.00  0.00    -0.237 OA
ATOM     69  O   UNL A   1      45.743  37.673  28.864  1.00  0.00    -0.237 OA
ATOM     70  O   UNL A   1      46.967  37.066  30.916  1.00  0.00    -0.744 OA
ENDBRANCH  66  67
ENDBRANCH  47  61
BRANCH  48  71
ATOM     71  C   UNL A   1      43.495  23.088  26.879  1.00  0.00    -0.014 A 
ATOM     72  C   UNL A   1      43.765  22.498  25.633  1.00  0.00     0.010 A 
ATOM     73  C   UNL A   1      42.861  22.323  27.875  1.00  0.00     0.010 A 
ATOM     74  C   UNL A   1      43.398  21.171  25.385  1.00  0.00     0.020 A 
ATOM     75  C   UNL A   1      42.522  20.989  27.644  1.00  0.00     0.020 A 
ATOM     76  C   UNL A   1      42.781  20.425  26.394  1.00  0.00     0.054 A 
BRANCH  76  77
ATOM     77  S   UNL A   1      42.363  18.688  26.076  1.00  0.00     0.124 S 
ATOM     78  O   UNL A   1      43.281  18.350  24.993  1.00  0.00    -0.237 OA
ATOM     79  O   UNL A   1      42.640  18.053  27.362  1.00  0.00    -0.237 OA
ATOM     80  O   UNL A   1      40.950  18.740  25.707  1.00  0.00    -0.744 OA
ENDBRANCH  76  77
ENDBRANCH  48  71
BRANCH  60  81
ATOM     81  C   UNL A   1      49.505  26.583  26.467  1.00  0.00    -0.014 A 
ATOM     82  C   UNL A   1      50.335  25.902  27.377  1.00  0.00     0.010 A 
ATOM     83  C   UNL A   1      49.978  26.842  25.169  1.00  0.00     0.010 A 
ATOM     84  C   UNL A   1      51.627  25.519  27.003  1.00  0.00     0.020 A 
ATOM     85  C   UNL A   1      51.259  26.441  24.784  1.00  0.00     0.020 A 
ATOM     86  C   UNL A   1      52.082  25.795  25.710  1.00  0.00     0.054 A 
BRANCH  86  87
ATOM     87  S   UNL A   1      53.751  25.261  25.237  1.00  0.00     0.124 S 
ATOM     88  O   UNL A   1      53.792  25.615  23.821  1.00  0.00    -0.237 OA
ATOM     89  O   UNL A   1      54.604  26.061  26.112  1.00  0.00    -0.237 OA
ATOM     90  O   UNL A   1      53.748  23.827  25.522  1.00  0.00    -0.744 OA
ENDBRANCH  86  87
ENDBRANCH  60  81
ENDBRANCH  34  35
ENDBRANCH  27  29
ENDBRANCH  26  27
ENDBRANCH   1  26
TORSDOF 16
ENDMDL
MODEL 2
REMARK VINA RESULT:     -11.6      2.215      3.037
REMARK SMILES Cc1cc(C(=O)OCCOC(=O)c2ccc(-c3c4nc(c(-c5ccc(S(=O)(=O)[O-])cc5)c5ccc([nH]5)c(-c5ccc(S(=O)(=O)[O-])cc5)c5nc(c(-c6ccc(S(=O)(=O)[O-])cc6)c6ccc3[nH]6)C=C5)C=C4)cc2)nc(N2CCN(c3ccccc3Cl)CC2)n1
REMARK SMILES IDX 9 1 8 2 7 3 5 4 6 5 4 6 1 7 2 8 3 9 88 10 74 11 73 12 75 13
REMARK SMILES IDX 76 14 87 15 77 16 86 17 78 18 79 19 80 20 84 21 81 22 83 23
REMARK SMILES IDX 85 24 82 25 10 26 11 27 12 28 13 29 14 30 72 31 15 32 71 33
REMARK SMILES IDX 16 34 17 35 18 36 65 37 19 38 70 39 64 40 66 41 20 42 69 43
REMARK SMILES IDX 63 44 62 45 21 47 51 48 32 49 50 50 33 51 36 52 49 53 67 54
REMARK SMILES IDX 34 55 35 56 48 58 68 59 37 60 22 61 23 62 31 63 24 64 30 65
REMARK SMILES IDX 25 66 26 67 27 68 28 69 29 70 52 71 53 72 61 73 54 74 60 75
REMARK SMILES IDX 55 76 56 77 57 78 58 79 59 80 38 81 39 82 47 83 40 84 46 85
REMARK SMILES IDX 41 86 42 87 43 88 44 89 45 90
REMARK H PARENT 66 46 36 57
REMARK Flexibility Score: inf
ROOT
ATOM      1  C   UNL A   1      32.568  30.146  26.568  1.00  0.00     0.275 C 
ENDROOT
BRANCH   1   2
ATOM      2  C   UNL A   1      32.934  29.156  25.462  1.00  0.00     0.275 C 
BRANCH   2   3
ATOM      3  O   UNL A   1      31.784  28.385  25.057  1.00  0.00    -0.457 OA
BRANCH   3   4
ATOM      4  C   UNL A   1      31.762  27.103  25.517  1.00  0.00     0.357 C 
ATOM      5  O   UNL A   1      31.545  26.761  26.665  1.00  0.00    -0.244 OA
BRANCH   4   6
ATOM      6  C   UNL A   1      31.977  26.145  24.396  1.00  0.00     0.154 A 
ATOM      7  C   UNL A   1      32.478  25.921  20.721  1.00  0.00     0.067 C 
ATOM      8  C   UNL A   1      32.345  25.595  22.177  1.00  0.00     0.044 A 
ATOM      9  C   UNL A   1      32.037  26.574  23.094  1.00  0.00     0.059 A 
ATOM     10  N   UNL A   1      32.570  24.308  22.531  1.00  0.00    -0.218 NA
ATOM     11  C   UNL A   1      32.444  23.972  23.822  1.00  0.00     0.226 A 
ATOM     12  N   UNL A   1      32.164  24.864  24.772  1.00  0.00    -0.206 NA
BRANCH  11  13
ATOM     13  N   UNL A   1      32.561  22.659  24.223  1.00  0.00    -0.337 N 
ATOM     14  C   UNL A   1      33.581  22.342  25.228  1.00  0.00     0.141 C 
ATOM     15  C   UNL A   1      32.500  21.707  23.100  1.00  0.00     0.141 C 
ATOM     16  C   UNL A   1      33.387  20.891  25.752  1.00  0.00     0.138 C 
ATOM     17  C   UNL A   1      32.331  20.261  23.611  1.00  0.00     0.138 C 
ATOM     18  N   UNL A   1      33.360  19.944  24.623  1.00  0.00    -0.367 N 
BRANCH  18  19
ATOM     19  C   UNL A   1      33.547  18.575  24.839  1.00  0.00     0.056 A 
ATOM     20  C   UNL A   1      32.459  17.711  25.045  1.00  0.00     0.027 A 
ATOM     21  C   UNL A   1      34.837  17.993  24.807  1.00  0.00     0.064 A 
ATOM     22  C   UNL A   1      32.644  16.333  25.207  1.00  0.00     0.002 A 
ATOM     23  C   UNL A   1      35.022  16.616  24.970  1.00  0.00     0.023 A 
ATOM     24  Cl  UNL A   1      36.262  18.965  24.607  1.00  0.00    -0.082 Cl
ATOM     25  C   UNL A   1      33.923  15.786  25.169  1.00  0.00     0.002 A 
ENDBRANCH  18  19
ENDBRANCH  11  13
ENDBRANCH   4   6
ENDBRANCH   3   4
ENDBRANCH   2   3
ENDBRANCH   1   2
BRANCH   1  26
ATOM     26  O   UNL A   1      33.297  29.845  27.772  1.00  0.00    -0.458 OA
BRANCH  26  27
ATOM     27  C   UNL A   1      34.217  30.764  28.144  1.00  0.00     0.338 C 
ATOM     28  O   UNL A   1      34.026  31.943  28.397  1.00  0.00    -0.246 OA
BRANCH  27  29
ATOM     29  C   UNL A   1      35.539  30.128  28.247  1.00  0.00     0.060 A 
ATOM     30  C   UNL A   1      35.982  29.702  29.492  1.00  0.00     0.016 A 
ATOM     31  C   UNL A   1      36.403  30.093  27.153  1.00  0.00     0.016 A 
ATOM     32  C   UNL A   1      37.315  29.348  29.675  1.00  0.00     0.010 A 
ATOM     33  C   UNL A   1      37.721  29.643  27.323  1.00  0.00     0.010 A 
ATOM     34  C   UNL A   1      38.215  29.317  28.600  1.00  0.00    -0.014 A 
BRANCH  34  35
ATOM     35  C   UNL A   1      39.663  29.012  28.831  1.00  0.00     0.031 A 
ATOM     36  C   UNL A   1      40.580  30.047  29.444  1.00  0.00     0.074 A 
ATOM     37  C   UNL A   1      40.166  27.790  28.551  1.00  0.00     0.049 A 
ATOM     38  N   UNL A   1      41.884  30.024  29.578  1.00  0.00    -0.248 NA
ATOM     39  C   UNL A   1      39.953  31.272  29.970  1.00  0.00     0.031 C 
ATOM     40  C   UNL A   1      39.409  26.656  28.017  1.00  0.00     0.029 A 
ATOM     41  N   UNL A   1      41.440  27.290  28.696  1.00  0.00    -0.354 N 
ATOM     42  C   UNL A   1      42.236  31.247  30.140  1.00  0.00     0.074 A 
ATOM     43  C   UNL A   1      41.010  31.991  30.326  1.00  0.00     0.031 C 
ATOM     44  C   UNL A   1      40.211  25.585  27.936  1.00  0.00     0.029 A 
ATOM     45  C   UNL A   1      41.565  25.977  28.306  1.00  0.00     0.049 A 
ATOM     46  H   UNL A   1      42.190  27.822  29.047  1.00  0.00     0.167 HD
ATOM     47  C   UNL A   1      43.467  31.714  30.465  1.00  0.00     0.031 A 
ATOM     48  C   UNL A   1      42.648  25.180  28.201  1.00  0.00     0.031 A 
ATOM     49  C   UNL A   1      44.685  30.959  30.336  1.00  0.00     0.049 A 
ATOM     50  C   UNL A   1      44.007  25.731  28.526  1.00  0.00     0.074 A 
ATOM     51  C   UNL A   1      45.979  31.356  30.635  1.00  0.00     0.029 A 
ATOM     52  N   UNL A   1      44.764  29.649  29.893  1.00  0.00    -0.354 N 
ATOM     53  N   UNL A   1      44.325  26.918  28.983  1.00  0.00    -0.248 NA
ATOM     54  C   UNL A   1      45.154  24.843  28.297  1.00  0.00     0.031 C 
ATOM     55  C   UNL A   1      46.845  30.300  30.330  1.00  0.00     0.029 A 
ATOM     56  C   UNL A   1      46.085  29.229  29.891  1.00  0.00     0.049 A 
ATOM     57  H   UNL A   1      43.995  29.097  29.620  1.00  0.00     0.167 HD
ATOM     58  C   UNL A   1      45.711  26.917  29.097  1.00  0.00     0.074 A 
ATOM     59  C   UNL A   1      46.166  25.603  28.692  1.00  0.00     0.031 C 
ATOM     60  C   UNL A   1      46.530  27.921  29.491  1.00  0.00     0.031 A 
BRANCH  47  61
ATOM     61  C   UNL A   1      43.573  33.137  30.951  1.00  0.00    -0.014 A 
ATOM     62  C   UNL A   1      43.657  33.447  32.319  1.00  0.00     0.010 A 
ATOM     63  C   UNL A   1      43.658  34.179  30.006  1.00  0.00     0.010 A 
ATOM     64  C   UNL A   1      43.796  34.776  32.733  1.00  0.00     0.020 A 
ATOM     65  C   UNL A   1      43.821  35.505  30.415  1.00  0.00     0.020 A 
ATOM     66  C   UNL A   1      43.876  35.796  31.779  1.00  0.00     0.054 A 
BRANCH  66  67
ATOM     67  S   UNL A   1      44.097  37.508  32.341  1.00  0.00     0.124 S 
ATOM     68  O   UNL A   1      45.471  37.489  32.835  1.00  0.00    -0.237 OA
ATOM     69  O   UNL A   1      43.879  38.279  31.121  1.00  0.00    -0.237 OA
ATOM     70  O   UNL A   1      43.069  37.670  33.368  1.00  0.00    -0.744 OA
ENDBRANCH  66  67
ENDBRANCH  47  61
BRANCH  48  71
ATOM     71  C   UNL A   1      42.497  23.788  27.691  1.00  0.00    -0.014 A 
ATOM     72  C   UNL A   1      42.374  22.707  28.579  1.00  0.00     0.010 A 
ATOM     73  C   UNL A   1      42.474  23.542  26.306  1.00  0.00     0.010 A 
ATOM     74  C   UNL A   1      42.239  21.403  28.091  1.00  0.00     0.020 A 
ATOM     75  C   UNL A   1      42.307  22.247  25.813  1.00  0.00     0.020 A 
ATOM     76  C   UNL A   1      42.204  21.183  26.710  1.00  0.00     0.054 A 
BRANCH  76  77
ATOM     77  S   UNL A   1      41.972  19.493  26.092  1.00  0.00     0.124 S 
ATOM     78  O   UNL A   1      40.560  19.498  25.722  1.00  0.00    -0.237 OA
ATOM     79  O   UNL A   1      42.918  19.427  24.980  1.00  0.00    -0.237 OA
ATOM     80  O   UNL A   1      42.316  18.660  27.242  1.00  0.00    -0.744 OA
ENDBRANCH  76  77
ENDBRANCH  48  71
BRANCH  60  81
ATOM     81  C   UNL A   1      48.006  27.630  29.535  1.00  0.00    -0.014 A 
ATOM     82  C   UNL A   1      48.831  27.883  28.424  1.00  0.00     0.010 A 
ATOM     83  C   UNL A   1      48.581  27.132  30.718  1.00  0.00     0.010 A 
ATOM     84  C   UNL A   1      50.201  27.611  28.486  1.00  0.00     0.020 A 
ATOM     85  C   UNL A   1      49.953  26.882  30.792  1.00  0.00     0.020 A 
ATOM     86  C   UNL A   1      50.752  27.108  29.669  1.00  0.00     0.054 A 
BRANCH  86  87
ATOM     87  S   UNL A   1      52.538  26.792  29.737  1.00  0.00     0.124 S 
ATOM     88  O   UNL A   1      53.073  28.129  29.976  1.00  0.00    -0.237 OA
ATOM     89  O   UNL A   1      52.657  25.857  30.853  1.00  0.00    -0.237 OA
ATOM     90  O   UNL A   1      52.838  26.226  28.424  1.00  0.00    -0.744 OA
ENDBRANCH  86  87
ENDBRANCH  60  81
ENDBRANCH  34  35
ENDBRANCH  27  29
ENDBRANCH  26  27
ENDBRANCH   1  26
TORSDOF 16
ENDMDL
MODEL 3
REMARK VINA RESULT:     -11.5      1.266      2.076
REMARK SMILES Cc1cc(C(=O)OCCOC(=O)c2ccc(-c3c4nc(c(-c5ccc(S(=O)(=O)[O-])cc5)c5ccc([nH]5)c(-c5ccc(S(=O)(=O)[O-])cc5)c5nc(c(-c6ccc(S(=O)(=O)[O-])cc6)c6ccc3[nH]6)C=C5)C=C4)cc2)nc(N2CCN(c3ccccc3Cl)CC2)n1
REMARK SMILES IDX 9 1 8 2 7 3 5 4 6 5 4 6 1 7 2 8 3 9 88 10 74 11 73 12 75 13
REMARK SMILES IDX 76 14 87 15 77 16 86 17 78 18 79 19 80 20 84 21 81 22 83 23
REMARK SMILES IDX 85 24 82 25 10 26 11 27 12 28 13 29 14 30 72 31 15 32 71 33
REMARK SMILES IDX 16 34 17 35 18 36 65 37 19 38 70 39 64 40 66 41 20 42 69 43
REMARK SMILES IDX 63 44 62 45 21 47 51 48 32 49 50 50 33 51 36 52 49 53 67 54
REMARK SMILES IDX 34 55 35 56 48 58 68 59 37 60 22 61 23 62 31 63 24 64 30 65
REMARK SMILES IDX 25 66 26 67 27 68 28 69 29 70 52 71 53 72 61 73 54 74 60 75
REMARK SMILES IDX 55 76 56 77 57 78 58 79 59 80 38 81 39 82 47 83 40 84 46 85
REMARK SMILES IDX 41 86 42 87 43 88 44 89 45 90
REMARK H PARENT 66 46 36 57
REMARK Flexibility Score: inf
ROOT
ATOM      1  C   UNL A   1      35.107  31.831  27.987  1.00  0.00     0.275 C 
ENDROOT
BRANCH   1   2
ATOM      2  C   UNL A   1      33.582  31.946  27.987  1.00  0.00     0.275 C 
BRANCH   2   3
ATOM      3  O   UNL A   1      32.986  30.903  27.188  1.00  0.00    -0.457 OA
BRANCH   3   4
ATOM      4  C   UNL A   1      31.873  31.275  26.497  1.00  0.00     0.357 C 
ATOM      5  O   UNL A   1      31.261  32.318  26.639  1.00  0.00    -0.244 OA
BRANCH   4   6
ATOM      6  C   UNL A   1      31.530  30.248  25.472  1.00  0.00     0.154 A 
ATOM      7  C   UNL A   1      29.239  29.511  22.642  1.00  0.00     0.067 C 
ATOM      8  C   UNL A   1      30.334  29.441  23.662  1.00  0.00     0.044 A 
ATOM      9  C   UNL A   1      30.467  30.417  24.622  1.00  0.00     0.059 A 
ATOM     10  N   UNL A   1      31.186  28.394  23.562  1.00  0.00    -0.218 NA
ATOM     11  C   UNL A   1      32.169  28.286  24.467  1.00  0.00     0.226 A 
ATOM     12  N   UNL A   1      32.373  29.197  25.417  1.00  0.00    -0.206 NA
BRANCH  11  13
ATOM     13  N   UNL A   1      33.001  27.187  24.475  1.00  0.00    -0.337 N 
ATOM     14  C   UNL A   1      32.871  26.226  23.375  1.00  0.00     0.141 C 
ATOM     15  C   UNL A   1      33.127  26.571  25.807  1.00  0.00     0.141 C 
ATOM     16  C   UNL A   1      34.053  25.217  23.400  1.00  0.00     0.138 C 
ATOM     17  C   UNL A   1      34.283  25.549  25.836  1.00  0.00     0.138 C 
ATOM     18  N   UNL A   1      34.150  24.583  24.727  1.00  0.00    -0.367 N 
BRANCH  18  19
ATOM     19  C   UNL A   1      34.888  23.408  24.901  1.00  0.00     0.056 A 
ATOM     20  C   UNL A   1      36.212  23.437  25.366  1.00  0.00     0.027 A 
ATOM     21  C   UNL A   1      34.314  22.135  24.667  1.00  0.00     0.064 A 
ATOM     22  C   UNL A   1      36.933  22.258  25.592  1.00  0.00     0.002 A 
ATOM     23  C   UNL A   1      35.034  20.956  24.891  1.00  0.00     0.023 A 
ATOM     24  Cl  UNL A   1      32.700  21.971  24.046  1.00  0.00    -0.082 Cl
ATOM     25  C   UNL A   1      36.344  21.020  25.355  1.00  0.00     0.002 A 
ENDBRANCH  18  19
ENDBRANCH  11  13
ENDBRANCH   4   6
ENDBRANCH   3   4
ENDBRANCH   2   3
ENDBRANCH   1   2
BRANCH   1  26
ATOM     26  O   UNL A   1      35.529  30.764  28.855  1.00  0.00    -0.458 OA
BRANCH  26  27
ATOM     27  C   UNL A   1      35.929  29.630  28.237  1.00  0.00     0.338 C 
ATOM     28  O   UNL A   1      35.222  28.777  27.724  1.00  0.00    -0.246 OA
BRANCH  27  29
ATOM     29  C   UNL A   1      37.398  29.562  28.227  1.00  0.00     0.060 A 
ATOM     30  C   UNL A   1      38.067  29.707  27.019  1.00  0.00     0.016 A 
ATOM     31  C   UNL A   1      38.105  29.202  29.374  1.00  0.00     0.016 A 
ATOM     32  C   UNL A   1      39.417  29.384  26.925  1.00  0.00     0.010 A 
ATOM     33  C   UNL A   1      39.487  28.972  29.293  1.00  0.00     0.010 A 
ATOM     34  C   UNL A   1      40.155  29.004  28.055  1.00  0.00    -0.014 A 
BRANCH  34  35
ATOM     35  C   UNL A   1      41.586  28.583  27.920  1.00  0.00     0.031 A 
ATOM     36  C   UNL A   1      42.704  29.586  28.103  1.00  0.00     0.074 A 
ATOM     37  C   UNL A   1      41.910  27.292  27.690  1.00  0.00     0.049 A 
ATOM     38  N   UNL A   1      43.988  29.447  27.875  1.00  0.00    -0.248 NA
ATOM     39  C   UNL A   1      42.333  30.922  28.600  1.00  0.00     0.031 C 
ATOM     40  C   UNL A   1      40.961  26.185  27.552  1.00  0.00     0.029 A 
ATOM     41  N   UNL A   1      43.137  26.686  27.549  1.00  0.00    -0.354 N 
ATOM     42  C   UNL A   1      44.563  30.687  28.138  1.00  0.00     0.074 A 
ATOM     43  C   UNL A   1      43.491  31.568  28.546  1.00  0.00     0.031 C 
ATOM     44  C   UNL A   1      41.637  25.036  27.408  1.00  0.00     0.029 A 
ATOM     45  C   UNL A   1      43.063  25.330  27.331  1.00  0.00     0.049 A 
ATOM     46  H   UNL A   1      43.989  27.177  27.601  1.00  0.00     0.167 HD
ATOM     47  C   UNL A   1      45.862  31.062  28.043  1.00  0.00     0.031 A 
ATOM     48  C   UNL A   1      44.017  24.421  27.048  1.00  0.00     0.031 A 
ATOM     49  C   UNL A   1      46.942  30.177  27.693  1.00  0.00     0.049 A 
ATOM     50  C   UNL A   1      45.444  24.867  26.904  1.00  0.00     0.074 A 
ATOM     51  C   UNL A   1      48.290  30.474  27.565  1.00  0.00     0.029 A 
ATOM     52  N   UNL A   1      46.808  28.822  27.437  1.00  0.00    -0.354 N 
ATOM     53  N   UNL A   1      45.955  26.061  27.082  1.00  0.00    -0.248 NA
ATOM     54  C   UNL A   1      46.419  23.846  26.498  1.00  0.00     0.031 C 
ATOM     55  C   UNL A   1      48.964  29.307  27.188  1.00  0.00     0.029 A 
ATOM     56  C   UNL A   1      48.044  28.274  27.132  1.00  0.00     0.049 A 
ATOM     57  H   UNL A   1      45.960  28.323  27.467  1.00  0.00     0.167 HD
ATOM     58  C   UNL A   1      47.312  25.933  26.810  1.00  0.00     0.074 A 
ATOM     59  C   UNL A   1      47.548  24.542  26.488  1.00  0.00     0.031 C 
ATOM     60  C   UNL A   1      48.272  26.889  26.816  1.00  0.00     0.031 A 
BRANCH  47  61
ATOM     61  C   UNL A   1      46.193  32.514  28.272  1.00  0.00    -0.014 A 
ATOM     62  C   UNL A   1      46.592  32.992  29.532  1.00  0.00     0.010 A 
ATOM     63  C   UNL A   1      46.166  33.403  27.179  1.00  0.00     0.010 A 
ATOM     64  C   UNL A   1      46.930  34.339  29.701  1.00  0.00     0.020 A 
ATOM     65  C   UNL A   1      46.528  34.744  27.339  1.00  0.00     0.020 A 
ATOM     66  C   UNL A   1      46.896  35.206  28.603  1.00  0.00     0.054 A 
BRANCH  66  67
ATOM     67  S   UNL A   1      47.379  36.939  28.840  1.00  0.00     0.124 S 
ATOM     68  O   UNL A   1      46.173  37.649  28.419  1.00  0.00    -0.237 OA
ATOM     69  O   UNL A   1      47.676  36.998  30.268  1.00  0.00    -0.237 OA
ATOM     70  O   UNL A   1      48.535  37.101  27.960  1.00  0.00    -0.744 OA
ENDBRANCH  66  67
ENDBRANCH  47  61
BRANCH  48  71
ATOM     71  C   UNL A   1      43.639  23.001  26.803  1.00  0.00    -0.014 A 
ATOM     72  C   UNL A   1      43.929  22.381  25.576  1.00  0.00     0.010 A 
ATOM     73  C   UNL A   1      42.985  22.261  27.806  1.00  0.00     0.010 A 
ATOM     74  C   UNL A   1      43.564  21.050  25.353  1.00  0.00     0.020 A 
ATOM     75  C   UNL A   1      42.647  20.922  27.600  1.00  0.00     0.020 A 
ATOM     76  C   UNL A   1      42.927  20.328  26.368  1.00  0.00     0.054 A 
BRANCH  76  77
ATOM     77  S   UNL A   1      42.511  18.586  26.084  1.00  0.00     0.124 S 
ATOM     78  O   UNL A   1      42.809  17.989  27.382  1.00  0.00    -0.237 OA
ATOM     79  O   UNL A   1      41.095  18.650  25.727  1.00  0.00    -0.237 OA
ATOM     80  O   UNL A   1      43.402  18.196  24.994  1.00  0.00    -0.744 OA
ENDBRANCH  76  77
ENDBRANCH  48  71
BRANCH  60  81
ATOM     81  C   UNL A   1      49.677  26.457  26.494  1.00  0.00    -0.014 A 
ATOM     82  C   UNL A   1      50.542  25.988  27.499  1.00  0.00     0.010 A 
ATOM     83  C   UNL A   1      50.124  26.484  25.161  1.00  0.00     0.010 A 
ATOM     84  C   UNL A   1      51.843  25.586  27.180  1.00  0.00     0.020 A 
ATOM     85  C   UNL A   1      51.414  26.061  24.835  1.00  0.00     0.020 A 
ATOM     86  C   UNL A   1      52.271  25.629  25.849  1.00  0.00     0.054 A 
BRANCH  86  87
ATOM     87  S   UNL A   1      53.953  25.073  25.453  1.00  0.00     0.124 S 
ATOM     88  O   UNL A   1      54.614  25.159  26.752  1.00  0.00    -0.237 OA
ATOM     89  O   UNL A   1      53.734  23.721  24.947  1.00  0.00    -0.237 OA
ATOM     90  O   UNL A   1      54.410  26.039  24.456  1.00  0.00    -0.744 OA
ENDBRANCH  86  87
ENDBRANCH  60  81
ENDBRANCH  34  35
ENDBRANCH  27  29
ENDBRANCH  26  27
ENDBRANCH   1  26
TORSDOF 16
ENDMDL
