MODEL 1
REMARK VINA RESULT:     -10.7      0.000      0.000
REMARK SMILES NC(=O)COc1ccc(/C=C2\SC(=S)N(CCC(=O)OCCOC(=O)c3ccc(-c4c5nc(c(-c6ccc(S(=O)(=O)[O-])cc6)c6ccc([nH]6)c(-c6ccc(S(=O)(=O)[O-])cc6)c6nc(c(-c7ccc(S(=O)(=O)[O-])cc7)c7ccc4[nH]7)C=C6)C=C5)cc3)C2=O)cc1
REMARK SMILES IDX 20 1 18 2 19 3 17 4 16 5 15 6 10 7 11 8 12 9 86 10 13 11
REMARK SMILES IDX 87 12 14 13 9 14 6 15 7 16 89 17 8 18 88 19 5 20 4 21 2 22
REMARK SMILES IDX 1 23 3 26 21 27 22 28 23 29 24 30 25 31 26 32 27 33 85 34
REMARK SMILES IDX 28 35 84 36 29 37 30 38 31 39 78 40 32 41 83 42 77 43 79 44
REMARK SMILES IDX 33 45 82 46 76 47 75 48 34 50 64 51 45 52 63 53 46 54 49 55
REMARK SMILES IDX 62 56 80 57 47 58 48 59 61 61 81 62 50 63 35 64 36 65 44 66
REMARK SMILES IDX 37 67 43 68 38 69 39 70 40 71 41 72 42 73 65 74 66 75 74 76
REMARK SMILES IDX 67 77 73 78 68 79 69 80 70 81 71 82 72 83 51 84 52 85 60 86
REMARK SMILES IDX 53 87 59 88 54 89 55 90 56 91 57 92 58 93
REMARK H PARENT 1 24 1 25 79 49 49 60
REMARK Flexibility Score: inf
ROOT
ATOM      1  O   UNL A   1      36.286  22.855  25.647  1.00  0.00    -0.462 OA
ENDROOT
BRANCH   1   2
ATOM      2  C   UNL A   1      35.110  22.608  26.274  1.00  0.00     0.307 C 
ATOM      3  O   UNL A   1      34.778  23.085  27.350  1.00  0.00    -0.252 OA
BRANCH   2   4
ATOM      4  C   UNL A   1      34.273  21.591  25.535  1.00  0.00     0.144 C 
BRANCH   4   5
ATOM      5  C   UNL A   1      32.794  21.570  25.935  1.00  0.00     0.139 C 
BRANCH   5   6
ATOM      6  N   UNL A   1      32.020  22.590  25.223  1.00  0.00    -0.292 N 
ATOM      7  C   UNL A   1      30.839  25.952  25.452  1.00  0.00     0.029 C 
ATOM      8  C   UNL A   1      31.057  24.710  25.005  1.00  0.00     0.081 C 
ATOM      9  S   UNL A   1      30.964  24.092  23.411  1.00  0.00    -0.054 SA
ATOM     10  C   UNL A   1      31.519  23.663  25.934  1.00  0.00     0.266 C 
ATOM     11  C   UNL A   1      31.765  22.589  23.867  1.00  0.00     0.148 C 
ATOM     12  O   UNL A   1      31.443  23.785  27.144  1.00  0.00    -0.268 OA
ATOM     13  S   UNL A   1      32.147  21.416  22.743  1.00  0.00    -0.052 S 
BRANCH   7  14
ATOM     14  C   UNL A   1      30.353  27.047  24.626  1.00  0.00    -0.024 A 
ATOM     15  C   UNL A   1      29.475  29.192  23.079  1.00  0.00     0.120 A 
ATOM     16  C   UNL A   1      28.699  28.036  23.171  1.00  0.00     0.047 A 
ATOM     17  C   UNL A   1      30.680  29.282  23.778  1.00  0.00     0.047 A 
ATOM     18  C   UNL A   1      29.143  26.954  23.936  1.00  0.00     0.012 A 
ATOM     19  C   UNL A   1      31.120  28.210  24.544  1.00  0.00     0.012 A 
BRANCH  15  20
ATOM     20  O   UNL A   1      28.962  30.224  22.341  1.00  0.00    -0.484 OA
BRANCH  20  21
ATOM     21  C   UNL A   1      28.805  31.432  23.083  1.00  0.00     0.329 C 
BRANCH  21  22
ATOM     22  C   UNL A   1      28.482  32.677  22.252  1.00  0.00     0.255 C 
ATOM     23  N   UNL A   1      28.299  32.464  20.916  1.00  0.00    -0.367 N 
ATOM     24  H   UNL A   1      28.089  33.220  20.322  1.00  0.00     0.159 HD
ATOM     25  H   UNL A   1      28.376  31.555  20.547  1.00  0.00     0.159 HD
ATOM     26  O   UNL A   1      28.410  33.805  22.729  1.00  0.00    -0.271 OA
ENDBRANCH  21  22
ENDBRANCH  20  21
ENDBRANCH  15  20
ENDBRANCH   7  14
ENDBRANCH   5   6
ENDBRANCH   4   5
ENDBRANCH   2   4
ENDBRANCH   1   2
BRANCH   1  27
ATOM     27  C   UNL A   1      36.998  24.047  26.038  1.00  0.00     0.274 C 
BRANCH  27  28
ATOM     28  C   UNL A   1      38.515  23.832  26.086  1.00  0.00     0.275 C 
BRANCH  28  29
ATOM     29  O   UNL A   1      39.085  24.459  27.247  1.00  0.00    -0.458 OA
BRANCH  29  30
ATOM     30  C   UNL A   1      39.811  25.573  27.007  1.00  0.00     0.338 C 
ATOM     31  O   UNL A   1      40.456  25.852  26.014  1.00  0.00    -0.246 OA
BRANCH  30  32
ATOM     32  C   UNL A   1      39.638  26.531  28.100  1.00  0.00     0.060 A 
ATOM     33  C   UNL A   1      40.346  27.734  28.028  1.00  0.00     0.016 A 
ATOM     34  C   UNL A   1      38.920  26.181  29.242  1.00  0.00     0.016 A 
ATOM     35  C   UNL A   1      40.362  28.589  29.121  1.00  0.00     0.010 A 
ATOM     36  C   UNL A   1      38.936  27.042  30.339  1.00  0.00     0.010 A 
ATOM     37  C   UNL A   1      39.681  28.234  30.291  1.00  0.00    -0.014 A 
BRANCH  37  38
ATOM     38  C   UNL A   1      39.838  29.073  31.497  1.00  0.00     0.031 A 
ATOM     39  C   UNL A   1      41.008  28.842  32.408  1.00  0.00     0.074 A 
ATOM     40  C   UNL A   1      38.960  30.062  31.738  1.00  0.00     0.049 A 
ATOM     41  N   UNL A   1      41.322  29.455  33.519  1.00  0.00    -0.248 NA
ATOM     42  C   UNL A   1      41.951  27.781  32.017  1.00  0.00     0.031 C 
ATOM     43  C   UNL A   1      37.813  30.400  30.892  1.00  0.00     0.029 A 
ATOM     44  N   UNL A   1      38.902  30.968  32.763  1.00  0.00    -0.354 N 
ATOM     45  C   UNL A   1      42.486  28.846  33.970  1.00  0.00     0.074 A 
ATOM     46  C   UNL A   1      42.816  27.804  33.021  1.00  0.00     0.031 C 
ATOM     47  C   UNL A   1      37.167  31.446  31.433  1.00  0.00     0.029 A 
ATOM     48  C   UNL A   1      37.835  31.829  32.674  1.00  0.00     0.049 A 
ATOM     49  H   UNL A   1      39.561  31.001  33.494  1.00  0.00     0.167 HD
ATOM     50  C   UNL A   1      43.212  29.129  35.077  1.00  0.00     0.031 A 
ATOM     51  C   UNL A   1      37.437  32.807  33.508  1.00  0.00     0.031 A 
ATOM     52  C   UNL A   1      42.872  30.162  36.019  1.00  0.00     0.049 A 
ATOM     53  C   UNL A   1      38.247  33.088  34.742  1.00  0.00     0.074 A 
ATOM     54  C   UNL A   1      43.530  30.521  37.182  1.00  0.00     0.029 A 
ATOM     55  N   UNL A   1      41.778  31.008  35.899  1.00  0.00    -0.354 N 
ATOM     56  N   UNL A   1      39.339  32.493  35.163  1.00  0.00    -0.248 NA
ATOM     57  C   UNL A   1      37.779  34.179  35.608  1.00  0.00     0.031 C 
ATOM     58  C   UNL A   1      42.817  31.567  37.781  1.00  0.00     0.029 A 
ATOM     59  C   UNL A   1      41.740  31.885  36.968  1.00  0.00     0.049 A 
ATOM     60  H   UNL A   1      41.126  30.986  35.163  1.00  0.00     0.167 HD
ATOM     61  C   UNL A   1      39.701  33.153  36.331  1.00  0.00     0.074 A 
ATOM     62  C   UNL A   1      38.719  34.198  36.543  1.00  0.00     0.031 C 
ATOM     63  C   UNL A   1      40.753  32.918  37.154  1.00  0.00     0.031 A 
BRANCH  50  64
ATOM     64  C   UNL A   1      44.424  28.280  35.341  1.00  0.00    -0.014 A 
ATOM     65  C   UNL A   1      44.339  27.111  36.118  1.00  0.00     0.010 A 
ATOM     66  C   UNL A   1      45.666  28.651  34.794  1.00  0.00     0.010 A 
ATOM     67  C   UNL A   1      45.482  26.349  36.377  1.00  0.00     0.020 A 
ATOM     68  C   UNL A   1      46.808  27.880  35.034  1.00  0.00     0.020 A 
ATOM     69  C   UNL A   1      46.712  26.745  35.841  1.00  0.00     0.054 A 
BRANCH  69  70
ATOM     70  S   UNL A   1      48.182  25.740  36.184  1.00  0.00     0.124 S 
ATOM     71  O   UNL A   1      49.062  26.707  36.836  1.00  0.00    -0.237 OA
ATOM     72  O   UNL A   1      47.660  24.685  37.049  1.00  0.00    -0.237 OA
ATOM     73  O   UNL A   1      48.614  25.297  34.861  1.00  0.00    -0.744 OA
ENDBRANCH  69  70
ENDBRANCH  50  64
BRANCH  51  74
ATOM     74  C   UNL A   1      36.211  33.587  33.197  1.00  0.00    -0.014 A 
ATOM     75  C   UNL A   1      36.301  34.849  32.585  1.00  0.00     0.010 A 
ATOM     76  C   UNL A   1      34.943  33.056  33.491  1.00  0.00     0.010 A 
ATOM     77  C   UNL A   1      35.144  35.572  32.283  1.00  0.00     0.020 A 
ATOM     78  C   UNL A   1      33.782  33.765  33.170  1.00  0.00     0.020 A 
ATOM     79  C   UNL A   1      33.891  35.026  32.578  1.00  0.00     0.054 A 
BRANCH  79  80
ATOM     80  S   UNL A   1      32.397  35.949  32.123  1.00  0.00     0.124 S 
ATOM     81  O   UNL A   1      32.583  37.202  32.849  1.00  0.00    -0.237 OA
ATOM     82  O   UNL A   1      32.506  36.039  30.668  1.00  0.00    -0.237 OA
ATOM     83  O   UNL A   1      31.312  35.099  32.606  1.00  0.00    -0.744 OA
ENDBRANCH  79  80
ENDBRANCH  51  74
BRANCH  63  84
ATOM     84  C   UNL A   1      40.914  33.834  38.335  1.00  0.00    -0.014 A 
ATOM     85  C   UNL A   1      41.610  35.050  38.223  1.00  0.00     0.010 A 
ATOM     86  C   UNL A   1      40.329  33.483  39.564  1.00  0.00     0.010 A 
ATOM     87  C   UNL A   1      41.750  35.885  39.334  1.00  0.00     0.020 A 
ATOM     88  C   UNL A   1      40.449  34.326  40.672  1.00  0.00     0.020 A 
ATOM     89  C   UNL A   1      41.174  35.513  40.554  1.00  0.00     0.054 A 
BRANCH  89  90
ATOM     90  S   UNL A   1      41.342  36.623  41.979  1.00  0.00     0.124 S 
ATOM     91  O   UNL A   1      39.998  36.584  42.551  1.00  0.00    -0.237 OA
ATOM     92  O   UNL A   1      42.383  35.976  42.775  1.00  0.00    -0.237 OA
ATOM     93  O   UNL A   1      41.728  37.898  41.379  1.00  0.00    -0.744 OA
ENDBRANCH  89  90
ENDBRANCH  63  84
ENDBRANCH  37  38
ENDBRANCH  30  32
ENDBRANCH  29  30
ENDBRANCH  28  29
ENDBRANCH  27  28
ENDBRANCH   1  27
TORSDOF 20
ENDMDL
MODEL 2
REMARK VINA RESULT:     -10.6      5.184      6.241
REMARK SMILES NC(=O)COc1ccc(/C=C2\SC(=S)N(CCC(=O)OCCOC(=O)c3ccc(-c4c5nc(c(-c6ccc(S(=O)(=O)[O-])cc6)c6ccc([nH]6)c(-c6ccc(S(=O)(=O)[O-])cc6)c6nc(c(-c7ccc(S(=O)(=O)[O-])cc7)c7ccc4[nH]7)C=C6)C=C5)cc3)C2=O)cc1
REMARK SMILES IDX 20 1 18 2 19 3 17 4 16 5 15 6 10 7 11 8 12 9 86 10 13 11
REMARK SMILES IDX 87 12 14 13 9 14 6 15 7 16 89 17 8 18 88 19 5 20 4 21 2 22
REMARK SMILES IDX 1 23 3 26 21 27 22 28 23 29 24 30 25 31 26 32 27 33 85 34
REMARK SMILES IDX 28 35 84 36 29 37 30 38 31 39 78 40 32 41 83 42 77 43 79 44
REMARK SMILES IDX 33 45 82 46 76 47 75 48 34 50 64 51 45 52 63 53 46 54 49 55
REMARK SMILES IDX 62 56 80 57 47 58 48 59 61 61 81 62 50 63 35 64 36 65 44 66
REMARK SMILES IDX 37 67 43 68 38 69 39 70 40 71 41 72 42 73 65 74 66 75 74 76
REMARK SMILES IDX 67 77 73 78 68 79 69 80 70 81 71 82 72 83 51 84 52 85 60 86
REMARK SMILES IDX 53 87 59 88 54 89 55 90 56 91 57 92 58 93
REMARK H PARENT 1 24 1 25 79 49 49 60
REMARK Flexibility Score: inf
ROOT
ATOM      1  O   UNL A   1      35.931  22.309  26.038  1.00  0.00    -0.462 OA
ENDROOT
BRANCH   1   2
ATOM      2  C   UNL A   1      34.703  22.263  26.609  1.00  0.00     0.307 C 
ATOM      3  O   UNL A   1      34.368  22.900  27.597  1.00  0.00    -0.252 OA
BRANCH   2   4
ATOM      4  C   UNL A   1      33.799  21.257  25.937  1.00  0.00     0.144 C 
BRANCH   4   5
ATOM      5  C   UNL A   1      32.305  21.461  26.206  1.00  0.00     0.139 C 
BRANCH   5   6
ATOM      6  N   UNL A   1      31.727  22.490  25.338  1.00  0.00    -0.292 N 
ATOM      7  C   UNL A   1      30.700  25.909  25.258  1.00  0.00     0.029 C 
ATOM      8  C   UNL A   1      30.932  24.643  24.891  1.00  0.00     0.081 C 
ATOM      9  S   UNL A   1      31.099  23.974  23.324  1.00  0.00    -0.054 SA
ATOM     10  C   UNL A   1      31.162  23.609  25.916  1.00  0.00     0.266 C 
ATOM     11  C   UNL A   1      31.724  22.453  23.958  1.00  0.00     0.148 C 
ATOM     12  O   UNL A   1      30.873  23.777  27.088  1.00  0.00    -0.268 OA
ATOM     13  S   UNL A   1      32.242  21.224  22.955  1.00  0.00    -0.052 S 
BRANCH   7  14
ATOM     14  C   UNL A   1      30.431  26.996  24.328  1.00  0.00    -0.024 A 
ATOM     15  C   UNL A   1      29.848  29.041  22.529  1.00  0.00     0.120 A 
ATOM     16  C   UNL A   1      31.141  28.910  23.040  1.00  0.00     0.047 A 
ATOM     17  C   UNL A   1      28.854  28.137  22.903  1.00  0.00     0.047 A 
ATOM     18  C   UNL A   1      31.432  27.893  23.952  1.00  0.00     0.012 A 
ATOM     19  C   UNL A   1      29.143  27.121  23.805  1.00  0.00     0.012 A 
BRANCH  15  20
ATOM     20  O   UNL A   1      29.644  30.039  21.614  1.00  0.00    -0.484 OA
BRANCH  20  21
ATOM     21  C   UNL A   1      28.291  30.487  21.553  1.00  0.00     0.329 C 
BRANCH  21  22
ATOM     22  C   UNL A   1      27.974  31.738  22.377  1.00  0.00     0.255 C 
ATOM     23  N   UNL A   1      27.385  31.514  23.588  1.00  0.00    -0.367 N 
ATOM     24  H   UNL A   1      27.153  32.272  24.170  1.00  0.00     0.159 HD
ATOM     25  H   UNL A   1      27.192  30.593  23.878  1.00  0.00     0.159 HD
ATOM     26  O   UNL A   1      28.205  32.878  21.987  1.00  0.00    -0.271 OA
ENDBRANCH  21  22
ENDBRANCH  20  21
ENDBRANCH  15  20
ENDBRANCH   7  14
ENDBRANCH   5   6
ENDBRANCH   4   5
ENDBRANCH   2   4
ENDBRANCH   1   2
BRANCH   1  27
ATOM     27  C   UNL A   1      36.336  21.162  25.264  1.00  0.00     0.274 C 
BRANCH  27  28
ATOM     28  C   UNL A   1      37.857  21.069  25.107  1.00  0.00     0.275 C 
BRANCH  28  29
ATOM     29  O   UNL A   1      38.495  22.274  25.562  1.00  0.00    -0.458 OA
BRANCH  29  30
ATOM     30  C   UNL A   1      39.537  22.095  26.404  1.00  0.00     0.338 C 
ATOM     31  O   UNL A   1      40.191  21.086  26.590  1.00  0.00    -0.246 OA
BRANCH  30  32
ATOM     32  C   UNL A   1      39.899  23.366  27.033  1.00  0.00     0.060 A 
ATOM     33  C   UNL A   1      39.427  24.541  26.444  1.00  0.00     0.016 A 
ATOM     34  C   UNL A   1      40.814  23.401  28.085  1.00  0.00     0.016 A 
ATOM     35  C   UNL A   1      39.893  25.770  26.890  1.00  0.00     0.010 A 
ATOM     36  C   UNL A   1      41.280  24.637  28.532  1.00  0.00     0.010 A 
ATOM     37  C   UNL A   1      40.843  25.822  27.916  1.00  0.00    -0.014 A 
BRANCH  37  38
ATOM     38  C   UNL A   1      41.447  27.123  28.270  1.00  0.00     0.031 A 
ATOM     39  C   UNL A   1      42.921  27.329  28.071  1.00  0.00     0.074 A 
ATOM     40  C   UNL A   1      40.666  28.120  28.721  1.00  0.00     0.049 A 
ATOM     41  N   UNL A   1      43.649  28.384  28.329  1.00  0.00    -0.248 NA
ATOM     42  C   UNL A   1      43.676  26.198  27.505  1.00  0.00     0.031 C 
ATOM     43  C   UNL A   1      39.216  28.038  28.909  1.00  0.00     0.029 A 
ATOM     44  N   UNL A   1      40.984  29.398  29.096  1.00  0.00    -0.354 N 
ATOM     45  C   UNL A   1      44.948  28.042  27.975  1.00  0.00     0.074 A 
ATOM     46  C   UNL A   1      44.913  26.676  27.497  1.00  0.00     0.031 C 
ATOM     47  C   UNL A   1      38.769  29.222  29.360  1.00  0.00     0.029 A 
ATOM     48  C   UNL A   1      39.902  30.129  29.521  1.00  0.00     0.049 A 
ATOM     49  H   UNL A   1      41.899  29.759  29.064  1.00  0.00     0.167 HD
ATOM     50  C   UNL A   1      46.068  28.799  28.044  1.00  0.00     0.031 A 
ATOM     51  C   UNL A   1      39.837  31.386  29.997  1.00  0.00     0.031 A 
ATOM     52  C   UNL A   1      46.095  30.153  28.527  1.00  0.00     0.049 A 
ATOM     53  C   UNL A   1      41.097  32.199  30.085  1.00  0.00     0.074 A 
ATOM     54  C   UNL A   1      47.179  31.004  28.655  1.00  0.00     0.029 A 
ATOM     55  N   UNL A   1      44.979  30.858  28.957  1.00  0.00    -0.354 N 
ATOM     56  N   UNL A   1      42.322  31.856  29.759  1.00  0.00    -0.248 NA
ATOM     57  C   UNL A   1      40.967  33.571  30.594  1.00  0.00     0.031 C 
ATOM     58  C   UNL A   1      46.722  32.214  29.189  1.00  0.00     0.029 A 
ATOM     59  C   UNL A   1      45.348  32.131  29.354  1.00  0.00     0.049 A 
ATOM     60  H   UNL A   1      44.061  30.503  28.977  1.00  0.00     0.167 HD
ATOM     61  C   UNL A   1      43.105  32.978  30.002  1.00  0.00     0.074 A 
ATOM     62  C   UNL A   1      42.214  34.012  30.491  1.00  0.00     0.031 C 
ATOM     63  C   UNL A   1      44.441  33.142  29.834  1.00  0.00     0.031 A 
BRANCH  50  64
ATOM     64  C   UNL A   1      47.359  28.156  27.619  1.00  0.00    -0.014 A 
ATOM     65  C   UNL A   1      47.871  28.339  26.322  1.00  0.00     0.010 A 
ATOM     66  C   UNL A   1      48.077  27.365  28.534  1.00  0.00     0.010 A 
ATOM     67  C   UNL A   1      49.058  27.711  25.935  1.00  0.00     0.020 A 
ATOM     68  C   UNL A   1      49.275  26.750  28.156  1.00  0.00     0.020 A 
ATOM     69  C   UNL A   1      49.748  26.912  26.853  1.00  0.00     0.054 A 
BRANCH  69  70
ATOM     70  S   UNL A   1      51.289  26.109  26.332  1.00  0.00     0.124 S 
ATOM     71  O   UNL A   1      52.296  27.049  26.818  1.00  0.00    -0.237 OA
ATOM     72  O   UNL A   1      51.239  24.826  27.028  1.00  0.00    -0.237 OA
ATOM     73  O   UNL A   1      51.161  26.029  24.878  1.00  0.00    -0.744 OA
ENDBRANCH  69  70
ENDBRANCH  50  64
BRANCH  51  74
ATOM     74  C   UNL A   1      38.528  31.945  30.425  1.00  0.00    -0.014 A 
ATOM     75  C   UNL A   1      38.077  31.780  31.746  1.00  0.00     0.010 A 
ATOM     76  C   UNL A   1      37.738  32.670  29.516  1.00  0.00     0.010 A 
ATOM     77  C   UNL A   1      36.851  32.319  32.146  1.00  0.00     0.020 A 
ATOM     78  C   UNL A   1      36.523  33.230  29.917  1.00  0.00     0.020 A 
ATOM     79  C   UNL A   1      36.081  33.041  31.229  1.00  0.00     0.054 A 
BRANCH  79  80
ATOM     80  S   UNL A   1      34.523  33.787  31.781  1.00  0.00     0.124 S 
ATOM     81  O   UNL A   1      34.991  34.963  32.508  1.00  0.00    -0.237 OA
ATOM     82  O   UNL A   1      33.832  34.055  30.521  1.00  0.00    -0.237 OA
ATOM     83  O   UNL A   1      33.917  32.741  32.602  1.00  0.00    -0.744 OA
ENDBRANCH  79  80
ENDBRANCH  51  74
BRANCH  63  84
ATOM     84  C   UNL A   1      45.007  34.499  30.145  1.00  0.00    -0.014 A 
ATOM     85  C   UNL A   1      45.008  35.524  29.184  1.00  0.00     0.010 A 
ATOM     86  C   UNL A   1      45.516  34.756  31.430  1.00  0.00     0.010 A 
ATOM     87  C   UNL A   1      45.542  36.777  29.493  1.00  0.00     0.020 A 
ATOM     88  C   UNL A   1      46.031  36.013  31.749  1.00  0.00     0.020 A 
ATOM     89  C   UNL A   1      46.057  37.011  30.773  1.00  0.00     0.054 A 
BRANCH  89  90
ATOM     90  S   UNL A   1      46.722  38.653  31.166  1.00  0.00     0.124 S 
ATOM     91  O   UNL A   1      45.586  39.519  30.862  1.00  0.00    -0.237 OA
ATOM     92  O   UNL A   1      47.063  38.536  32.582  1.00  0.00    -0.237 OA
ATOM     93  O   UNL A   1      47.866  38.785  30.266  1.00  0.00    -0.744 OA
ENDBRANCH  89  90
ENDBRANCH  63  84
ENDBRANCH  37  38
ENDBRANCH  30  32
ENDBRANCH  29  30
ENDBRANCH  28  29
ENDBRANCH  27  28
ENDBRANCH   1  27
TORSDOF 20
ENDMDL
MODEL 3
REMARK VINA RESULT:     -10.3      4.882      9.540
REMARK SMILES NC(=O)COc1ccc(/C=C2\SC(=S)N(CCC(=O)OCCOC(=O)c3ccc(-c4c5nc(c(-c6ccc(S(=O)(=O)[O-])cc6)c6ccc([nH]6)c(-c6ccc(S(=O)(=O)[O-])cc6)c6nc(c(-c7ccc(S(=O)(=O)[O-])cc7)c7ccc4[nH]7)C=C6)C=C5)cc3)C2=O)cc1
REMARK SMILES IDX 20 1 18 2 19 3 17 4 16 5 15 6 10 7 11 8 12 9 86 10 13 11
REMARK SMILES IDX 87 12 14 13 9 14 6 15 7 16 89 17 8 18 88 19 5 20 4 21 2 22
REMARK SMILES IDX 1 23 3 26 21 27 22 28 23 29 24 30 25 31 26 32 27 33 85 34
REMARK SMILES IDX 28 35 84 36 29 37 30 38 31 39 78 40 32 41 83 42 77 43 79 44
REMARK SMILES IDX 33 45 82 46 76 47 75 48 34 50 64 51 45 52 63 53 46 54 49 55
REMARK SMILES IDX 62 56 80 57 47 58 48 59 61 61 81 62 50 63 35 64 36 65 44 66
REMARK SMILES IDX 37 67 43 68 38 69 39 70 40 71 41 72 42 73 65 74 66 75 74 76
REMARK SMILES IDX 67 77 73 78 68 79 69 80 70 81 71 82 72 83 51 84 52 85 60 86
REMARK SMILES IDX 53 87 59 88 54 89 55 90 56 91 57 92 58 93
REMARK H PARENT 1 24 1 25 79 49 49 60
REMARK Flexibility Score: inf
ROOT
ATOM      1  O   UNL A   1      35.122  23.500  26.007  1.00  0.00    -0.462 OA
ENDROOT
BRANCH   1   2
ATOM      2  C   UNL A   1      34.312  22.674  26.710  1.00  0.00     0.307 C 
ATOM      3  O   UNL A   1      34.184  22.688  27.926  1.00  0.00    -0.252 OA
BRANCH   2   4
ATOM      4  C   UNL A   1      33.634  21.652  25.827  1.00  0.00     0.144 C 
BRANCH   4   5
ATOM      5  C   UNL A   1      32.104  21.669  25.889  1.00  0.00     0.139 C 
BRANCH   5   6
ATOM      6  N   UNL A   1      31.533  22.704  25.023  1.00  0.00    -0.292 N 
ATOM      7  C   UNL A   1      30.415  26.095  24.983  1.00  0.00     0.029 C 
ATOM      8  C   UNL A   1      30.696  24.845  24.596  1.00  0.00     0.081 C 
ATOM      9  S   UNL A   1      30.943  24.220  23.022  1.00  0.00    -0.054 SA
ATOM     10  C   UNL A   1      30.914  23.792  25.605  1.00  0.00     0.266 C 
ATOM     11  C   UNL A   1      31.584  22.701  23.644  1.00  0.00     0.148 C 
ATOM     12  O   UNL A   1      30.576  23.924  26.768  1.00  0.00    -0.268 OA
ATOM     13  S   UNL A   1      32.175  21.511  22.633  1.00  0.00    -0.052 S 
BRANCH   7  14
ATOM     14  C   UNL A   1      30.153  27.197  24.070  1.00  0.00    -0.024 A 
ATOM     15  C   UNL A   1      29.579  29.277  22.308  1.00  0.00     0.120 A 
ATOM     16  C   UNL A   1      30.898  29.040  22.699  1.00  0.00     0.047 A 
ATOM     17  C   UNL A   1      28.551  28.461  22.782  1.00  0.00     0.047 A 
ATOM     18  C   UNL A   1      31.186  28.005  23.592  1.00  0.00     0.012 A 
ATOM     19  C   UNL A   1      28.837  27.428  23.666  1.00  0.00     0.012 A 
BRANCH  15  20
ATOM     20  O   UNL A   1      29.374  30.284  21.404  1.00  0.00    -0.484 OA
BRANCH  20  21
ATOM     21  C   UNL A   1      28.156  30.998  21.611  1.00  0.00     0.329 C 
BRANCH  21  22
ATOM     22  C   UNL A   1      28.299  32.513  21.769  1.00  0.00     0.255 C 
ATOM     23  N   UNL A   1      29.186  32.927  22.722  1.00  0.00    -0.367 N 
ATOM     24  H   UNL A   1      29.328  33.888  22.878  1.00  0.00     0.159 HD
ATOM     25  H   UNL A   1      29.683  32.263  23.252  1.00  0.00     0.159 HD
ATOM     26  O   UNL A   1      27.655  33.323  21.111  1.00  0.00    -0.271 OA
ENDBRANCH  21  22
ENDBRANCH  20  21
ENDBRANCH  15  20
ENDBRANCH   7  14
ENDBRANCH   5   6
ENDBRANCH   4   5
ENDBRANCH   2   4
ENDBRANCH   1   2
BRANCH   1  27
ATOM     27  C   UNL A   1      35.676  22.986  24.779  1.00  0.00     0.274 C 
BRANCH  27  28
ATOM     28  C   UNL A   1      37.092  22.430  24.962  1.00  0.00     0.275 C 
BRANCH  28  29
ATOM     29  O   UNL A   1      37.619  22.782  26.252  1.00  0.00    -0.458 OA
BRANCH  29  30
ATOM     30  C   UNL A   1      38.967  22.838  26.332  1.00  0.00     0.338 C 
ATOM     31  O   UNL A   1      39.777  22.001  25.984  1.00  0.00    -0.246 OA
BRANCH  30  32
ATOM     32  C   UNL A   1      39.388  24.156  26.811  1.00  0.00     0.060 A 
ATOM     33  C   UNL A   1      40.046  24.996  25.910  1.00  0.00     0.016 A 
ATOM     34  C   UNL A   1      39.276  24.487  28.161  1.00  0.00     0.016 A 
ATOM     35  C   UNL A   1      40.627  26.172  26.364  1.00  0.00     0.010 A 
ATOM     36  C   UNL A   1      39.860  25.670  28.615  1.00  0.00     0.010 A 
ATOM     37  C   UNL A   1      40.561  26.499  27.723  1.00  0.00    -0.014 A 
BRANCH  37  38
ATOM     38  C   UNL A   1      41.318  27.668  28.218  1.00  0.00     0.031 A 
ATOM     39  C   UNL A   1      40.577  28.826  28.820  1.00  0.00     0.074 A 
ATOM     40  C   UNL A   1      42.662  27.661  28.166  1.00  0.00     0.049 A 
ATOM     41  N   UNL A   1      41.047  29.947  29.298  1.00  0.00    -0.248 NA
ATOM     42  C   UNL A   1      39.111  28.706  28.894  1.00  0.00     0.031 C 
ATOM     43  C   UNL A   1      43.481  26.566  27.641  1.00  0.00     0.029 A 
ATOM     44  N   UNL A   1      43.571  28.602  28.567  1.00  0.00    -0.354 N 
ATOM     45  C   UNL A   1      39.939  30.674  29.715  1.00  0.00     0.074 A 
ATOM     46  C   UNL A   1      38.770  29.874  29.419  1.00  0.00     0.031 C 
ATOM     47  C   UNL A   1      44.778  26.899  27.759  1.00  0.00     0.029 A 
ATOM     48  C   UNL A   1      44.875  28.237  28.336  1.00  0.00     0.049 A 
ATOM     49  H   UNL A   1      43.316  29.458  28.981  1.00  0.00     0.167 HD
ATOM     50  C   UNL A   1      39.901  31.899  30.290  1.00  0.00     0.031 A 
ATOM     51  C   UNL A   1      46.018  28.914  28.556  1.00  0.00     0.031 A 
ATOM     52  C   UNL A   1      41.067  32.691  30.573  1.00  0.00     0.049 A 
ATOM     53  C   UNL A   1      45.948  30.281  29.175  1.00  0.00     0.074 A 
ATOM     54  C   UNL A   1      41.139  33.952  31.138  1.00  0.00     0.029 A 
ATOM     55  N   UNL A   1      42.371  32.291  30.317  1.00  0.00    -0.354 N 
ATOM     56  N   UNL A   1      44.890  30.962  29.550  1.00  0.00    -0.248 NA
ATOM     57  C   UNL A   1      47.225  30.968  29.410  1.00  0.00     0.031 C 
ATOM     58  C   UNL A   1      42.487  34.326  31.198  1.00  0.00     0.029 A 
ATOM     59  C   UNL A   1      43.255  33.281  30.708  1.00  0.00     0.049 A 
ATOM     60  H   UNL A   1      42.629  31.430  29.915  1.00  0.00     0.167 HD
ATOM     61  C   UNL A   1      45.376  32.147  30.088  1.00  0.00     0.074 A 
ATOM     62  C   UNL A   1      46.822  32.086  29.998  1.00  0.00     0.031 C 
ATOM     63  C   UNL A   1      44.690  33.193  30.611  1.00  0.00     0.031 A 
BRANCH  50  64
ATOM     64  C   UNL A   1      38.545  32.465  30.613  1.00  0.00    -0.014 A 
ATOM     65  C   UNL A   1      37.833  33.230  29.672  1.00  0.00     0.010 A 
ATOM     66  C   UNL A   1      37.972  32.221  31.873  1.00  0.00     0.010 A 
ATOM     67  C   UNL A   1      36.587  33.773  30.000  1.00  0.00     0.020 A 
ATOM     68  C   UNL A   1      36.717  32.746  32.198  1.00  0.00     0.020 A 
ATOM     69  C   UNL A   1      36.041  33.535  31.266  1.00  0.00     0.054 A 
BRANCH  69  70
ATOM     70  S   UNL A   1      34.422  34.245  31.669  1.00  0.00     0.124 S 
ATOM     71  O   UNL A   1      33.866  33.233  32.565  1.00  0.00    -0.237 OA
ATOM     72  O   UNL A   1      34.771  35.516  32.298  1.00  0.00    -0.237 OA
ATOM     73  O   UNL A   1      33.762  34.358  30.370  1.00  0.00    -0.744 OA
ENDBRANCH  69  70
ENDBRANCH  50  64
BRANCH  51  74
ATOM     74  C   UNL A   1      47.320  28.302  28.184  1.00  0.00    -0.014 A 
ATOM     75  C   UNL A   1      47.887  28.537  26.919  1.00  0.00     0.010 A 
ATOM     76  C   UNL A   1      48.012  27.499  29.108  1.00  0.00     0.010 A 
ATOM     77  C   UNL A   1      49.118  27.968  26.581  1.00  0.00     0.020 A 
ATOM     78  C   UNL A   1      49.253  26.947  28.782  1.00  0.00     0.020 A 
ATOM     79  C   UNL A   1      49.794  27.177  27.514  1.00  0.00     0.054 A 
BRANCH  79  80
ATOM     80  S   UNL A   1      51.419  26.498  27.081  1.00  0.00     0.124 S 
ATOM     81  O   UNL A   1      51.161  25.061  27.098  1.00  0.00    -0.237 OA
ATOM     82  O   UNL A   1      51.670  27.081  25.765  1.00  0.00    -0.237 OA
ATOM     83  O   UNL A   1      52.288  26.992  28.147  1.00  0.00    -0.744 OA
ENDBRANCH  79  80
ENDBRANCH  51  74
BRANCH  63  84
ATOM     84  C   UNL A   1      45.499  34.334  31.162  1.00  0.00    -0.014 A 
ATOM     85  C   UNL A   1      45.923  34.346  32.501  1.00  0.00     0.010 A 
ATOM     86  C   UNL A   1      45.865  35.393  30.311  1.00  0.00     0.010 A 
ATOM     87  C   UNL A   1      46.672  35.418  32.993  1.00  0.00     0.020 A 
ATOM     88  C   UNL A   1      46.631  36.456  30.794  1.00  0.00     0.020 A 
ATOM     89  C   UNL A   1      47.015  36.470  32.137  1.00  0.00     0.054 A 
BRANCH  89  90
ATOM     90  S   UNL A   1      48.011  37.841  32.784  1.00  0.00     0.124 S 
ATOM     91  O   UNL A   1      47.876  38.839  31.726  1.00  0.00    -0.237 OA
ATOM     92  O   UNL A   1      47.342  38.164  34.042  1.00  0.00    -0.237 OA
ATOM     93  O   UNL A   1      49.344  37.259  32.927  1.00  0.00    -0.744 OA
ENDBRANCH  89  90
ENDBRANCH  63  84
ENDBRANCH  37  38
ENDBRANCH  30  32
ENDBRANCH  29  30
ENDBRANCH  28  29
ENDBRANCH  27  28
ENDBRANCH   1  27
TORSDOF 20
ENDMDL
