MODEL 1
REMARK VINA RESULT:     -13.1      0.000      0.000
REMARK SMILES Cc1ccc(C)c(N2C(=O)S[C@H](CC(=O)Nc3ccc(C(=O)OCCOC(=O)c4ccc(-c5c6nc(c(-c7ccc(S(=O)(=O)[O-])cc7)c7ccc([nH]7)c(-c7ccc(S(=O)(=O)[O-])cc7)c7nc(c(-c8ccc(S(=O)(=O)[O-])cc8)c8ccc5[nH]8)C=C7)C=C6)cc4)c(O)c3)C2=O)c1
REMARK SMILES IDX 24 1 23 2 21 3 22 4 20 5 17 6 18 7 91 8 19 9 89 10 16 11
REMARK SMILES IDX 14 12 15 13 13 15 12 16 8 17 9 18 92 19 10 20 11 21 93 22
REMARK SMILES IDX 7 23 1 24 2 25 3 26 94 27 4 28 5 29 6 30 90 31 25 33 26 34
REMARK SMILES IDX 27 35 28 36 29 37 30 38 88 39 31 40 87 41 32 42 33 43 34 44
REMARK SMILES IDX 81 45 35 46 86 47 80 48 82 49 36 50 85 51 79 52 78 53 37 55
REMARK SMILES IDX 67 56 48 57 66 58 49 59 52 60 65 61 83 62 50 63 51 64 64 66
REMARK SMILES IDX 84 67 53 68 38 69 39 70 47 71 40 72 46 73 41 74 42 75 43 76
REMARK SMILES IDX 44 77 45 78 68 79 69 80 77 81 70 82 76 83 71 84 72 85 73 86
REMARK SMILES IDX 74 87 75 88 54 89 55 90 63 91 56 92 62 93 57 94 58 95 59 96
REMARK SMILES IDX 60 97 61 98
REMARK H PARENT 16 14 90 32 82 54 52 65
REMARK Flexibility Score: inf
ROOT
ATOM      1  C   UNL A   1      38.829  20.756  25.199  1.00  0.00     0.275 C 
ENDROOT
BRANCH   1   2
ATOM      2  O   UNL A   1      37.481  21.160  24.957  1.00  0.00    -0.458 OA
BRANCH   2   3
ATOM      3  C   UNL A   1      36.589  20.149  25.072  1.00  0.00     0.342 C 
ATOM      4  O   UNL A   1      36.757  18.972  24.806  1.00  0.00    -0.246 OA
BRANCH   3   5
ATOM      5  C   UNL A   1      35.276  20.717  25.363  1.00  0.00     0.101 A 
ATOM      6  C   UNL A   1      32.778  21.678  26.122  1.00  0.00     0.044 A 
ATOM      7  C   UNL A   1      32.896  20.668  25.166  1.00  0.00     0.027 A 
ATOM      8  C   UNL A   1      33.927  22.318  26.581  1.00  0.00     0.073 A 
ATOM      9  C   UNL A   1      34.134  20.147  24.819  1.00  0.00     0.022 A 
ATOM     10  C   UNL A   1      35.177  21.842  26.185  1.00  0.00     0.132 A 
BRANCH   6  11
ATOM     11  N   UNL A   1      31.513  22.070  26.584  1.00  0.00    -0.326 N 
ATOM     12  C   UNL A   1      30.926  23.310  26.455  1.00  0.00     0.226 C 
ATOM     13  O   UNL A   1      29.978  23.628  27.172  1.00  0.00    -0.275 OA
ATOM     14  H   UNL A   1      30.985  21.383  27.053  1.00  0.00     0.169 HD
BRANCH  12  15
ATOM     15  C   UNL A   1      31.324  24.169  25.260  1.00  0.00     0.125 C 
BRANCH  15  16
ATOM     16  C   UNL A   1      32.190  25.382  25.576  1.00  0.00     0.156 C 
ATOM     17  N   UNL A   1      31.394  27.314  24.393  1.00  0.00    -0.240 N 
ATOM     18  C   UNL A   1      32.432  26.983  23.547  1.00  0.00     0.293 C 
ATOM     19  C   UNL A   1      31.294  26.610  25.580  1.00  0.00     0.248 C 
ATOM     20  O   UNL A   1      32.726  27.440  22.472  1.00  0.00    -0.261 OA
ATOM     21  S   UNL A   1      33.439  25.760  24.320  1.00  0.00    -0.050 SA
ATOM     22  O   UNL A   1      30.573  26.885  26.536  1.00  0.00    -0.273 OA
BRANCH  17  23
ATOM     23  C   UNL A   1      30.695  28.530  24.208  1.00  0.00     0.056 A 
ATOM     24  C   UNL A   1      27.684  29.837  22.245  1.00  0.00     0.044 C 
ATOM     25  C   UNL A   1      28.870  29.765  23.163  1.00  0.00    -0.049 A 
ATOM     26  C   UNL A   1      29.324  30.932  23.786  1.00  0.00     0.004 A 
ATOM     27  C   UNL A   1      29.551  28.559  23.393  1.00  0.00     0.030 A 
ATOM     28  C   UNL A   1      30.453  30.904  24.603  1.00  0.00     0.006 A 
ATOM     29  C   UNL A   1      31.159  29.711  24.817  1.00  0.00    -0.027 A 
ATOM     30  C   UNL A   1      32.379  29.767  25.693  1.00  0.00     0.046 C 
ENDBRANCH  17  23
ENDBRANCH  15  16
ENDBRANCH  12  15
ENDBRANCH   6  11
BRANCH  10  31
ATOM     31  O   UNL A   1      36.281  22.504  26.648  1.00  0.00    -0.507 OA
ATOM     32  H   UNL A   1      36.314  23.440  26.619  1.00  0.00     0.293 HD
ENDBRANCH  10  31
ENDBRANCH   3   5
ENDBRANCH   2   3
ENDBRANCH   1   2
BRANCH   1  33
ATOM     33  C   UNL A   1      39.486  21.637  26.268  1.00  0.00     0.275 C 
BRANCH  33  34
ATOM     34  O   UNL A   1      40.942  21.733  26.316  1.00  0.00    -0.458 OA
BRANCH  34  35
ATOM     35  C   UNL A   1      41.651  22.889  26.219  1.00  0.00     0.338 C 
ATOM     36  O   UNL A   1      42.593  23.000  25.450  1.00  0.00    -0.246 OA
BRANCH  35  37
ATOM     37  C   UNL A   1      41.183  24.014  27.059  1.00  0.00     0.060 A 
ATOM     38  C   UNL A   1      41.831  24.289  28.272  1.00  0.00     0.016 A 
ATOM     39  C   UNL A   1      40.265  24.912  26.540  1.00  0.00     0.016 A 
ATOM     40  C   UNL A   1      41.734  25.563  28.832  1.00  0.00     0.010 A 
ATOM     41  C   UNL A   1      40.277  26.204  27.020  1.00  0.00     0.010 A 
ATOM     42  C   UNL A   1      41.004  26.551  28.167  1.00  0.00    -0.014 A 
BRANCH  42  43
ATOM     43  C   UNL A   1      41.013  27.946  28.622  1.00  0.00     0.031 A 
ATOM     44  C   UNL A   1      42.095  28.876  28.151  1.00  0.00     0.074 A 
ATOM     45  C   UNL A   1      39.970  28.482  29.292  1.00  0.00     0.049 A 
ATOM     46  N   UNL A   1      43.037  29.418  28.856  1.00  0.00    -0.248 NA
ATOM     47  C   UNL A   1      42.143  29.258  26.734  1.00  0.00     0.031 C 
ATOM     48  C   UNL A   1      38.684  27.871  29.661  1.00  0.00     0.029 A 
ATOM     49  N   UNL A   1      39.817  29.766  29.702  1.00  0.00    -0.354 N 
ATOM     50  C   UNL A   1      43.706  30.326  28.027  1.00  0.00     0.074 A 
ATOM     51  C   UNL A   1      43.176  30.107  26.704  1.00  0.00     0.031 C 
ATOM     52  C   UNL A   1      37.803  28.835  29.999  1.00  0.00     0.029 A 
ATOM     53  C   UNL A   1      38.532  30.081  30.102  1.00  0.00     0.049 A 
ATOM     54  H   UNL A   1      40.556  30.418  29.713  1.00  0.00     0.167 HD
ATOM     55  C   UNL A   1      44.539  31.298  28.516  1.00  0.00     0.031 A 
ATOM     56  C   UNL A   1      38.084  31.268  30.561  1.00  0.00     0.031 A 
ATOM     57  C   UNL A   1      44.813  31.105  29.916  1.00  0.00     0.049 A 
ATOM     58  C   UNL A   1      39.260  31.975  31.114  1.00  0.00     0.074 A 
ATOM     59  C   UNL A   1      45.432  30.132  30.671  1.00  0.00     0.029 A 
ATOM     60  N   UNL A   1      44.085  31.858  30.808  1.00  0.00    -0.354 N 
ATOM     61  N   UNL A   1      39.939  31.525  32.136  1.00  0.00    -0.248 NA
ATOM     62  C   UNL A   1      39.957  32.939  30.282  1.00  0.00     0.031 C 
ATOM     63  C   UNL A   1      44.628  30.027  31.847  1.00  0.00     0.029 A 
ATOM     64  C   UNL A   1      43.616  30.987  31.758  1.00  0.00     0.049 A 
ATOM     65  H   UNL A   1      43.932  32.829  30.772  1.00  0.00     0.167 HD
ATOM     66  C   UNL A   1      41.264  31.812  31.843  1.00  0.00     0.074 A 
ATOM     67  C   UNL A   1      41.200  32.780  30.749  1.00  0.00     0.031 C 
ATOM     68  C   UNL A   1      42.289  31.052  32.338  1.00  0.00     0.031 A 
BRANCH  55  69
ATOM     69  C   UNL A   1      44.894  32.609  27.844  1.00  0.00    -0.014 A 
ATOM     70  C   UNL A   1      46.255  32.894  27.578  1.00  0.00     0.010 A 
ATOM     71  C   UNL A   1      43.988  33.676  27.702  1.00  0.00     0.010 A 
ATOM     72  C   UNL A   1      46.695  34.190  27.273  1.00  0.00     0.020 A 
ATOM     73  C   UNL A   1      44.412  34.968  27.359  1.00  0.00     0.020 A 
ATOM     74  C   UNL A   1      45.768  35.226  27.186  1.00  0.00     0.054 A 
BRANCH  74  75
ATOM     75  S   UNL A   1      46.358  36.922  26.929  1.00  0.00     0.124 S 
ATOM     76  O   UNL A   1      45.106  37.662  26.816  1.00  0.00    -0.237 OA
ATOM     77  O   UNL A   1      47.132  37.172  28.142  1.00  0.00    -0.237 OA
ATOM     78  O   UNL A   1      47.144  36.828  25.702  1.00  0.00    -0.744 OA
ENDBRANCH  74  75
ENDBRANCH  55  69
BRANCH  56  79
ATOM     79  C   UNL A   1      36.786  31.888  30.235  1.00  0.00    -0.014 A 
ATOM     80  C   UNL A   1      35.994  32.489  31.224  1.00  0.00     0.010 A 
ATOM     81  C   UNL A   1      36.445  32.109  28.881  1.00  0.00     0.010 A 
ATOM     82  C   UNL A   1      34.928  33.330  30.870  1.00  0.00     0.020 A 
ATOM     83  C   UNL A   1      35.385  32.946  28.522  1.00  0.00     0.020 A 
ATOM     84  C   UNL A   1      34.645  33.572  29.521  1.00  0.00     0.054 A 
BRANCH  84  85
ATOM     85  S   UNL A   1      33.391  34.810  29.083  1.00  0.00     0.124 S 
ATOM     86  O   UNL A   1      32.765  35.085  30.373  1.00  0.00    -0.237 OA
ATOM     87  O   UNL A   1      34.197  35.893  28.526  1.00  0.00    -0.237 OA
ATOM     88  O   UNL A   1      32.542  34.114  28.117  1.00  0.00    -0.744 OA
ENDBRANCH  84  85
ENDBRANCH  56  79
BRANCH  68  89
ATOM     89  C   UNL A   1      41.978  30.000  33.385  1.00  0.00    -0.014 A 
ATOM     90  C   UNL A   1      41.554  28.696  33.063  1.00  0.00     0.010 A 
ATOM     91  C   UNL A   1      42.314  30.277  34.722  1.00  0.00     0.010 A 
ATOM     92  C   UNL A   1      41.457  27.702  34.050  1.00  0.00     0.020 A 
ATOM     93  C   UNL A   1      42.235  29.288  35.708  1.00  0.00     0.020 A 
ATOM     94  C   UNL A   1      41.801  28.005  35.369  1.00  0.00     0.054 A 
BRANCH  94  95
ATOM     95  S   UNL A   1      41.736  26.700  36.630  1.00  0.00     0.124 S 
ATOM     96  O   UNL A   1      40.509  27.019  37.353  1.00  0.00    -0.237 OA
ATOM     97  O   UNL A   1      41.696  25.476  35.834  1.00  0.00    -0.237 OA
ATOM     98  O   UNL A   1      42.970  26.892  37.393  1.00  0.00    -0.744 OA
ENDBRANCH  94  95
ENDBRANCH  68  89
ENDBRANCH  42  43
ENDBRANCH  35  37
ENDBRANCH  34  35
ENDBRANCH  33  34
ENDBRANCH   1  33
TORSDOF 19
ENDMDL
MODEL 2
REMARK VINA RESULT:     -13.0      2.543      9.712
REMARK SMILES Cc1ccc(C)c(N2C(=O)S[C@H](CC(=O)Nc3ccc(C(=O)OCCOC(=O)c4ccc(-c5c6nc(c(-c7ccc(S(=O)(=O)[O-])cc7)c7ccc([nH]7)c(-c7ccc(S(=O)(=O)[O-])cc7)c7nc(c(-c8ccc(S(=O)(=O)[O-])cc8)c8ccc5[nH]8)C=C7)C=C6)cc4)c(O)c3)C2=O)c1
REMARK SMILES IDX 24 1 23 2 21 3 22 4 20 5 17 6 18 7 91 8 19 9 89 10 16 11
REMARK SMILES IDX 14 12 15 13 13 15 12 16 8 17 9 18 92 19 10 20 11 21 93 22
REMARK SMILES IDX 7 23 1 24 2 25 3 26 94 27 4 28 5 29 6 30 90 31 25 33 26 34
REMARK SMILES IDX 27 35 28 36 29 37 30 38 88 39 31 40 87 41 32 42 33 43 34 44
REMARK SMILES IDX 81 45 35 46 86 47 80 48 82 49 36 50 85 51 79 52 78 53 37 55
REMARK SMILES IDX 67 56 48 57 66 58 49 59 52 60 65 61 83 62 50 63 51 64 64 66
REMARK SMILES IDX 84 67 53 68 38 69 39 70 47 71 40 72 46 73 41 74 42 75 43 76
REMARK SMILES IDX 44 77 45 78 68 79 69 80 77 81 70 82 76 83 71 84 72 85 73 86
REMARK SMILES IDX 74 87 75 88 54 89 55 90 63 91 56 92 62 93 57 94 58 95 59 96
REMARK SMILES IDX 60 97 61 98
REMARK H PARENT 16 14 90 32 82 54 52 65
REMARK Flexibility Score: inf
ROOT
ATOM      1  C   UNL A   1      31.753  30.598  26.520  1.00  0.00     0.275 C 
ENDROOT
BRANCH   1   2
ATOM      2  O   UNL A   1      31.563  30.299  25.137  1.00  0.00    -0.458 OA
BRANCH   2   3
ATOM      3  C   UNL A   1      32.324  29.268  24.701  1.00  0.00     0.342 C 
ATOM      4  O   UNL A   1      33.275  29.313  23.940  1.00  0.00    -0.246 OA
BRANCH   3   5
ATOM      5  C   UNL A   1      31.692  28.017  25.109  1.00  0.00     0.101 A 
ATOM      6  C   UNL A   1      30.648  25.519  25.749  1.00  0.00     0.044 A 
ATOM      7  C   UNL A   1      30.003  26.351  24.833  1.00  0.00     0.027 A 
ATOM      8  C   UNL A   1      31.737  26.011  26.466  1.00  0.00     0.073 A 
ATOM      9  C   UNL A   1      30.543  27.576  24.469  1.00  0.00     0.022 A 
ATOM     10  C   UNL A   1      32.247  27.271  26.151  1.00  0.00     0.132 A 
BRANCH   6  11
ATOM     11  N   UNL A   1      30.179  24.216  25.974  1.00  0.00    -0.326 N 
ATOM     12  C   UNL A   1      30.896  23.044  25.868  1.00  0.00     0.226 C 
ATOM     13  O   UNL A   1      30.312  21.965  25.765  1.00  0.00    -0.275 OA
ATOM     14  H   UNL A   1      29.234  24.130  26.235  1.00  0.00     0.169 HD
BRANCH  12  15
ATOM     15  C   UNL A   1      32.398  23.098  26.118  1.00  0.00     0.125 C 
BRANCH  15  16
ATOM     16  C   UNL A   1      33.214  21.971  25.496  1.00  0.00     0.156 C 
ATOM     17  N   UNL A   1      35.530  22.588  25.358  1.00  0.00    -0.240 N 
ATOM     18  C   UNL A   1      35.181  22.853  24.049  1.00  0.00     0.293 C 
ATOM     19  C   UNL A   1      34.584  21.966  26.153  1.00  0.00     0.248 C 
ATOM     20  O   UNL A   1      35.816  23.381  23.172  1.00  0.00    -0.261 OA
ATOM     21  S   UNL A   1      33.576  22.192  23.736  1.00  0.00    -0.050 SA
ATOM     22  O   UNL A   1      34.770  21.476  27.264  1.00  0.00    -0.273 OA
BRANCH  17  23
ATOM     23  C   UNL A   1      36.889  22.637  25.746  1.00  0.00     0.056 A 
ATOM     24  C   UNL A   1      39.333  25.118  27.326  1.00  0.00     0.044 C 
ATOM     25  C   UNL A   1      38.751  23.874  26.720  1.00  0.00    -0.049 A 
ATOM     26  C   UNL A   1      39.586  22.777  26.480  1.00  0.00     0.004 A 
ATOM     27  C   UNL A   1      37.395  23.790  26.368  1.00  0.00     0.030 A 
ATOM     28  C   UNL A   1      39.084  21.627  25.873  1.00  0.00     0.006 A 
ATOM     29  C   UNL A   1      37.737  21.543  25.488  1.00  0.00    -0.027 A 
ATOM     30  C   UNL A   1      37.277  20.279  24.819  1.00  0.00     0.046 C 
ENDBRANCH  17  23
ENDBRANCH  15  16
ENDBRANCH  12  15
ENDBRANCH   6  11
BRANCH  10  31
ATOM     31  O   UNL A   1      33.310  27.724  26.884  1.00  0.00    -0.507 OA
ATOM     32  H   UNL A   1      33.823  28.443  26.571  1.00  0.00     0.293 HD
ENDBRANCH  10  31
ENDBRANCH   3   5
ENDBRANCH   2   3
ENDBRANCH   1   2
BRANCH   1  33
ATOM     33  C   UNL A   1      33.143  31.194  26.770  1.00  0.00     0.275 C 
BRANCH  33  34
ATOM     34  O   UNL A   1      33.944  30.691  27.881  1.00  0.00    -0.458 OA
BRANCH  34  35
ATOM     35  C   UNL A   1      34.881  31.409  28.556  1.00  0.00     0.338 C 
ATOM     36  O   UNL A   1      34.570  32.281  29.352  1.00  0.00    -0.246 OA
BRANCH  35  37
ATOM     37  C   UNL A   1      36.292  31.037  28.307  1.00  0.00     0.060 A 
ATOM     38  C   UNL A   1      37.321  31.846  28.808  1.00  0.00     0.016 A 
ATOM     39  C   UNL A   1      36.581  29.788  27.780  1.00  0.00     0.016 A 
ATOM     40  C   UNL A   1      38.594  31.306  28.997  1.00  0.00     0.010 A 
ATOM     41  C   UNL A   1      37.798  29.218  28.090  1.00  0.00     0.010 A 
ATOM     42  C   UNL A   1      38.819  29.960  28.697  1.00  0.00    -0.014 A 
BRANCH  42  43
ATOM     43  C   UNL A   1      40.086  29.303  29.036  1.00  0.00     0.031 A 
ATOM     44  C   UNL A   1      40.449  29.085  30.478  1.00  0.00     0.074 A 
ATOM     45  C   UNL A   1      40.850  28.703  28.098  1.00  0.00     0.049 A 
ATOM     46  N   UNL A   1      41.414  29.637  31.144  1.00  0.00    -0.248 NA
ATOM     47  C   UNL A   1      39.657  28.145  31.281  1.00  0.00     0.031 C 
ATOM     48  C   UNL A   1      40.606  28.546  26.656  1.00  0.00     0.029 A 
ATOM     49  N   UNL A   1      41.995  28.000  28.284  1.00  0.00    -0.354 N 
ATOM     50  C   UNL A   1      41.461  29.015  32.398  1.00  0.00     0.074 A 
ATOM     51  C   UNL A   1      40.289  28.177  32.460  1.00  0.00     0.031 C 
ATOM     52  C   UNL A   1      41.423  27.595  26.158  1.00  0.00     0.029 A 
ATOM     53  C   UNL A   1      42.392  27.266  27.181  1.00  0.00     0.049 A 
ATOM     54  H   UNL A   1      42.501  28.011  29.129  1.00  0.00     0.167 HD
ATOM     55  C   UNL A   1      42.541  29.118  33.233  1.00  0.00     0.031 A 
ATOM     56  C   UNL A   1      43.484  26.482  27.068  1.00  0.00     0.031 A 
ATOM     57  C   UNL A   1      43.475  30.113  32.773  1.00  0.00     0.049 A 
ATOM     58  C   UNL A   1      44.466  26.984  28.054  1.00  0.00     0.074 A 
ATOM     59  C   UNL A   1      43.439  31.477  32.576  1.00  0.00     0.029 A 
ATOM     60  N   UNL A   1      44.575  29.668  32.076  1.00  0.00    -0.354 N 
ATOM     61  N   UNL A   1      44.982  28.183  27.990  1.00  0.00    -0.248 NA
ATOM     62  C   UNL A   1      44.550  26.341  29.353  1.00  0.00     0.031 C 
ATOM     63  C   UNL A   1      44.172  31.683  31.368  1.00  0.00     0.029 A 
ATOM     64  C   UNL A   1      44.658  30.442  30.948  1.00  0.00     0.049 A 
ATOM     65  H   UNL A   1      45.182  28.939  32.337  1.00  0.00     0.167 HD
ATOM     66  C   UNL A   1      45.069  28.609  29.307  1.00  0.00     0.074 A 
ATOM     67  C   UNL A   1      44.897  27.393  30.102  1.00  0.00     0.031 C 
ATOM     68  C   UNL A   1      45.018  29.936  29.637  1.00  0.00     0.031 A 
BRANCH  55  69
ATOM     69  C   UNL A   1      42.947  28.137  34.315  1.00  0.00    -0.014 A 
ATOM     70  C   UNL A   1      42.881  28.548  35.669  1.00  0.00     0.010 A 
ATOM     71  C   UNL A   1      43.632  26.937  34.054  1.00  0.00     0.010 A 
ATOM     72  C   UNL A   1      43.536  27.844  36.690  1.00  0.00     0.020 A 
ATOM     73  C   UNL A   1      44.257  26.203  35.073  1.00  0.00     0.020 A 
ATOM     74  C   UNL A   1      44.239  26.683  36.379  1.00  0.00     0.054 A 
BRANCH  74  75
ATOM     75  S   UNL A   1      45.197  25.855  37.678  1.00  0.00     0.124 S 
ATOM     76  O   UNL A   1      45.313  26.907  38.683  1.00  0.00    -0.237 OA
ATOM     77  O   UNL A   1      44.336  24.732  38.036  1.00  0.00    -0.237 OA
ATOM     78  O   UNL A   1      46.442  25.491  37.006  1.00  0.00    -0.744 OA
ENDBRANCH  74  75
ENDBRANCH  55  69
BRANCH  56  79
ATOM     79  C   UNL A   1      43.544  25.174  26.389  1.00  0.00    -0.014 A 
ATOM     80  C   UNL A   1      44.284  24.995  25.212  1.00  0.00     0.010 A 
ATOM     81  C   UNL A   1      43.062  24.025  27.056  1.00  0.00     0.010 A 
ATOM     82  C   UNL A   1      44.584  23.705  24.747  1.00  0.00     0.020 A 
ATOM     83  C   UNL A   1      43.357  22.738  26.599  1.00  0.00     0.020 A 
ATOM     84  C   UNL A   1      44.138  22.585  25.457  1.00  0.00     0.054 A 
BRANCH  84  85
ATOM     85  S   UNL A   1      44.695  20.931  24.951  1.00  0.00     0.124 S 
ATOM     86  O   UNL A   1      46.061  20.895  25.465  1.00  0.00    -0.237 OA
ATOM     87  O   UNL A   1      43.740  20.057  25.627  1.00  0.00    -0.237 OA
ATOM     88  O   UNL A   1      44.580  20.959  23.494  1.00  0.00    -0.744 OA
ENDBRANCH  84  85
ENDBRANCH  56  79
BRANCH  68  89
ATOM     89  C   UNL A   1      45.067  30.966  28.526  1.00  0.00    -0.014 A 
ATOM     90  C   UNL A   1      43.957  31.278  27.716  1.00  0.00     0.010 A 
ATOM     91  C   UNL A   1      46.207  31.783  28.430  1.00  0.00     0.010 A 
ATOM     92  C   UNL A   1      43.991  32.364  26.827  1.00  0.00     0.020 A 
ATOM     93  C   UNL A   1      46.244  32.876  27.558  1.00  0.00     0.020 A 
ATOM     94  C   UNL A   1      45.137  33.159  26.756  1.00  0.00     0.054 A 
BRANCH  94  95
ATOM     95  S   UNL A   1      45.155  34.601  25.652  1.00  0.00     0.124 S 
ATOM     96  O   UNL A   1      44.139  35.466  26.245  1.00  0.00    -0.237 OA
ATOM     97  O   UNL A   1      46.530  35.082  25.762  1.00  0.00    -0.237 OA
ATOM     98  O   UNL A   1      44.806  34.044  24.345  1.00  0.00    -0.744 OA
ENDBRANCH  94  95
ENDBRANCH  68  89
ENDBRANCH  42  43
ENDBRANCH  35  37
ENDBRANCH  34  35
ENDBRANCH  33  34
ENDBRANCH   1  33
TORSDOF 19
ENDMDL
MODEL 3
REMARK VINA RESULT:     -13.0      4.365      8.715
REMARK SMILES Cc1ccc(C)c(N2C(=O)S[C@H](CC(=O)Nc3ccc(C(=O)OCCOC(=O)c4ccc(-c5c6nc(c(-c7ccc(S(=O)(=O)[O-])cc7)c7ccc([nH]7)c(-c7ccc(S(=O)(=O)[O-])cc7)c7nc(c(-c8ccc(S(=O)(=O)[O-])cc8)c8ccc5[nH]8)C=C7)C=C6)cc4)c(O)c3)C2=O)c1
REMARK SMILES IDX 24 1 23 2 21 3 22 4 20 5 17 6 18 7 91 8 19 9 89 10 16 11
REMARK SMILES IDX 14 12 15 13 13 15 12 16 8 17 9 18 92 19 10 20 11 21 93 22
REMARK SMILES IDX 7 23 1 24 2 25 3 26 94 27 4 28 5 29 6 30 90 31 25 33 26 34
REMARK SMILES IDX 27 35 28 36 29 37 30 38 88 39 31 40 87 41 32 42 33 43 34 44
REMARK SMILES IDX 81 45 35 46 86 47 80 48 82 49 36 50 85 51 79 52 78 53 37 55
REMARK SMILES IDX 67 56 48 57 66 58 49 59 52 60 65 61 83 62 50 63 51 64 64 66
REMARK SMILES IDX 84 67 53 68 38 69 39 70 47 71 40 72 46 73 41 74 42 75 43 76
REMARK SMILES IDX 44 77 45 78 68 79 69 80 77 81 70 82 76 83 71 84 72 85 73 86
REMARK SMILES IDX 74 87 75 88 54 89 55 90 63 91 56 92 62 93 57 94 58 95 59 96
REMARK SMILES IDX 60 97 61 98
REMARK H PARENT 16 14 90 32 82 54 52 65
REMARK Flexibility Score: inf
ROOT
ATOM      1  C   UNL A   1      42.817  21.166  26.168  1.00  0.00     0.275 C 
ENDROOT
BRANCH   1   2
ATOM      2  O   UNL A   1      43.672  22.309  26.127  1.00  0.00    -0.458 OA
BRANCH   2   3
ATOM      3  C   UNL A   1      43.885  22.776  24.875  1.00  0.00     0.342 C 
ATOM      4  O   UNL A   1      43.710  22.190  23.821  1.00  0.00    -0.246 OA
BRANCH   3   5
ATOM      5  C   UNL A   1      44.587  24.053  24.966  1.00  0.00     0.101 A 
ATOM      6  C   UNL A   1      45.985  26.424  25.363  1.00  0.00     0.044 A 
ATOM      7  C   UNL A   1      44.591  26.399  25.414  1.00  0.00     0.027 A 
ATOM      8  C   UNL A   1      46.672  25.284  24.952  1.00  0.00     0.073 A 
ATOM      9  C   UNL A   1      43.887  25.212  25.269  1.00  0.00     0.022 A 
ATOM     10  C   UNL A   1      45.964  24.101  24.739  1.00  0.00     0.132 A 
BRANCH   6  11
ATOM     11  N   UNL A   1      46.683  27.598  25.683  1.00  0.00    -0.326 N 
ATOM     12  C   UNL A   1      46.554  28.359  26.824  1.00  0.00     0.226 C 
ATOM     13  O   UNL A   1      46.964  29.520  26.849  1.00  0.00    -0.275 OA
ATOM     14  H   UNL A   1      47.338  27.914  25.018  1.00  0.00     0.169 HD
BRANCH  12  15
ATOM     15  C   UNL A   1      46.115  27.660  28.105  1.00  0.00     0.125 C 
BRANCH  15  16
ATOM     16  C   UNL A   1      47.192  26.857  28.824  1.00  0.00     0.156 C 
ATOM     17  N   UNL A   1      46.591  26.513  31.123  1.00  0.00    -0.240 N 
ATOM     18  C   UNL A   1      47.465  27.565  31.307  1.00  0.00     0.293 C 
ATOM     19  C   UNL A   1      46.509  25.971  29.853  1.00  0.00     0.248 C 
ATOM     20  O   UNL A   1      47.711  28.199  32.301  1.00  0.00    -0.261 OA
ATOM     21  S   UNL A   1      48.342  27.855  29.805  1.00  0.00    -0.050 SA
ATOM     22  O   UNL A   1      45.948  24.924  29.539  1.00  0.00    -0.273 OA
BRANCH  17  23
ATOM     23  C   UNL A   1      46.079  25.820  32.244  1.00  0.00     0.056 A 
ATOM     24  C   UNL A   1      47.322  23.405  34.936  1.00  0.00     0.044 C 
ATOM     25  C   UNL A   1      46.439  24.304  34.120  1.00  0.00    -0.049 A 
ATOM     26  C   UNL A   1      45.081  24.401  34.439  1.00  0.00     0.004 A 
ATOM     27  C   UNL A   1      46.938  25.034  33.030  1.00  0.00     0.030 A 
ATOM     28  C   UNL A   1      44.228  25.189  33.668  1.00  0.00     0.006 A 
ATOM     29  C   UNL A   1      44.709  25.899  32.558  1.00  0.00    -0.027 A 
ATOM     30  C   UNL A   1      43.723  26.708  31.764  1.00  0.00     0.046 C 
ENDBRANCH  17  23
ENDBRANCH  15  16
ENDBRANCH  12  15
ENDBRANCH   6  11
BRANCH  10  31
ATOM     31  O   UNL A   1      46.672  23.006  24.327  1.00  0.00    -0.507 OA
ATOM     32  H   UNL A   1      46.687  22.231  24.854  1.00  0.00     0.293 HD
ENDBRANCH  10  31
ENDBRANCH   3   5
ENDBRANCH   2   3
ENDBRANCH   1   2
BRANCH   1  33
ATOM     33  C   UNL A   1      42.275  20.932  27.583  1.00  0.00     0.275 C 
BRANCH  33  34
ATOM     34  O   UNL A   1      41.137  21.718  28.049  1.00  0.00    -0.458 OA
BRANCH  34  35
ATOM     35  C   UNL A   1      40.442  22.609  27.293  1.00  0.00     0.338 C 
ATOM     36  O   UNL A   1      39.454  22.278  26.657  1.00  0.00    -0.246 OA
BRANCH  35  37
ATOM     37  C   UNL A   1      40.923  24.009  27.330  1.00  0.00     0.060 A 
ATOM     38  C   UNL A   1      40.335  24.966  26.491  1.00  0.00     0.016 A 
ATOM     39  C   UNL A   1      41.785  24.404  28.340  1.00  0.00     0.016 A 
ATOM     40  C   UNL A   1      40.425  26.319  26.817  1.00  0.00     0.010 A 
ATOM     41  C   UNL A   1      41.761  25.724  28.735  1.00  0.00     0.010 A 
ATOM     42  C   UNL A   1      41.089  26.699  27.987  1.00  0.00    -0.014 A 
BRANCH  42  43
ATOM     43  C   UNL A   1      41.065  28.087  28.463  1.00  0.00     0.031 A 
ATOM     44  C   UNL A   1      42.136  29.043  28.022  1.00  0.00     0.074 A 
ATOM     45  C   UNL A   1      40.004  28.593  29.126  1.00  0.00     0.049 A 
ATOM     46  N   UNL A   1      43.058  29.592  28.749  1.00  0.00    -0.248 NA
ATOM     47  C   UNL A   1      42.197  29.448  26.611  1.00  0.00     0.031 C 
ATOM     48  C   UNL A   1      38.724  27.953  29.467  1.00  0.00     0.029 A 
ATOM     49  N   UNL A   1      39.821  29.868  29.553  1.00  0.00    -0.354 N 
ATOM     50  C   UNL A   1      43.722  30.525  27.943  1.00  0.00     0.074 A 
ATOM     51  C   UNL A   1      43.215  30.316  26.610  1.00  0.00     0.031 C 
ATOM     52  C   UNL A   1      37.820  28.896  29.806  1.00  0.00     0.029 A 
ATOM     53  C   UNL A   1      38.524  30.153  29.939  1.00  0.00     0.049 A 
ATOM     54  H   UNL A   1      40.547  30.533  29.584  1.00  0.00     0.167 HD
ATOM     55  C   UNL A   1      44.529  31.504  28.458  1.00  0.00     0.031 A 
ATOM     56  C   UNL A   1      38.048  31.325  30.410  1.00  0.00     0.031 A 
ATOM     57  C   UNL A   1      44.788  31.295  29.859  1.00  0.00     0.049 A 
ATOM     58  C   UNL A   1      39.202  32.045  30.990  1.00  0.00     0.074 A 
ATOM     59  C   UNL A   1      45.414  30.321  30.608  1.00  0.00     0.029 A 
ATOM     60  N   UNL A   1      44.033  32.020  30.752  1.00  0.00    -0.354 N 
ATOM     61  N   UNL A   1      39.876  31.592  32.015  1.00  0.00    -0.248 NA
ATOM     62  C   UNL A   1      39.894  33.034  30.183  1.00  0.00     0.031 C 
ATOM     63  C   UNL A   1      44.595  30.184  31.771  1.00  0.00     0.029 A 
ATOM     64  C   UNL A   1      43.567  31.127  31.681  1.00  0.00     0.049 A 
ATOM     65  H   UNL A   1      43.863  32.990  30.728  1.00  0.00     0.167 HD
ATOM     66  C   UNL A   1      41.199  31.907  31.746  1.00  0.00     0.074 A 
ATOM     67  C   UNL A   1      41.133  32.891  30.665  1.00  0.00     0.031 C 
ATOM     68  C   UNL A   1      42.231  31.159  32.244  1.00  0.00     0.031 A 
BRANCH  55  69
ATOM     69  C   UNL A   1      44.870  32.832  27.811  1.00  0.00    -0.014 A 
ATOM     70  C   UNL A   1      46.232  33.187  27.656  1.00  0.00     0.010 A 
ATOM     71  C   UNL A   1      43.924  33.849  27.591  1.00  0.00     0.010 A 
ATOM     72  C   UNL A   1      46.627  34.504  27.382  1.00  0.00     0.020 A 
ATOM     73  C   UNL A   1      44.307  35.162  27.277  1.00  0.00     0.020 A 
ATOM     74  C   UNL A   1      45.658  35.490  27.215  1.00  0.00     0.054 A 
BRANCH  74  75
ATOM     75  S   UNL A   1      46.178  37.214  26.999  1.00  0.00     0.124 S 
ATOM     76  O   UNL A   1      44.896  37.904  26.890  1.00  0.00    -0.237 OA
ATOM     77  O   UNL A   1      46.931  37.471  28.223  1.00  0.00    -0.237 OA
ATOM     78  O   UNL A   1      46.976  37.180  25.776  1.00  0.00    -0.744 OA
ENDBRANCH  74  75
ENDBRANCH  55  69
BRANCH  56  79
ATOM     79  C   UNL A   1      36.744  31.926  30.074  1.00  0.00    -0.014 A 
ATOM     80  C   UNL A   1      35.962  32.567  31.046  1.00  0.00     0.010 A 
ATOM     81  C   UNL A   1      36.384  32.085  28.717  1.00  0.00     0.010 A 
ATOM     82  C   UNL A   1      34.889  33.389  30.670  1.00  0.00     0.020 A 
ATOM     83  C   UNL A   1      35.316  32.902  28.335  1.00  0.00     0.020 A 
ATOM     84  C   UNL A   1      34.588  33.570  29.316  1.00  0.00     0.054 A 
BRANCH  84  85
ATOM     85  S   UNL A   1      33.322  34.783  28.840  1.00  0.00     0.124 S 
ATOM     86  O   UNL A   1      32.575  34.064  27.813  1.00  0.00    -0.237 OA
ATOM     87  O   UNL A   1      32.614  35.009  30.097  1.00  0.00    -0.237 OA
ATOM     88  O   UNL A   1      34.101  35.923  28.358  1.00  0.00    -0.744 OA
ENDBRANCH  84  85
ENDBRANCH  56  79
BRANCH  68  89
ATOM     89  C   UNL A   1      41.924  30.086  33.269  1.00  0.00    -0.014 A 
ATOM     90  C   UNL A   1      41.254  28.887  32.954  1.00  0.00     0.010 A 
ATOM     91  C   UNL A   1      42.505  30.203  34.545  1.00  0.00     0.010 A 
ATOM     92  C   UNL A   1      41.157  27.844  33.888  1.00  0.00     0.020 A 
ATOM     93  C   UNL A   1      42.425  29.163  35.476  1.00  0.00     0.020 A 
ATOM     94  C   UNL A   1      41.746  27.989  35.146  1.00  0.00     0.054 A 
BRANCH  94  95
ATOM     95  S   UNL A   1      41.673  26.613  36.329  1.00  0.00     0.124 S 
ATOM     96  O   UNL A   1      41.139  25.524  35.516  1.00  0.00    -0.237 OA
ATOM     97  O   UNL A   1      43.066  26.462  36.743  1.00  0.00    -0.237 OA
ATOM     98  O   UNL A   1      40.775  27.101  37.375  1.00  0.00    -0.744 OA
ENDBRANCH  94  95
ENDBRANCH  68  89
ENDBRANCH  42  43
ENDBRANCH  35  37
ENDBRANCH  34  35
ENDBRANCH  33  34
ENDBRANCH   1  33
TORSDOF 19
ENDMDL
