MODEL 1
REMARK VINA RESULT:     -11.9      0.000      0.000
REMARK SMILES Cc1c(C(=O)OCCOC(=O)c2ccc(-c3c4nc(c(-c5ccc(S(=O)(=O)[O-])cc5)c5ccc([nH]5)c(-c5ccc(S(=O)(=O)[O-])cc5)c5nc(c(-c6ccc(S(=O)(=O)[O-])cc6)c6ccc3[nH]6)C=C5)C=C4)cc2)sc2ncnc(NCc3cn4c(n3)SCC4)c12
REMARK SMILES IDX 7 1 6 2 4 3 5 4 3 5 1 6 2 7 88 8 72 9 73 10 77 11 74 12
REMARK SMILES IDX 76 13 75 14 78 15 79 17 80 18 81 19 84 20 82 21 83 22 87 23
REMARK SMILES IDX 85 24 86 25 8 26 9 27 10 28 11 29 12 30 13 31 71 32 14 33
REMARK SMILES IDX 70 34 15 35 16 36 17 37 64 38 18 39 69 40 63 41 65 42 19 43
REMARK SMILES IDX 68 44 62 45 61 46 20 48 50 49 31 50 49 51 32 52 35 53 48 54
REMARK SMILES IDX 66 55 33 56 34 57 47 59 67 60 36 61 21 62 22 63 30 64 23 65
REMARK SMILES IDX 29 66 24 67 25 68 26 69 27 70 28 71 51 72 52 73 60 74 53 75
REMARK SMILES IDX 59 76 54 77 55 78 56 79 57 80 58 81 37 82 38 83 46 84 39 85
REMARK SMILES IDX 45 86 40 87 41 88 42 89 43 90 44 91
REMARK H PARENT 78 16 65 47 35 58
REMARK Flexibility Score: inf
ROOT
ATOM      1  C   UNL A   1      35.914  21.539  25.694  1.00  0.00     0.275 C 
ENDROOT
BRANCH   1   2
ATOM      2  O   UNL A   1      34.963  21.101  24.707  1.00  0.00    -0.458 OA
BRANCH   2   3
ATOM      3  C   UNL A   1      33.703  21.628  24.832  1.00  0.00     0.348 C 
ATOM      4  O   UNL A   1      32.774  21.044  25.357  1.00  0.00    -0.245 OA
BRANCH   3   5
ATOM      5  C   UNL A   1      33.636  22.995  24.324  1.00  0.00     0.118 A 
ATOM      6  C   UNL A   1      33.022  24.068  26.513  1.00  0.00     0.047 C 
ATOM      7  C   UNL A   1      33.247  24.129  25.039  1.00  0.00    -0.012 A 
ATOM      8  C   UNL A   1      33.133  25.315  24.190  1.00  0.00     0.058 A 
ATOM      9  S   UNL A   1      34.040  23.364  22.719  1.00  0.00    -0.108 S 
ATOM     10  C   UNL A   1      33.598  24.993  22.915  1.00  0.00     0.129 A 
ATOM     11  C   UNL A   1      32.717  26.670  24.343  1.00  0.00     0.138 A 
ATOM     12  N   UNL A   1      33.716  25.807  21.853  1.00  0.00    -0.225 NA
ATOM     13  N   UNL A   1      32.848  27.501  23.278  1.00  0.00    -0.219 NA
ATOM     14  C   UNL A   1      33.340  27.048  22.124  1.00  0.00     0.225 A 
BRANCH  11  15
ATOM     15  N   UNL A   1      32.179  27.350  25.392  1.00  0.00    -0.364 N 
ATOM     16  H   UNL A   1      31.949  26.756  26.143  1.00  0.00     0.162 HD
BRANCH  15  17
ATOM     17  C   UNL A   1      31.864  28.723  25.672  1.00  0.00     0.172 C 
BRANCH  17  18
ATOM     18  C   UNL A   1      32.832  29.434  26.570  1.00  0.00     0.079 A 
ATOM     19  C   UNL A   1      32.817  30.748  27.032  1.00  0.00     0.113 A 
ATOM     20  N   UNL A   1      33.970  28.767  27.014  1.00  0.00    -0.226 NA
ATOM     21  N   UNL A   1      33.979  30.869  27.716  1.00  0.00    -0.325 N 
ATOM     22  C   UNL A   1      34.621  29.673  27.685  1.00  0.00     0.168 A 
ATOM     23  C   UNL A   1      34.724  31.999  28.234  1.00  0.00     0.135 C 
ATOM     24  S   UNL A   1      36.243  29.772  28.244  1.00  0.00    -0.086 SA
ATOM     25  C   UNL A   1      36.196  31.607  28.062  1.00  0.00     0.100 C 
ENDBRANCH  17  18
ENDBRANCH  15  17
ENDBRANCH  11  15
ENDBRANCH   3   5
ENDBRANCH   2   3
ENDBRANCH   1   2
BRANCH   1  26
ATOM     26  C   UNL A   1      37.357  21.316  25.249  1.00  0.00     0.275 C 
BRANCH  26  27
ATOM     27  O   UNL A   1      38.166  22.494  25.319  1.00  0.00    -0.458 OA
BRANCH  27  28
ATOM     28  C   UNL A   1      39.358  22.297  25.923  1.00  0.00     0.338 C 
ATOM     29  O   UNL A   1      40.102  21.340  25.782  1.00  0.00    -0.246 OA
BRANCH  28  30
ATOM     30  C   UNL A   1      39.598  23.315  26.948  1.00  0.00     0.060 A 
ATOM     31  C   UNL A   1      38.769  24.440  26.937  1.00  0.00     0.016 A 
ATOM     32  C   UNL A   1      40.775  23.276  27.706  1.00  0.00     0.016 A 
ATOM     33  C   UNL A   1      39.182  25.578  27.593  1.00  0.00     0.010 A 
ATOM     34  C   UNL A   1      41.185  24.419  28.366  1.00  0.00     0.010 A 
ATOM     35  C   UNL A   1      40.419  25.580  28.247  1.00  0.00    -0.014 A 
BRANCH  35  36
ATOM     36  C   UNL A   1      40.833  26.824  28.879  1.00  0.00     0.031 A 
ATOM     37  C   UNL A   1      42.056  27.414  28.265  1.00  0.00     0.074 A 
ATOM     38  C   UNL A   1      40.114  27.416  29.854  1.00  0.00     0.049 A 
ATOM     39  N   UNL A   1      43.217  27.605  28.803  1.00  0.00    -0.248 NA
ATOM     40  C   UNL A   1      42.024  27.647  26.809  1.00  0.00     0.031 C 
ATOM     41  C   UNL A   1      38.784  27.038  30.346  1.00  0.00     0.029 A 
ATOM     42  N   UNL A   1      40.370  28.568  30.532  1.00  0.00    -0.354 N 
ATOM     43  C   UNL A   1      43.990  28.206  27.813  1.00  0.00     0.074 A 
ATOM     44  C   UNL A   1      43.279  28.024  26.573  1.00  0.00     0.031 C 
ATOM     45  C   UNL A   1      38.251  28.075  31.031  1.00  0.00     0.029 A 
ATOM     46  C   UNL A   1      39.249  29.125  31.143  1.00  0.00     0.049 A 
ATOM     47  H   UNL A   1      41.265  28.972  30.585  1.00  0.00     0.167 HD
ATOM     48  C   UNL A   1      45.024  29.040  28.109  1.00  0.00     0.031 A 
ATOM     49  C   UNL A   1      39.133  30.389  31.623  1.00  0.00     0.031 A 
ATOM     50  C   UNL A   1      45.455  28.909  29.473  1.00  0.00     0.049 A 
ATOM     51  C   UNL A   1      40.508  30.904  31.822  1.00  0.00     0.074 A 
ATOM     52  C   UNL A   1      46.048  27.929  30.238  1.00  0.00     0.029 A 
ATOM     53  N   UNL A   1      44.966  29.837  30.362  1.00  0.00    -0.354 N 
ATOM     54  N   UNL A   1      41.341  30.419  32.701  1.00  0.00    -0.248 NA
ATOM     55  C   UNL A   1      41.112  31.675  30.747  1.00  0.00     0.031 C 
ATOM     56  C   UNL A   1      45.481  28.069  31.533  1.00  0.00     0.029 A 
ATOM     57  C   UNL A   1      44.641  29.183  31.519  1.00  0.00     0.049 A 
ATOM     58  H   UNL A   1      44.868  30.801  30.194  1.00  0.00     0.167 HD
ATOM     59  C   UNL A   1      42.577  30.462  32.077  1.00  0.00     0.074 A 
ATOM     60  C   UNL A   1      42.391  31.337  30.922  1.00  0.00     0.031 C 
ATOM     61  C   UNL A   1      43.557  29.569  32.398  1.00  0.00     0.031 A 
BRANCH  48  62
ATOM     62  C   UNL A   1      45.328  30.278  27.296  1.00  0.00    -0.014 A 
ATOM     63  C   UNL A   1      46.663  30.719  27.201  1.00  0.00     0.010 A 
ATOM     64  C   UNL A   1      44.326  31.183  26.882  1.00  0.00     0.010 A 
ATOM     65  C   UNL A   1      46.969  32.021  26.784  1.00  0.00     0.020 A 
ATOM     66  C   UNL A   1      44.623  32.466  26.422  1.00  0.00     0.020 A 
ATOM     67  C   UNL A   1      45.943  32.890  26.411  1.00  0.00     0.054 A 
BRANCH  67  68
ATOM     68  S   UNL A   1      46.338  34.604  25.990  1.00  0.00     0.124 S 
ATOM     69  O   UNL A   1      47.387  34.432  24.991  1.00  0.00    -0.237 OA
ATOM     70  O   UNL A   1      45.057  35.098  25.490  1.00  0.00    -0.237 OA
ATOM     71  O   UNL A   1      46.769  35.177  27.263  1.00  0.00    -0.744 OA
ENDBRANCH  67  68
ENDBRANCH  48  62
BRANCH  49  72
ATOM     72  C   UNL A   1      37.949  31.289  31.559  1.00  0.00    -0.014 A 
ATOM     73  C   UNL A   1      36.723  30.911  32.143  1.00  0.00     0.010 A 
ATOM     74  C   UNL A   1      38.102  32.639  31.183  1.00  0.00     0.010 A 
ATOM     75  C   UNL A   1      35.721  31.862  32.406  1.00  0.00     0.020 A 
ATOM     76  C   UNL A   1      37.103  33.589  31.433  1.00  0.00     0.020 A 
ATOM     77  C   UNL A   1      35.927  33.201  32.069  1.00  0.00     0.054 A 
BRANCH  77  78
ATOM     78  S   UNL A   1      34.708  34.451  32.575  1.00  0.00     0.124 S 
ATOM     79  O   UNL A   1      33.786  34.462  31.444  1.00  0.00    -0.237 OA
ATOM     80  O   UNL A   1      34.180  33.892  33.817  1.00  0.00    -0.237 OA
ATOM     81  O   UNL A   1      35.507  35.665  32.736  1.00  0.00    -0.744 OA
ENDBRANCH  77  78
ENDBRANCH  49  72
BRANCH  61  82
ATOM     82  C   UNL A   1      43.410  28.737  33.651  1.00  0.00    -0.014 A 
ATOM     83  C   UNL A   1      43.469  29.266  34.955  1.00  0.00     0.010 A 
ATOM     84  C   UNL A   1      42.978  27.410  33.483  1.00  0.00     0.010 A 
ATOM     85  C   UNL A   1      43.094  28.484  36.060  1.00  0.00     0.020 A 
ATOM     86  C   UNL A   1      42.586  26.634  34.573  1.00  0.00     0.020 A 
ATOM     87  C   UNL A   1      42.643  27.174  35.858  1.00  0.00     0.054 A 
BRANCH  87  88
ATOM     88  S   UNL A   1      42.056  26.199  37.274  1.00  0.00     0.124 S 
ATOM     89  O   UNL A   1      43.087  26.445  38.278  1.00  0.00    -0.237 OA
ATOM     90  O   UNL A   1      40.750  26.791  37.553  1.00  0.00    -0.237 OA
ATOM     91  O   UNL A   1      42.009  24.832  36.757  1.00  0.00    -0.744 OA
ENDBRANCH  87  88
ENDBRANCH  61  82
ENDBRANCH  35  36
ENDBRANCH  28  30
ENDBRANCH  27  28
ENDBRANCH  26  27
ENDBRANCH   1  26
TORSDOF 17
ENDMDL
MODEL 2
REMARK VINA RESULT:     -11.9      3.099      9.335
REMARK SMILES Cc1c(C(=O)OCCOC(=O)c2ccc(-c3c4nc(c(-c5ccc(S(=O)(=O)[O-])cc5)c5ccc([nH]5)c(-c5ccc(S(=O)(=O)[O-])cc5)c5nc(c(-c6ccc(S(=O)(=O)[O-])cc6)c6ccc3[nH]6)C=C5)C=C4)cc2)sc2ncnc(NCc3cn4c(n3)SCC4)c12
REMARK SMILES IDX 7 1 6 2 4 3 5 4 3 5 1 6 2 7 88 8 72 9 73 10 77 11 74 12
REMARK SMILES IDX 76 13 75 14 78 15 79 17 80 18 81 19 84 20 82 21 83 22 87 23
REMARK SMILES IDX 85 24 86 25 8 26 9 27 10 28 11 29 12 30 13 31 71 32 14 33
REMARK SMILES IDX 70 34 15 35 16 36 17 37 64 38 18 39 69 40 63 41 65 42 19 43
REMARK SMILES IDX 68 44 62 45 61 46 20 48 50 49 31 50 49 51 32 52 35 53 48 54
REMARK SMILES IDX 66 55 33 56 34 57 47 59 67 60 36 61 21 62 22 63 30 64 23 65
REMARK SMILES IDX 29 66 24 67 25 68 26 69 27 70 28 71 51 72 52 73 60 74 53 75
REMARK SMILES IDX 59 76 54 77 55 78 56 79 57 80 58 81 37 82 38 83 46 84 39 85
REMARK SMILES IDX 45 86 40 87 41 88 42 89 43 90 44 91
REMARK H PARENT 78 16 65 47 35 58
REMARK Flexibility Score: inf
ROOT
ATOM      1  C   UNL A   1      31.988  29.980  25.601  1.00  0.00     0.275 C 
ENDROOT
BRANCH   1   2
ATOM      2  O   UNL A   1      32.773  29.097  24.781  1.00  0.00    -0.458 OA
BRANCH   2   3
ATOM      3  C   UNL A   1      32.061  28.155  24.085  1.00  0.00     0.348 C 
ATOM      4  O   UNL A   1      31.550  28.356  22.999  1.00  0.00    -0.245 OA
BRANCH   3   5
ATOM      5  C   UNL A   1      32.054  26.866  24.772  1.00  0.00     0.118 A 
ATOM      6  C   UNL A   1      34.182  26.002  23.753  1.00  0.00     0.047 C 
ATOM      7  C   UNL A   1      32.958  25.820  24.586  1.00  0.00    -0.012 A 
ATOM      8  C   UNL A   1      32.572  24.609  25.311  1.00  0.00     0.058 A 
ATOM      9  S   UNL A   1      30.871  26.486  25.927  1.00  0.00    -0.108 S 
ATOM     10  C   UNL A   1      31.466  24.904  26.109  1.00  0.00     0.129 A 
ATOM     11  C   UNL A   1      33.044  23.268  25.427  1.00  0.00     0.138 A 
ATOM     12  N   UNL A   1      30.833  24.091  26.970  1.00  0.00    -0.225 NA
ATOM     13  N   UNL A   1      32.417  22.446  26.307  1.00  0.00    -0.219 NA
ATOM     14  C   UNL A   1      31.383  22.888  27.025  1.00  0.00     0.225 A 
BRANCH  11  15
ATOM     15  N   UNL A   1      34.047  22.593  24.802  1.00  0.00    -0.364 N 
ATOM     16  H   UNL A   1      34.166  22.883  23.869  1.00  0.00     0.162 HD
BRANCH  15  17
ATOM     17  C   UNL A   1      34.974  21.561  25.172  1.00  0.00     0.172 C 
BRANCH  17  18
ATOM     18  C   UNL A   1      36.378  22.022  25.432  1.00  0.00     0.079 A 
ATOM     19  C   UNL A   1      37.576  21.317  25.347  1.00  0.00     0.113 A 
ATOM     20  N   UNL A   1      36.601  23.323  25.873  1.00  0.00    -0.226 NA
ATOM     21  N   UNL A   1      38.506  22.196  25.788  1.00  0.00    -0.325 N 
ATOM     22  C   UNL A   1      37.885  23.367  26.078  1.00  0.00     0.168 A 
ATOM     23  C   UNL A   1      39.890  22.069  26.200  1.00  0.00     0.135 C 
ATOM     24  S   UNL A   1      38.894  24.462  26.936  1.00  0.00    -0.086 SA
ATOM     25  C   UNL A   1      40.053  23.084  27.336  1.00  0.00     0.100 C 
ENDBRANCH  17  18
ENDBRANCH  15  17
ENDBRANCH  11  15
ENDBRANCH   3   5
ENDBRANCH   2   3
ENDBRANCH   1   2
BRANCH   1  26
ATOM     26  C   UNL A   1      32.679  30.313  26.921  1.00  0.00     0.275 C 
BRANCH  26  27
ATOM     27  O   UNL A   1      34.106  30.243  26.853  1.00  0.00    -0.458 OA
BRANCH  27  28
ATOM     28  C   UNL A   1      34.730  31.186  27.593  1.00  0.00     0.338 C 
ATOM     29  O   UNL A   1      34.468  32.377  27.636  1.00  0.00    -0.246 OA
BRANCH  28  30
ATOM     30  C   UNL A   1      35.924  30.635  28.239  1.00  0.00     0.060 A 
ATOM     31  C   UNL A   1      36.835  31.546  28.781  1.00  0.00     0.016 A 
ATOM     32  C   UNL A   1      36.250  29.284  28.064  1.00  0.00     0.016 A 
ATOM     33  C   UNL A   1      38.122  31.128  29.036  1.00  0.00     0.010 A 
ATOM     34  C   UNL A   1      37.541  28.868  28.323  1.00  0.00     0.010 A 
ATOM     35  C   UNL A   1      38.484  29.808  28.741  1.00  0.00    -0.014 A 
BRANCH  35  36
ATOM     36  C   UNL A   1      39.871  29.433  28.978  1.00  0.00     0.031 A 
ATOM     37  C   UNL A   1      40.189  29.249  30.421  1.00  0.00     0.074 A 
ATOM     38  C   UNL A   1      40.736  29.186  27.974  1.00  0.00     0.049 A 
ATOM     39  N   UNL A   1      41.009  29.925  31.159  1.00  0.00    -0.248 NA
ATOM     40  C   UNL A   1      39.342  28.307  31.176  1.00  0.00     0.031 C 
ATOM     41  C   UNL A   1      40.447  29.105  26.537  1.00  0.00     0.029 A 
ATOM     42  N   UNL A   1      42.048  28.829  28.037  1.00  0.00    -0.354 N 
ATOM     43  C   UNL A   1      40.953  29.331  32.418  1.00  0.00     0.074 A 
ATOM     44  C   UNL A   1      39.784  28.489  32.418  1.00  0.00     0.031 C 
ATOM     45  C   UNL A   1      41.466  28.473  25.913  1.00  0.00     0.029 A 
ATOM     46  C   UNL A   1      42.529  28.234  26.874  1.00  0.00     0.049 A 
ATOM     47  H   UNL A   1      42.606  28.978  28.834  1.00  0.00     0.167 HD
ATOM     48  C   UNL A   1      42.006  29.361  33.279  1.00  0.00     0.031 A 
ATOM     49  C   UNL A   1      43.677  27.522  26.744  1.00  0.00     0.031 A 
ATOM     50  C   UNL A   1      42.971  30.365  32.925  1.00  0.00     0.049 A 
ATOM     51  C   UNL A   1      44.544  27.887  27.890  1.00  0.00     0.074 A 
ATOM     52  C   UNL A   1      42.998  31.741  32.871  1.00  0.00     0.029 A 
ATOM     53  N   UNL A   1      44.068  29.937  32.215  1.00  0.00    -0.354 N 
ATOM     54  N   UNL A   1      45.050  29.076  28.063  1.00  0.00    -0.248 NA
ATOM     55  C   UNL A   1      44.496  27.048  29.077  1.00  0.00     0.031 C 
ATOM     56  C   UNL A   1      43.820  32.056  31.756  1.00  0.00     0.029 A 
ATOM     57  C   UNL A   1      44.328  30.862  31.241  1.00  0.00     0.049 A 
ATOM     58  H   UNL A   1      44.576  29.111  32.381  1.00  0.00     0.167 HD
ATOM     59  C   UNL A   1      44.996  29.287  29.431  1.00  0.00     0.074 A 
ATOM     60  C   UNL A   1      44.745  27.970  30.010  1.00  0.00     0.031 C 
ATOM     61  C   UNL A   1      44.887  30.546  29.944  1.00  0.00     0.031 A 
BRANCH  48  62
ATOM     62  C   UNL A   1      42.370  28.185  34.158  1.00  0.00    -0.014 A 
ATOM     63  C   UNL A   1      42.606  28.409  35.529  1.00  0.00     0.010 A 
ATOM     64  C   UNL A   1      42.780  26.939  33.634  1.00  0.00     0.010 A 
ATOM     65  C   UNL A   1      43.283  27.464  36.312  1.00  0.00     0.020 A 
ATOM     66  C   UNL A   1      43.414  25.974  34.416  1.00  0.00     0.020 A 
ATOM     67  C   UNL A   1      43.695  26.259  35.744  1.00  0.00     0.054 A 
BRANCH  67  68
ATOM     68  S   UNL A   1      44.672  25.099  36.728  1.00  0.00     0.124 S 
ATOM     69  O   UNL A   1      46.035  25.512  36.411  1.00  0.00    -0.237 OA
ATOM     70  O   UNL A   1      44.217  25.391  38.085  1.00  0.00    -0.237 OA
ATOM     71  O   UNL A   1      44.275  23.792  36.210  1.00  0.00    -0.744 OA
ENDBRANCH  67  68
ENDBRANCH  48  62
BRANCH  49  72
ATOM     72  C   UNL A   1      43.910  26.299  25.929  1.00  0.00    -0.014 A 
ATOM     73  C   UNL A   1      45.214  25.925  25.547  1.00  0.00     0.010 A 
ATOM     74  C   UNL A   1      42.887  25.340  25.776  1.00  0.00     0.010 A 
ATOM     75  C   UNL A   1      45.494  24.621  25.098  1.00  0.00     0.020 A 
ATOM     76  C   UNL A   1      43.157  24.044  25.319  1.00  0.00     0.020 A 
ATOM     77  C   UNL A   1      44.465  23.681  25.009  1.00  0.00     0.054 A 
BRANCH  77  78
ATOM     78  S   UNL A   1      44.861  21.955  24.605  1.00  0.00     0.124 S 
ATOM     79  O   UNL A   1      44.466  21.864  23.202  1.00  0.00    -0.237 OA
ATOM     80  O   UNL A   1      46.297  21.891  24.863  1.00  0.00    -0.237 OA
ATOM     81  O   UNL A   1      44.034  21.185  25.533  1.00  0.00    -0.744 OA
ENDBRANCH  77  78
ENDBRANCH  49  72
BRANCH  61  82
ATOM     82  C   UNL A   1      45.142  31.731  29.041  1.00  0.00    -0.014 A 
ATOM     83  C   UNL A   1      46.302  32.527  29.100  1.00  0.00     0.010 A 
ATOM     84  C   UNL A   1      44.266  31.898  27.953  1.00  0.00     0.010 A 
ATOM     85  C   UNL A   1      46.579  33.459  28.087  1.00  0.00     0.020 A 
ATOM     86  C   UNL A   1      44.546  32.808  26.934  1.00  0.00     0.020 A 
ATOM     87  C   UNL A   1      45.702  33.584  27.003  1.00  0.00     0.054 A 
BRANCH  87  88
ATOM     88  S   UNL A   1      46.116  34.711  25.640  1.00  0.00     0.124 S 
ATOM     89  O   UNL A   1      45.133  34.352  24.622  1.00  0.00    -0.237 OA
ATOM     90  O   UNL A   1      45.942  36.028  26.247  1.00  0.00    -0.237 OA
ATOM     91  O   UNL A   1      47.499  34.367  25.313  1.00  0.00    -0.744 OA
ENDBRANCH  87  88
ENDBRANCH  61  82
ENDBRANCH  35  36
ENDBRANCH  28  30
ENDBRANCH  27  28
ENDBRANCH  26  27
ENDBRANCH   1  26
TORSDOF 17
ENDMDL
MODEL 3
REMARK VINA RESULT:     -11.6      2.238      3.674
REMARK SMILES Cc1c(C(=O)OCCOC(=O)c2ccc(-c3c4nc(c(-c5ccc(S(=O)(=O)[O-])cc5)c5ccc([nH]5)c(-c5ccc(S(=O)(=O)[O-])cc5)c5nc(c(-c6ccc(S(=O)(=O)[O-])cc6)c6ccc3[nH]6)C=C5)C=C4)cc2)sc2ncnc(NCc3cn4c(n3)SCC4)c12
REMARK SMILES IDX 7 1 6 2 4 3 5 4 3 5 1 6 2 7 88 8 72 9 73 10 77 11 74 12
REMARK SMILES IDX 76 13 75 14 78 15 79 17 80 18 81 19 84 20 82 21 83 22 87 23
REMARK SMILES IDX 85 24 86 25 8 26 9 27 10 28 11 29 12 30 13 31 71 32 14 33
REMARK SMILES IDX 70 34 15 35 16 36 17 37 64 38 18 39 69 40 63 41 65 42 19 43
REMARK SMILES IDX 68 44 62 45 61 46 20 48 50 49 31 50 49 51 32 52 35 53 48 54
REMARK SMILES IDX 66 55 33 56 34 57 47 59 67 60 36 61 21 62 22 63 30 64 23 65
REMARK SMILES IDX 29 66 24 67 25 68 26 69 27 70 28 71 51 72 52 73 60 74 53 75
REMARK SMILES IDX 59 76 54 77 55 78 56 79 57 80 58 81 37 82 38 83 46 84 39 85
REMARK SMILES IDX 45 86 40 87 41 88 42 89 43 90 44 91
REMARK H PARENT 78 16 65 47 35 58
REMARK Flexibility Score: inf
ROOT
ATOM      1  C   UNL A   1      39.664  21.961  26.687  1.00  0.00     0.275 C 
ENDROOT
BRANCH   1   2
ATOM      2  O   UNL A   1      38.507  21.802  25.847  1.00  0.00    -0.458 OA
BRANCH   2   3
ATOM      3  C   UNL A   1      37.684  22.895  25.771  1.00  0.00     0.348 C 
ATOM      4  O   UNL A   1      38.057  24.039  25.951  1.00  0.00    -0.245 OA
BRANCH   3   5
ATOM      5  C   UNL A   1      36.327  22.524  25.378  1.00  0.00     0.118 A 
ATOM      6  C   UNL A   1      36.550  23.192  22.965  1.00  0.00     0.047 C 
ATOM      7  C   UNL A   1      35.741  22.720  24.127  1.00  0.00    -0.012 A 
ATOM      8  C   UNL A   1      34.317  22.383  24.115  1.00  0.00     0.058 A 
ATOM      9  S   UNL A   1      35.262  21.781  26.469  1.00  0.00    -0.108 S 
ATOM     10  C   UNL A   1      33.987  21.814  25.346  1.00  0.00     0.129 A 
ATOM     11  C   UNL A   1      33.236  22.455  23.188  1.00  0.00     0.138 A 
ATOM     12  N   UNL A   1      32.800  21.317  25.730  1.00  0.00    -0.225 NA
ATOM     13  N   UNL A   1      32.038  21.942  23.565  1.00  0.00    -0.219 NA
ATOM     14  C   UNL A   1      31.886  21.401  24.775  1.00  0.00     0.225 A 
BRANCH  11  15
ATOM     15  N   UNL A   1      33.141  22.965  21.930  1.00  0.00    -0.364 N 
ATOM     16  H   UNL A   1      33.233  22.269  21.238  1.00  0.00     0.162 HD
BRANCH  15  17
ATOM     17  C   UNL A   1      32.940  24.269  21.364  1.00  0.00     0.172 C 
BRANCH  17  18
ATOM     18  C   UNL A   1      32.550  25.339  22.340  1.00  0.00     0.079 A 
ATOM     19  C   UNL A   1      31.289  25.693  22.815  1.00  0.00     0.113 A 
ATOM     20  N   UNL A   1      33.528  26.181  22.860  1.00  0.00    -0.226 NA
ATOM     21  N   UNL A   1      31.522  26.782  23.585  1.00  0.00    -0.325 N 
ATOM     22  C   UNL A   1      32.857  27.027  23.588  1.00  0.00     0.168 A 
ATOM     23  C   UNL A   1      30.669  27.796  24.170  1.00  0.00     0.135 C 
ATOM     24  S   UNL A   1      33.254  28.554  24.268  1.00  0.00    -0.086 SA
ATOM     25  C   UNL A   1      31.495  29.085  24.104  1.00  0.00     0.100 C 
ENDBRANCH  17  18
ENDBRANCH  15  17
ENDBRANCH  11  15
ENDBRANCH   3   5
ENDBRANCH   2   3
ENDBRANCH   1   2
BRANCH   1  26
ATOM     26  C   UNL A   1      40.946  21.494  26.003  1.00  0.00     0.275 C 
BRANCH  26  27
ATOM     27  O   UNL A   1      42.115  22.194  26.440  1.00  0.00    -0.458 OA
BRANCH  27  28
ATOM     28  C   UNL A   1      42.625  23.031  25.510  1.00  0.00     0.338 C 
ATOM     29  O   UNL A   1      43.109  22.724  24.433  1.00  0.00    -0.246 OA
BRANCH  28  30
ATOM     30  C   UNL A   1      42.698  24.400  26.025  1.00  0.00     0.060 A 
ATOM     31  C   UNL A   1      43.453  24.607  27.183  1.00  0.00     0.016 A 
ATOM     32  C   UNL A   1      41.826  25.378  25.531  1.00  0.00     0.016 A 
ATOM     33  C   UNL A   1      43.242  25.752  27.919  1.00  0.00     0.010 A 
ATOM     34  C   UNL A   1      41.619  26.527  26.270  1.00  0.00     0.010 A 
ATOM     35  C   UNL A   1      42.277  26.672  27.492  1.00  0.00    -0.014 A 
BRANCH  35  36
ATOM     36  C   UNL A   1      42.055  27.839  28.335  1.00  0.00     0.031 A 
ATOM     37  C   UNL A   1      43.199  28.793  28.327  1.00  0.00     0.074 A 
ATOM     38  C   UNL A   1      40.888  28.061  28.971  1.00  0.00     0.049 A 
ATOM     39  N   UNL A   1      43.969  29.138  29.307  1.00  0.00    -0.248 NA
ATOM     40  C   UNL A   1      43.652  29.279  27.010  1.00  0.00     0.031 C 
ATOM     41  C   UNL A   1      39.635  27.307  28.841  1.00  0.00     0.029 A 
ATOM     42  N   UNL A   1      40.535  29.094  29.784  1.00  0.00    -0.354 N 
ATOM     43  C   UNL A   1      44.854  30.071  28.774  1.00  0.00     0.074 A 
ATOM     44  C   UNL A   1      44.742  29.967  27.342  1.00  0.00     0.031 C 
ATOM     45  C   UNL A   1      38.616  28.051  29.327  1.00  0.00     0.029 A 
ATOM     46  C   UNL A   1      39.159  29.259  29.922  1.00  0.00     0.049 A 
ATOM     47  H   UNL A   1      41.192  29.672  30.233  1.00  0.00     0.167 HD
ATOM     48  C   UNL A   1      45.422  31.047  29.535  1.00  0.00     0.031 A 
ATOM     49  C   UNL A   1      38.520  30.353  30.411  1.00  0.00     0.031 A 
ATOM     50  C   UNL A   1      45.327  30.765  30.940  1.00  0.00     0.049 A 
ATOM     51  C   UNL A   1      39.516  31.119  31.198  1.00  0.00     0.074 A 
ATOM     52  C   UNL A   1      45.840  29.820  31.800  1.00  0.00     0.029 A 
ATOM     53  N   UNL A   1      44.300  31.377  31.620  1.00  0.00    -0.354 N 
ATOM     54  N   UNL A   1      40.057  30.680  32.300  1.00  0.00    -0.248 NA
ATOM     55  C   UNL A   1      40.235  32.193  30.531  1.00  0.00     0.031 C 
ATOM     56  C   UNL A   1      44.814  29.586  32.754  1.00  0.00     0.029 A 
ATOM     57  C   UNL A   1      43.763  30.464  32.485  1.00  0.00     0.049 A 
ATOM     58  H   UNL A   1      44.005  32.308  31.503  1.00  0.00     0.167 HD
ATOM     59  C   UNL A   1      41.372  31.117  32.244  1.00  0.00     0.074 A 
ATOM     60  C   UNL A   1      41.394  32.126  31.189  1.00  0.00     0.031 C 
ATOM     61  C   UNL A   1      42.368  30.425  32.868  1.00  0.00     0.031 A 
BRANCH  48  62
ATOM     62  C   UNL A   1      45.646  32.451  29.019  1.00  0.00    -0.014 A 
ATOM     63  C   UNL A   1      46.937  33.008  29.103  1.00  0.00     0.010 A 
ATOM     64  C   UNL A   1      44.584  33.340  28.740  1.00  0.00     0.010 A 
ATOM     65  C   UNL A   1      47.141  34.389  28.988  1.00  0.00     0.020 A 
ATOM     66  C   UNL A   1      44.783  34.711  28.579  1.00  0.00     0.020 A 
ATOM     67  C   UNL A   1      46.057  35.232  28.740  1.00  0.00     0.054 A 
BRANCH  67  68
ATOM     68  S   UNL A   1      46.310  37.023  28.713  1.00  0.00     0.124 S 
ATOM     69  O   UNL A   1      45.305  37.481  29.665  1.00  0.00    -0.237 OA
ATOM     70  O   UNL A   1      47.700  37.142  29.146  1.00  0.00    -0.237 OA
ATOM     71  O   UNL A   1      46.064  37.380  27.318  1.00  0.00    -0.744 OA
ENDBRANCH  67  68
ENDBRANCH  48  62
BRANCH  49  72
ATOM     72  C   UNL A   1      37.245  30.958  29.937  1.00  0.00    -0.014 A 
ATOM     73  C   UNL A   1      36.244  31.338  30.853  1.00  0.00     0.010 A 
ATOM     74  C   UNL A   1      37.131  31.432  28.614  1.00  0.00     0.010 A 
ATOM     75  C   UNL A   1      35.211  32.216  30.477  1.00  0.00     0.020 A 
ATOM     76  C   UNL A   1      36.099  32.297  28.230  1.00  0.00     0.020 A 
ATOM     77  C   UNL A   1      35.159  32.708  29.171  1.00  0.00     0.054 A 
BRANCH  77  78
ATOM     78  S   UNL A   1      33.933  33.980  28.742  1.00  0.00     0.124 S 
ATOM     79  O   UNL A   1      33.406  34.359  30.049  1.00  0.00    -0.237 OA
ATOM     80  O   UNL A   1      34.747  34.989  28.070  1.00  0.00    -0.237 OA
ATOM     81  O   UNL A   1      32.992  33.271  27.876  1.00  0.00    -0.744 OA
ENDBRANCH  77  78
ENDBRANCH  49  72
BRANCH  61  82
ATOM     82  C   UNL A   1      42.002  29.362  33.880  1.00  0.00    -0.014 A 
ATOM     83  C   UNL A   1      41.617  28.052  33.536  1.00  0.00     0.010 A 
ATOM     84  C   UNL A   1      42.274  29.652  35.228  1.00  0.00     0.010 A 
ATOM     85  C   UNL A   1      41.517  27.057  34.522  1.00  0.00     0.020 A 
ATOM     86  C   UNL A   1      42.196  28.664  36.209  1.00  0.00     0.020 A 
ATOM     87  C   UNL A   1      41.820  27.369  35.853  1.00  0.00     0.054 A 
BRANCH  87  88
ATOM     88  S   UNL A   1      41.798  26.057  37.109  1.00  0.00     0.124 S 
ATOM     89  O   UNL A   1      40.434  26.136  37.626  1.00  0.00    -0.237 OA
ATOM     90  O   UNL A   1      42.109  24.861  36.331  1.00  0.00    -0.237 OA
ATOM     91  O   UNL A   1      42.841  26.462  38.051  1.00  0.00    -0.744 OA
ENDBRANCH  87  88
ENDBRANCH  61  82
ENDBRANCH  35  36
ENDBRANCH  28  30
ENDBRANCH  27  28
ENDBRANCH  26  27
ENDBRANCH   1  26
TORSDOF 17
ENDMDL
