MODEL 1
REMARK VINA RESULT:     -11.5      0.000      0.000
REMARK SMILES O=C(OCCOC(=O)c1ccccc1Nc1nc(Cl)nc(Nc2ccc(N3CCOCC3=O)cc2)n1)c1ccc(-c2c3nc(c(-c4ccc(S(=O)(=O)[O-])cc4)c4ccc([nH]4)c(-c4ccc(S(=O)(=O)[O-])cc4)c4nc(c(-c5ccc(S(=O)(=O)[O-])cc5)c5ccc2[nH]5)C=C4)C=C3)cc1
REMARK SMILES IDX 5 1 4 2 3 3 2 4 1 5 37 6 38 7 96 8 39 9 95 10 40 11 41 12
REMARK SMILES IDX 42 13 89 14 43 15 94 16 88 17 90 18 44 19 93 20 87 21 86 22
REMARK SMILES IDX 45 24 75 25 56 26 74 27 57 28 60 29 73 30 91 31 58 32 59 33
REMARK SMILES IDX 72 35 92 36 61 37 46 38 47 39 55 40 48 41 54 42 49 43 50 44
REMARK SMILES IDX 51 45 52 46 53 47 76 48 77 49 85 50 78 51 84 52 79 53 80 54
REMARK SMILES IDX 81 55 82 56 83 57 62 58 63 59 71 60 64 61 70 62 65 63 66 64
REMARK SMILES IDX 67 65 68 66 69 67 6 68 7 69 8 70 9 71 10 72 14 73 11 74
REMARK SMILES IDX 13 75 12 76 15 77 16 79 17 80 36 81 18 82 21 83 19 84 20 85
REMARK SMILES IDX 22 86 23 88 24 89 35 90 25 91 34 92 26 93 27 94 28 95 32 96
REMARK SMILES IDX 29 97 31 98 33 99 30 100
REMARK H PARENT 90 23 60 34 15 78 22 87
REMARK Flexibility Score: inf
ROOT
ATOM      1  C   UNL A   1      37.774  20.196  25.252  1.00  0.00     0.275 C 
ENDROOT
BRANCH   1   2
ATOM      2  C   UNL A   1      39.002  20.969  25.740  1.00  0.00     0.275 C 
BRANCH   2   3
ATOM      3  O   UNL A   1      40.087  20.125  26.164  1.00  0.00    -0.458 OA
BRANCH   3   4
ATOM      4  C   UNL A   1      41.357  20.422  26.519  1.00  0.00     0.338 C 
ATOM      5  O   UNL A   1      42.117  19.484  26.764  1.00  0.00    -0.246 OA
BRANCH   4   6
ATOM      6  C   UNL A   1      41.891  21.812  26.731  1.00  0.00     0.060 A 
ATOM      7  C   UNL A   1      42.130  22.772  25.746  1.00  0.00     0.016 A 
ATOM      8  C   UNL A   1      42.176  22.170  28.067  1.00  0.00     0.016 A 
ATOM      9  C   UNL A   1      42.613  24.042  26.071  1.00  0.00     0.010 A 
ATOM     10  C   UNL A   1      42.660  23.440  28.402  1.00  0.00     0.010 A 
ATOM     11  C   UNL A   1      42.894  24.379  27.396  1.00  0.00    -0.014 A 
BRANCH  11  12
ATOM     12  C   UNL A   1      43.516  25.690  27.675  1.00  0.00     0.031 A 
ATOM     13  C   UNL A   1      44.947  25.899  27.311  1.00  0.00     0.074 A 
ATOM     14  C   UNL A   1      42.783  26.690  28.194  1.00  0.00     0.049 A 
ATOM     15  N   UNL A   1      45.654  26.993  27.380  1.00  0.00    -0.248 NA
ATOM     16  C   UNL A   1      45.678  24.724  26.812  1.00  0.00     0.031 C 
ATOM     17  C   UNL A   1      41.400  26.542  28.609  1.00  0.00     0.029 A 
ATOM     18  N   UNL A   1      43.070  28.000  28.465  1.00  0.00    -0.354 N 
ATOM     19  C   UNL A   1      46.923  26.639  26.948  1.00  0.00     0.074 A 
ATOM     20  C   UNL A   1      46.890  25.228  26.631  1.00  0.00     0.031 C 
ATOM     21  C   UNL A   1      40.949  27.704  29.104  1.00  0.00     0.029 A 
ATOM     22  C   UNL A   1      42.019  28.688  29.031  1.00  0.00     0.049 A 
ATOM     23  H   UNL A   1      43.944  28.412  28.275  1.00  0.00     0.167 HD
ATOM     24  C   UNL A   1      48.017  27.426  26.845  1.00  0.00     0.031 A 
ATOM     25  C   UNL A   1      41.932  29.964  29.453  1.00  0.00     0.031 A 
ATOM     26  C   UNL A   1      48.035  28.812  27.225  1.00  0.00     0.049 A 
ATOM     27  C   UNL A   1      43.136  30.844  29.242  1.00  0.00     0.074 A 
ATOM     28  C   UNL A   1      49.097  29.695  27.223  1.00  0.00     0.029 A 
ATOM     29  N   UNL A   1      46.928  29.512  27.692  1.00  0.00    -0.354 N 
ATOM     30  N   UNL A   1      44.316  30.509  28.767  1.00  0.00    -0.248 NA
ATOM     31  C   UNL A   1      43.011  32.262  29.596  1.00  0.00     0.031 C 
ATOM     32  C   UNL A   1      48.643  30.920  27.728  1.00  0.00     0.029 A 
ATOM     33  C   UNL A   1      47.285  30.815  27.992  1.00  0.00     0.049 A 
ATOM     34  H   UNL A   1      46.024  29.137  27.794  1.00  0.00     0.167 HD
ATOM     35  C   UNL A   1      45.079  31.668  28.785  1.00  0.00     0.074 A 
ATOM     36  C   UNL A   1      44.208  32.726  29.259  1.00  0.00     0.031 C 
ATOM     37  C   UNL A   1      46.387  31.840  28.470  1.00  0.00     0.031 A 
BRANCH  24  38
ATOM     38  C   UNL A   1      49.277  26.755  26.380  1.00  0.00    -0.014 A 
ATOM     39  C   UNL A   1      50.089  26.030  27.272  1.00  0.00     0.010 A 
ATOM     40  C   UNL A   1      49.698  26.920  25.049  1.00  0.00     0.010 A 
ATOM     41  C   UNL A   1      51.328  25.537  26.856  1.00  0.00     0.020 A 
ATOM     42  C   UNL A   1      50.924  26.406  24.622  1.00  0.00     0.020 A 
ATOM     43  C   UNL A   1      51.744  25.741  25.537  1.00  0.00     0.054 A 
BRANCH  43  44
ATOM     44  S   UNL A   1      53.372  25.127  25.031  1.00  0.00     0.124 S 
ATOM     45  O   UNL A   1      54.253  25.787  25.992  1.00  0.00    -0.237 OA
ATOM     46  O   UNL A   1      53.238  23.682  25.196  1.00  0.00    -0.237 OA
ATOM     47  O   UNL A   1      53.502  25.584  23.650  1.00  0.00    -0.744 OA
ENDBRANCH  43  44
ENDBRANCH  24  38
BRANCH  25  48
ATOM     48  C   UNL A   1      40.713  30.435  30.179  1.00  0.00    -0.014 A 
ATOM     49  C   UNL A   1      40.611  30.440  31.580  1.00  0.00     0.010 A 
ATOM     50  C   UNL A   1      39.605  30.877  29.430  1.00  0.00     0.010 A 
ATOM     51  C   UNL A   1      39.408  30.805  32.209  1.00  0.00     0.020 A 
ATOM     52  C   UNL A   1      38.423  31.288  30.051  1.00  0.00     0.020 A 
ATOM     53  C   UNL A   1      38.317  31.225  31.439  1.00  0.00     0.054 A 
BRANCH  53  54
ATOM     54  S   UNL A   1      36.704  31.548  32.213  1.00  0.00     0.124 S 
ATOM     55  O   UNL A   1      36.320  32.842  31.654  1.00  0.00    -0.237 OA
ATOM     56  O   UNL A   1      35.898  30.414  31.776  1.00  0.00    -0.237 OA
ATOM     57  O   UNL A   1      37.006  31.566  33.642  1.00  0.00    -0.744 OA
ENDBRANCH  53  54
ENDBRANCH  25  48
BRANCH  37  58
ATOM     58  C   UNL A   1      46.957  33.220  28.652  1.00  0.00    -0.014 A 
ATOM     59  C   UNL A   1      46.911  34.159  27.605  1.00  0.00     0.010 A 
ATOM     60  C   UNL A   1      47.470  33.606  29.902  1.00  0.00     0.010 A 
ATOM     61  C   UNL A   1      47.389  35.455  27.800  1.00  0.00     0.020 A 
ATOM     62  C   UNL A   1      47.926  34.909  30.108  1.00  0.00     0.020 A 
ATOM     63  C   UNL A   1      47.891  35.823  29.052  1.00  0.00     0.054 A 
BRANCH  63  64
ATOM     64  S   UNL A   1      48.447  37.531  29.300  1.00  0.00     0.124 S 
ATOM     65  O   UNL A   1      49.683  37.341  30.053  1.00  0.00    -0.237 OA
ATOM     66  O   UNL A   1      48.612  38.016  27.931  1.00  0.00    -0.237 OA
ATOM     67  O   UNL A   1      47.351  38.147  30.045  1.00  0.00    -0.744 OA
ENDBRANCH  63  64
ENDBRANCH  37  58
ENDBRANCH  11  12
ENDBRANCH   4   6
ENDBRANCH   3   4
ENDBRANCH   2   3
ENDBRANCH   1   2
BRANCH   1  68
ATOM     68  O   UNL A   1      36.760  21.042  24.689  1.00  0.00    -0.458 OA
BRANCH  68  69
ATOM     69  C   UNL A   1      35.658  21.207  25.478  1.00  0.00     0.340 C 
ATOM     70  O   UNL A   1      35.611  21.814  26.526  1.00  0.00    -0.246 OA
BRANCH  69  71
ATOM     71  C   UNL A   1      34.459  20.636  24.820  1.00  0.00     0.083 A 
ATOM     72  C   UNL A   1      34.477  19.244  24.630  1.00  0.00     0.018 A 
ATOM     73  C   UNL A   1      33.361  21.416  24.398  1.00  0.00     0.055 A 
ATOM     74  C   UNL A   1      33.410  18.610  24.002  1.00  0.00     0.001 A 
ATOM     75  C   UNL A   1      32.371  20.767  23.642  1.00  0.00     0.027 A 
ATOM     76  C   UNL A   1      32.372  19.375  23.485  1.00  0.00     0.002 A 
BRANCH  73  77
ATOM     77  N   UNL A   1      33.265  22.787  24.738  1.00  0.00    -0.323 N 
ATOM     78  H   UNL A   1      34.062  23.330  24.542  1.00  0.00     0.170 HD
BRANCH  77  79
ATOM     79  C   UNL A   1      32.193  23.478  25.315  1.00  0.00     0.233 A 
ATOM     80  N   UNL A   1      31.403  22.757  26.089  1.00  0.00    -0.182 NA
ATOM     81  N   UNL A   1      32.053  24.787  25.123  1.00  0.00    -0.176 NA
ATOM     82  C   UNL A   1      30.380  23.440  26.579  1.00  0.00     0.228 A 
ATOM     83  C   UNL A   1      31.053  25.391  25.774  1.00  0.00     0.233 A 
ATOM     84  Cl  UNL A   1      29.229  22.536  27.459  1.00  0.00    -0.041 Cl
ATOM     85  N   UNL A   1      30.162  24.739  26.498  1.00  0.00    -0.182 NA
BRANCH  83  86
ATOM     86  N   UNL A   1      31.015  26.777  25.657  1.00  0.00    -0.324 N 
ATOM     87  H   UNL A   1      30.189  27.105  25.234  1.00  0.00     0.170 HD
BRANCH  86  88
ATOM     88  C   UNL A   1      31.895  27.810  26.009  1.00  0.00     0.041 A 
ATOM     89  C   UNL A   1      31.952  28.933  25.176  1.00  0.00     0.028 A 
ATOM     90  C   UNL A   1      32.672  27.834  27.172  1.00  0.00     0.028 A 
ATOM     91  C   UNL A   1      32.661  30.081  25.545  1.00  0.00     0.028 A 
ATOM     92  C   UNL A   1      33.414  28.976  27.532  1.00  0.00     0.028 A 
ATOM     93  C   UNL A   1      33.360  30.131  26.749  1.00  0.00     0.044 A 
BRANCH  93  94
ATOM     94  N   UNL A   1      33.838  31.384  27.239  1.00  0.00    -0.308 N 
ATOM     95  C   UNL A   1      32.778  32.338  27.623  1.00  0.00     0.154 C 
ATOM     96  C   UNL A   1      35.131  31.538  27.732  1.00  0.00     0.253 C 
ATOM     97  C   UNL A   1      33.274  33.724  28.009  1.00  0.00     0.183 C 
ATOM     98  C   UNL A   1      35.429  32.915  28.352  1.00  0.00     0.260 C 
ATOM     99  O   UNL A   1      36.042  30.719  27.594  1.00  0.00    -0.272 OA
ATOM    100  O   UNL A   1      34.354  33.627  28.938  1.00  0.00    -0.370 OA
ENDBRANCH  93  94
ENDBRANCH  86  88
ENDBRANCH  83  86
ENDBRANCH  77  79
ENDBRANCH  73  77
ENDBRANCH  69  71
ENDBRANCH  68  69
ENDBRANCH   1  68
TORSDOF 19
ENDMDL
MODEL 2
REMARK VINA RESULT:     -11.5      2.152      9.957
REMARK SMILES O=C(OCCOC(=O)c1ccccc1Nc1nc(Cl)nc(Nc2ccc(N3CCOCC3=O)cc2)n1)c1ccc(-c2c3nc(c(-c4ccc(S(=O)(=O)[O-])cc4)c4ccc([nH]4)c(-c4ccc(S(=O)(=O)[O-])cc4)c4nc(c(-c5ccc(S(=O)(=O)[O-])cc5)c5ccc2[nH]5)C=C4)C=C3)cc1
REMARK SMILES IDX 5 1 4 2 3 3 2 4 1 5 37 6 38 7 96 8 39 9 95 10 40 11 41 12
REMARK SMILES IDX 42 13 89 14 43 15 94 16 88 17 90 18 44 19 93 20 87 21 86 22
REMARK SMILES IDX 45 24 75 25 56 26 74 27 57 28 60 29 73 30 91 31 58 32 59 33
REMARK SMILES IDX 72 35 92 36 61 37 46 38 47 39 55 40 48 41 54 42 49 43 50 44
REMARK SMILES IDX 51 45 52 46 53 47 76 48 77 49 85 50 78 51 84 52 79 53 80 54
REMARK SMILES IDX 81 55 82 56 83 57 62 58 63 59 71 60 64 61 70 62 65 63 66 64
REMARK SMILES IDX 67 65 68 66 69 67 6 68 7 69 8 70 9 71 10 72 14 73 11 74
REMARK SMILES IDX 13 75 12 76 15 77 16 79 17 80 36 81 18 82 21 83 19 84 20 85
REMARK SMILES IDX 22 86 23 88 24 89 35 90 25 91 34 92 26 93 27 94 28 95 32 96
REMARK SMILES IDX 29 97 31 98 33 99 30 100
REMARK H PARENT 90 23 60 34 15 78 22 87
REMARK Flexibility Score: inf
ROOT
ATOM      1  C   UNL A   1      35.872  33.088  30.155  1.00  0.00     0.275 C 
ENDROOT
BRANCH   1   2
ATOM      2  C   UNL A   1      36.010  33.092  31.681  1.00  0.00     0.275 C 
BRANCH   2   3
ATOM      3  O   UNL A   1      36.786  31.996  32.194  1.00  0.00    -0.458 OA
BRANCH   3   4
ATOM      4  C   UNL A   1      37.085  30.791  31.658  1.00  0.00     0.338 C 
ATOM      5  O   UNL A   1      36.267  29.881  31.801  1.00  0.00    -0.246 OA
BRANCH   4   6
ATOM      6  C   UNL A   1      38.383  30.447  30.982  1.00  0.00     0.060 A 
ATOM      7  C   UNL A   1      38.674  30.571  29.622  1.00  0.00     0.016 A 
ATOM      8  C   UNL A   1      39.405  29.947  31.819  1.00  0.00     0.016 A 
ATOM      9  C   UNL A   1      39.930  30.233  29.113  1.00  0.00     0.010 A 
ATOM     10  C   UNL A   1      40.667  29.606  31.318  1.00  0.00     0.010 A 
ATOM     11  C   UNL A   1      40.928  29.737  29.953  1.00  0.00    -0.014 A 
BRANCH  11  12
ATOM     12  C   UNL A   1      42.197  29.280  29.349  1.00  0.00     0.031 A 
ATOM     13  C   UNL A   1      43.316  30.255  29.201  1.00  0.00     0.074 A 
ATOM     14  C   UNL A   1      42.353  27.993  28.996  1.00  0.00     0.049 A 
ATOM     15  N   UNL A   1      44.535  30.040  28.789  1.00  0.00    -0.248 NA
ATOM     16  C   UNL A   1      43.023  31.652  29.555  1.00  0.00     0.031 C 
ATOM     17  C   UNL A   1      41.293  27.003  29.073  1.00  0.00     0.029 A 
ATOM     18  N   UNL A   1      43.423  27.292  28.508  1.00  0.00    -0.354 N 
ATOM     19  C   UNL A   1      45.156  31.279  28.818  1.00  0.00     0.074 A 
ATOM     20  C   UNL A   1      44.176  32.240  29.276  1.00  0.00     0.031 C 
ATOM     21  C   UNL A   1      41.746  25.820  28.633  1.00  0.00     0.029 A 
ATOM     22  C   UNL A   1      43.142  25.969  28.248  1.00  0.00     0.049 A 
ATOM     23  H   UNL A   1      44.309  27.695  28.358  1.00  0.00     0.167 HD
ATOM     24  C   UNL A   1      46.428  31.581  28.474  1.00  0.00     0.031 A 
ATOM     25  C   UNL A   1      43.918  24.990  27.744  1.00  0.00     0.031 A 
ATOM     26  C   UNL A   1      47.362  30.614  27.964  1.00  0.00     0.049 A 
ATOM     27  C   UNL A   1      45.357  25.331  27.456  1.00  0.00     0.074 A 
ATOM     28  C   UNL A   1      48.657  30.812  27.526  1.00  0.00     0.029 A 
ATOM     29  N   UNL A   1      47.086  29.260  27.813  1.00  0.00    -0.354 N 
ATOM     30  N   UNL A   1      45.951  26.500  27.552  1.00  0.00    -0.248 NA
ATOM     31  C   UNL A   1      46.237  24.243  27.014  1.00  0.00     0.031 C 
ATOM     32  C   UNL A   1      49.151  29.583  27.070  1.00  0.00     0.029 A 
ATOM     33  C   UNL A   1      48.183  28.610  27.277  1.00  0.00     0.049 A 
ATOM     34  H   UNL A   1      46.235  28.828  28.053  1.00  0.00     0.167 HD
ATOM     35  C   UNL A   1      47.268  26.293  27.163  1.00  0.00     0.074 A 
ATOM     36  C   UNL A   1      47.398  24.874  26.891  1.00  0.00     0.031 C 
ATOM     37  C   UNL A   1      48.271  27.193  27.013  1.00  0.00     0.031 A 
BRANCH  24  38
ATOM     38  C   UNL A   1      46.818  33.028  28.570  1.00  0.00    -0.014 A 
ATOM     39  C   UNL A   1      46.622  33.908  27.490  1.00  0.00     0.010 A 
ATOM     40  C   UNL A   1      47.463  33.495  29.728  1.00  0.00     0.010 A 
ATOM     41  C   UNL A   1      47.121  35.213  27.543  1.00  0.00     0.020 A 
ATOM     42  C   UNL A   1      47.941  34.806  29.796  1.00  0.00     0.020 A 
ATOM     43  C   UNL A   1      47.790  35.647  28.691  1.00  0.00     0.054 A 
BRANCH  43  44
ATOM     44  S   UNL A   1      48.465  37.330  28.722  1.00  0.00     0.124 S 
ATOM     45  O   UNL A   1      49.810  37.124  28.189  1.00  0.00    -0.237 OA
ATOM     46  O   UNL A   1      47.550  38.060  27.848  1.00  0.00    -0.237 OA
ATOM     47  O   UNL A   1      48.404  37.702  30.134  1.00  0.00    -0.744 OA
ENDBRANCH  43  44
ENDBRANCH  24  38
BRANCH  25  48
ATOM     48  C   UNL A   1      43.328  23.658  27.411  1.00  0.00    -0.014 A 
ATOM     49  C   UNL A   1      42.990  22.706  28.387  1.00  0.00     0.010 A 
ATOM     50  C   UNL A   1      43.115  23.328  26.058  1.00  0.00     0.010 A 
ATOM     51  C   UNL A   1      42.525  21.433  28.014  1.00  0.00     0.020 A 
ATOM     52  C   UNL A   1      42.607  22.081  25.684  1.00  0.00     0.020 A 
ATOM     53  C   UNL A   1      42.339  21.126  26.661  1.00  0.00     0.054 A 
BRANCH  53  54
ATOM     54  S   UNL A   1      41.894  19.440  26.145  1.00  0.00     0.124 S 
ATOM     55  O   UNL A   1      40.450  19.526  25.942  1.00  0.00    -0.237 OA
ATOM     56  O   UNL A   1      42.685  19.249  24.935  1.00  0.00    -0.237 OA
ATOM     57  O   UNL A   1      42.304  18.614  27.277  1.00  0.00    -0.744 OA
ENDBRANCH  53  54
ENDBRANCH  25  48
BRANCH  37  58
ATOM     58  C   UNL A   1      49.588  26.671  26.510  1.00  0.00    -0.014 A 
ATOM     59  C   UNL A   1      49.937  26.793  25.152  1.00  0.00     0.010 A 
ATOM     60  C   UNL A   1      50.517  26.128  27.415  1.00  0.00     0.010 A 
ATOM     61  C   UNL A   1      51.186  26.359  24.705  1.00  0.00     0.020 A 
ATOM     62  C   UNL A   1      51.776  25.717  26.975  1.00  0.00     0.020 A 
ATOM     63  C   UNL A   1      52.099  25.827  25.621  1.00  0.00     0.054 A 
BRANCH  63  64
ATOM     64  S   UNL A   1      53.739  25.329  25.026  1.00  0.00     0.124 S 
ATOM     65  O   UNL A   1      53.674  25.698  23.615  1.00  0.00    -0.237 OA
ATOM     66  O   UNL A   1      54.636  26.139  25.848  1.00  0.00    -0.237 OA
ATOM     67  O   UNL A   1      53.783  23.894  25.296  1.00  0.00    -0.744 OA
ENDBRANCH  63  64
ENDBRANCH  37  58
ENDBRANCH  11  12
ENDBRANCH   4   6
ENDBRANCH   3   4
ENDBRANCH   2   3
ENDBRANCH   1   2
BRANCH   1  68
ATOM     68  O   UNL A   1      34.773  32.290  29.689  1.00  0.00    -0.458 OA
BRANCH  68  69
ATOM     69  C   UNL A   1      34.947  31.763  28.442  1.00  0.00     0.340 C 
ATOM     70  O   UNL A   1      35.959  31.250  28.014  1.00  0.00    -0.246 OA
BRANCH  69  71
ATOM     71  C   UNL A   1      33.671  31.787  27.686  1.00  0.00     0.083 A 
ATOM     72  C   UNL A   1      33.038  33.039  27.605  1.00  0.00     0.018 A 
ATOM     73  C   UNL A   1      33.106  30.643  27.085  1.00  0.00     0.055 A 
ATOM     74  C   UNL A   1      31.825  33.168  26.937  1.00  0.00     0.001 A 
ATOM     75  C   UNL A   1      31.815  30.778  26.546  1.00  0.00     0.027 A 
ATOM     76  C   UNL A   1      31.202  32.033  26.433  1.00  0.00     0.002 A 
BRANCH  73  77
ATOM     77  N   UNL A   1      33.819  29.422  27.021  1.00  0.00    -0.323 N 
ATOM     78  H   UNL A   1      34.458  29.265  27.753  1.00  0.00     0.170 HD
BRANCH  77  79
ATOM     79  C   UNL A   1      33.743  28.408  26.059  1.00  0.00     0.233 A 
ATOM     80  N   UNL A   1      33.948  28.791  24.812  1.00  0.00    -0.182 NA
ATOM     81  N   UNL A   1      33.543  27.145  26.426  1.00  0.00    -0.176 NA
ATOM     82  C   UNL A   1      33.825  27.807  23.933  1.00  0.00     0.228 A 
ATOM     83  C   UNL A   1      33.566  26.222  25.458  1.00  0.00     0.233 A 
ATOM     84  Cl  UNL A   1      33.917  28.259  22.288  1.00  0.00    -0.041 Cl
ATOM     85  N   UNL A   1      33.675  26.519  24.176  1.00  0.00    -0.182 NA
BRANCH  83  86
ATOM     86  N   UNL A   1      33.484  24.901  25.889  1.00  0.00    -0.324 N 
ATOM     87  H   UNL A   1      33.735  24.790  26.834  1.00  0.00     0.170 HD
BRANCH  86  88
ATOM     88  C   UNL A   1      33.122  23.695  25.274  1.00  0.00     0.041 A 
ATOM     89  C   UNL A   1      34.118  22.981  24.598  1.00  0.00     0.028 A 
ATOM     90  C   UNL A   1      31.852  23.114  25.343  1.00  0.00     0.028 A 
ATOM     91  C   UNL A   1      33.890  21.689  24.116  1.00  0.00     0.028 A 
ATOM     92  C   UNL A   1      31.608  21.825  24.829  1.00  0.00     0.028 A 
ATOM     93  C   UNL A   1      32.647  21.079  24.268  1.00  0.00     0.044 A 
BRANCH  93  94
ATOM     94  N   UNL A   1      32.510  19.679  24.027  1.00  0.00    -0.308 N 
ATOM     95  C   UNL A   1      32.453  19.304  22.599  1.00  0.00     0.154 C 
ATOM     96  C   UNL A   1      32.849  18.729  24.987  1.00  0.00     0.253 C 
ATOM     97  C   UNL A   1      32.164  17.833  22.335  1.00  0.00     0.183 C 
ATOM     98  C   UNL A   1      32.779  17.268  24.507  1.00  0.00     0.260 C 
ATOM     99  O   UNL A   1      33.071  18.973  26.175  1.00  0.00    -0.272 OA
ATOM    100  O   UNL A   1      33.010  17.007  23.135  1.00  0.00    -0.370 OA
ENDBRANCH  93  94
ENDBRANCH  86  88
ENDBRANCH  83  86
ENDBRANCH  77  79
ENDBRANCH  73  77
ENDBRANCH  69  71
ENDBRANCH  68  69
ENDBRANCH   1  68
TORSDOF 19
ENDMDL
MODEL 3
REMARK VINA RESULT:     -11.2      2.462      3.569
REMARK SMILES O=C(OCCOC(=O)c1ccccc1Nc1nc(Cl)nc(Nc2ccc(N3CCOCC3=O)cc2)n1)c1ccc(-c2c3nc(c(-c4ccc(S(=O)(=O)[O-])cc4)c4ccc([nH]4)c(-c4ccc(S(=O)(=O)[O-])cc4)c4nc(c(-c5ccc(S(=O)(=O)[O-])cc5)c5ccc2[nH]5)C=C4)C=C3)cc1
REMARK SMILES IDX 5 1 4 2 3 3 2 4 1 5 37 6 38 7 96 8 39 9 95 10 40 11 41 12
REMARK SMILES IDX 42 13 89 14 43 15 94 16 88 17 90 18 44 19 93 20 87 21 86 22
REMARK SMILES IDX 45 24 75 25 56 26 74 27 57 28 60 29 73 30 91 31 58 32 59 33
REMARK SMILES IDX 72 35 92 36 61 37 46 38 47 39 55 40 48 41 54 42 49 43 50 44
REMARK SMILES IDX 51 45 52 46 53 47 76 48 77 49 85 50 78 51 84 52 79 53 80 54
REMARK SMILES IDX 81 55 82 56 83 57 62 58 63 59 71 60 64 61 70 62 65 63 66 64
REMARK SMILES IDX 67 65 68 66 69 67 6 68 7 69 8 70 9 71 10 72 14 73 11 74
REMARK SMILES IDX 13 75 12 76 15 77 16 79 17 80 36 81 18 82 21 83 19 84 20 85
REMARK SMILES IDX 22 86 23 88 24 89 35 90 25 91 34 92 26 93 27 94 28 95 32 96
REMARK SMILES IDX 29 97 31 98 33 99 30 100
REMARK H PARENT 90 23 60 34 15 78 22 87
REMARK Flexibility Score: inf
ROOT
ATOM      1  C   UNL A   1      37.956  19.809  25.180  1.00  0.00     0.275 C 
ENDROOT
BRANCH   1   2
ATOM      2  C   UNL A   1      38.996  20.923  25.335  1.00  0.00     0.275 C 
BRANCH   2   3
ATOM      3  O   UNL A   1      38.617  21.942  26.276  1.00  0.00    -0.458 OA
BRANCH   3   4
ATOM      4  C   UNL A   1      38.331  23.252  26.100  1.00  0.00     0.338 C 
ATOM      5  O   UNL A   1      37.501  23.547  25.239  1.00  0.00    -0.246 OA
BRANCH   4   6
ATOM      6  C   UNL A   1      39.018  24.387  26.809  1.00  0.00     0.060 A 
ATOM      7  C   UNL A   1      38.932  24.694  28.169  1.00  0.00     0.016 A 
ATOM      8  C   UNL A   1      39.829  25.219  26.007  1.00  0.00     0.016 A 
ATOM      9  C   UNL A   1      39.635  25.770  28.716  1.00  0.00     0.010 A 
ATOM     10  C   UNL A   1      40.537  26.299  26.547  1.00  0.00     0.010 A 
ATOM     11  C   UNL A   1      40.430  26.586  27.908  1.00  0.00    -0.014 A 
BRANCH  11  12
ATOM     12  C   UNL A   1      41.056  27.781  28.511  1.00  0.00     0.031 A 
ATOM     13  C   UNL A   1      42.544  27.880  28.536  1.00  0.00     0.074 A 
ATOM     14  C   UNL A   1      40.291  28.785  28.973  1.00  0.00     0.049 A 
ATOM     15  N   UNL A   1      43.288  28.877  28.927  1.00  0.00    -0.248 NA
ATOM     16  C   UNL A   1      43.289  26.701  28.068  1.00  0.00     0.031 C 
ATOM     17  C   UNL A   1      38.840  28.736  29.017  1.00  0.00     0.029 A 
ATOM     18  N   UNL A   1      40.595  30.017  29.487  1.00  0.00    -0.354 N 
ATOM     19  C   UNL A   1      44.595  28.444  28.769  1.00  0.00     0.074 A 
ATOM     20  C   UNL A   1      44.541  27.091  28.257  1.00  0.00     0.031 C 
ATOM     21  C   UNL A   1      38.365  29.873  29.547  1.00  0.00     0.029 A 
ATOM     22  C   UNL A   1      39.488  30.739  29.874  1.00  0.00     0.049 A 
ATOM     23  H   UNL A   1      41.516  30.353  29.574  1.00  0.00     0.167 HD
ATOM     24  C   UNL A   1      45.734  29.117  29.044  1.00  0.00     0.031 A 
ATOM     25  C   UNL A   1      39.390  31.959  30.438  1.00  0.00     0.031 A 
ATOM     26  C   UNL A   1      45.757  30.439  29.609  1.00  0.00     0.049 A 
ATOM     27  C   UNL A   1      40.670  32.725  30.650  1.00  0.00     0.074 A 
ATOM     28  C   UNL A   1      46.847  31.198  29.987  1.00  0.00     0.029 A 
ATOM     29  N   UNL A   1      44.623  31.192  29.889  1.00  0.00    -0.354 N 
ATOM     30  N   UNL A   1      41.903  32.325  30.431  1.00  0.00    -0.248 NA
ATOM     31  C   UNL A   1      40.563  34.097  31.159  1.00  0.00     0.031 C 
ATOM     32  C   UNL A   1      46.371  32.395  30.535  1.00  0.00     0.029 A 
ATOM     33  C   UNL A   1      44.986  32.405  30.446  1.00  0.00     0.049 A 
ATOM     34  H   UNL A   1      43.698  30.905  29.716  1.00  0.00     0.167 HD
ATOM     35  C   UNL A   1      42.720  33.387  30.796  1.00  0.00     0.074 A 
ATOM     36  C   UNL A   1      41.837  34.468  31.189  1.00  0.00     0.031 C 
ATOM     37  C   UNL A   1      44.074  33.456  30.833  1.00  0.00     0.031 A 
BRANCH  24  38
ATOM     38  C   UNL A   1      47.019  28.376  28.807  1.00  0.00    -0.014 A 
ATOM     39  C   UNL A   1      47.741  28.537  27.609  1.00  0.00     0.010 A 
ATOM     40  C   UNL A   1      47.468  27.446  29.760  1.00  0.00     0.010 A 
ATOM     41  C   UNL A   1      48.854  27.734  27.344  1.00  0.00     0.020 A 
ATOM     42  C   UNL A   1      48.595  26.659  29.509  1.00  0.00     0.020 A 
ATOM     43  C   UNL A   1      49.264  26.790  28.291  1.00  0.00     0.054 A 
BRANCH  43  44
ATOM     44  S   UNL A   1      50.686  25.733  27.907  1.00  0.00     0.124 S 
ATOM     45  O   UNL A   1      51.009  26.148  26.544  1.00  0.00    -0.237 OA
ATOM     46  O   UNL A   1      51.659  26.118  28.926  1.00  0.00    -0.237 OA
ATOM     47  O   UNL A   1      50.155  24.378  28.037  1.00  0.00    -0.744 OA
ENDBRANCH  43  44
ENDBRANCH  24  38
BRANCH  25  48
ATOM     48  C   UNL A   1      38.065  32.467  30.907  1.00  0.00    -0.014 A 
ATOM     49  C   UNL A   1      37.354  33.478  30.240  1.00  0.00     0.010 A 
ATOM     50  C   UNL A   1      37.506  31.925  32.082  1.00  0.00     0.010 A 
ATOM     51  C   UNL A   1      36.157  33.984  30.775  1.00  0.00     0.020 A 
ATOM     52  C   UNL A   1      36.291  32.390  32.592  1.00  0.00     0.020 A 
ATOM     53  C   UNL A   1      35.633  33.438  31.953  1.00  0.00     0.054 A 
BRANCH  53  54
ATOM     54  S   UNL A   1      34.177  34.178  32.751  1.00  0.00     0.124 S 
ATOM     55  O   UNL A   1      34.761  35.020  33.793  1.00  0.00    -0.237 OA
ATOM     56  O   UNL A   1      33.533  34.896  31.657  1.00  0.00    -0.237 OA
ATOM     57  O   UNL A   1      33.431  33.024  33.245  1.00  0.00    -0.744 OA
ENDBRANCH  53  54
ENDBRANCH  25  48
BRANCH  37  58
ATOM     58  C   UNL A   1      44.679  34.736  31.339  1.00  0.00    -0.014 A 
ATOM     59  C   UNL A   1      44.957  35.796  30.457  1.00  0.00     0.010 A 
ATOM     60  C   UNL A   1      44.897  34.910  32.717  1.00  0.00     0.010 A 
ATOM     61  C   UNL A   1      45.463  37.002  30.943  1.00  0.00     0.020 A 
ATOM     62  C   UNL A   1      45.380  36.123  33.209  1.00  0.00     0.020 A 
ATOM     63  C   UNL A   1      45.669  37.159  32.317  1.00  0.00     0.054 A 
BRANCH  63  64
ATOM     64  S   UNL A   1      46.268  38.757  32.931  1.00  0.00     0.124 S 
ATOM     65  O   UNL A   1      45.206  39.663  32.505  1.00  0.00    -0.237 OA
ATOM     66  O   UNL A   1      46.362  38.532  34.372  1.00  0.00    -0.237 OA
ATOM     67  O   UNL A   1      47.549  38.931  32.250  1.00  0.00    -0.744 OA
ENDBRANCH  63  64
ENDBRANCH  37  58
ENDBRANCH  11  12
ENDBRANCH   4   6
ENDBRANCH   3   4
ENDBRANCH   2   3
ENDBRANCH   1   2
BRANCH   1  68
ATOM     68  O   UNL A   1      36.780  20.228  24.471  1.00  0.00    -0.458 OA
BRANCH  68  69
ATOM     69  C   UNL A   1      35.646  20.264  25.229  1.00  0.00     0.340 C 
ATOM     70  O   UNL A   1      35.402  21.051  26.118  1.00  0.00    -0.246 OA
BRANCH  69  71
ATOM     71  C   UNL A   1      34.664  19.267  24.740  1.00  0.00     0.083 A 
ATOM     72  C   UNL A   1      35.201  18.030  24.343  1.00  0.00     0.018 A 
ATOM     73  C   UNL A   1      33.277  19.518  24.663  1.00  0.00     0.055 A 
ATOM     74  C   UNL A   1      34.369  17.032  23.849  1.00  0.00     0.001 A 
ATOM     75  C   UNL A   1      32.487  18.547  24.027  1.00  0.00     0.027 A 
ATOM     76  C   UNL A   1      33.018  17.301  23.665  1.00  0.00     0.002 A 
BRANCH  73  77
ATOM     77  N   UNL A   1      32.716  20.694  25.216  1.00  0.00    -0.323 N 
ATOM     78  H   UNL A   1      32.349  20.603  26.125  1.00  0.00     0.170 HD
BRANCH  77  79
ATOM     79  C   UNL A   1      32.609  21.969  24.649  1.00  0.00     0.233 A 
ATOM     80  N   UNL A   1      32.813  22.030  23.345  1.00  0.00    -0.182 NA
ATOM     81  N   UNL A   1      32.258  23.013  25.396  1.00  0.00    -0.176 NA
ATOM     82  C   UNL A   1      32.744  23.260  22.859  1.00  0.00     0.228 A 
ATOM     83  C   UNL A   1      32.096  24.182  24.766  1.00  0.00     0.233 A 
ATOM     84  Cl  UNL A   1      33.155  23.437  21.211  1.00  0.00    -0.041 Cl
ATOM     85  N   UNL A   1      32.363  24.357  23.485  1.00  0.00    -0.182 NA
BRANCH  83  86
ATOM     86  N   UNL A   1      31.603  25.219  25.551  1.00  0.00    -0.324 N 
ATOM     87  H   UNL A   1      30.806  24.965  26.069  1.00  0.00     0.170 HD
BRANCH  86  88
ATOM     88  C   UNL A   1      31.992  26.548  25.767  1.00  0.00     0.041 A 
ATOM     89  C   UNL A   1      31.283  27.292  26.716  1.00  0.00     0.028 A 
ATOM     90  C   UNL A   1      33.085  27.169  25.153  1.00  0.00     0.028 A 
ATOM     91  C   UNL A   1      31.717  28.557  27.125  1.00  0.00     0.028 A 
ATOM     92  C   UNL A   1      33.507  28.457  25.537  1.00  0.00     0.028 A 
ATOM     93  C   UNL A   1      32.859  29.133  26.573  1.00  0.00     0.044 A 
BRANCH  93  94
ATOM     94  N   UNL A   1      33.441  30.282  27.189  1.00  0.00    -0.308 N 
ATOM     95  C   UNL A   1      34.892  30.173  27.445  1.00  0.00     0.154 C 
ATOM     96  C   UNL A   1      32.830  31.533  27.143  1.00  0.00     0.253 C 
ATOM     97  C   UNL A   1      35.491  31.332  28.229  1.00  0.00     0.183 C 
ATOM     98  C   UNL A   1      33.665  32.685  27.729  1.00  0.00     0.260 C 
ATOM     99  O   UNL A   1      31.666  31.738  26.790  1.00  0.00    -0.272 OA
ATOM    100  O   UNL A   1      35.076  32.580  27.673  1.00  0.00    -0.370 OA
ENDBRANCH  93  94
ENDBRANCH  86  88
ENDBRANCH  83  86
ENDBRANCH  77  79
ENDBRANCH  73  77
ENDBRANCH  69  71
ENDBRANCH  68  69
ENDBRANCH   1  68
TORSDOF 19
ENDMDL
