MODEL 1
REMARK VINA RESULT:     -11.5      0.000      0.000
REMARK SMILES Cc1oc2c(C)c3oc(=O)c(CCC(=O)N[C@H](Cc4ccc(Cl)cc4)C(=O)OCCOC(=O)c4ccc(-c5c6nc(c(-c7ccc(S(=O)(=O)[O-])cc7)c7ccc([nH]7)c(-c7ccc(S(=O)(=O)[O-])cc7)c7nc(c(-c8ccc(S(=O)(=O)[O-])cc8)c8ccc5[nH]8)C=C7)C=C6)cc4)c(C)c3cc2c1C
REMARK SMILES IDX 29 1 28 2 26 3 27 4 17 5 16 6 14 7 15 8 13 10 12 11 11 12
REMARK SMILES IDX 1 13 2 14 3 15 99 16 4 17 98 18 100 19 5 20 97 21 6 22 7 23
REMARK SMILES IDX 96 24 8 25 94 26 9 27 95 28 10 29 18 30 19 31 20 32 25 33
REMARK SMILES IDX 21 34 24 35 22 36 23 37 30 38 31 39 32 40 33 41 34 42 35 43
REMARK SMILES IDX 93 44 36 45 92 46 37 47 38 48 39 49 86 50 40 51 91 52 85 53
REMARK SMILES IDX 87 54 41 55 90 56 84 57 83 58 42 60 72 61 53 62 71 63 54 64
REMARK SMILES IDX 57 65 70 66 88 67 55 68 56 69 69 71 89 72 58 73 43 74 44 75
REMARK SMILES IDX 52 76 45 77 51 78 46 79 47 80 48 81 49 82 50 83 73 84 74 85
REMARK SMILES IDX 82 86 75 87 81 88 76 89 77 90 78 91 79 92 80 93 59 94 60 95
REMARK SMILES IDX 68 96 61 97 67 98 62 99 63 100 64 101 65 102 66 103
REMARK H PARENT 16 9 87 59 57 70
REMARK Flexibility Score: inf
ROOT
ATOM      1  C   UNL A   1      41.858  31.050  35.758  1.00  0.00     0.274 C 
ENDROOT
BRANCH   1   2
ATOM      2  O   UNL A   1      41.269  30.942  34.445  1.00  0.00    -0.461 OA
BRANCH   2   3
ATOM      3  C   UNL A   1      40.144  30.193  34.340  1.00  0.00     0.329 C 
ATOM      4  O   UNL A   1      40.164  28.966  34.469  1.00  0.00    -0.250 OA
BRANCH   3   5
ATOM      5  C   UNL A   1      38.776  30.951  33.636  1.00  0.00     0.196 C 
BRANCH   5   6
ATOM      6  N   UNL A   1      39.471  30.716  32.158  1.00  0.00    -0.342 N 
ATOM      7  C   UNL A   1      39.159  31.014  30.865  1.00  0.00     0.221 C 
ATOM      8  O   UNL A   1      39.974  30.765  29.978  1.00  0.00    -0.275 OA
ATOM      9  H   UNL A   1      40.328  30.238  32.229  1.00  0.00     0.164 HD
BRANCH   7  10
ATOM     10  C   UNL A   1      37.812  31.625  30.553  1.00  0.00     0.105 C 
BRANCH  10  11
ATOM     11  C   UNL A   1      37.844  32.431  29.260  1.00  0.00     0.053 C 
BRANCH  11  12
ATOM     12  C   UNL A   1      36.698  31.948  28.440  1.00  0.00     0.042 A 
ATOM     13  C   UNL A   1      30.506  26.870  24.348  1.00  0.00     0.088 C 
ATOM     14  C   UNL A   1      31.515  27.542  25.198  1.00  0.00     0.105 A 
ATOM     15  O   UNL A   1      31.200  28.799  25.594  1.00  0.00    -0.461 OA
ATOM     16  C   UNL A   1      32.761  27.189  25.673  1.00  0.00    -0.002 A 
ATOM     17  C   UNL A   1      32.246  29.320  26.297  1.00  0.00     0.141 A 
ATOM     18  C   UNL A   1      33.287  28.356  26.340  1.00  0.00     0.025 A 
ATOM     19  C   UNL A   1      33.464  25.896  25.484  1.00  0.00     0.049 C 
ATOM     20  C   UNL A   1      32.203  30.645  26.797  1.00  0.00     0.036 A 
ATOM     21  C   UNL A   1      34.594  28.601  26.886  1.00  0.00     0.024 A 
ATOM     22  C   UNL A   1      31.181  31.669  26.503  1.00  0.00     0.052 C 
ATOM     23  C   UNL A   1      33.424  30.892  27.354  1.00  0.00     0.145 A 
ATOM     24  C   UNL A   1      34.811  29.865  27.370  1.00  0.00     0.022 A 
ATOM     25  O   UNL A   1      33.732  32.585  27.984  1.00  0.00    -0.422 OA
ATOM     26  C   UNL A   1      36.482  30.491  27.935  1.00  0.00    -0.030 A 
ATOM     27  C   UNL A   1      35.300  33.294  28.514  1.00  0.00     0.339 A 
ATOM     28  C   UNL A   1      37.518  29.408  27.954  1.00  0.00     0.046 C 
ATOM     29  O   UNL A   1      35.457  34.483  28.748  1.00  0.00    -0.246 OA
ENDBRANCH  11  12
ENDBRANCH  10  11
ENDBRANCH   7  10
ENDBRANCH   5   6
BRANCH   5  30
ATOM     30  C   UNL A   1      37.321  32.422  34.347  1.00  0.00     0.072 C 
BRANCH  30  31
ATOM     31  C   UNL A   1      36.000  33.276  33.678  1.00  0.00    -0.045 A 
ATOM     32  C   UNL A   1      35.672  34.544  34.221  1.00  0.00     0.005 A 
ATOM     33  C   UNL A   1      35.223  32.776  32.618  1.00  0.00     0.005 A 
ATOM     34  C   UNL A   1      34.691  35.342  33.628  1.00  0.00     0.021 A 
ATOM     35  C   UNL A   1      34.232  33.579  32.038  1.00  0.00     0.021 A 
ATOM     36  C   UNL A   1      33.988  34.862  32.528  1.00  0.00     0.041 A 
ATOM     37  Cl  UNL A   1      32.840  35.877  31.749  1.00  0.00    -0.084 Cl
ENDBRANCH  30  31
ENDBRANCH   5  30
ENDBRANCH   3   5
ENDBRANCH   2   3
ENDBRANCH   1   2
BRANCH   1  38
ATOM     38  C   UNL A   1      43.388  31.116  35.754  1.00  0.00     0.275 C 
BRANCH  38  39
ATOM     39  O   UNL A   1      43.929  31.340  37.071  1.00  0.00    -0.458 OA
BRANCH  39  40
ATOM     40  C   UNL A   1      45.248  31.058  37.165  1.00  0.00     0.338 C 
ATOM     41  O   UNL A   1      46.159  31.873  37.137  1.00  0.00    -0.246 OA
BRANCH  40  42
ATOM     42  C   UNL A   1      45.520  29.611  37.271  1.00  0.00     0.060 A 
ATOM     43  C   UNL A   1      46.065  28.850  36.225  1.00  0.00     0.016 A 
ATOM     44  C   UNL A   1      44.966  28.973  38.374  1.00  0.00     0.016 A 
ATOM     45  C   UNL A   1      45.997  27.443  36.259  1.00  0.00     0.010 A 
ATOM     46  C   UNL A   1      44.904  27.582  38.404  1.00  0.00     0.010 A 
ATOM     47  C   UNL A   1      45.395  26.790  37.342  1.00  0.00    -0.014 A 
BRANCH  47  48
ATOM     48  C   UNL A   1      45.336  25.291  37.425  1.00  0.00     0.031 A 
ATOM     49  C   UNL A   1      44.875  24.725  36.121  1.00  0.00     0.074 A 
ATOM     50  C   UNL A   1      46.301  24.491  37.950  1.00  0.00     0.049 A 
ATOM     51  N   UNL A   1      45.740  24.534  35.167  1.00  0.00    -0.248 NA
ATOM     52  C   UNL A   1      43.484  24.769  35.680  1.00  0.00     0.031 C 
ATOM     53  C   UNL A   1      47.707  24.891  38.046  1.00  0.00     0.029 A 
ATOM     54  N   UNL A   1      46.341  23.108  38.109  1.00  0.00    -0.354 N 
ATOM     55  C   UNL A   1      45.048  24.703  33.994  1.00  0.00     0.074 A 
ATOM     56  C   UNL A   1      43.641  24.713  34.349  1.00  0.00     0.031 C 
ATOM     57  C   UNL A   1      48.484  23.796  38.053  1.00  0.00     0.029 A 
ATOM     58  C   UNL A   1      47.640  22.613  38.078  1.00  0.00     0.049 A 
ATOM     59  H   UNL A   1      45.542  22.547  38.229  1.00  0.00     0.167 HD
ATOM     60  C   UNL A   1      45.659  24.997  32.817  1.00  0.00     0.031 A 
ATOM     61  C   UNL A   1      48.052  21.358  37.766  1.00  0.00     0.031 A 
ATOM     62  C   UNL A   1      47.099  25.137  32.740  1.00  0.00     0.049 A 
ATOM     63  C   UNL A   1      48.527  21.479  36.346  1.00  0.00     0.074 A 
ATOM     64  C   UNL A   1      47.999  25.663  31.828  1.00  0.00     0.029 A 
ATOM     65  N   UNL A   1      47.887  24.666  33.762  1.00  0.00    -0.354 N 
ATOM     66  N   UNL A   1      49.672  21.949  35.926  1.00  0.00    -0.248 NA
ATOM     67  C   UNL A   1      47.507  21.310  35.295  1.00  0.00     0.031 C 
ATOM     68  C   UNL A   1      49.309  25.220  32.203  1.00  0.00     0.029 A 
ATOM     69  C   UNL A   1      49.165  24.407  33.309  1.00  0.00     0.049 A 
ATOM     70  H   UNL A   1      47.584  24.533  34.690  1.00  0.00     0.167 HD
ATOM     71  C   UNL A   1      49.390  22.429  34.654  1.00  0.00     0.074 A 
ATOM     72  C   UNL A   1      48.114  21.873  34.259  1.00  0.00     0.031 C 
ATOM     73  C   UNL A   1      49.986  23.525  34.105  1.00  0.00     0.031 A 
BRANCH  60  74
ATOM     74  C   UNL A   1      44.842  25.044  31.587  1.00  0.00    -0.014 A 
ATOM     75  C   UNL A   1      44.523  23.811  30.996  1.00  0.00     0.010 A 
ATOM     76  C   UNL A   1      44.429  26.240  30.985  1.00  0.00     0.010 A 
ATOM     77  C   UNL A   1      43.800  23.765  29.810  1.00  0.00     0.020 A 
ATOM     78  C   UNL A   1      43.699  26.198  29.793  1.00  0.00     0.020 A 
ATOM     79  C   UNL A   1      43.394  24.960  29.214  1.00  0.00     0.054 A 
BRANCH  79  80
ATOM     80  S   UNL A   1      42.469  24.855  27.660  1.00  0.00     0.124 S 
ATOM     81  O   UNL A   1      42.470  26.241  27.202  1.00  0.00    -0.237 OA
ATOM     82  O   UNL A   1      43.287  23.930  26.878  1.00  0.00    -0.237 OA
ATOM     83  O   UNL A   1      41.166  24.336  28.068  1.00  0.00    -0.744 OA
ENDBRANCH  79  80
ENDBRANCH  60  74
BRANCH  61  84
ATOM     84  C   UNL A   1      47.310  20.184  38.297  1.00  0.00    -0.014 A 
ATOM     85  C   UNL A   1      47.633  19.754  39.603  1.00  0.00     0.010 A 
ATOM     86  C   UNL A   1      46.366  19.436  37.579  1.00  0.00     0.010 A 
ATOM     87  C   UNL A   1      46.965  18.685  40.205  1.00  0.00     0.020 A 
ATOM     88  C   UNL A   1      45.670  18.379  38.184  1.00  0.00     0.020 A 
ATOM     89  C   UNL A   1      45.963  18.022  39.499  1.00  0.00     0.054 A 
BRANCH  89  90
ATOM     90  S   UNL A   1      45.007  16.737  40.347  1.00  0.00     0.124 S 
ATOM     91  O   UNL A   1      44.674  15.828  39.256  1.00  0.00    -0.237 OA
ATOM     92  O   UNL A   1      45.970  16.227  41.321  1.00  0.00    -0.237 OA
ATOM     93  O   UNL A   1      43.882  17.470  40.921  1.00  0.00    -0.744 OA
ENDBRANCH  89  90
ENDBRANCH  61  84
BRANCH  73  94
ATOM     94  C   UNL A   1      51.413  23.802  34.428  1.00  0.00    -0.014 A 
ATOM     95  C   UNL A   1      51.722  24.811  35.361  1.00  0.00     0.010 A 
ATOM     96  C   UNL A   1      52.460  23.017  33.917  1.00  0.00     0.010 A 
ATOM     97  C   UNL A   1      53.035  25.028  35.781  1.00  0.00     0.020 A 
ATOM     98  C   UNL A   1      53.781  23.232  34.333  1.00  0.00     0.020 A 
ATOM     99  C   UNL A   1      54.059  24.231  35.270  1.00  0.00     0.054 A 
BRANCH  99 100
ATOM    100  S   UNL A   1      55.742  24.500  35.886  1.00  0.00     0.124 S 
ATOM    101  O   UNL A   1      56.372  25.231  34.788  1.00  0.00    -0.237 OA
ATOM    102  O   UNL A   1      55.510  25.279  37.101  1.00  0.00    -0.237 OA
ATOM    103  O   UNL A   1      56.259  23.151  36.110  1.00  0.00    -0.744 OA
ENDBRANCH  99 100
ENDBRANCH  73  94
ENDBRANCH  47  48
ENDBRANCH  40  42
ENDBRANCH  39  40
ENDBRANCH  38  39
ENDBRANCH   1  38
TORSDOF 20
ENDMDL
MODEL 2
REMARK VINA RESULT:     -11.4      8.670     16.392
REMARK SMILES Cc1oc2c(C)c3oc(=O)c(CCC(=O)N[C@H](Cc4ccc(Cl)cc4)C(=O)OCCOC(=O)c4ccc(-c5c6nc(c(-c7ccc(S(=O)(=O)[O-])cc7)c7ccc([nH]7)c(-c7ccc(S(=O)(=O)[O-])cc7)c7nc(c(-c8ccc(S(=O)(=O)[O-])cc8)c8ccc5[nH]8)C=C7)C=C6)cc4)c(C)c3cc2c1C
REMARK SMILES IDX 29 1 28 2 26 3 27 4 17 5 16 6 14 7 15 8 13 10 12 11 11 12
REMARK SMILES IDX 1 13 2 14 3 15 99 16 4 17 98 18 100 19 5 20 97 21 6 22 7 23
REMARK SMILES IDX 96 24 8 25 94 26 9 27 95 28 10 29 18 30 19 31 20 32 25 33
REMARK SMILES IDX 21 34 24 35 22 36 23 37 30 38 31 39 32 40 33 41 34 42 35 43
REMARK SMILES IDX 93 44 36 45 92 46 37 47 38 48 39 49 86 50 40 51 91 52 85 53
REMARK SMILES IDX 87 54 41 55 90 56 84 57 83 58 42 60 72 61 53 62 71 63 54 64
REMARK SMILES IDX 57 65 70 66 88 67 55 68 56 69 69 71 89 72 58 73 43 74 44 75
REMARK SMILES IDX 52 76 45 77 51 78 46 79 47 80 48 81 49 82 50 83 73 84 74 85
REMARK SMILES IDX 82 86 75 87 81 88 76 89 77 90 78 91 79 92 80 93 59 94 60 95
REMARK SMILES IDX 68 96 61 97 67 98 62 99 63 100 64 101 65 102 66 103
REMARK H PARENT 16 9 87 59 57 70
REMARK Flexibility Score: inf
ROOT
ATOM      1  C   UNL A   1      49.934  30.285  30.390  1.00  0.00     0.274 C 
ENDROOT
BRANCH   1   2
ATOM      2  O   UNL A   1      49.030  29.176  30.203  1.00  0.00    -0.461 OA
BRANCH   2   3
ATOM      3  C   UNL A   1      49.200  28.431  29.083  1.00  0.00     0.329 C 
ATOM      4  O   UNL A   1      50.279  28.393  28.485  1.00  0.00    -0.250 OA
BRANCH   3   5
ATOM      5  C   UNL A   1      47.778  27.867  28.308  1.00  0.00     0.196 C 
BRANCH   5   6
ATOM      6  N   UNL A   1      47.451  29.428  27.887  1.00  0.00    -0.342 N 
ATOM      7  C   UNL A   1      46.360  30.245  27.906  1.00  0.00     0.221 C 
ATOM      8  O   UNL A   1      46.489  31.428  27.593  1.00  0.00    -0.275 OA
ATOM      9  H   UNL A   1      48.247  29.886  27.530  1.00  0.00     0.164 HD
BRANCH   7  10
ATOM     10  C   UNL A   1      45.016  29.672  28.293  1.00  0.00     0.105 C 
BRANCH  10  11
ATOM     11  C   UNL A   1      44.150  29.390  27.071  1.00  0.00     0.053 C 
BRANCH  11  12
ATOM     12  C   UNL A   1      44.246  27.925  26.822  1.00  0.00     0.042 A 
ATOM     13  C   UNL A   1      42.478  19.150  25.952  1.00  0.00     0.088 C 
ATOM     14  C   UNL A   1      42.540  20.627  26.029  1.00  0.00     0.105 A 
ATOM     15  O   UNL A   1      43.444  21.215  25.209  1.00  0.00    -0.461 OA
ATOM     16  C   UNL A   1      41.892  21.579  26.789  1.00  0.00    -0.002 A 
ATOM     17  C   UNL A   1      43.448  22.560  25.441  1.00  0.00     0.141 A 
ATOM     18  C   UNL A   1      42.512  22.843  26.471  1.00  0.00     0.025 A 
ATOM     19  C   UNL A   1      40.820  21.355  27.790  1.00  0.00     0.049 C 
ATOM     20  C   UNL A   1      44.335  23.419  24.748  1.00  0.00     0.036 A 
ATOM     21  C   UNL A   1      42.337  24.138  27.070  1.00  0.00     0.024 A 
ATOM     22  C   UNL A   1      45.448  23.017  23.866  1.00  0.00     0.052 C 
ATOM     23  C   UNL A   1      44.163  24.667  25.276  1.00  0.00     0.145 A 
ATOM     24  C   UNL A   1      43.158  25.129  26.600  1.00  0.00     0.022 A 
ATOM     25  O   UNL A   1      45.271  25.994  24.669  1.00  0.00    -0.422 OA
ATOM     26  C   UNL A   1      43.270  26.837  27.359  1.00  0.00    -0.030 A 
ATOM     27  C   UNL A   1      45.480  27.649  25.348  1.00  0.00     0.339 A 
ATOM     28  C   UNL A   1      42.245  27.050  28.431  1.00  0.00     0.046 C 
ATOM     29  O   UNL A   1      46.368  28.412  25.000  1.00  0.00    -0.246 OA
ENDBRANCH  11  12
ENDBRANCH  10  11
ENDBRANCH   7  10
ENDBRANCH   5   6
BRANCH   5  30
ATOM     30  C   UNL A   1      46.480  26.130  28.594  1.00  0.00     0.072 C 
BRANCH  30  31
ATOM     31  C   UNL A   1      45.775  25.320  29.925  1.00  0.00    -0.045 A 
ATOM     32  C   UNL A   1      46.211  25.662  31.230  1.00  0.00     0.005 A 
ATOM     33  C   UNL A   1      44.788  24.329  29.782  1.00  0.00     0.005 A 
ATOM     34  C   UNL A   1      45.578  25.131  32.355  1.00  0.00     0.021 A 
ATOM     35  C   UNL A   1      44.168  23.792  30.918  1.00  0.00     0.021 A 
ATOM     36  C   UNL A   1      44.547  24.211  32.193  1.00  0.00     0.041 A 
ATOM     37  Cl  UNL A   1      43.714  23.622  33.576  1.00  0.00    -0.084 Cl
ENDBRANCH  30  31
ENDBRANCH   5  30
ENDBRANCH   3   5
ENDBRANCH   2   3
ENDBRANCH   1   2
BRANCH   1  38
ATOM     38  C   UNL A   1      49.501  31.572  29.681  1.00  0.00     0.275 C 
BRANCH  38  39
ATOM     39  O   UNL A   1      49.972  32.753  30.358  1.00  0.00    -0.458 OA
BRANCH  39  40
ATOM     40  C   UNL A   1      50.404  33.718  29.516  1.00  0.00     0.338 C 
ATOM     41  O   UNL A   1      51.557  34.111  29.407  1.00  0.00    -0.246 OA
BRANCH  40  42
ATOM     42  C   UNL A   1      49.315  34.320  28.722  1.00  0.00     0.060 A 
ATOM     43  C   UNL A   1      49.376  34.489  27.331  1.00  0.00     0.016 A 
ATOM     44  C   UNL A   1      48.320  34.959  29.452  1.00  0.00     0.016 A 
ATOM     45  C   UNL A   1      48.473  35.352  26.678  1.00  0.00     0.010 A 
ATOM     46  C   UNL A   1      47.428  35.808  28.802  1.00  0.00     0.010 A 
ATOM     47  C   UNL A   1      47.498  36.040  27.411  1.00  0.00    -0.014 A 
BRANCH  47  48
ATOM     48  C   UNL A   1      46.500  36.942  26.742  1.00  0.00     0.031 A 
ATOM     49  C   UNL A   1      45.112  36.455  27.007  1.00  0.00     0.074 A 
ATOM     50  C   UNL A   1      46.517  38.301  26.777  1.00  0.00     0.049 A 
ATOM     51  N   UNL A   1      44.519  36.792  28.115  1.00  0.00    -0.248 NA
ATOM     52  C   UNL A   1      44.534  35.294  26.336  1.00  0.00     0.031 C 
ATOM     53  C   UNL A   1      47.172  39.066  27.840  1.00  0.00     0.029 A 
ATOM     54  N   UNL A   1      45.673  39.230  26.174  1.00  0.00    -0.354 N 
ATOM     55  C   UNL A   1      43.680  35.751  28.424  1.00  0.00     0.074 A 
ATOM     56  C   UNL A   1      43.619  34.913  27.241  1.00  0.00     0.031 C 
ATOM     57  C   UNL A   1      46.588  40.270  27.950  1.00  0.00     0.029 A 
ATOM     58  C   UNL A   1      45.595  40.416  26.897  1.00  0.00     0.049 A 
ATOM     59  H   UNL A   1      45.189  39.067  25.333  1.00  0.00     0.167 HD
ATOM     60  C   UNL A   1      43.214  35.530  29.681  1.00  0.00     0.031 A 
ATOM     61  C   UNL A   1      44.601  41.340  26.889  1.00  0.00     0.031 A 
ATOM     62  C   UNL A   1      43.577  36.409  30.774  1.00  0.00     0.049 A 
ATOM     63  C   UNL A   1      43.819  41.035  28.135  1.00  0.00     0.074 A 
ATOM     64  C   UNL A   1      43.518  36.352  32.156  1.00  0.00     0.029 A 
ATOM     65  N   UNL A   1      44.124  37.641  30.508  1.00  0.00    -0.354 N 
ATOM     66  N   UNL A   1      44.111  41.375  29.362  1.00  0.00    -0.248 NA
ATOM     67  C   UNL A   1      42.757  40.020  28.012  1.00  0.00     0.031 C 
ATOM     68  C   UNL A   1      43.757  37.673  32.658  1.00  0.00     0.029 A 
ATOM     69  C   UNL A   1      43.917  38.502  31.566  1.00  0.00     0.049 A 
ATOM     70  H   UNL A   1      44.599  37.878  29.678  1.00  0.00     0.167 HD
ATOM     71  C   UNL A   1      43.512  40.388  30.134  1.00  0.00     0.074 A 
ATOM     72  C   UNL A   1      42.573  39.689  29.283  1.00  0.00     0.031 C 
ATOM     73  C   UNL A   1      44.030  39.917  31.304  1.00  0.00     0.031 A 
BRANCH  60  74
ATOM     74  C   UNL A   1      42.225  34.455  29.891  1.00  0.00    -0.014 A 
ATOM     75  C   UNL A   1      40.873  34.803  29.740  1.00  0.00     0.010 A 
ATOM     76  C   UNL A   1      42.576  33.151  30.269  1.00  0.00     0.010 A 
ATOM     77  C   UNL A   1      39.874  33.865  29.967  1.00  0.00     0.020 A 
ATOM     78  C   UNL A   1      41.573  32.204  30.497  1.00  0.00     0.020 A 
ATOM     79  C   UNL A   1      40.230  32.570  30.347  1.00  0.00     0.054 A 
BRANCH  79  80
ATOM     80  S   UNL A   1      38.895  31.383  30.651  1.00  0.00     0.124 S 
ATOM     81  O   UNL A   1      38.935  31.235  32.102  1.00  0.00    -0.237 OA
ATOM     82  O   UNL A   1      37.732  32.088  30.118  1.00  0.00    -0.237 OA
ATOM     83  O   UNL A   1      39.304  30.202  29.894  1.00  0.00    -0.744 OA
ENDBRANCH  79  80
ENDBRANCH  60  74
BRANCH  61  84
ATOM     84  C   UNL A   1      43.985  41.749  25.600  1.00  0.00    -0.014 A 
ATOM     85  C   UNL A   1      44.814  42.418  24.672  1.00  0.00     0.010 A 
ATOM     86  C   UNL A   1      42.634  41.581  25.262  1.00  0.00     0.010 A 
ATOM     87  C   UNL A   1      44.339  42.809  23.418  1.00  0.00     0.020 A 
ATOM     88  C   UNL A   1      42.154  41.944  23.997  1.00  0.00     0.020 A 
ATOM     89  C   UNL A   1      43.015  42.540  23.076  1.00  0.00     0.054 A 
BRANCH  89  90
ATOM     90  S   UNL A   1      42.458  42.920  21.394  1.00  0.00     0.124 S 
ATOM     91  O   UNL A   1      43.264  44.089  21.058  1.00  0.00    -0.237 OA
ATOM     92  O   UNL A   1      42.794  41.694  20.673  1.00  0.00    -0.237 OA
ATOM     93  O   UNL A   1      41.028  43.167  21.555  1.00  0.00    -0.744 OA
ENDBRANCH  89  90
ENDBRANCH  61  84
BRANCH  73  94
ATOM     94  C   UNL A   1      44.759  40.861  32.196  1.00  0.00    -0.014 A 
ATOM     95  C   UNL A   1      44.062  41.489  33.247  1.00  0.00     0.010 A 
ATOM     96  C   UNL A   1      46.146  41.064  32.094  1.00  0.00     0.010 A 
ATOM     97  C   UNL A   1      44.726  42.290  34.177  1.00  0.00     0.020 A 
ATOM     98  C   UNL A   1      46.818  41.871  33.024  1.00  0.00     0.020 A 
ATOM     99  C   UNL A   1      46.105  42.471  34.065  1.00  0.00     0.054 A 
BRANCH  99 100
ATOM    100  S   UNL A   1      46.942  43.466  35.327  1.00  0.00     0.124 S 
ATOM    101  O   UNL A   1      47.597  44.504  34.534  1.00  0.00    -0.237 OA
ATOM    102  O   UNL A   1      45.828  43.924  36.155  1.00  0.00    -0.237 OA
ATOM    103  O   UNL A   1      47.847  42.523  35.981  1.00  0.00    -0.744 OA
ENDBRANCH  99 100
ENDBRANCH  73  94
ENDBRANCH  47  48
ENDBRANCH  40  42
ENDBRANCH  39  40
ENDBRANCH  38  39
ENDBRANCH   1  38
TORSDOF 20
ENDMDL
MODEL 3
REMARK VINA RESULT:     -11.2      8.694     16.255
REMARK SMILES Cc1oc2c(C)c3oc(=O)c(CCC(=O)N[C@H](Cc4ccc(Cl)cc4)C(=O)OCCOC(=O)c4ccc(-c5c6nc(c(-c7ccc(S(=O)(=O)[O-])cc7)c7ccc([nH]7)c(-c7ccc(S(=O)(=O)[O-])cc7)c7nc(c(-c8ccc(S(=O)(=O)[O-])cc8)c8ccc5[nH]8)C=C7)C=C6)cc4)c(C)c3cc2c1C
REMARK SMILES IDX 29 1 28 2 26 3 27 4 17 5 16 6 14 7 15 8 13 10 12 11 11 12
REMARK SMILES IDX 1 13 2 14 3 15 99 16 4 17 98 18 100 19 5 20 97 21 6 22 7 23
REMARK SMILES IDX 96 24 8 25 94 26 9 27 95 28 10 29 18 30 19 31 20 32 25 33
REMARK SMILES IDX 21 34 24 35 22 36 23 37 30 38 31 39 32 40 33 41 34 42 35 43
REMARK SMILES IDX 93 44 36 45 92 46 37 47 38 48 39 49 86 50 40 51 91 52 85 53
REMARK SMILES IDX 87 54 41 55 90 56 84 57 83 58 42 60 72 61 53 62 71 63 54 64
REMARK SMILES IDX 57 65 70 66 88 67 55 68 56 69 69 71 89 72 58 73 43 74 44 75
REMARK SMILES IDX 52 76 45 77 51 78 46 79 47 80 48 81 49 82 50 83 73 84 74 85
REMARK SMILES IDX 82 86 75 87 81 88 76 89 77 90 78 91 79 92 80 93 59 94 60 95
REMARK SMILES IDX 68 96 61 97 67 98 62 99 63 100 64 101 65 102 66 103
REMARK H PARENT 16 9 87 59 57 70
REMARK Flexibility Score: inf
ROOT
ATOM      1  C   UNL A   1      49.791  28.787  27.718  1.00  0.00     0.274 C 
ENDROOT
BRANCH   1   2
ATOM      2  O   UNL A   1      48.363  28.587  27.659  1.00  0.00    -0.461 OA
BRANCH   2   3
ATOM      3  C   UNL A   1      47.884  27.922  26.578  1.00  0.00     0.329 C 
ATOM      4  O   UNL A   1      48.601  27.652  25.611  1.00  0.00    -0.250 OA
BRANCH   3   5
ATOM      5  C   UNL A   1      46.178  27.823  26.428  1.00  0.00     0.196 C 
BRANCH   5   6
ATOM      6  N   UNL A   1      46.057  28.791  27.758  1.00  0.00    -0.342 N 
ATOM      7  C   UNL A   1      45.102  29.067  28.690  1.00  0.00     0.221 C 
ATOM      8  O   UNL A   1      45.382  29.798  29.639  1.00  0.00    -0.275 OA
ATOM      9  H   UNL A   1      46.885  29.300  27.917  1.00  0.00     0.164 HD
BRANCH   7  10
ATOM     10  C   UNL A   1      43.718  28.482  28.525  1.00  0.00     0.105 C 
BRANCH  10  11
ATOM     11  C   UNL A   1      43.234  27.808  29.803  1.00  0.00     0.053 C 
BRANCH  11  12
ATOM     12  C   UNL A   1      42.495  26.587  29.376  1.00  0.00     0.042 A 
ATOM     13  C   UNL A   1      36.994  20.789  25.253  1.00  0.00     0.088 C 
ATOM     14  C   UNL A   1      37.908  21.857  25.719  1.00  0.00     0.105 A 
ATOM     15  O   UNL A   1      39.115  21.436  26.166  1.00  0.00    -0.461 OA
ATOM     16  C   UNL A   1      37.803  23.227  25.840  1.00  0.00    -0.002 A 
ATOM     17  C   UNL A   1      39.816  22.509  26.635  1.00  0.00     0.141 A 
ATOM     18  C   UNL A   1      39.011  23.670  26.494  1.00  0.00     0.025 A 
ATOM     19  C   UNL A   1      36.656  24.081  25.445  1.00  0.00     0.049 C 
ATOM     20  C   UNL A   1      41.103  22.350  27.204  1.00  0.00     0.036 A 
ATOM     21  C   UNL A   1      39.369  24.968  26.999  1.00  0.00     0.024 A 
ATOM     22  C   UNL A   1      41.774  21.078  27.535  1.00  0.00     0.052 C 
ATOM     23  C   UNL A   1      41.483  23.579  27.662  1.00  0.00     0.145 A 
ATOM     24  C   UNL A   1      40.564  25.040  27.667  1.00  0.00     0.022 A 
ATOM     25  O   UNL A   1      43.068  23.682  28.575  1.00  0.00    -0.422 OA
ATOM     26  C   UNL A   1      41.149  26.557  28.594  1.00  0.00    -0.030 A 
ATOM     27  C   UNL A   1      43.703  25.074  29.525  1.00  0.00     0.339 A 
ATOM     28  C   UNL A   1      40.245  27.734  28.387  1.00  0.00     0.046 C 
ATOM     29  O   UNL A   1      44.681  25.002  30.253  1.00  0.00    -0.246 OA
ENDBRANCH  11  12
ENDBRANCH  10  11
ENDBRANCH   7  10
ENDBRANCH   5   6
BRANCH   5  30
ATOM     30  C   UNL A   1      44.813  26.346  25.568  1.00  0.00     0.072 C 
BRANCH  30  31
ATOM     31  C   UNL A   1      44.690  24.641  25.550  1.00  0.00    -0.045 A 
ATOM     32  C   UNL A   1      43.675  24.047  24.758  1.00  0.00     0.005 A 
ATOM     33  C   UNL A   1      45.546  23.804  26.288  1.00  0.00     0.005 A 
ATOM     34  C   UNL A   1      43.613  22.661  24.602  1.00  0.00     0.021 A 
ATOM     35  C   UNL A   1      45.467  22.414  26.135  1.00  0.00     0.021 A 
ATOM     36  C   UNL A   1      44.521  21.851  25.277  1.00  0.00     0.041 A 
ATOM     37  Cl  UNL A   1      44.496  20.153  25.018  1.00  0.00    -0.084 Cl
ENDBRANCH  30  31
ENDBRANCH   5  30
ENDBRANCH   3   5
ENDBRANCH   2   3
ENDBRANCH   1   2
BRANCH   1  38
ATOM     38  C   UNL A   1      50.226  30.246  27.547  1.00  0.00     0.275 C 
BRANCH  38  39
ATOM     39  O   UNL A   1      49.157  31.171  27.827  1.00  0.00    -0.458 OA
BRANCH  39  40
ATOM     40  C   UNL A   1      49.559  32.265  28.512  1.00  0.00     0.338 C 
ATOM     41  O   UNL A   1      50.367  32.278  29.431  1.00  0.00    -0.246 OA
BRANCH  40  42
ATOM     42  C   UNL A   1      48.886  33.501  28.069  1.00  0.00     0.060 A 
ATOM     43  C   UNL A   1      48.163  34.338  28.933  1.00  0.00     0.016 A 
ATOM     44  C   UNL A   1      48.778  33.668  26.693  1.00  0.00     0.016 A 
ATOM     45  C   UNL A   1      47.279  35.304  28.412  1.00  0.00     0.010 A 
ATOM     46  C   UNL A   1      47.906  34.627  26.184  1.00  0.00     0.010 A 
ATOM     47  C   UNL A   1      47.124  35.447  27.027  1.00  0.00    -0.014 A 
BRANCH  47  48
ATOM     48  C   UNL A   1      46.216  36.490  26.440  1.00  0.00     0.031 A 
ATOM     49  C   UNL A   1      44.792  36.168  26.761  1.00  0.00     0.074 A 
ATOM     50  C   UNL A   1      46.404  37.834  26.517  1.00  0.00     0.049 A 
ATOM     51  N   UNL A   1      44.299  36.534  27.909  1.00  0.00    -0.248 NA
ATOM     52  C   UNL A   1      44.042  35.114  26.085  1.00  0.00     0.031 C 
ATOM     53  C   UNL A   1      47.200  38.472  27.569  1.00  0.00     0.029 A 
ATOM     54  N   UNL A   1      45.656  38.883  25.988  1.00  0.00    -0.354 N 
ATOM     55  C   UNL A   1      43.352  35.593  28.227  1.00  0.00     0.074 A 
ATOM     56  C   UNL A   1      43.130  34.815  27.023  1.00  0.00     0.031 C 
ATOM     57  C   UNL A   1      46.777  39.733  27.746  1.00  0.00     0.029 A 
ATOM     58  C   UNL A   1      45.762  40.040  26.752  1.00  0.00     0.049 A 
ATOM     59  H   UNL A   1      45.116  38.812  25.169  1.00  0.00     0.167 HD
ATOM     60  C   UNL A   1      42.923  35.384  29.499  1.00  0.00     0.031 A 
ATOM     61  C   UNL A   1      44.891  41.080  26.824  1.00  0.00     0.031 A 
ATOM     62  C   UNL A   1      43.444  36.169  30.599  1.00  0.00     0.049 A 
ATOM     63  C   UNL A   1      44.138  40.827  28.099  1.00  0.00     0.074 A 
ATOM     64  C   UNL A   1      43.444  36.069  31.980  1.00  0.00     0.029 A 
ATOM     65  N   UNL A   1      44.127  37.334  30.344  1.00  0.00    -0.354 N 
ATOM     66  N   UNL A   1      44.528  41.081  29.319  1.00  0.00    -0.248 NA
ATOM     67  C   UNL A   1      42.952  39.956  27.999  1.00  0.00     0.031 C 
ATOM     68  C   UNL A   1      43.869  37.329  32.510  1.00  0.00     0.029 A 
ATOM     69  C   UNL A   1      44.080  38.174  31.438  1.00  0.00     0.049 A 
ATOM     70  H   UNL A   1      44.588  37.542  29.499  1.00  0.00     0.167 HD
ATOM     71  C   UNL A   1      43.848  40.148  30.090  1.00  0.00     0.074 A 
ATOM     72  C   UNL A   1      42.789  39.603  29.267  1.00  0.00     0.031 C 
ATOM     73  C   UNL A   1      44.358  39.573  31.215  1.00  0.00     0.031 A 
BRANCH  60  74
ATOM     74  C   UNL A   1      41.817  34.432  29.726  1.00  0.00    -0.014 A 
ATOM     75  C   UNL A   1      40.517  34.911  29.502  1.00  0.00     0.010 A 
ATOM     76  C   UNL A   1      42.014  33.123  30.187  1.00  0.00     0.010 A 
ATOM     77  C   UNL A   1      39.416  34.097  29.738  1.00  0.00     0.020 A 
ATOM     78  C   UNL A   1      40.909  32.300  30.425  1.00  0.00     0.020 A 
ATOM     79  C   UNL A   1      39.619  32.796  30.201  1.00  0.00     0.054 A 
BRANCH  79  80
ATOM     80  S   UNL A   1      38.155  31.774  30.513  1.00  0.00     0.124 S 
ATOM     81  O   UNL A   1      38.744  30.499  30.910  1.00  0.00    -0.237 OA
ATOM     82  O   UNL A   1      37.483  32.519  31.576  1.00  0.00    -0.237 OA
ATOM     83  O   UNL A   1      37.460  31.765  29.228  1.00  0.00    -0.744 OA
ENDBRANCH  79  80
ENDBRANCH  60  74
BRANCH  61  84
ATOM     84  C   UNL A   1      44.271  41.610  25.582  1.00  0.00    -0.014 A 
ATOM     85  C   UNL A   1      45.128  42.230  24.646  1.00  0.00     0.010 A 
ATOM     86  C   UNL A   1      42.897  41.601  25.300  1.00  0.00     0.010 A 
ATOM     87  C   UNL A   1      44.648  42.726  23.432  1.00  0.00     0.020 A 
ATOM     88  C   UNL A   1      42.408  42.071  24.073  1.00  0.00     0.020 A 
ATOM     89  C   UNL A   1      43.289  42.615  23.140  1.00  0.00     0.054 A 
BRANCH  89  90
ATOM     90  S   UNL A   1      42.708  43.128  21.502  1.00  0.00     0.124 S 
ATOM     91  O   UNL A   1      41.345  43.567  21.781  1.00  0.00    -0.237 OA
ATOM     92  O   UNL A   1      43.653  44.187  21.156  1.00  0.00    -0.237 OA
ATOM     93  O   UNL A   1      42.826  41.912  20.701  1.00  0.00    -0.744 OA
ENDBRANCH  89  90
ENDBRANCH  61  84
BRANCH  73  94
ATOM     94  C   UNL A   1      45.241  40.385  32.098  1.00  0.00    -0.014 A 
ATOM     95  C   UNL A   1      46.539  40.709  31.658  1.00  0.00     0.010 A 
ATOM     96  C   UNL A   1      44.785  40.935  33.307  1.00  0.00     0.010 A 
ATOM     97  C   UNL A   1      47.360  41.562  32.397  1.00  0.00     0.020 A 
ATOM     98  C   UNL A   1      45.606  41.790  34.056  1.00  0.00     0.020 A 
ATOM     99  C   UNL A   1      46.885  42.106  33.590  1.00  0.00     0.054 A 
BRANCH  99 100
ATOM    100  S   UNL A   1      47.955  43.259  34.490  1.00  0.00     0.124 S 
ATOM    101  O   UNL A   1      47.858  42.778  35.867  1.00  0.00    -0.237 OA
ATOM    102  O   UNL A   1      49.251  43.052  33.847  1.00  0.00    -0.237 OA
ATOM    103  O   UNL A   1      47.351  44.568  34.247  1.00  0.00    -0.744 OA
ENDBRANCH  99 100
ENDBRANCH  73  94
ENDBRANCH  47  48
ENDBRANCH  40  42
ENDBRANCH  39  40
ENDBRANCH  38  39
ENDBRANCH   1  38
TORSDOF 20
ENDMDL
