MODEL 1
REMARK VINA RESULT:     -10.5      0.000      0.000
REMARK SMILES CCOc1ccc(-c2ccc(=O)n(CC(=O)OCCOC(=O)c3ccc(-c4c5nc(c(-c6ccc(S(=O)(=O)[O-])cc6)c6ccc([nH]6)c(-c6ccc(S(=O)(=O)[O-])cc6)c6nc(c(-c7ccc(S(=O)(=O)[O-])cc7)c7ccc4[nH]7)C=C6)C=C5)cc3)n2)cc1
REMARK SMILES IDX 18 1 17 2 15 3 16 4 14 5 13 6 8 7 9 8 83 9 10 10 11 11 12 12
REMARK SMILES IDX 7 13 4 14 5 15 85 16 6 17 84 18 3 19 2 20 1 21 19 22 20 23
REMARK SMILES IDX 21 24 22 25 23 26 24 27 82 28 25 29 81 30 26 31 27 32 28 33
REMARK SMILES IDX 75 34 29 35 80 36 74 37 76 38 30 39 79 40 73 41 72 42 31 44
REMARK SMILES IDX 61 45 42 46 60 47 43 48 46 49 59 50 77 51 44 52 45 53 58 55
REMARK SMILES IDX 78 56 47 57 32 58 33 59 41 60 34 61 40 62 35 63 36 64 37 65
REMARK SMILES IDX 38 66 39 67 62 68 63 69 71 70 64 71 70 72 65 73 66 74 67 75
REMARK SMILES IDX 68 76 69 77 48 78 49 79 57 80 50 81 56 82 51 83 52 84 53 85
REMARK SMILES IDX 54 86 55 87
REMARK H PARENT 76 43 46 54
REMARK Flexibility Score: inf
ROOT
ATOM      1  C   UNL A   1      37.459  22.397  25.722  1.00  0.00     0.274 C 
ENDROOT
BRANCH   1   2
ATOM      2  O   UNL A   1      37.298  22.546  24.298  1.00  0.00    -0.461 OA
BRANCH   2   3
ATOM      3  C   UNL A   1      36.018  22.674  23.852  1.00  0.00     0.328 C 
ATOM      4  O   UNL A   1      35.695  23.277  22.831  1.00  0.00    -0.250 OA
BRANCH   3   5
ATOM      5  C   UNL A   1      34.988  22.032  24.765  1.00  0.00     0.270 C 
BRANCH   5   6
ATOM      6  N   UNL A   1      33.704  22.718  24.823  1.00  0.00    -0.218 N 
ATOM      7  C   UNL A   1      32.586  24.587  25.474  1.00  0.00     0.091 A 
ATOM      8  C   UNL A   1      31.301  24.108  24.935  1.00  0.00     0.036 A 
ATOM      9  N   UNL A   1      33.697  23.924  25.470  1.00  0.00    -0.169 NA
ATOM     10  C   UNL A   1      31.356  22.970  24.241  1.00  0.00     0.075 A 
ATOM     11  C   UNL A   1      32.635  22.246  24.079  1.00  0.00     0.267 A 
ATOM     12  O   UNL A   1      32.687  21.291  23.314  1.00  0.00    -0.268 OA
BRANCH   7  13
ATOM     13  C   UNL A   1      32.631  25.978  25.943  1.00  0.00     0.002 A 
ATOM     14  C   UNL A   1      32.935  28.576  26.846  1.00  0.00     0.119 A 
ATOM     15  C   UNL A   1      31.730  27.901  27.066  1.00  0.00     0.047 A 
ATOM     16  C   UNL A   1      34.000  27.943  26.213  1.00  0.00     0.047 A 
ATOM     17  C   UNL A   1      31.568  26.592  26.603  1.00  0.00     0.014 A 
ATOM     18  C   UNL A   1      33.846  26.646  25.750  1.00  0.00     0.014 A 
BRANCH  14  19
ATOM     19  O   UNL A   1      33.087  29.833  27.361  1.00  0.00    -0.494 OA
BRANCH  19  20
ATOM     20  C   UNL A   1      34.465  30.189  27.533  1.00  0.00     0.226 C 
ATOM     21  C   UNL A   1      34.648  31.685  27.747  1.00  0.00     0.049 C 
ENDBRANCH  19  20
ENDBRANCH  14  19
ENDBRANCH   7  13
ENDBRANCH   5   6
ENDBRANCH   3   5
ENDBRANCH   2   3
ENDBRANCH   1   2
BRANCH   1  22
ATOM     22  C   UNL A   1      38.914  22.645  26.102  1.00  0.00     0.275 C 
BRANCH  22  23
ATOM     23  O   UNL A   1      39.015  23.916  26.763  1.00  0.00    -0.458 OA
BRANCH  23  24
ATOM     24  C   UNL A   1      40.268  24.417  26.878  1.00  0.00     0.338 C 
ATOM     25  O   UNL A   1      41.290  23.969  26.388  1.00  0.00    -0.246 OA
BRANCH  24  26
ATOM     26  C   UNL A   1      40.230  25.575  27.789  1.00  0.00     0.060 A 
ATOM     27  C   UNL A   1      41.211  26.567  27.722  1.00  0.00     0.016 A 
ATOM     28  C   UNL A   1      39.243  25.625  28.771  1.00  0.00     0.016 A 
ATOM     29  C   UNL A   1      41.255  27.570  28.686  1.00  0.00     0.010 A 
ATOM     30  C   UNL A   1      39.238  26.679  29.685  1.00  0.00     0.010 A 
ATOM     31  C   UNL A   1      40.261  27.645  29.671  1.00  0.00    -0.014 A 
BRANCH  31  32
ATOM     32  C   UNL A   1      40.286  28.713  30.702  1.00  0.00     0.031 A 
ATOM     33  C   UNL A   1      41.246  28.622  31.857  1.00  0.00     0.074 A 
ATOM     34  C   UNL A   1      39.431  29.750  30.617  1.00  0.00     0.049 A 
ATOM     35  N   UNL A   1      41.305  29.353  32.941  1.00  0.00    -0.248 NA
ATOM     36  C   UNL A   1      42.265  27.560  31.791  1.00  0.00     0.031 C 
ATOM     37  C   UNL A   1      38.480  29.980  29.528  1.00  0.00     0.029 A 
ATOM     38  N   UNL A   1      39.216  30.802  31.473  1.00  0.00    -0.354 N 
ATOM     39  C   UNL A   1      42.335  28.816  33.705  1.00  0.00     0.074 A 
ATOM     40  C   UNL A   1      42.869  27.693  32.965  1.00  0.00     0.031 C 
ATOM     41  C   UNL A   1      37.796  31.109  29.773  1.00  0.00     0.029 A 
ATOM     42  C   UNL A   1      38.207  31.642  31.066  1.00  0.00     0.049 A 
ATOM     43  H   UNL A   1      39.735  30.941  32.297  1.00  0.00     0.167 HD
ATOM     44  C   UNL A   1      42.790  29.221  34.915  1.00  0.00     0.031 A 
ATOM     45  C   UNL A   1      37.647  32.701  31.681  1.00  0.00     0.031 A 
ATOM     46  C   UNL A   1      42.272  30.354  35.636  1.00  0.00     0.049 A 
ATOM     47  C   UNL A   1      38.138  33.102  33.043  1.00  0.00     0.074 A 
ATOM     48  C   UNL A   1      42.681  30.857  36.859  1.00  0.00     0.029 A 
ATOM     49  N   UNL A   1      41.234  31.164  35.198  1.00  0.00    -0.354 N 
ATOM     50  N   UNL A   1      39.095  32.570  33.763  1.00  0.00    -0.248 NA
ATOM     51  C   UNL A   1      37.463  34.242  33.680  1.00  0.00     0.031 C 
ATOM     52  C   UNL A   1      41.864  31.948  37.178  1.00  0.00     0.029 A 
ATOM     53  C   UNL A   1      40.977  32.151  36.134  1.00  0.00     0.049 A 
ATOM     54  H   UNL A   1      40.752  31.052  34.347  1.00  0.00     0.167 HD
ATOM     55  C   UNL A   1      39.151  33.320  34.932  1.00  0.00     0.074 A 
ATOM     56  C   UNL A   1      38.139  34.352  34.815  1.00  0.00     0.031 C 
ATOM     57  C   UNL A   1      39.965  33.169  36.004  1.00  0.00     0.031 A 
BRANCH  44  58
ATOM     58  C   UNL A   1      43.885  28.409  35.555  1.00  0.00    -0.014 A 
ATOM     59  C   UNL A   1      45.241  28.690  35.317  1.00  0.00     0.010 A 
ATOM     60  C   UNL A   1      43.546  27.366  36.437  1.00  0.00     0.010 A 
ATOM     61  C   UNL A   1      46.239  27.920  35.921  1.00  0.00     0.020 A 
ATOM     62  C   UNL A   1      44.540  26.607  37.060  1.00  0.00     0.020 A 
ATOM     63  C   UNL A   1      45.882  26.879  36.784  1.00  0.00     0.054 A 
BRANCH  63  64
ATOM     64  S   UNL A   1      47.195  25.902  37.568  1.00  0.00     0.124 S 
ATOM     65  O   UNL A   1      48.370  26.305  36.798  1.00  0.00    -0.237 OA
ATOM     66  O   UNL A   1      47.163  26.368  38.952  1.00  0.00    -0.237 OA
ATOM     67  O   UNL A   1      46.766  24.520  37.369  1.00  0.00    -0.744 OA
ENDBRANCH  63  64
ENDBRANCH  44  58
BRANCH  45  68
ATOM     68  C   UNL A   1      36.532  33.432  31.022  1.00  0.00    -0.014 A 
ATOM     69  C   UNL A   1      36.755  34.148  29.834  1.00  0.00     0.010 A 
ATOM     70  C   UNL A   1      35.237  33.396  31.569  1.00  0.00     0.010 A 
ATOM     71  C   UNL A   1      35.702  34.823  29.208  1.00  0.00     0.020 A 
ATOM     72  C   UNL A   1      34.177  34.048  30.933  1.00  0.00     0.020 A 
ATOM     73  C   UNL A   1      34.420  34.767  29.761  1.00  0.00     0.054 A 
BRANCH  73  74
ATOM     74  S   UNL A   1      33.054  35.598  28.902  1.00  0.00     0.124 S 
ATOM     75  O   UNL A   1      32.416  34.488  28.204  1.00  0.00    -0.237 OA
ATOM     76  O   UNL A   1      32.289  36.175  30.006  1.00  0.00    -0.237 OA
ATOM     77  O   UNL A   1      33.731  36.573  28.049  1.00  0.00    -0.744 OA
ENDBRANCH  73  74
ENDBRANCH  45  68
BRANCH  57  78
ATOM     78  C   UNL A   1      39.818  34.160  37.125  1.00  0.00    -0.014 A 
ATOM     79  C   UNL A   1      39.083  33.843  38.281  1.00  0.00     0.010 A 
ATOM     80  C   UNL A   1      40.463  35.406  37.039  1.00  0.00     0.010 A 
ATOM     81  C   UNL A   1      38.974  34.769  39.322  1.00  0.00     0.020 A 
ATOM     82  C   UNL A   1      40.373  36.326  38.086  1.00  0.00     0.020 A 
ATOM     83  C   UNL A   1      39.618  36.006  39.217  1.00  0.00     0.054 A 
BRANCH  83  84
ATOM     84  S   UNL A   1      39.500  37.177  40.597  1.00  0.00     0.124 S 
ATOM     85  O   UNL A   1      38.878  38.335  39.961  1.00  0.00    -0.237 OA
ATOM     86  O   UNL A   1      38.661  36.462  41.557  1.00  0.00    -0.237 OA
ATOM     87  O   UNL A   1      40.889  37.363  41.012  1.00  0.00    -0.744 OA
ENDBRANCH  83  84
ENDBRANCH  57  78
ENDBRANCH  31  32
ENDBRANCH  24  26
ENDBRANCH  23  24
ENDBRANCH  22  23
ENDBRANCH   1  22
TORSDOF 18
ENDMDL
MODEL 2
REMARK VINA RESULT:     -10.4      6.654     12.145
REMARK SMILES CCOc1ccc(-c2ccc(=O)n(CC(=O)OCCOC(=O)c3ccc(-c4c5nc(c(-c6ccc(S(=O)(=O)[O-])cc6)c6ccc([nH]6)c(-c6ccc(S(=O)(=O)[O-])cc6)c6nc(c(-c7ccc(S(=O)(=O)[O-])cc7)c7ccc4[nH]7)C=C6)C=C5)cc3)n2)cc1
REMARK SMILES IDX 18 1 17 2 15 3 16 4 14 5 13 6 8 7 9 8 83 9 10 10 11 11 12 12
REMARK SMILES IDX 7 13 4 14 5 15 85 16 6 17 84 18 3 19 2 20 1 21 19 22 20 23
REMARK SMILES IDX 21 24 22 25 23 26 24 27 82 28 25 29 81 30 26 31 27 32 28 33
REMARK SMILES IDX 75 34 29 35 80 36 74 37 76 38 30 39 79 40 73 41 72 42 31 44
REMARK SMILES IDX 61 45 42 46 60 47 43 48 46 49 59 50 77 51 44 52 45 53 58 55
REMARK SMILES IDX 78 56 47 57 32 58 33 59 41 60 34 61 40 62 35 63 36 64 37 65
REMARK SMILES IDX 38 66 39 67 62 68 63 69 71 70 64 71 70 72 65 73 66 74 67 75
REMARK SMILES IDX 68 76 69 77 48 78 49 79 57 80 50 81 56 82 51 83 52 84 53 85
REMARK SMILES IDX 54 86 55 87
REMARK H PARENT 76 43 46 54
REMARK Flexibility Score: inf
ROOT
ATOM      1  C   UNL A   1      33.070  28.941  27.609  1.00  0.00     0.274 C 
ENDROOT
BRANCH   1   2
ATOM      2  O   UNL A   1      32.323  29.020  26.380  1.00  0.00    -0.461 OA
BRANCH   2   3
ATOM      3  C   UNL A   1      31.545  27.942  26.084  1.00  0.00     0.328 C 
ATOM      4  O   UNL A   1      31.263  27.050  26.880  1.00  0.00    -0.250 OA
BRANCH   3   5
ATOM      5  C   UNL A   1      31.077  27.907  24.639  1.00  0.00     0.270 C 
BRANCH   5   6
ATOM      6  N   UNL A   1      31.910  27.119  23.741  1.00  0.00    -0.218 N 
ATOM      7  C   UNL A   1      33.587  25.595  23.567  1.00  0.00     0.091 A 
ATOM      8  C   UNL A   1      33.510  25.552  22.096  1.00  0.00     0.036 A 
ATOM      9  N   UNL A   1      32.880  26.358  24.335  1.00  0.00    -0.169 NA
ATOM     10  C   UNL A   1      32.505  26.240  21.552  1.00  0.00     0.075 A 
ATOM     11  C   UNL A   1      31.574  27.013  22.401  1.00  0.00     0.267 A 
ATOM     12  O   UNL A   1      30.574  27.507  21.894  1.00  0.00    -0.268 OA
BRANCH   7  13
ATOM     13  C   UNL A   1      34.453  24.600  24.215  1.00  0.00     0.002 A 
ATOM     14  C   UNL A   1      36.034  22.589  25.270  1.00  0.00     0.119 A 
ATOM     15  C   UNL A   1      35.468  23.546  26.119  1.00  0.00     0.047 A 
ATOM     16  C   UNL A   1      35.777  22.611  23.902  1.00  0.00     0.047 A 
ATOM     17  C   UNL A   1      34.677  24.570  25.590  1.00  0.00     0.014 A 
ATOM     18  C   UNL A   1      34.995  23.625  23.371  1.00  0.00     0.014 A 
BRANCH  14  19
ATOM     19  O   UNL A   1      36.753  21.565  25.820  1.00  0.00    -0.494 OA
BRANCH  19  20
ATOM     20  C   UNL A   1      38.081  21.481  25.286  1.00  0.00     0.226 C 
ATOM     21  C   UNL A   1      39.112  22.104  26.215  1.00  0.00     0.049 C 
ENDBRANCH  19  20
ENDBRANCH  14  19
ENDBRANCH   7  13
ENDBRANCH   5   6
ENDBRANCH   3   5
ENDBRANCH   2   3
ENDBRANCH   1   2
BRANCH   1  22
ATOM     22  C   UNL A   1      34.369  29.726  27.471  1.00  0.00     0.275 C 
BRANCH  22  23
ATOM     23  O   UNL A   1      35.231  29.404  28.574  1.00  0.00    -0.458 OA
BRANCH  23  24
ATOM     24  C   UNL A   1      36.127  30.361  28.914  1.00  0.00     0.338 C 
ATOM     25  O   UNL A   1      35.892  31.516  29.225  1.00  0.00    -0.246 OA
BRANCH  24  26
ATOM     26  C   UNL A   1      37.485  29.810  28.761  1.00  0.00     0.060 A 
ATOM     27  C   UNL A   1      38.214  29.391  29.876  1.00  0.00     0.016 A 
ATOM     28  C   UNL A   1      38.060  29.785  27.492  1.00  0.00     0.016 A 
ATOM     29  C   UNL A   1      39.549  29.021  29.736  1.00  0.00     0.010 A 
ATOM     30  C   UNL A   1      39.372  29.332  27.342  1.00  0.00     0.010 A 
ATOM     31  C   UNL A   1      40.139  28.975  28.466  1.00  0.00    -0.014 A 
BRANCH  31  32
ATOM     32  C   UNL A   1      41.558  28.574  28.298  1.00  0.00     0.031 A 
ATOM     33  C   UNL A   1      42.649  29.606  28.388  1.00  0.00     0.074 A 
ATOM     34  C   UNL A   1      41.868  27.289  28.037  1.00  0.00     0.049 A 
ATOM     35  N   UNL A   1      43.920  29.491  28.102  1.00  0.00    -0.248 NA
ATOM     36  C   UNL A   1      42.254  30.949  28.847  1.00  0.00     0.031 C 
ATOM     37  C   UNL A   1      40.911  26.182  27.966  1.00  0.00     0.029 A 
ATOM     38  N   UNL A   1      43.078  26.698  27.771  1.00  0.00    -0.354 N 
ATOM     39  C   UNL A   1      44.470  30.752  28.303  1.00  0.00     0.074 A 
ATOM     40  C   UNL A   1      43.393  31.619  28.729  1.00  0.00     0.031 C 
ATOM     41  C   UNL A   1      41.572  25.047  27.692  1.00  0.00     0.029 A 
ATOM     42  C   UNL A   1      42.984  25.355  27.498  1.00  0.00     0.049 A 
ATOM     43  H   UNL A   1      43.931  27.190  27.778  1.00  0.00     0.167 HD
ATOM     44  C   UNL A   1      45.756  31.149  28.144  1.00  0.00     0.031 A 
ATOM     45  C   UNL A   1      43.921  24.474  27.097  1.00  0.00     0.031 A 
ATOM     46  C   UNL A   1      46.828  30.276  27.744  1.00  0.00     0.049 A 
ATOM     47  C   UNL A   1      45.330  24.949  26.883  1.00  0.00     0.074 A 
ATOM     48  C   UNL A   1      48.168  30.581  27.576  1.00  0.00     0.029 A 
ATOM     49  N   UNL A   1      46.685  28.928  27.455  1.00  0.00    -0.354 N 
ATOM     50  N   UNL A   1      45.830  26.149  27.054  1.00  0.00    -0.248 NA
ATOM     51  C   UNL A   1      46.300  23.952  26.410  1.00  0.00     0.031 C 
ATOM     52  C   UNL A   1      48.828  29.423  27.147  1.00  0.00     0.029 A 
ATOM     53  C   UNL A   1      47.908  28.389  27.092  1.00  0.00     0.049 A 
ATOM     54  H   UNL A   1      45.838  28.427  27.501  1.00  0.00     0.167 HD
ATOM     55  C   UNL A   1      47.176  26.049  26.726  1.00  0.00     0.074 A 
ATOM     56  C   UNL A   1      47.416  24.667  26.360  1.00  0.00     0.031 C 
ATOM     57  C   UNL A   1      48.128  27.013  26.728  1.00  0.00     0.031 A 
BRANCH  44  58
ATOM     58  C   UNL A   1      46.067  32.605  28.368  1.00  0.00    -0.014 A 
ATOM     59  C   UNL A   1      46.464  33.084  29.629  1.00  0.00     0.010 A 
ATOM     60  C   UNL A   1      45.993  33.502  27.287  1.00  0.00     0.010 A 
ATOM     61  C   UNL A   1      46.745  34.442  29.812  1.00  0.00     0.020 A 
ATOM     62  C   UNL A   1      46.295  34.856  27.461  1.00  0.00     0.020 A 
ATOM     63  C   UNL A   1      46.652  35.320  28.728  1.00  0.00     0.054 A 
BRANCH  63  64
ATOM     64  S   UNL A   1      47.037  37.074  28.988  1.00  0.00     0.124 S 
ATOM     65  O   UNL A   1      45.762  37.592  29.481  1.00  0.00    -0.237 OA
ATOM     66  O   UNL A   1      48.117  37.028  29.970  1.00  0.00    -0.237 OA
ATOM     67  O   UNL A   1      47.426  37.544  27.661  1.00  0.00    -0.744 OA
ENDBRANCH  63  64
ENDBRANCH  44  58
BRANCH  45  68
ATOM     68  C   UNL A   1      43.543  23.059  26.840  1.00  0.00    -0.014 A 
ATOM     69  C   UNL A   1      43.796  22.470  25.590  1.00  0.00     0.010 A 
ATOM     70  C   UNL A   1      42.948  22.287  27.855  1.00  0.00     0.010 A 
ATOM     71  C   UNL A   1      43.454  21.136  25.355  1.00  0.00     0.020 A 
ATOM     72  C   UNL A   1      42.627  20.945  27.632  1.00  0.00     0.020 A 
ATOM     73  C   UNL A   1      42.873  20.381  26.379  1.00  0.00     0.054 A 
BRANCH  73  74
ATOM     74  S   UNL A   1      42.490  18.633  26.075  1.00  0.00     0.124 S 
ATOM     75  O   UNL A   1      42.810  18.025  27.361  1.00  0.00    -0.237 OA
ATOM     76  O   UNL A   1      41.070  18.674  25.731  1.00  0.00    -0.237 OA
ATOM     77  O   UNL A   1      43.379  18.276  24.971  1.00  0.00    -0.744 OA
ENDBRANCH  73  74
ENDBRANCH  45  68
BRANCH  57  78
ATOM     78  C   UNL A   1      49.525  26.601  26.352  1.00  0.00    -0.014 A 
ATOM     79  C   UNL A   1      50.020  26.820  25.054  1.00  0.00     0.010 A 
ATOM     80  C   UNL A   1      50.366  26.030  27.323  1.00  0.00     0.010 A 
ATOM     81  C   UNL A   1      51.328  26.450  24.728  1.00  0.00     0.020 A 
ATOM     82  C   UNL A   1      51.679  25.678  27.006  1.00  0.00     0.020 A 
ATOM     83  C   UNL A   1      52.149  25.878  25.705  1.00  0.00     0.054 A 
BRANCH  83  84
ATOM     84  S   UNL A   1      53.856  25.445  25.273  1.00  0.00     0.124 S 
ATOM     85  O   UNL A   1      53.866  25.654  23.828  1.00  0.00    -0.237 OA
ATOM     86  O   UNL A   1      54.640  26.401  26.052  1.00  0.00    -0.237 OA
ATOM     87  O   UNL A   1      53.979  24.053  25.703  1.00  0.00    -0.744 OA
ENDBRANCH  83  84
ENDBRANCH  57  78
ENDBRANCH  31  32
ENDBRANCH  24  26
ENDBRANCH  23  24
ENDBRANCH  22  23
ENDBRANCH   1  22
TORSDOF 18
ENDMDL
MODEL 3
REMARK VINA RESULT:     -10.2      6.782     12.052
REMARK SMILES CCOc1ccc(-c2ccc(=O)n(CC(=O)OCCOC(=O)c3ccc(-c4c5nc(c(-c6ccc(S(=O)(=O)[O-])cc6)c6ccc([nH]6)c(-c6ccc(S(=O)(=O)[O-])cc6)c6nc(c(-c7ccc(S(=O)(=O)[O-])cc7)c7ccc4[nH]7)C=C6)C=C5)cc3)n2)cc1
REMARK SMILES IDX 18 1 17 2 15 3 16 4 14 5 13 6 8 7 9 8 83 9 10 10 11 11 12 12
REMARK SMILES IDX 7 13 4 14 5 15 85 16 6 17 84 18 3 19 2 20 1 21 19 22 20 23
REMARK SMILES IDX 21 24 22 25 23 26 24 27 82 28 25 29 81 30 26 31 27 32 28 33
REMARK SMILES IDX 75 34 29 35 80 36 74 37 76 38 30 39 79 40 73 41 72 42 31 44
REMARK SMILES IDX 61 45 42 46 60 47 43 48 46 49 59 50 77 51 44 52 45 53 58 55
REMARK SMILES IDX 78 56 47 57 32 58 33 59 41 60 34 61 40 62 35 63 36 64 37 65
REMARK SMILES IDX 38 66 39 67 62 68 63 69 71 70 64 71 70 72 65 73 66 74 67 75
REMARK SMILES IDX 68 76 69 77 48 78 49 79 57 80 50 81 56 82 51 83 52 84 53 85
REMARK SMILES IDX 54 86 55 87
REMARK H PARENT 76 43 46 54
REMARK Flexibility Score: inf
ROOT
ATOM      1  C   UNL A   1      33.135  30.118  27.304  1.00  0.00     0.274 C 
ENDROOT
BRANCH   1   2
ATOM      2  O   UNL A   1      33.417  28.817  26.753  1.00  0.00    -0.461 OA
BRANCH   2   3
ATOM      3  C   UNL A   1      32.519  27.837  27.049  1.00  0.00     0.328 C 
ATOM      4  O   UNL A   1      31.638  27.935  27.899  1.00  0.00    -0.250 OA
BRANCH   3   5
ATOM      5  C   UNL A   1      32.727  26.560  26.252  1.00  0.00     0.270 C 
BRANCH   5   6
ATOM      6  N   UNL A   1      31.648  26.225  25.333  1.00  0.00    -0.218 N 
ATOM      7  C   UNL A   1      30.074  27.016  23.897  1.00  0.00     0.091 A 
ATOM      8  C   UNL A   1      29.606  25.667  23.533  1.00  0.00     0.036 A 
ATOM      9  N   UNL A   1      30.989  27.284  24.771  1.00  0.00    -0.169 NA
ATOM     10  C   UNL A   1      30.319  24.656  24.034  1.00  0.00     0.075 A 
ATOM     11  C   UNL A   1      31.472  24.914  24.923  1.00  0.00     0.267 A 
ATOM     12  O   UNL A   1      32.199  23.982  25.242  1.00  0.00    -0.268 OA
BRANCH   7  13
ATOM     13  C   UNL A   1      29.539  28.137  23.112  1.00  0.00     0.002 A 
ATOM     14  C   UNL A   1      28.728  30.343  21.652  1.00  0.00     0.119 A 
ATOM     15  C   UNL A   1      27.787  29.608  22.380  1.00  0.00     0.047 A 
ATOM     16  C   UNL A   1      30.077  30.002  21.686  1.00  0.00     0.047 A 
ATOM     17  C   UNL A   1      28.189  28.487  23.111  1.00  0.00     0.014 A 
ATOM     18  C   UNL A   1      30.483  28.890  22.407  1.00  0.00     0.014 A 
BRANCH  14  19
ATOM     19  O   UNL A   1      28.317  31.469  20.995  1.00  0.00    -0.494 OA
BRANCH  19  20
ATOM     20  C   UNL A   1      27.933  32.517  21.895  1.00  0.00     0.226 C 
ATOM     21  C   UNL A   1      29.025  32.833  22.906  1.00  0.00     0.049 C 
ENDBRANCH  19  20
ENDBRANCH  14  19
ENDBRANCH   7  13
ENDBRANCH   5   6
ENDBRANCH   3   5
ENDBRANCH   2   3
ENDBRANCH   1   2
BRANCH   1  22
ATOM     22  C   UNL A   1      34.442  30.817  27.661  1.00  0.00     0.275 C 
BRANCH  22  23
ATOM     23  O   UNL A   1      35.332  29.866  28.267  1.00  0.00    -0.458 OA
BRANCH  23  24
ATOM     24  C   UNL A   1      36.124  30.351  29.252  1.00  0.00     0.338 C 
ATOM     25  O   UNL A   1      35.820  31.157  30.114  1.00  0.00    -0.246 OA
BRANCH  24  26
ATOM     26  C   UNL A   1      37.484  29.814  29.070  1.00  0.00     0.060 A 
ATOM     27  C   UNL A   1      38.257  29.442  30.172  1.00  0.00     0.016 A 
ATOM     28  C   UNL A   1      38.016  29.757  27.783  1.00  0.00     0.016 A 
ATOM     29  C   UNL A   1      39.592  29.086  29.999  1.00  0.00     0.010 A 
ATOM     30  C   UNL A   1      39.329  29.317  27.603  1.00  0.00     0.010 A 
ATOM     31  C   UNL A   1      40.139  29.007  28.711  1.00  0.00    -0.014 A 
BRANCH  31  32
ATOM     32  C   UNL A   1      41.558  28.620  28.507  1.00  0.00     0.031 A 
ATOM     33  C   UNL A   1      42.641  29.662  28.583  1.00  0.00     0.074 A 
ATOM     34  C   UNL A   1      41.872  27.341  28.227  1.00  0.00     0.049 A 
ATOM     35  N   UNL A   1      43.907  29.561  28.267  1.00  0.00    -0.248 NA
ATOM     36  C   UNL A   1      42.245  30.996  29.064  1.00  0.00     0.031 C 
ATOM     37  C   UNL A   1      40.924  26.226  28.166  1.00  0.00     0.029 A 
ATOM     38  N   UNL A   1      43.082  26.764  27.928  1.00  0.00    -0.354 N 
ATOM     39  C   UNL A   1      44.450  30.825  28.469  1.00  0.00     0.074 A 
ATOM     40  C   UNL A   1      43.374  31.678  28.927  1.00  0.00     0.031 C 
ATOM     41  C   UNL A   1      41.589  25.100  27.866  1.00  0.00     0.029 A 
ATOM     42  C   UNL A   1      42.994  25.423  27.644  1.00  0.00     0.049 A 
ATOM     43  H   UNL A   1      43.930  27.263  27.920  1.00  0.00     0.167 HD
ATOM     44  C   UNL A   1      45.728  31.235  28.285  1.00  0.00     0.031 A 
ATOM     45  C   UNL A   1      43.929  24.554  27.214  1.00  0.00     0.031 A 
ATOM     46  C   UNL A   1      46.798  30.376  27.853  1.00  0.00     0.049 A 
ATOM     47  C   UNL A   1      45.328  25.044  26.972  1.00  0.00     0.074 A 
ATOM     48  C   UNL A   1      48.132  30.694  27.657  1.00  0.00     0.029 A 
ATOM     49  N   UNL A   1      46.661  29.029  27.553  1.00  0.00    -0.354 N 
ATOM     50  N   UNL A   1      45.821  26.247  27.144  1.00  0.00    -0.248 NA
ATOM     51  C   UNL A   1      46.296  24.060  26.468  1.00  0.00     0.031 C 
ATOM     52  C   UNL A   1      48.792  29.547  27.202  1.00  0.00     0.029 A 
ATOM     53  C   UNL A   1      47.880  28.505  27.157  1.00  0.00     0.049 A 
ATOM     54  H   UNL A   1      45.820  28.520  27.614  1.00  0.00     0.167 HD
ATOM     55  C   UNL A   1      47.161  26.162  26.785  1.00  0.00     0.074 A 
ATOM     56  C   UNL A   1      47.404  24.785  26.400  1.00  0.00     0.031 C 
ATOM     57  C   UNL A   1      48.104  27.134  26.775  1.00  0.00     0.031 A 
BRANCH  44  58
ATOM     58  C   UNL A   1      46.031  32.692  28.516  1.00  0.00    -0.014 A 
ATOM     59  C   UNL A   1      46.456  33.162  29.771  1.00  0.00     0.010 A 
ATOM     60  C   UNL A   1      45.921  33.599  27.446  1.00  0.00     0.010 A 
ATOM     61  C   UNL A   1      46.728  34.520  29.962  1.00  0.00     0.020 A 
ATOM     62  C   UNL A   1      46.214  34.954  27.627  1.00  0.00     0.020 A 
ATOM     63  C   UNL A   1      46.600  35.408  28.890  1.00  0.00     0.054 A 
BRANCH  63  64
ATOM     64  S   UNL A   1      46.975  37.163  29.157  1.00  0.00     0.124 S 
ATOM     65  O   UNL A   1      47.944  37.430  28.097  1.00  0.00    -0.237 OA
ATOM     66  O   UNL A   1      45.672  37.802  28.992  1.00  0.00    -0.237 OA
ATOM     67  O   UNL A   1      47.514  37.200  30.515  1.00  0.00    -0.744 OA
ENDBRANCH  63  64
ENDBRANCH  44  58
BRANCH  45  68
ATOM     68  C   UNL A   1      43.557  23.138  26.951  1.00  0.00    -0.014 A 
ATOM     69  C   UNL A   1      42.973  22.357  27.962  1.00  0.00     0.010 A 
ATOM     70  C   UNL A   1      43.765  22.573  25.680  1.00  0.00     0.010 A 
ATOM     71  C   UNL A   1      42.611  21.031  27.709  1.00  0.00     0.020 A 
ATOM     72  C   UNL A   1      43.380  21.256  25.415  1.00  0.00     0.020 A 
ATOM     73  C   UNL A   1      42.815  20.489  26.436  1.00  0.00     0.054 A 
BRANCH  73  74
ATOM     74  S   UNL A   1      42.283  18.785  26.109  1.00  0.00     0.124 S 
ATOM     75  O   UNL A   1      43.194  18.384  25.043  1.00  0.00    -0.237 OA
ATOM     76  O   UNL A   1      42.493  18.133  27.400  1.00  0.00    -0.237 OA
ATOM     77  O   UNL A   1      40.883  18.935  25.717  1.00  0.00    -0.744 OA
ENDBRANCH  73  74
ENDBRANCH  45  68
BRANCH  57  78
ATOM     78  C   UNL A   1      49.495  26.739  26.364  1.00  0.00    -0.014 A 
ATOM     79  C   UNL A   1      50.355  26.075  27.258  1.00  0.00     0.010 A 
ATOM     80  C   UNL A   1      49.931  26.995  25.052  1.00  0.00     0.010 A 
ATOM     81  C   UNL A   1      51.638  25.698  26.852  1.00  0.00     0.020 A 
ATOM     82  C   UNL A   1      51.204  26.600  24.637  1.00  0.00     0.020 A 
ATOM     83  C   UNL A   1      52.056  25.964  25.545  1.00  0.00     0.054 A 
BRANCH  83  84
ATOM     84  S   UNL A   1      53.708  25.427  25.025  1.00  0.00     0.124 S 
ATOM     85  O   UNL A   1      53.666  25.664  23.585  1.00  0.00    -0.237 OA
ATOM     86  O   UNL A   1      54.590  26.313  25.782  1.00  0.00    -0.237 OA
ATOM     87  O   UNL A   1      53.757  24.022  25.425  1.00  0.00    -0.744 OA
ENDBRANCH  83  84
ENDBRANCH  57  78
ENDBRANCH  31  32
ENDBRANCH  24  26
ENDBRANCH  23  24
ENDBRANCH  22  23
ENDBRANCH   1  22
TORSDOF 18
ENDMDL
