MODEL 1
REMARK VINA RESULT:     -10.6      0.000      0.000
REMARK SMILES O=C(OCCOC(=O)[C@H]1C[C@](O)(c2ccccc2Cl)[C@@H](c2ccccc2Cl)O1)c1ccc(-c2c3nc(c(-c4ccc(S(=O)(=O)[O-])cc4)c4ccc([nH]4)c(-c4ccc(S(=O)(=O)[O-])cc4)c4nc(c(-c5ccc(S(=O)(=O)[O-])cc5)c5ccc2[nH]5)C=C4)C=C3)cc1
REMARK SMILES IDX 4 1 3 2 2 3 1 4 29 5 30 6 88 7 31 8 87 9 32 10 33 11 34 12
REMARK SMILES IDX 81 13 35 14 86 15 80 16 82 17 36 18 85 19 79 20 78 21 37 23
REMARK SMILES IDX 67 24 48 25 66 26 49 27 52 28 65 29 83 30 50 31 51 32 64 34
REMARK SMILES IDX 84 35 53 36 38 37 39 38 47 39 40 40 46 41 41 42 42 43 43 44
REMARK SMILES IDX 44 45 45 46 68 47 69 48 77 49 70 50 76 51 71 52 72 53 73 54
REMARK SMILES IDX 74 55 75 56 54 57 55 58 63 59 56 60 62 61 57 62 58 63 59 64
REMARK SMILES IDX 60 65 61 66 5 67 6 68 7 69 8 70 9 71 10 72 28 73 11 74 20 75
REMARK SMILES IDX 13 76 14 77 18 78 15 79 17 80 19 81 16 82 12 83 21 85 22 86
REMARK SMILES IDX 26 87 23 88 25 89 27 90 24 91
REMARK H PARENT 82 22 52 33 12 84
REMARK Flexibility Score: inf
ROOT
ATOM      1  C   UNL A   1      41.329  23.280  26.875  1.00  0.00     0.275 C 
ENDROOT
BRANCH   1   2
ATOM      2  O   UNL A   1      40.538  24.251  26.164  1.00  0.00    -0.458 OA
BRANCH   2   3
ATOM      3  C   UNL A   1      40.872  25.571  26.141  1.00  0.00     0.338 C 
ATOM      4  O   UNL A   1      41.506  26.054  25.211  1.00  0.00    -0.246 OA
BRANCH   3   5
ATOM      5  C   UNL A   1      40.715  26.330  27.413  1.00  0.00     0.060 A 
ATOM      6  C   UNL A   1      39.683  26.094  28.323  1.00  0.00     0.016 A 
ATOM      7  C   UNL A   1      41.644  27.348  27.685  1.00  0.00     0.016 A 
ATOM      8  C   UNL A   1      39.628  26.795  29.525  1.00  0.00     0.010 A 
ATOM      9  C   UNL A   1      41.604  28.043  28.899  1.00  0.00     0.010 A 
ATOM     10  C   UNL A   1      40.579  27.779  29.816  1.00  0.00    -0.014 A 
BRANCH  10  11
ATOM     11  C   UNL A   1      40.299  28.683  30.952  1.00  0.00     0.031 A 
ATOM     12  C   UNL A   1      41.204  28.573  32.146  1.00  0.00     0.074 A 
ATOM     13  C   UNL A   1      39.380  29.663  30.864  1.00  0.00     0.049 A 
ATOM     14  N   UNL A   1      41.316  29.369  33.175  1.00  0.00    -0.248 NA
ATOM     15  C   UNL A   1      42.133  27.428  32.162  1.00  0.00     0.031 C 
ATOM     16  C   UNL A   1      38.495  29.892  29.724  1.00  0.00     0.029 A 
ATOM     17  N   UNL A   1      39.062  30.672  31.737  1.00  0.00    -0.354 N 
ATOM     18  C   UNL A   1      42.339  28.831  33.947  1.00  0.00     0.074 A 
ATOM     19  C   UNL A   1      42.783  27.621  33.296  1.00  0.00     0.031 C 
ATOM     20  C   UNL A   1      37.745  30.982  29.958  1.00  0.00     0.029 A 
ATOM     21  C   UNL A   1      38.091  31.526  31.268  1.00  0.00     0.049 A 
ATOM     22  H   UNL A   1      39.489  30.776  32.618  1.00  0.00     0.167 HD
ATOM     23  C   UNL A   1      42.874  29.311  35.091  1.00  0.00     0.031 A 
ATOM     24  C   UNL A   1      37.556  32.629  31.829  1.00  0.00     0.031 A 
ATOM     25  C   UNL A   1      42.385  30.483  35.759  1.00  0.00     0.049 A 
ATOM     26  C   UNL A   1      38.096  33.089  33.158  1.00  0.00     0.074 A 
ATOM     27  C   UNL A   1      42.810  31.039  36.950  1.00  0.00     0.029 A 
ATOM     28  N   UNL A   1      41.340  31.268  35.293  1.00  0.00    -0.354 N 
ATOM     29  N   UNL A   1      39.083  32.585  33.862  1.00  0.00    -0.248 NA
ATOM     30  C   UNL A   1      37.464  34.268  33.762  1.00  0.00     0.031 C 
ATOM     31  C   UNL A   1      41.983  32.132  37.232  1.00  0.00     0.029 A 
ATOM     32  C   UNL A   1      41.084  32.291  36.186  1.00  0.00     0.049 A 
ATOM     33  H   UNL A   1      40.853  31.119  34.451  1.00  0.00     0.167 HD
ATOM     34  C   UNL A   1      39.206  33.400  34.982  1.00  0.00     0.074 A 
ATOM     35  C   UNL A   1      38.201  34.437  34.853  1.00  0.00     0.031 C 
ATOM     36  C   UNL A   1      40.069  33.303  36.024  1.00  0.00     0.031 A 
BRANCH  23  37
ATOM     37  C   UNL A   1      43.997  28.513  35.695  1.00  0.00    -0.014 A 
ATOM     38  C   UNL A   1      43.742  27.490  36.627  1.00  0.00     0.010 A 
ATOM     39  C   UNL A   1      45.327  28.840  35.381  1.00  0.00     0.010 A 
ATOM     40  C   UNL A   1      44.799  26.848  37.278  1.00  0.00     0.020 A 
ATOM     41  C   UNL A   1      46.388  28.182  36.012  1.00  0.00     0.020 A 
ATOM     42  C   UNL A   1      46.115  27.208  36.975  1.00  0.00     0.054 A 
BRANCH  42  43
ATOM     43  S   UNL A   1      47.470  26.387  37.859  1.00  0.00     0.124 S 
ATOM     44  O   UNL A   1      48.020  27.483  38.652  1.00  0.00    -0.237 OA
ATOM     45  O   UNL A   1      46.775  25.351  38.617  1.00  0.00    -0.237 OA
ATOM     46  O   UNL A   1      48.335  25.897  36.788  1.00  0.00    -0.744 OA
ENDBRANCH  42  43
ENDBRANCH  23  37
BRANCH  24  47
ATOM     47  C   UNL A   1      36.464  33.373  31.137  1.00  0.00    -0.014 A 
ATOM     48  C   UNL A   1      36.641  33.885  29.838  1.00  0.00     0.010 A 
ATOM     49  C   UNL A   1      35.226  33.567  31.777  1.00  0.00     0.010 A 
ATOM     50  C   UNL A   1      35.607  34.579  29.200  1.00  0.00     0.020 A 
ATOM     51  C   UNL A   1      34.182  34.240  31.134  1.00  0.00     0.020 A 
ATOM     52  C   UNL A   1      34.382  34.749  29.850  1.00  0.00     0.054 A 
BRANCH  52  53
ATOM     53  S   UNL A   1      33.034  35.599  28.980  1.00  0.00     0.124 S 
ATOM     54  O   UNL A   1      32.443  34.516  28.200  1.00  0.00    -0.237 OA
ATOM     55  O   UNL A   1      32.217  36.105  30.081  1.00  0.00    -0.237 OA
ATOM     56  O   UNL A   1      33.723  36.627  28.203  1.00  0.00    -0.744 OA
ENDBRANCH  52  53
ENDBRANCH  24  47
BRANCH  36  57
ATOM     57  C   UNL A   1      39.978  34.355  37.095  1.00  0.00    -0.014 A 
ATOM     58  C   UNL A   1      40.634  35.590  36.955  1.00  0.00     0.010 A 
ATOM     59  C   UNL A   1      39.155  34.132  38.213  1.00  0.00     0.010 A 
ATOM     60  C   UNL A   1      40.485  36.578  37.931  1.00  0.00     0.020 A 
ATOM     61  C   UNL A   1      38.982  35.127  39.177  1.00  0.00     0.020 A 
ATOM     62  C   UNL A   1      39.658  36.341  39.034  1.00  0.00     0.054 A 
BRANCH  62  63
ATOM     63  S   UNL A   1      39.432  37.662  40.256  1.00  0.00     0.124 S 
ATOM     64  O   UNL A   1      40.777  38.223  40.346  1.00  0.00    -0.237 OA
ATOM     65  O   UNL A   1      38.433  38.520  39.620  1.00  0.00    -0.237 OA
ATOM     66  O   UNL A   1      38.968  36.955  41.447  1.00  0.00    -0.744 OA
ENDBRANCH  62  63
ENDBRANCH  36  57
ENDBRANCH  10  11
ENDBRANCH   3   5
ENDBRANCH   2   3
ENDBRANCH   1   2
BRANCH   1  67
ATOM     67  C   UNL A   1      41.689  22.086  25.984  1.00  0.00     0.274 C 
BRANCH  67  68
ATOM     68  O   UNL A   1      42.885  22.368  25.245  1.00  0.00    -0.460 OA
BRANCH  68  69
ATOM     69  C   UNL A   1      43.966  21.567  25.488  1.00  0.00     0.335 C 
ATOM     70  O   UNL A   1      43.914  20.370  25.721  1.00  0.00    -0.249 OA
BRANCH  69  71
ATOM     71  C   UNL A   1      45.250  22.374  25.283  1.00  0.00     0.232 C 
ATOM     72  C   UNL A   1      45.082  23.735  24.651  1.00  0.00     0.087 C 
ATOM     73  O   UNL A   1      45.847  22.555  26.553  1.00  0.00    -0.355 OA
ATOM     74  C   UNL A   1      45.476  24.789  25.714  1.00  0.00     0.124 C 
ATOM     75  C   UNL A   1      45.881  23.935  26.953  1.00  0.00     0.187 C 
BRANCH  74  76
ATOM     76  C   UNL A   1      46.437  25.801  25.042  1.00  0.00     0.005 A 
ATOM     77  C   UNL A   1      47.567  25.215  24.396  1.00  0.00     0.008 A 
ATOM     78  C   UNL A   1      46.390  27.209  25.006  1.00  0.00     0.047 A 
ATOM     79  C   UNL A   1      48.556  25.960  23.748  1.00  0.00     0.001 A 
ATOM     80  C   UNL A   1      47.369  27.953  24.313  1.00  0.00     0.021 A 
ATOM     81  Cl  UNL A   1      45.254  28.218  25.822  1.00  0.00    -0.084 Cl
ATOM     82  C   UNL A   1      48.447  27.336  23.689  1.00  0.00     0.002 A 
ENDBRANCH  74  76
BRANCH  74  83
ATOM     83  O   UNL A   1      44.301  25.571  26.021  1.00  0.00    -0.382 OA
ATOM     84  H   UNL A   1      44.403  26.465  25.660  1.00  0.00     0.212 HD
ENDBRANCH  74  83
BRANCH  75  85
ATOM     85  C   UNL A   1      45.096  23.990  28.263  1.00  0.00     0.003 A 
ATOM     86  C   UNL A   1      44.298  22.898  28.665  1.00  0.00     0.008 A 
ATOM     87  C   UNL A   1      45.258  25.034  29.196  1.00  0.00     0.046 A 
ATOM     88  C   UNL A   1      43.750  22.812  29.948  1.00  0.00     0.000 A 
ATOM     89  C   UNL A   1      44.708  24.944  30.484  1.00  0.00     0.021 A 
ATOM     90  Cl  UNL A   1      46.144  26.477  28.854  1.00  0.00    -0.084 Cl
ATOM     91  C   UNL A   1      43.971  23.828  30.866  1.00  0.00     0.002 A 
ENDBRANCH  75  85
ENDBRANCH  69  71
ENDBRANCH  68  69
ENDBRANCH  67  68
ENDBRANCH   1  67
TORSDOF 17
ENDMDL
MODEL 2
REMARK VINA RESULT:     -10.6      7.042     14.279
REMARK SMILES O=C(OCCOC(=O)[C@H]1C[C@](O)(c2ccccc2Cl)[C@@H](c2ccccc2Cl)O1)c1ccc(-c2c3nc(c(-c4ccc(S(=O)(=O)[O-])cc4)c4ccc([nH]4)c(-c4ccc(S(=O)(=O)[O-])cc4)c4nc(c(-c5ccc(S(=O)(=O)[O-])cc5)c5ccc2[nH]5)C=C4)C=C3)cc1
REMARK SMILES IDX 4 1 3 2 2 3 1 4 29 5 30 6 88 7 31 8 87 9 32 10 33 11 34 12
REMARK SMILES IDX 81 13 35 14 86 15 80 16 82 17 36 18 85 19 79 20 78 21 37 23
REMARK SMILES IDX 67 24 48 25 66 26 49 27 52 28 65 29 83 30 50 31 51 32 64 34
REMARK SMILES IDX 84 35 53 36 38 37 39 38 47 39 40 40 46 41 41 42 42 43 43 44
REMARK SMILES IDX 44 45 45 46 68 47 69 48 77 49 70 50 76 51 71 52 72 53 73 54
REMARK SMILES IDX 74 55 75 56 54 57 55 58 63 59 56 60 62 61 57 62 58 63 59 64
REMARK SMILES IDX 60 65 61 66 5 67 6 68 7 69 8 70 9 71 10 72 28 73 11 74 20 75
REMARK SMILES IDX 13 76 14 77 18 78 15 79 17 80 19 81 16 82 12 83 21 85 22 86
REMARK SMILES IDX 26 87 23 88 25 89 27 90 24 91
REMARK H PARENT 82 22 52 33 12 84
REMARK Flexibility Score: inf
ROOT
ATOM      1  C   UNL A   1      35.275  29.746  28.230  1.00  0.00     0.275 C 
ENDROOT
BRANCH   1   2
ATOM      2  O   UNL A   1      36.316  30.289  29.063  1.00  0.00    -0.458 OA
BRANCH   2   3
ATOM      3  C   UNL A   1      37.113  29.492  29.829  1.00  0.00     0.338 C 
ATOM      4  O   UNL A   1      36.850  29.265  31.003  1.00  0.00    -0.246 OA
BRANCH   3   5
ATOM      5  C   UNL A   1      38.461  29.167  29.287  1.00  0.00     0.060 A 
ATOM      6  C   UNL A   1      39.511  28.695  30.077  1.00  0.00     0.016 A 
ATOM      7  C   UNL A   1      38.681  29.374  27.915  1.00  0.00     0.016 A 
ATOM      8  C   UNL A   1      40.730  28.348  29.499  1.00  0.00     0.010 A 
ATOM      9  C   UNL A   1      39.898  29.011  27.326  1.00  0.00     0.010 A 
ATOM     10  C   UNL A   1      40.935  28.513  28.125  1.00  0.00    -0.014 A 
BRANCH  10  11
ATOM     11  C   UNL A   1      42.323  28.413  27.626  1.00  0.00     0.031 A 
ATOM     12  C   UNL A   1      43.218  29.595  27.870  1.00  0.00     0.074 A 
ATOM     13  C   UNL A   1      42.810  27.265  27.119  1.00  0.00     0.049 A 
ATOM     14  N   UNL A   1      44.512  29.695  27.729  1.00  0.00    -0.248 NA
ATOM     15  C   UNL A   1      42.567  30.818  28.375  1.00  0.00     0.031 C 
ATOM     16  C   UNL A   1      42.038  26.044  26.899  1.00  0.00     0.029 A 
ATOM     17  N   UNL A   1      44.080  26.928  26.727  1.00  0.00    -0.354 N 
ATOM     18  C   UNL A   1      44.830  30.982  28.147  1.00  0.00     0.074 A 
ATOM     19  C   UNL A   1      43.594  31.640  28.501  1.00  0.00     0.031 C 
ATOM     20  C   UNL A   1      42.852  25.083  26.428  1.00  0.00     0.029 A 
ATOM     21  C   UNL A   1      44.202  25.624  26.306  1.00  0.00     0.049 A 
ATOM     22  H   UNL A   1      44.834  27.560  26.746  1.00  0.00     0.167 HD
ATOM     23  C   UNL A   1      46.047  31.561  28.243  1.00  0.00     0.031 A 
ATOM     24  C   UNL A   1      45.288  24.943  25.884  1.00  0.00     0.031 A 
ATOM     25  C   UNL A   1      47.261  30.917  27.833  1.00  0.00     0.049 A 
ATOM     26  C   UNL A   1      46.622  25.644  25.900  1.00  0.00     0.074 A 
ATOM     27  C   UNL A   1      48.548  31.419  27.833  1.00  0.00     0.029 A 
ATOM     28  N   UNL A   1      47.328  29.626  27.328  1.00  0.00    -0.354 N 
ATOM     29  N   UNL A   1      46.910  26.853  26.324  1.00  0.00    -0.248 NA
ATOM     30  C   UNL A   1      47.776  24.890  25.395  1.00  0.00     0.031 C 
ATOM     31  C   UNL A   1      49.387  30.448  27.275  1.00  0.00     0.029 A 
ATOM     32  C   UNL A   1      48.632  29.320  26.986  1.00  0.00     0.049 A 
ATOM     33  H   UNL A   1      46.561  29.017  27.229  1.00  0.00     0.167 HD
ATOM     34  C   UNL A   1      48.283  26.996  26.158  1.00  0.00     0.074 A 
ATOM     35  C   UNL A   1      48.768  25.744  25.609  1.00  0.00     0.031 C 
ATOM     36  C   UNL A   1      49.075  28.063  26.435  1.00  0.00     0.031 A 
BRANCH  23  37
ATOM     37  C   UNL A   1      46.080  32.976  28.752  1.00  0.00    -0.014 A 
ATOM     38  C   UNL A   1      46.188  33.250  30.129  1.00  0.00     0.010 A 
ATOM     39  C   UNL A   1      45.927  34.042  27.850  1.00  0.00     0.010 A 
ATOM     40  C   UNL A   1      46.083  34.562  30.598  1.00  0.00     0.020 A 
ATOM     41  C   UNL A   1      45.848  35.359  28.313  1.00  0.00     0.020 A 
ATOM     42  C   UNL A   1      45.900  35.607  29.687  1.00  0.00     0.054 A 
BRANCH  42  43
ATOM     43  S   UNL A   1      45.732  37.298  30.321  1.00  0.00     0.124 S 
ATOM     44  O   UNL A   1      45.468  37.063  31.739  1.00  0.00    -0.237 OA
ATOM     45  O   UNL A   1      47.032  37.886  30.014  1.00  0.00    -0.237 OA
ATOM     46  O   UNL A   1      44.609  37.843  29.561  1.00  0.00    -0.744 OA
ENDBRANCH  42  43
ENDBRANCH  23  37
BRANCH  24  47
ATOM     47  C   UNL A   1      45.160  23.530  25.426  1.00  0.00    -0.014 A 
ATOM     48  C   UNL A   1      44.818  23.225  24.096  1.00  0.00     0.010 A 
ATOM     49  C   UNL A   1      45.391  22.472  26.325  1.00  0.00     0.010 A 
ATOM     50  C   UNL A   1      44.704  21.893  23.678  1.00  0.00     0.020 A 
ATOM     51  C   UNL A   1      45.300  21.140  25.907  1.00  0.00     0.020 A 
ATOM     52  C   UNL A   1      44.949  20.859  24.586  1.00  0.00     0.054 A 
BRANCH  52  53
ATOM     53  S   UNL A   1      44.856  19.140  24.007  1.00  0.00     0.124 S 
ATOM     54  O   UNL A   1      46.216  18.665  24.241  1.00  0.00    -0.237 OA
ATOM     55  O   UNL A   1      43.828  18.571  24.876  1.00  0.00    -0.237 OA
ATOM     56  O   UNL A   1      44.470  19.272  22.604  1.00  0.00    -0.744 OA
ENDBRANCH  52  53
ENDBRANCH  24  47
BRANCH  36  57
ATOM     57  C   UNL A   1      50.547  27.917  26.167  1.00  0.00    -0.014 A 
ATOM     58  C   UNL A   1      51.422  27.449  27.161  1.00  0.00     0.010 A 
ATOM     59  C   UNL A   1      51.041  28.171  24.874  1.00  0.00     0.010 A 
ATOM     60  C   UNL A   1      52.775  27.259  26.873  1.00  0.00     0.020 A 
ATOM     61  C   UNL A   1      52.387  27.957  24.575  1.00  0.00     0.020 A 
ATOM     62  C   UNL A   1      53.249  27.513  25.581  1.00  0.00     0.054 A 
BRANCH  62  63
ATOM     63  S   UNL A   1      54.997  27.200  25.215  1.00  0.00     0.124 S 
ATOM     64  O   UNL A   1      55.409  26.403  26.366  1.00  0.00    -0.237 OA
ATOM     65  O   UNL A   1      54.936  26.484  23.942  1.00  0.00    -0.237 OA
ATOM     66  O   UNL A   1      55.579  28.539  25.141  1.00  0.00    -0.744 OA
ENDBRANCH  62  63
ENDBRANCH  36  57
ENDBRANCH  10  11
ENDBRANCH   3   5
ENDBRANCH   2   3
ENDBRANCH   1   2
BRANCH   1  67
ATOM     67  C   UNL A   1      34.433  30.853  27.587  1.00  0.00     0.274 C 
BRANCH  67  68
ATOM     68  O   UNL A   1      33.744  30.341  26.438  1.00  0.00    -0.460 OA
BRANCH  68  69
ATOM     69  C   UNL A   1      32.750  29.431  26.668  1.00  0.00     0.335 C 
ATOM     70  O   UNL A   1      31.715  29.659  27.273  1.00  0.00    -0.249 OA
BRANCH  69  71
ATOM     71  C   UNL A   1      33.075  28.130  25.930  1.00  0.00     0.232 C 
ATOM     72  C   UNL A   1      32.526  26.865  26.544  1.00  0.00     0.087 C 
ATOM     73  O   UNL A   1      32.551  28.241  24.620  1.00  0.00    -0.355 OA
ATOM     74  C   UNL A   1      31.483  26.288  25.557  1.00  0.00     0.124 C 
ATOM     75  C   UNL A   1      31.500  27.294  24.367  1.00  0.00     0.187 C 
BRANCH  74  76
ATOM     76  C   UNL A   1      31.780  24.778  25.384  1.00  0.00     0.005 A 
ATOM     77  C   UNL A   1      30.869  23.909  26.056  1.00  0.00     0.008 A 
ATOM     78  C   UNL A   1      32.831  24.134  24.701  1.00  0.00     0.047 A 
ATOM     79  C   UNL A   1      30.977  22.515  26.035  1.00  0.00     0.001 A 
ATOM     80  C   UNL A   1      32.909  22.726  24.648  1.00  0.00     0.021 A 
ATOM     81  Cl  UNL A   1      34.173  24.896  23.932  1.00  0.00    -0.084 Cl
ATOM     82  C   UNL A   1      31.992  21.919  25.311  1.00  0.00     0.002 A 
ENDBRANCH  74  76
BRANCH  74  83
ATOM     83  O   UNL A   1      30.192  26.320  26.206  1.00  0.00    -0.382 OA
ATOM     84  H   UNL A   1      29.663  27.045  25.838  1.00  0.00     0.212 HD
ENDBRANCH  74  83
BRANCH  75  85
ATOM     85  C   UNL A   1      30.280  28.141  24.007  1.00  0.00     0.003 A 
ATOM     86  C   UNL A   1      30.359  29.549  24.014  1.00  0.00     0.008 A 
ATOM     87  C   UNL A   1      29.094  27.576  23.497  1.00  0.00     0.046 A 
ATOM     88  C   UNL A   1      29.349  30.352  23.479  1.00  0.00     0.000 A 
ATOM     89  C   UNL A   1      28.082  28.384  22.957  1.00  0.00     0.021 A 
ATOM     90  Cl  UNL A   1      28.794  25.875  23.470  1.00  0.00    -0.084 Cl
ATOM     91  C   UNL A   1      28.216  29.768  22.931  1.00  0.00     0.002 A 
ENDBRANCH  75  85
ENDBRANCH  69  71
ENDBRANCH  68  69
ENDBRANCH  67  68
ENDBRANCH   1  67
TORSDOF 17
ENDMDL
MODEL 3
REMARK VINA RESULT:     -10.5      6.820     12.814
REMARK SMILES O=C(OCCOC(=O)[C@H]1C[C@](O)(c2ccccc2Cl)[C@@H](c2ccccc2Cl)O1)c1ccc(-c2c3nc(c(-c4ccc(S(=O)(=O)[O-])cc4)c4ccc([nH]4)c(-c4ccc(S(=O)(=O)[O-])cc4)c4nc(c(-c5ccc(S(=O)(=O)[O-])cc5)c5ccc2[nH]5)C=C4)C=C3)cc1
REMARK SMILES IDX 4 1 3 2 2 3 1 4 29 5 30 6 88 7 31 8 87 9 32 10 33 11 34 12
REMARK SMILES IDX 81 13 35 14 86 15 80 16 82 17 36 18 85 19 79 20 78 21 37 23
REMARK SMILES IDX 67 24 48 25 66 26 49 27 52 28 65 29 83 30 50 31 51 32 64 34
REMARK SMILES IDX 84 35 53 36 38 37 39 38 47 39 40 40 46 41 41 42 42 43 43 44
REMARK SMILES IDX 44 45 45 46 68 47 69 48 77 49 70 50 76 51 71 52 72 53 73 54
REMARK SMILES IDX 74 55 75 56 54 57 55 58 63 59 56 60 62 61 57 62 58 63 59 64
REMARK SMILES IDX 60 65 61 66 5 67 6 68 7 69 8 70 9 71 10 72 28 73 11 74 20 75
REMARK SMILES IDX 13 76 14 77 18 78 15 79 17 80 19 81 16 82 12 83 21 85 22 86
REMARK SMILES IDX 26 87 23 88 25 89 27 90 24 91
REMARK H PARENT 82 22 52 33 12 84
REMARK Flexibility Score: inf
ROOT
ATOM      1  C   UNL A   1      33.952  30.354  26.864  1.00  0.00     0.275 C 
ENDROOT
BRANCH   1   2
ATOM      2  O   UNL A   1      34.731  29.649  27.848  1.00  0.00    -0.458 OA
BRANCH   2   3
ATOM      3  C   UNL A   1      35.520  30.305  28.744  1.00  0.00     0.338 C 
ATOM      4  O   UNL A   1      35.186  31.381  29.223  1.00  0.00    -0.246 OA
BRANCH   3   5
ATOM      5  C   UNL A   1      36.925  29.829  28.881  1.00  0.00     0.060 A 
ATOM      6  C   UNL A   1      37.469  29.383  30.086  1.00  0.00     0.016 A 
ATOM      7  C   UNL A   1      37.739  29.860  27.736  1.00  0.00     0.016 A 
ATOM      8  C   UNL A   1      38.771  28.891  30.135  1.00  0.00     0.010 A 
ATOM      9  C   UNL A   1      39.042  29.350  27.775  1.00  0.00     0.010 A 
ATOM     10  C   UNL A   1      39.568  28.881  28.985  1.00  0.00    -0.014 A 
BRANCH  10  11
ATOM     11  C   UNL A   1      41.015  28.631  29.161  1.00  0.00     0.031 A 
ATOM     12  C   UNL A   1      41.525  27.280  28.748  1.00  0.00     0.074 A 
ATOM     13  C   UNL A   1      41.861  29.613  29.525  1.00  0.00     0.049 A 
ATOM     14  N   UNL A   1      42.756  26.871  28.601  1.00  0.00    -0.248 NA
ATOM     15  C   UNL A   1      40.506  26.264  28.425  1.00  0.00     0.031 C 
ATOM     16  C   UNL A   1      41.471  30.974  29.885  1.00  0.00     0.029 A 
ATOM     17  N   UNL A   1      43.229  29.626  29.618  1.00  0.00    -0.354 N 
ATOM     18  C   UNL A   1      42.657  25.561  28.149  1.00  0.00     0.074 A 
ATOM     19  C   UNL A   1      41.254  25.227  28.091  1.00  0.00     0.031 C 
ATOM     20  C   UNL A   1      42.574  31.698  30.144  1.00  0.00     0.029 A 
ATOM     21  C   UNL A   1      43.749  30.848  29.976  1.00  0.00     0.049 A 
ATOM     22  H   UNL A   1      43.787  28.834  29.445  1.00  0.00     0.167 HD
ATOM     23  C   UNL A   1      43.649  24.712  27.798  1.00  0.00     0.031 A 
ATOM     24  C   UNL A   1      45.031  31.237  30.132  1.00  0.00     0.031 A 
ATOM     25  C   UNL A   1      45.041  25.036  27.915  1.00  0.00     0.049 A 
ATOM     26  C   UNL A   1      46.122  30.241  29.835  1.00  0.00     0.074 A 
ATOM     27  C   UNL A   1      46.139  24.243  27.640  1.00  0.00     0.029 A 
ATOM     28  N   UNL A   1      45.524  26.256  28.366  1.00  0.00    -0.354 N 
ATOM     29  N   UNL A   1      46.012  29.014  29.382  1.00  0.00    -0.248 NA
ATOM     30  C   UNL A   1      47.504  30.682  30.056  1.00  0.00     0.031 C 
ATOM     31  C   UNL A   1      47.287  24.968  27.978  1.00  0.00     0.029 A 
ATOM     32  C   UNL A   1      46.905  26.232  28.405  1.00  0.00     0.049 A 
ATOM     33  H   UNL A   1      44.966  27.026  28.621  1.00  0.00     0.167 HD
ATOM     34  C   UNL A   1      47.313  28.543  29.242  1.00  0.00     0.074 A 
ATOM     35  C   UNL A   1      48.191  29.624  29.645  1.00  0.00     0.031 C 
ATOM     36  C   UNL A   1      47.746  27.329  28.818  1.00  0.00     0.031 A 
BRANCH  23  37
ATOM     37  C   UNL A   1      43.230  23.349  27.322  1.00  0.00    -0.014 A 
ATOM     38  C   UNL A   1      42.750  22.380  28.224  1.00  0.00     0.010 A 
ATOM     39  C   UNL A   1      43.385  23.007  25.968  1.00  0.00     0.010 A 
ATOM     40  C   UNL A   1      42.491  21.077  27.790  1.00  0.00     0.020 A 
ATOM     41  C   UNL A   1      43.103  21.712  25.525  1.00  0.00     0.020 A 
ATOM     42  C   UNL A   1      42.682  20.749  26.445  1.00  0.00     0.054 A 
BRANCH  42  43
ATOM     43  S   UNL A   1      42.373  19.043  25.911  1.00  0.00     0.124 S 
ATOM     44  O   UNL A   1      40.926  19.048  25.709  1.00  0.00    -0.237 OA
ATOM     45  O   UNL A   1      43.175  18.938  24.695  1.00  0.00    -0.237 OA
ATOM     46  O   UNL A   1      42.843  18.237  27.035  1.00  0.00    -0.744 OA
ENDBRANCH  42  43
ENDBRANCH  23  37
BRANCH  24  47
ATOM     47  C   UNL A   1      45.348  32.624  30.579  1.00  0.00    -0.014 A 
ATOM     48  C   UNL A   1      45.550  33.661  29.649  1.00  0.00     0.010 A 
ATOM     49  C   UNL A   1      45.442  32.920  31.952  1.00  0.00     0.010 A 
ATOM     50  C   UNL A   1      45.845  34.958  30.083  1.00  0.00     0.020 A 
ATOM     51  C   UNL A   1      45.715  34.220  32.391  1.00  0.00     0.020 A 
ATOM     52  C   UNL A   1      45.922  35.231  31.452  1.00  0.00     0.054 A 
BRANCH  52  53
ATOM     53  S   UNL A   1      46.245  36.934  31.993  1.00  0.00     0.124 S 
ATOM     54  O   UNL A   1      46.775  37.545  30.779  1.00  0.00    -0.237 OA
ATOM     55  O   UNL A   1      44.919  37.390  32.405  1.00  0.00    -0.237 OA
ATOM     56  O   UNL A   1      47.204  36.770  33.083  1.00  0.00    -0.744 OA
ENDBRANCH  52  53
ENDBRANCH  24  47
BRANCH  36  57
ATOM     57  C   UNL A   1      49.232  27.112  28.750  1.00  0.00    -0.014 A 
ATOM     58  C   UNL A   1      49.966  27.473  27.608  1.00  0.00     0.010 A 
ATOM     59  C   UNL A   1      49.910  26.620  29.881  1.00  0.00     0.010 A 
ATOM     60  C   UNL A   1      51.354  27.323  27.589  1.00  0.00     0.020 A 
ATOM     61  C   UNL A   1      51.300  26.494  29.875  1.00  0.00     0.020 A 
ATOM     62  C   UNL A   1      52.013  26.837  28.724  1.00  0.00     0.054 A 
BRANCH  62  63
ATOM     63  S   UNL A   1      53.821  26.709  28.696  1.00  0.00     0.124 S 
ATOM     64  O   UNL A   1      54.119  26.335  30.076  1.00  0.00    -0.237 OA
ATOM     65  O   UNL A   1      54.055  25.668  27.697  1.00  0.00    -0.237 OA
ATOM     66  O   UNL A   1      54.256  28.048  28.304  1.00  0.00    -0.744 OA
ENDBRANCH  62  63
ENDBRANCH  36  57
ENDBRANCH  10  11
ENDBRANCH   3   5
ENDBRANCH   2   3
ENDBRANCH   1   2
BRANCH   1  67
ATOM     67  C   UNL A   1      32.450  30.237  27.144  1.00  0.00     0.274 C 
BRANCH  67  68
ATOM     68  O   UNL A   1      31.893  29.152  26.390  1.00  0.00    -0.460 OA
BRANCH  68  69
ATOM     69  C   UNL A   1      31.717  27.967  27.049  1.00  0.00     0.335 C 
ATOM     70  O   UNL A   1      31.018  27.809  28.037  1.00  0.00    -0.249 OA
BRANCH  69  71
ATOM     71  C   UNL A   1      32.419  26.849  26.274  1.00  0.00     0.232 C 
ATOM     72  C   UNL A   1      31.738  25.501  26.294  1.00  0.00     0.087 C 
ATOM     73  O   UNL A   1      32.522  27.265  24.926  1.00  0.00    -0.355 OA
ATOM     74  C   UNL A   1      31.278  25.196  24.848  1.00  0.00     0.124 C 
ATOM     75  C   UNL A   1      31.754  26.437  24.036  1.00  0.00     0.187 C 
BRANCH  74  76
ATOM     76  C   UNL A   1      31.718  23.750  24.508  1.00  0.00     0.005 A 
ATOM     77  C   UNL A   1      31.467  22.791  25.535  1.00  0.00     0.008 A 
ATOM     78  C   UNL A   1      32.363  23.246  23.360  1.00  0.00     0.047 A 
ATOM     79  C   UNL A   1      31.806  21.440  25.425  1.00  0.00     0.001 A 
ATOM     80  C   UNL A   1      32.663  21.872  23.239  1.00  0.00     0.021 A 
ATOM     81  Cl  UNL A   1      32.943  24.167  22.023  1.00  0.00    -0.084 Cl
ATOM     82  C   UNL A   1      32.390  20.973  24.263  1.00  0.00     0.002 A 
ENDBRANCH  74  76
BRANCH  74  83
ATOM     83  O   UNL A   1      29.834  25.133  24.845  1.00  0.00    -0.382 OA
ATOM     84  H   UNL A   1      29.550  24.223  24.669  1.00  0.00     0.212 HD
ENDBRANCH  74  83
BRANCH  75  85
ATOM     85  C   UNL A   1      30.767  27.388  23.360  1.00  0.00     0.003 A 
ATOM     86  C   UNL A   1      29.376  27.201  23.511  1.00  0.00     0.008 A 
ATOM     87  C   UNL A   1      31.180  28.567  22.709  1.00  0.00     0.046 A 
ATOM     88  C   UNL A   1      28.450  28.165  23.105  1.00  0.00     0.000 A 
ATOM     89  C   UNL A   1      30.248  29.535  22.305  1.00  0.00     0.021 A 
ATOM     90  Cl  UNL A   1      32.836  28.932  22.378  1.00  0.00    -0.084 Cl
ATOM     91  C   UNL A   1      28.886  29.343  22.518  1.00  0.00     0.002 A 
ENDBRANCH  75  85
ENDBRANCH  69  71
ENDBRANCH  68  69
ENDBRANCH  67  68
ENDBRANCH   1  67
TORSDOF 17
ENDMDL
