MODEL 1
REMARK VINA RESULT:     -11.9      0.000      0.000
REMARK SMILES O=C(NC(=S)Nc1ccccc1C(=O)OCCOC(=O)c1ccc(-c2c3nc(c(-c4ccc(S(=O)(=O)[O-])cc4)c4ccc([nH]4)c(-c4ccc(S(=O)(=O)[O-])cc4)c4nc(c(-c5ccc(S(=O)(=O)[O-])cc5)c5ccc2[nH]5)C=C4)C=C3)cc1)c1ccc2ccccc2c1
REMARK SMILES IDX 16 1 15 2 13 3 14 4 12 5 7 6 8 7 9 8 11 9 10 10 6 11 4 13
REMARK SMILES IDX 5 14 3 15 1 16 2 17 81 19 82 20 90 21 83 22 89 23 84 24
REMARK SMILES IDX 88 25 85 26 87 27 86 28 17 29 18 30 19 31 20 32 21 33 22 34
REMARK SMILES IDX 80 35 23 36 79 37 24 38 25 39 26 40 73 41 27 42 78 43 72 44
REMARK SMILES IDX 74 45 28 46 77 47 71 48 70 49 29 51 59 52 40 53 58 54 41 55
REMARK SMILES IDX 44 56 57 57 75 58 42 59 43 60 56 62 76 63 45 64 30 65 31 66
REMARK SMILES IDX 39 67 32 68 38 69 33 70 34 71 35 72 36 73 37 74 60 75 61 76
REMARK SMILES IDX 69 77 62 78 68 79 63 80 64 81 65 82 66 83 67 84 46 85 47 86
REMARK SMILES IDX 55 87 48 88 54 89 49 90 50 91 51 92 52 93 53 94
REMARK H PARENT 6 12 3 18 74 50 44 61
REMARK Flexibility Score: inf
ROOT
ATOM      1  C   UNL A   1      35.556  22.362  24.877  1.00  0.00     0.275 C 
ENDROOT
BRANCH   1   2
ATOM      2  O   UNL A   1      35.282  21.119  25.579  1.00  0.00    -0.458 OA
BRANCH   2   3
ATOM      3  C   UNL A   1      34.012  21.069  26.029  1.00  0.00     0.340 C 
ATOM      4  O   UNL A   1      33.682  21.376  27.167  1.00  0.00    -0.246 OA
BRANCH   3   5
ATOM      5  C   UNL A   1      32.980  20.425  25.169  1.00  0.00     0.083 A 
ATOM      6  C   UNL A   1      32.243  21.623  23.788  1.00  0.00     0.055 A 
ATOM      7  C   UNL A   1      31.836  20.854  21.973  1.00  0.00     0.027 A 
ATOM      8  C   UNL A   1      32.250  18.927  21.834  1.00  0.00     0.002 A 
ATOM      9  C   UNL A   1      33.433  18.510  24.998  1.00  0.00     0.018 A 
ATOM     10  C   UNL A   1      33.012  17.727  23.195  1.00  0.00     0.001 A 
BRANCH   6  11
ATOM     11  N   UNL A   1      32.613  22.976  23.823  1.00  0.00    -0.332 N 
ATOM     12  H   UNL A   1      33.451  23.203  24.289  1.00  0.00     0.169 HD
BRANCH  11  13
ATOM     13  C   UNL A   1      31.914  23.994  23.268  1.00  0.00     0.177 C 
ATOM     14  S   UNL A   1      30.566  24.563  24.083  1.00  0.00    -0.040 S 
BRANCH  13  15
ATOM     15  N   UNL A   1      32.219  24.545  22.030  1.00  0.00    -0.299 N 
ATOM     16  O   UNL A   1      33.037  25.525  20.147  1.00  0.00    -0.269 OA
ATOM     17  C   UNL A   1      32.823  25.649  21.356  1.00  0.00     0.257 C 
ATOM     18  H   UNL A   1      31.884  23.927  21.342  1.00  0.00     0.172 HD
BRANCH  17  19
ATOM     19  C   UNL A   1      33.269  26.949  21.945  1.00  0.00     0.040 A 
ATOM     20  C   UNL A   1      33.723  26.831  23.143  1.00  0.00     0.014 A 
ATOM     21  C   UNL A   1      33.168  27.685  23.043  1.00  0.00     0.022 A 
ATOM     22  C   UNL A   1      33.912  27.424  25.086  1.00  0.00     0.009 A 
ATOM     23  C   UNL A   1      33.183  28.522  24.942  1.00  0.00    -0.018 A 
ATOM     24  C   UNL A   1      33.724  28.228  26.044  1.00  0.00    -0.018 A 
ATOM     25  C   UNL A   1      32.573  29.833  25.711  1.00  0.00     0.009 A 
ATOM     26  C   UNL A   1      34.611  28.930  26.946  1.00  0.00     0.009 A 
ATOM     27  C   UNL A   1      32.944  30.496  26.926  1.00  0.00     0.001 A 
ATOM     28  C   UNL A   1      34.113  30.073  27.496  1.00  0.00     0.001 A 
ENDBRANCH  17  19
ENDBRANCH  13  15
ENDBRANCH  11  13
ENDBRANCH   6  11
ENDBRANCH   3   5
ENDBRANCH   2   3
ENDBRANCH   1   2
BRANCH   1  29
ATOM     29  C   UNL A   1      36.142  23.480  25.755  1.00  0.00     0.275 C 
BRANCH  29  30
ATOM     30  O   UNL A   1      37.435  23.932  25.310  1.00  0.00    -0.458 OA
BRANCH  30  31
ATOM     31  C   UNL A   1      38.476  23.326  25.923  1.00  0.00     0.338 C 
ATOM     32  O   UNL A   1      38.797  22.151  25.829  1.00  0.00    -0.246 OA
BRANCH  31  33
ATOM     33  C   UNL A   1      39.251  24.268  26.744  1.00  0.00     0.060 A 
ATOM     34  C   UNL A   1      39.010  24.362  28.112  1.00  0.00     0.016 A 
ATOM     35  C   UNL A   1      40.018  25.240  26.109  1.00  0.00     0.016 A 
ATOM     36  C   UNL A   1      39.367  25.506  28.809  1.00  0.00     0.010 A 
ATOM     37  C   UNL A   1      40.523  26.308  26.855  1.00  0.00     0.010 A 
ATOM     38  C   UNL A   1      40.158  26.479  28.202  1.00  0.00    -0.014 A 
BRANCH  38  39
ATOM     39  C   UNL A   1      40.597  27.677  28.961  1.00  0.00     0.031 A 
ATOM     40  C   UNL A   1      41.900  27.643  29.713  1.00  0.00     0.074 A 
ATOM     41  C   UNL A   1      39.810  28.771  29.008  1.00  0.00     0.049 A 
ATOM     42  N   UNL A   1      42.325  28.434  30.660  1.00  0.00    -0.248 NA
ATOM     43  C   UNL A   1      42.837  26.557  29.372  1.00  0.00     0.031 C 
ATOM     44  C   UNL A   1      38.563  28.963  28.260  1.00  0.00     0.029 A 
ATOM     45  N   UNL A   1      39.934  29.927  29.736  1.00  0.00    -0.354 N 
ATOM     46  C   UNL A   1      43.539  27.902  31.082  1.00  0.00     0.074 A 
ATOM     47  C   UNL A   1      43.782  26.718  30.287  1.00  0.00     0.031 C 
ATOM     48  C   UNL A   1      38.050  30.165  28.551  1.00  0.00     0.029 A 
ATOM     49  C   UNL A   1      38.857  30.773  29.597  1.00  0.00     0.049 A 
ATOM     50  H   UNL A   1      40.714  30.132  30.301  1.00  0.00     0.167 HD
ATOM     51  C   UNL A   1      44.362  28.361  32.054  1.00  0.00     0.031 A 
ATOM     52  C   UNL A   1      38.508  31.875  30.287  1.00  0.00     0.031 A 
ATOM     53  C   UNL A   1      44.102  29.557  32.812  1.00  0.00     0.049 A 
ATOM     54  C   UNL A   1      39.394  32.319  31.413  1.00  0.00     0.074 A 
ATOM     55  C   UNL A   1      44.870  30.129  33.810  1.00  0.00     0.029 A 
ATOM     56  N   UNL A   1      42.987  30.369  32.650  1.00  0.00    -0.354 N 
ATOM     57  N   UNL A   1      40.516  31.786  31.835  1.00  0.00    -0.248 NA
ATOM     58  C   UNL A   1      38.965  33.505  32.161  1.00  0.00     0.031 C 
ATOM     59  C   UNL A   1      44.186  31.246  34.298  1.00  0.00     0.029 A 
ATOM     60  C   UNL A   1      43.033  31.420  33.548  1.00  0.00     0.049 A 
ATOM     61  H   UNL A   1      42.269  30.218  31.993  1.00  0.00     0.167 HD
ATOM     62  C   UNL A   1      40.946  32.594  32.879  1.00  0.00     0.074 A 
ATOM     63  C   UNL A   1      39.969  33.657  33.013  1.00  0.00     0.031 C 
ATOM     64  C   UNL A   1      42.051  32.472  33.654  1.00  0.00     0.031 A 
BRANCH  51  65
ATOM     65  C   UNL A   1      45.584  27.544  32.392  1.00  0.00    -0.014 A 
ATOM     66  C   UNL A   1      45.542  26.495  33.328  1.00  0.00     0.010 A 
ATOM     67  C   UNL A   1      46.796  27.809  31.724  1.00  0.00     0.010 A 
ATOM     68  C   UNL A   1      46.693  25.755  33.616  1.00  0.00     0.020 A 
ATOM     69  C   UNL A   1      47.940  27.049  31.983  1.00  0.00     0.020 A 
ATOM     70  C   UNL A   1      47.884  26.036  32.940  1.00  0.00     0.054 A 
BRANCH  70  71
ATOM     71  S   UNL A   1      49.352  25.038  33.314  1.00  0.00     0.124 S 
ATOM     72  O   UNL A   1      49.940  24.859  31.989  1.00  0.00    -0.237 OA
ATOM     73  O   UNL A   1      50.102  25.903  34.221  1.00  0.00    -0.237 OA
ATOM     74  O   UNL A   1      48.805  23.826  33.921  1.00  0.00    -0.744 OA
ENDBRANCH  70  71
ENDBRANCH  51  65
BRANCH  52  75
ATOM     75  C   UNL A   1      37.240  32.584  29.963  1.00  0.00    -0.014 A 
ATOM     76  C   UNL A   1      37.227  33.627  29.023  1.00  0.00     0.010 A 
ATOM     77  C   UNL A   1      36.029  32.201  30.574  1.00  0.00     0.010 A 
ATOM     78  C   UNL A   1      36.034  34.286  28.712  1.00  0.00     0.020 A 
ATOM     79  C   UNL A   1      34.827  32.830  30.236  1.00  0.00     0.020 A 
ATOM     80  C   UNL A   1      34.840  33.878  29.317  1.00  0.00     0.054 A 
BRANCH  80  81
ATOM     81  S   UNL A   1      33.302  34.723  28.861  1.00  0.00     0.124 S 
ATOM     82  O   UNL A   1      33.800  35.935  28.218  1.00  0.00    -0.237 OA
ATOM     83  O   UNL A   1      32.663  33.753  27.975  1.00  0.00    -0.237 OA
ATOM     84  O   UNL A   1      32.628  34.925  30.142  1.00  0.00    -0.744 OA
ENDBRANCH  80  81
ENDBRANCH  52  75
BRANCH  64  85
ATOM     85  C   UNL A   1      42.299  33.549  34.675  1.00  0.00    -0.014 A 
ATOM     86  C   UNL A   1      41.810  33.444  35.989  1.00  0.00     0.010 A 
ATOM     87  C   UNL A   1      43.093  34.656  34.322  1.00  0.00     0.010 A 
ATOM     88  C   UNL A   1      42.095  34.441  36.925  1.00  0.00     0.020 A 
ATOM     89  C   UNL A   1      43.410  35.634  35.264  1.00  0.00     0.020 A 
ATOM     90  C   UNL A   1      42.899  35.525  36.558  1.00  0.00     0.054 A 
BRANCH  90  91
ATOM     91  S   UNL A   1      43.307  36.768  37.812  1.00  0.00     0.124 S 
ATOM     92  O   UNL A   1      43.675  37.919  36.993  1.00  0.00    -0.237 OA
ATOM     93  O   UNL A   1      42.054  36.897  38.552  1.00  0.00    -0.237 OA
ATOM     94  O   UNL A   1      44.406  36.160  38.560  1.00  0.00    -0.744 OA
ENDBRANCH  90  91
ENDBRANCH  64  85
ENDBRANCH  38  39
ENDBRANCH  31  33
ENDBRANCH  30  31
ENDBRANCH  29  30
ENDBRANCH   1  29
TORSDOF 18
ENDMDL
MODEL 2
REMARK VINA RESULT:     -11.9      3.531      9.834
REMARK SMILES O=C(NC(=S)Nc1ccccc1C(=O)OCCOC(=O)c1ccc(-c2c3nc(c(-c4ccc(S(=O)(=O)[O-])cc4)c4ccc([nH]4)c(-c4ccc(S(=O)(=O)[O-])cc4)c4nc(c(-c5ccc(S(=O)(=O)[O-])cc5)c5ccc2[nH]5)C=C4)C=C3)cc1)c1ccc2ccccc2c1
REMARK SMILES IDX 16 1 15 2 13 3 14 4 12 5 7 6 8 7 9 8 11 9 10 10 6 11 4 13
REMARK SMILES IDX 5 14 3 15 1 16 2 17 81 19 82 20 90 21 83 22 89 23 84 24
REMARK SMILES IDX 88 25 85 26 87 27 86 28 17 29 18 30 19 31 20 32 21 33 22 34
REMARK SMILES IDX 80 35 23 36 79 37 24 38 25 39 26 40 73 41 27 42 78 43 72 44
REMARK SMILES IDX 74 45 28 46 77 47 71 48 70 49 29 51 59 52 40 53 58 54 41 55
REMARK SMILES IDX 44 56 57 57 75 58 42 59 43 60 56 62 76 63 45 64 30 65 31 66
REMARK SMILES IDX 39 67 32 68 38 69 33 70 34 71 35 72 36 73 37 74 60 75 61 76
REMARK SMILES IDX 69 77 62 78 68 79 63 80 64 81 65 82 66 83 67 84 46 85 47 86
REMARK SMILES IDX 55 87 48 88 54 89 49 90 50 91 51 92 52 93 53 94
REMARK H PARENT 6 12 3 18 74 50 44 61
REMARK Flexibility Score: inf
ROOT
ATOM      1  C   UNL A   1      31.535  29.741  26.582  1.00  0.00     0.275 C 
ENDROOT
BRANCH   1   2
ATOM      2  O   UNL A   1      31.641  30.251  25.226  1.00  0.00    -0.458 OA
BRANCH   2   3
ATOM      3  C   UNL A   1      31.860  29.262  24.336  1.00  0.00     0.340 C 
ATOM      4  O   UNL A   1      32.975  28.876  24.011  1.00  0.00    -0.246 OA
BRANCH   3   5
ATOM      5  C   UNL A   1      30.703  28.738  23.559  1.00  0.00     0.083 A 
ATOM      6  C   UNL A   1      30.021  27.012  24.224  1.00  0.00     0.055 A 
ATOM      7  C   UNL A   1      28.032  26.701  24.211  1.00  0.00     0.027 A 
ATOM      8  C   UNL A   1      27.009  28.234  23.501  1.00  0.00     0.002 A 
ATOM      9  C   UNL A   1      29.661  30.280  22.897  1.00  0.00     0.018 A 
ATOM     10  C   UNL A   1      27.675  29.972  22.860  1.00  0.00     0.001 A 
BRANCH   6  11
ATOM     11  N   UNL A   1      30.747  26.361  25.232  1.00  0.00    -0.332 N 
ATOM     12  H   UNL A   1      30.415  26.445  26.155  1.00  0.00     0.169 HD
BRANCH  11  13
ATOM     13  C   UNL A   1      31.866  25.623  25.040  1.00  0.00     0.177 C 
ATOM     14  S   UNL A   1      32.322  24.550  26.243  1.00  0.00    -0.040 S 
BRANCH  13  15
ATOM     15  N   UNL A   1      32.690  25.758  23.929  1.00  0.00    -0.299 N 
ATOM     16  O   UNL A   1      33.895  25.670  22.001  1.00  0.00    -0.269 OA
ATOM     17  C   UNL A   1      33.574  25.081  23.037  1.00  0.00     0.257 C 
ATOM     18  H   UNL A   1      32.646  26.699  23.642  1.00  0.00     0.172 HD
BRANCH  17  19
ATOM     19  C   UNL A   1      34.147  23.707  23.184  1.00  0.00     0.040 A 
ATOM     20  C   UNL A   1      33.348  22.781  22.784  1.00  0.00     0.014 A 
ATOM     21  C   UNL A   1      33.847  22.495  23.629  1.00  0.00     0.022 A 
ATOM     22  C   UNL A   1      32.437  20.963  22.950  1.00  0.00     0.009 A 
ATOM     23  C   UNL A   1      33.086  20.612  24.051  1.00  0.00    -0.018 A 
ATOM     24  C   UNL A   1      32.258  19.837  23.496  1.00  0.00    -0.018 A 
ATOM     25  C   UNL A   1      33.270  19.436  25.177  1.00  0.00     0.009 A 
ATOM     26  C   UNL A   1      32.324  18.474  23.015  1.00  0.00     0.009 A 
ATOM     27  C   UNL A   1      32.960  18.036  25.167  1.00  0.00     0.001 A 
ATOM     28  C   UNL A   1      32.578  17.525  23.959  1.00  0.00     0.001 A 
ENDBRANCH  17  19
ENDBRANCH  13  15
ENDBRANCH  11  13
ENDBRANCH   6  11
ENDBRANCH   3   5
ENDBRANCH   2   3
ENDBRANCH   1   2
BRANCH   1  29
ATOM     29  C   UNL A   1      32.879  29.404  27.249  1.00  0.00     0.275 C 
BRANCH  29  30
ATOM     30  O   UNL A   1      33.924  30.341  26.925  1.00  0.00    -0.458 OA
BRANCH  30  31
ATOM     31  C   UNL A   1      34.612  30.798  27.994  1.00  0.00     0.338 C 
ATOM     32  O   UNL A   1      34.267  31.683  28.762  1.00  0.00    -0.246 OA
BRANCH  31  33
ATOM     33  C   UNL A   1      35.881  30.077  28.177  1.00  0.00     0.060 A 
ATOM     34  C   UNL A   1      36.243  29.614  29.438  1.00  0.00     0.016 A 
ATOM     35  C   UNL A   1      36.823  30.104  27.153  1.00  0.00     0.016 A 
ATOM     36  C   UNL A   1      37.573  29.354  29.734  1.00  0.00     0.010 A 
ATOM     37  C   UNL A   1      38.128  29.678  27.412  1.00  0.00     0.010 A 
ATOM     38  C   UNL A   1      38.529  29.349  28.719  1.00  0.00    -0.014 A 
BRANCH  38  39
ATOM     39  C   UNL A   1      39.944  29.011  29.017  1.00  0.00     0.031 A 
ATOM     40  C   UNL A   1      40.871  30.080  29.527  1.00  0.00     0.074 A 
ATOM     41  C   UNL A   1      40.400  27.762  28.789  1.00  0.00     0.049 A 
ATOM     42  N   UNL A   1      42.176  30.089  29.563  1.00  0.00    -0.248 NA
ATOM     43  C   UNL A   1      40.247  31.313  30.039  1.00  0.00     0.031 C 
ATOM     44  C   UNL A   1      39.587  26.615  28.372  1.00  0.00     0.029 A 
ATOM     45  N   UNL A   1      41.671  27.252  28.857  1.00  0.00    -0.354 N 
ATOM     46  C   UNL A   1      42.533  31.350  30.027  1.00  0.00     0.074 A 
ATOM     47  C   UNL A   1      41.306  32.080  30.258  1.00  0.00     0.031 C 
ATOM     48  C   UNL A   1      40.371  25.537  28.242  1.00  0.00     0.029 A 
ATOM     49  C   UNL A   1      41.753  25.943  28.439  1.00  0.00     0.049 A 
ATOM     50  H   UNL A   1      42.447  27.769  29.174  1.00  0.00     0.167 HD
ATOM     51  C   UNL A   1      43.776  31.849  30.227  1.00  0.00     0.031 A 
ATOM     52  C   UNL A   1      42.822  25.173  28.163  1.00  0.00     0.031 A 
ATOM     53  C   UNL A   1      44.978  31.087  30.009  1.00  0.00     0.049 A 
ATOM     54  C   UNL A   1      44.189  25.772  28.314  1.00  0.00     0.074 A 
ATOM     55  C   UNL A   1      46.291  31.480  30.193  1.00  0.00     0.029 A 
ATOM     56  N   UNL A   1      45.011  29.772  29.564  1.00  0.00    -0.354 N 
ATOM     57  N   UNL A   1      44.518  26.978  28.710  1.00  0.00    -0.248 NA
ATOM     58  C   UNL A   1      45.327  24.911  27.974  1.00  0.00     0.031 C 
ATOM     59  C   UNL A   1      47.119  30.426  29.793  1.00  0.00     0.029 A 
ATOM     60  C   UNL A   1      46.322  29.347  29.440  1.00  0.00     0.049 A 
ATOM     61  H   UNL A   1      44.219  29.223  29.365  1.00  0.00     0.167 HD
ATOM     62  C   UNL A   1      45.907  27.011  28.700  1.00  0.00     0.074 A 
ATOM     63  C   UNL A   1      46.351  25.699  28.271  1.00  0.00     0.031 C 
ATOM     64  C   UNL A   1      46.739  28.032  29.020  1.00  0.00     0.031 A 
BRANCH  51  65
ATOM     65  C   UNL A   1      43.902  33.292  30.647  1.00  0.00    -0.014 A 
ATOM     66  C   UNL A   1      44.099  33.660  31.990  1.00  0.00     0.010 A 
ATOM     67  C   UNL A   1      43.861  34.301  29.665  1.00  0.00     0.010 A 
ATOM     68  C   UNL A   1      44.215  35.009  32.345  1.00  0.00     0.020 A 
ATOM     69  C   UNL A   1      44.012  35.646  30.011  1.00  0.00     0.020 A 
ATOM     70  C   UNL A   1      44.172  35.992  31.353  1.00  0.00     0.054 A 
BRANCH  70  71
ATOM     71  S   UNL A   1      44.356  37.729  31.843  1.00  0.00     0.124 S 
ATOM     72  O   UNL A   1      45.769  37.792  32.208  1.00  0.00    -0.237 OA
ATOM     73  O   UNL A   1      43.991  38.444  30.622  1.00  0.00    -0.237 OA
ATOM     74  O   UNL A   1      43.419  37.880  32.954  1.00  0.00    -0.744 OA
ENDBRANCH  70  71
ENDBRANCH  51  65
BRANCH  52  75
ATOM     75  C   UNL A   1      42.628  23.784  27.662  1.00  0.00    -0.014 A 
ATOM     76  C   UNL A   1      42.395  22.729  28.560  1.00  0.00     0.010 A 
ATOM     77  C   UNL A   1      42.646  23.511  26.280  1.00  0.00     0.010 A 
ATOM     78  C   UNL A   1      42.203  21.428  28.090  1.00  0.00     0.020 A 
ATOM     79  C   UNL A   1      42.414  22.217  25.803  1.00  0.00     0.020 A 
ATOM     80  C   UNL A   1      42.207  21.182  26.713  1.00  0.00     0.054 A 
BRANCH  80  81
ATOM     81  S   UNL A   1      41.911  19.490  26.131  1.00  0.00     0.124 S 
ATOM     82  O   UNL A   1      42.289  18.698  27.296  1.00  0.00    -0.237 OA
ATOM     83  O   UNL A   1      40.485  19.512  25.816  1.00  0.00    -0.237 OA
ATOM     84  O   UNL A   1      42.797  19.365  24.974  1.00  0.00    -0.744 OA
ENDBRANCH  80  81
ENDBRANCH  52  75
BRANCH  64  85
ATOM     85  C   UNL A   1      48.217  27.753  28.982  1.00  0.00    -0.014 A 
ATOM     86  C   UNL A   1      48.993  28.051  27.848  1.00  0.00     0.010 A 
ATOM     87  C   UNL A   1      48.845  27.241  30.132  1.00  0.00     0.010 A 
ATOM     88  C   UNL A   1      50.370  27.821  27.861  1.00  0.00     0.020 A 
ATOM     89  C   UNL A   1      50.226  27.044  30.161  1.00  0.00     0.020 A 
ATOM     90  C   UNL A   1      50.979  27.326  29.020  1.00  0.00     0.054 A 
BRANCH  90  91
ATOM     91  S   UNL A   1      52.777  27.100  29.029  1.00  0.00     0.124 S 
ATOM     92  O   UNL A   1      52.999  26.365  27.787  1.00  0.00    -0.237 OA
ATOM     93  O   UNL A   1      53.269  28.475  29.044  1.00  0.00    -0.237 OA
ATOM     94  O   UNL A   1      53.025  26.342  30.253  1.00  0.00    -0.744 OA
ENDBRANCH  90  91
ENDBRANCH  64  85
ENDBRANCH  38  39
ENDBRANCH  31  33
ENDBRANCH  30  31
ENDBRANCH  29  30
ENDBRANCH   1  29
TORSDOF 18
ENDMDL
MODEL 3
REMARK VINA RESULT:     -11.8      2.318      3.145
REMARK SMILES O=C(NC(=S)Nc1ccccc1C(=O)OCCOC(=O)c1ccc(-c2c3nc(c(-c4ccc(S(=O)(=O)[O-])cc4)c4ccc([nH]4)c(-c4ccc(S(=O)(=O)[O-])cc4)c4nc(c(-c5ccc(S(=O)(=O)[O-])cc5)c5ccc2[nH]5)C=C4)C=C3)cc1)c1ccc2ccccc2c1
REMARK SMILES IDX 16 1 15 2 13 3 14 4 12 5 7 6 8 7 9 8 11 9 10 10 6 11 4 13
REMARK SMILES IDX 5 14 3 15 1 16 2 17 81 19 82 20 90 21 83 22 89 23 84 24
REMARK SMILES IDX 88 25 85 26 87 27 86 28 17 29 18 30 19 31 20 32 21 33 22 34
REMARK SMILES IDX 80 35 23 36 79 37 24 38 25 39 26 40 73 41 27 42 78 43 72 44
REMARK SMILES IDX 74 45 28 46 77 47 71 48 70 49 29 51 59 52 40 53 58 54 41 55
REMARK SMILES IDX 44 56 57 57 75 58 42 59 43 60 56 62 76 63 45 64 30 65 31 66
REMARK SMILES IDX 39 67 32 68 38 69 33 70 34 71 35 72 36 73 37 74 60 75 61 76
REMARK SMILES IDX 69 77 62 78 68 79 63 80 64 81 65 82 66 83 67 84 46 85 47 86
REMARK SMILES IDX 55 87 48 88 54 89 49 90 50 91 51 92 52 93 53 94
REMARK H PARENT 6 12 3 18 74 50 44 61
REMARK Flexibility Score: inf
ROOT
ATOM      1  C   UNL A   1      36.417  23.551  25.906  1.00  0.00     0.275 C 
ENDROOT
BRANCH   1   2
ATOM      2  O   UNL A   1      35.728  24.049  24.727  1.00  0.00    -0.458 OA
BRANCH   2   3
ATOM      3  C   UNL A   1      35.444  23.057  23.858  1.00  0.00     0.340 C 
ATOM      4  O   UNL A   1      35.958  22.957  22.752  1.00  0.00    -0.246 OA
BRANCH   3   5
ATOM      5  C   UNL A   1      34.310  22.143  24.170  1.00  0.00     0.083 A 
ATOM      6  C   UNL A   1      32.808  22.286  22.902  1.00  0.00     0.055 A 
ATOM      7  C   UNL A   1      31.837  20.603  22.377  1.00  0.00     0.027 A 
ATOM      8  C   UNL A   1      32.560  18.983  23.248  1.00  0.00     0.002 A 
ATOM      9  C   UNL A   1      35.051  20.508  24.995  1.00  0.00     0.018 A 
ATOM     10  C   UNL A   1      34.075  18.824  24.493  1.00  0.00     0.001 A 
BRANCH   6  11
ATOM     11  N   UNL A   1      32.852  23.306  21.941  1.00  0.00    -0.332 N 
ATOM     12  H   UNL A   1      33.334  23.117  21.103  1.00  0.00     0.169 HD
BRANCH  11  13
ATOM     13  C   UNL A   1      32.285  24.529  22.069  1.00  0.00     0.177 C 
ATOM     14  S   UNL A   1      32.599  25.673  20.886  1.00  0.00    -0.040 S 
BRANCH  13  15
ATOM     15  N   UNL A   1      31.512  24.903  23.160  1.00  0.00    -0.299 N 
ATOM     16  O   UNL A   1      30.167  25.807  24.757  1.00  0.00    -0.269 OA
ATOM     17  C   UNL A   1      31.140  25.981  24.018  1.00  0.00     0.257 C 
ATOM     18  H   UNL A   1      31.025  24.103  23.465  1.00  0.00     0.172 HD
BRANCH  17  19
ATOM     19  C   UNL A   1      31.771  27.334  24.115  1.00  0.00     0.040 A 
ATOM     20  C   UNL A   1      32.801  27.357  24.885  1.00  0.00     0.014 A 
ATOM     21  C   UNL A   1      32.239  28.204  24.998  1.00  0.00     0.022 A 
ATOM     22  C   UNL A   1      33.974  28.185  26.334  1.00  0.00     0.009 A 
ATOM     23  C   UNL A   1      33.231  29.272  26.475  1.00  0.00    -0.018 A 
ATOM     24  C   UNL A   1      34.291  29.107  27.140  1.00  0.00    -0.018 A 
ATOM     25  C   UNL A   1      33.067  30.684  27.290  1.00  0.00     0.009 A 
ATOM     26  C   UNL A   1      35.489  29.895  27.332  1.00  0.00     0.009 A 
ATOM     27  C   UNL A   1      34.000  31.486  28.026  1.00  0.00     0.001 A 
ATOM     28  C   UNL A   1      35.310  31.109  27.923  1.00  0.00     0.001 A 
ENDBRANCH  17  19
ENDBRANCH  13  15
ENDBRANCH  11  13
ENDBRANCH   6  11
ENDBRANCH   3   5
ENDBRANCH   2   3
ENDBRANCH   1   2
BRANCH   1  29
ATOM     29  C   UNL A   1      37.951  23.602  25.822  1.00  0.00     0.275 C 
BRANCH  29  30
ATOM     30  O   UNL A   1      38.518  24.746  26.488  1.00  0.00    -0.458 OA
BRANCH  30  31
ATOM     31  C   UNL A   1      39.794  24.573  26.901  1.00  0.00     0.338 C 
ATOM     32  O   UNL A   1      40.622  23.816  26.419  1.00  0.00    -0.246 OA
BRANCH  31  33
ATOM     33  C   UNL A   1      40.123  25.446  28.038  1.00  0.00     0.060 A 
ATOM     34  C   UNL A   1      39.220  25.594  29.087  1.00  0.00     0.016 A 
ATOM     35  C   UNL A   1      41.201  26.318  27.925  1.00  0.00     0.016 A 
ATOM     36  C   UNL A   1      39.279  26.709  29.910  1.00  0.00     0.010 A 
ATOM     37  C   UNL A   1      41.353  27.343  28.862  1.00  0.00     0.010 A 
ATOM     38  C   UNL A   1      40.364  27.580  29.833  1.00  0.00    -0.014 A 
BRANCH  38  39
ATOM     39  C   UNL A   1      40.466  28.742  30.753  1.00  0.00     0.031 A 
ATOM     40  C   UNL A   1      41.469  28.715  31.873  1.00  0.00     0.074 A 
ATOM     41  C   UNL A   1      39.634  29.792  30.606  1.00  0.00     0.049 A 
ATOM     42  N   UNL A   1      41.525  29.457  32.946  1.00  0.00    -0.248 NA
ATOM     43  C   UNL A   1      42.534  27.699  31.789  1.00  0.00     0.031 C 
ATOM     44  C   UNL A   1      38.672  29.979  29.514  1.00  0.00     0.029 A 
ATOM     45  N   UNL A   1      39.449  30.900  31.394  1.00  0.00    -0.354 N 
ATOM     46  C   UNL A   1      42.580  28.953  33.701  1.00  0.00     0.074 A 
ATOM     47  C   UNL A   1      43.134  27.839  32.963  1.00  0.00     0.031 C 
ATOM     48  C   UNL A   1      38.017  31.134  29.691  1.00  0.00     0.029 A 
ATOM     49  C   UNL A   1      38.416  31.704  30.967  1.00  0.00     0.049 A 
ATOM     50  H   UNL A   1      39.999  31.101  32.186  1.00  0.00     0.167 HD
ATOM     51  C   UNL A   1      43.028  29.380  34.905  1.00  0.00     0.031 A 
ATOM     52  C   UNL A   1      37.800  32.738  31.568  1.00  0.00     0.031 A 
ATOM     53  C   UNL A   1      42.467  30.508  35.602  1.00  0.00     0.049 A 
ATOM     54  C   UNL A   1      38.260  33.143  32.937  1.00  0.00     0.074 A 
ATOM     55  C   UNL A   1      42.848  31.043  36.820  1.00  0.00     0.029 A 
ATOM     56  N   UNL A   1      41.408  31.277  35.140  1.00  0.00    -0.354 N 
ATOM     57  N   UNL A   1      39.227  32.633  33.663  1.00  0.00    -0.248 NA
ATOM     58  C   UNL A   1      37.543  34.253  33.572  1.00  0.00     0.031 C 
ATOM     59  C   UNL A   1      41.974  32.092  37.124  1.00  0.00     0.029 A 
ATOM     60  C   UNL A   1      41.103  32.265  36.060  1.00  0.00     0.049 A 
ATOM     61  H   UNL A   1      40.941  31.139  34.284  1.00  0.00     0.167 HD
ATOM     62  C   UNL A   1      39.257  33.386  34.830  1.00  0.00     0.074 A 
ATOM     63  C   UNL A   1      38.220  34.392  34.704  1.00  0.00     0.031 C 
ATOM     64  C   UNL A   1      40.071  33.261  35.906  1.00  0.00     0.031 A 
BRANCH  51  65
ATOM     65  C   UNL A   1      44.134  28.598  35.567  1.00  0.00    -0.014 A 
ATOM     66  C   UNL A   1      45.490  28.908  35.360  1.00  0.00     0.010 A 
ATOM     67  C   UNL A   1      43.804  27.553  36.452  1.00  0.00     0.010 A 
ATOM     68  C   UNL A   1      46.492  28.164  35.993  1.00  0.00     0.020 A 
ATOM     69  C   UNL A   1      44.800  26.830  37.113  1.00  0.00     0.020 A 
ATOM     70  C   UNL A   1      46.140  27.131  36.866  1.00  0.00     0.054 A 
BRANCH  70  71
ATOM     71  S   UNL A   1      47.462  26.205  37.695  1.00  0.00     0.124 S 
ATOM     72  O   UNL A   1      47.322  26.653  39.078  1.00  0.00    -0.237 OA
ATOM     73  O   UNL A   1      47.083  24.817  37.444  1.00  0.00    -0.237 OA
ATOM     74  O   UNL A   1      48.678  26.650  37.017  1.00  0.00    -0.744 OA
ENDBRANCH  70  71
ENDBRANCH  51  65
BRANCH  52  75
ATOM     75  C   UNL A   1      36.651  33.409  30.899  1.00  0.00    -0.014 A 
ATOM     76  C   UNL A   1      35.388  33.439  31.512  1.00  0.00     0.010 A 
ATOM     77  C   UNL A   1      36.821  34.050  29.655  1.00  0.00     0.010 A 
ATOM     78  C   UNL A   1      34.313  34.079  30.888  1.00  0.00     0.020 A 
ATOM     79  C   UNL A   1      35.759  34.725  29.047  1.00  0.00     0.020 A 
ATOM     80  C   UNL A   1      34.508  34.723  29.662  1.00  0.00     0.054 A 
BRANCH  80  81
ATOM     81  S   UNL A   1      33.105  35.582  28.899  1.00  0.00     0.124 S 
ATOM     82  O   UNL A   1      33.775  36.548  28.034  1.00  0.00    -0.237 OA
ATOM     83  O   UNL A   1      32.408  34.496  28.214  1.00  0.00    -0.237 OA
ATOM     84  O   UNL A   1      32.390  36.152  30.039  1.00  0.00    -0.744 OA
ENDBRANCH  80  81
ENDBRANCH  52  75
BRANCH  64  85
ATOM     85  C   UNL A   1      39.918  34.275  37.007  1.00  0.00    -0.014 A 
ATOM     86  C   UNL A   1      40.544  35.532  36.943  1.00  0.00     0.010 A 
ATOM     87  C   UNL A   1      39.073  33.980  38.094  1.00  0.00     0.010 A 
ATOM     88  C   UNL A   1      40.346  36.467  37.961  1.00  0.00     0.020 A 
ATOM     89  C   UNL A   1      38.845  34.926  39.093  1.00  0.00     0.020 A 
ATOM     90  C   UNL A   1      39.492  36.161  39.025  1.00  0.00     0.054 A 
BRANCH  90  91
ATOM     91  S   UNL A   1      39.201  37.419  40.296  1.00  0.00     0.124 S 
ATOM     92  O   UNL A   1      38.603  36.633  41.372  1.00  0.00    -0.237 OA
ATOM     93  O   UNL A   1      40.547  37.923  40.558  1.00  0.00    -0.237 OA
ATOM     94  O   UNL A   1      38.301  38.369  39.646  1.00  0.00    -0.744 OA
ENDBRANCH  90  91
ENDBRANCH  64  85
ENDBRANCH  38  39
ENDBRANCH  31  33
ENDBRANCH  30  31
ENDBRANCH  29  30
ENDBRANCH   1  29
TORSDOF 18
ENDMDL
