MODEL 1
REMARK VINA RESULT:     -11.3      0.000      0.000
REMARK SMILES CCc1ccc2c(CC(=O)OCCOC(=O)c3ccc(-c4c5nc(c(-c6ccc(S(=O)(=O)[O-])cc6)c6ccc([nH]6)c(-c6ccc(S(=O)(=O)[O-])cc6)c6nc(c(-c7ccc(S(=O)(=O)[O-])cc7)c7ccc4[nH]7)C=C6)C=C5)cc3)c(C(=O)c3cc(C)ccn3)[nH]c2c1
REMARK SMILES IDX 12 1 11 2 9 3 10 4 8 5 7 6 3 7 4 8 89 9 5 10 88 11 6 12
REMARK SMILES IDX 87 13 77 14 2 16 1 17 78 18 79 19 80 20 81 21 86 22 82 23
REMARK SMILES IDX 85 24 83 25 84 26 13 27 14 28 15 29 16 30 17 31 18 32 76 33
REMARK SMILES IDX 19 34 75 35 20 36 21 37 22 38 69 39 23 40 74 41 68 42 70 43
REMARK SMILES IDX 24 44 73 45 67 46 66 47 25 49 55 50 36 51 54 52 37 53 40 54
REMARK SMILES IDX 53 55 71 56 38 57 39 58 52 60 72 61 41 62 26 63 27 64 35 65
REMARK SMILES IDX 28 66 34 67 29 68 30 69 31 70 32 71 33 72 56 73 57 74 65 75
REMARK SMILES IDX 58 76 64 77 59 78 60 79 61 80 62 81 63 82 42 83 43 84 51 85
REMARK SMILES IDX 44 86 50 87 45 88 46 89 47 90 48 91 49 92
REMARK H PARENT 87 15 70 48 40 59
REMARK Flexibility Score: inf
ROOT
ATOM      1  C   UNL A   1      35.769  23.491  23.822  1.00  0.00     0.274 C 
ENDROOT
BRANCH   1   2
ATOM      2  O   UNL A   1      34.815  22.646  23.151  1.00  0.00    -0.462 OA
BRANCH   2   3
ATOM      3  C   UNL A   1      33.676  23.262  22.731  1.00  0.00     0.310 C 
ATOM      4  O   UNL A   1      33.660  24.281  22.043  1.00  0.00    -0.252 OA
BRANCH   3   5
ATOM      5  C   UNL A   1      32.394  22.570  23.139  1.00  0.00     0.161 C 
BRANCH   5   6
ATOM      6  C   UNL A   1      32.493  21.594  24.273  1.00  0.00     0.000 A 
ATOM      7  C   UNL A   1      32.957  17.406  24.444  1.00  0.00    -0.046 A 
ATOM      8  C   UNL A   1      32.690  17.943  23.180  1.00  0.00     0.004 A 
ATOM      9  C   UNL A   1      32.915  18.247  25.574  1.00  0.00     0.030 A 
ATOM     10  C   UNL A   1      32.452  19.313  23.006  1.00  0.00     0.011 A 
ATOM     11  C   UNL A   1      32.709  19.616  25.375  1.00  0.00     0.046 A 
ATOM     12  C   UNL A   1      32.508  20.172  24.118  1.00  0.00     0.004 A 
ATOM     13  N   UNL A   1      32.689  20.652  26.277  1.00  0.00    -0.352 N 
ATOM     14  C   UNL A   1      32.767  21.861  25.616  1.00  0.00     0.093 A 
ATOM     15  H   UNL A   1      32.630  20.548  27.254  1.00  0.00     0.167 HD
BRANCH   7  16
ATOM     16  C   UNL A   1      33.313  15.953  24.666  1.00  0.00     0.032 C 
ATOM     17  C   UNL A   1      32.346  15.132  25.511  1.00  0.00     0.009 C 
ENDBRANCH   7  16
BRANCH  14  18
ATOM     18  C   UNL A   1      33.166  23.109  26.246  1.00  0.00     0.227 C 
ATOM     19  O   UNL A   1      34.126  23.201  27.006  1.00  0.00    -0.285 OA
BRANCH  18  20
ATOM     20  C   UNL A   1      32.299  24.301  26.090  1.00  0.00     0.113 A 
ATOM     21  C   UNL A   1      32.879  25.522  25.762  1.00  0.00     0.036 A 
ATOM     22  N   UNL A   1      30.974  24.117  26.292  1.00  0.00    -0.253 NA
ATOM     23  C   UNL A   1      32.043  26.630  25.615  1.00  0.00    -0.047 A 
ATOM     24  C   UNL A   1      30.182  25.184  26.061  1.00  0.00     0.112 A 
ATOM     25  C   UNL A   1      32.596  27.991  25.315  1.00  0.00     0.044 C 
ATOM     26  C   UNL A   1      30.662  26.443  25.737  1.00  0.00     0.023 A 
ENDBRANCH  18  20
ENDBRANCH  14  18
ENDBRANCH   5   6
ENDBRANCH   3   5
ENDBRANCH   2   3
ENDBRANCH   1   2
BRANCH   1  27
ATOM     27  C   UNL A   1      37.006  22.688  24.214  1.00  0.00     0.275 C 
BRANCH  27  28
ATOM     28  O   UNL A   1      37.288  22.889  25.608  1.00  0.00    -0.458 OA
BRANCH  28  29
ATOM     29  C   UNL A   1      38.594  22.805  25.952  1.00  0.00     0.338 C 
ATOM     30  O   UNL A   1      39.325  21.835  25.799  1.00  0.00    -0.246 OA
BRANCH  29  31
ATOM     31  C   UNL A   1      39.033  24.047  26.618  1.00  0.00     0.060 A 
ATOM     32  C   UNL A   1      39.869  24.966  25.981  1.00  0.00     0.016 A 
ATOM     33  C   UNL A   1      38.660  24.253  27.947  1.00  0.00     0.016 A 
ATOM     34  C   UNL A   1      40.401  26.039  26.699  1.00  0.00     0.010 A 
ATOM     35  C   UNL A   1      39.110  25.384  28.631  1.00  0.00     0.010 A 
ATOM     36  C   UNL A   1      40.008  26.279  28.025  1.00  0.00    -0.014 A 
BRANCH  36  37
ATOM     37  C   UNL A   1      40.502  27.465  28.779  1.00  0.00     0.031 A 
ATOM     38  C   UNL A   1      41.832  27.426  29.488  1.00  0.00     0.074 A 
ATOM     39  C   UNL A   1      39.728  28.566  28.879  1.00  0.00     0.049 A 
ATOM     40  N   UNL A   1      42.323  28.265  30.366  1.00  0.00    -0.248 NA
ATOM     41  C   UNL A   1      42.719  26.288  29.191  1.00  0.00     0.031 C 
ATOM     42  C   UNL A   1      38.425  28.750  28.235  1.00  0.00     0.029 A 
ATOM     43  N   UNL A   1      39.919  29.734  29.575  1.00  0.00    -0.354 N 
ATOM     44  C   UNL A   1      43.544  27.733  30.766  1.00  0.00     0.074 A 
ATOM     45  C   UNL A   1      43.725  26.498  30.032  1.00  0.00     0.031 C 
ATOM     46  C   UNL A   1      37.943  29.961  28.551  1.00  0.00     0.029 A 
ATOM     47  C   UNL A   1      38.860  30.607  29.482  1.00  0.00     0.049 A 
ATOM     48  H   UNL A   1      40.735  29.928  30.091  1.00  0.00     0.167 HD
ATOM     49  C   UNL A   1      44.428  28.225  31.667  1.00  0.00     0.031 A 
ATOM     50  C   UNL A   1      38.620  31.774  30.108  1.00  0.00     0.031 A 
ATOM     51  C   UNL A   1      44.273  29.480  32.358  1.00  0.00     0.049 A 
ATOM     52  C   UNL A   1      39.615  32.294  31.105  1.00  0.00     0.074 A 
ATOM     53  C   UNL A   1      45.140  30.079  33.256  1.00  0.00     0.029 A 
ATOM     54  N   UNL A   1      43.190  30.333  32.220  1.00  0.00    -0.354 N 
ATOM     55  N   UNL A   1      40.751  31.764  31.484  1.00  0.00    -0.248 NA
ATOM     56  C   UNL A   1      39.287  33.566  31.765  1.00  0.00     0.031 C 
ATOM     57  C   UNL A   1      44.567  31.279  33.688  1.00  0.00     0.029 A 
ATOM     58  C   UNL A   1      43.361  31.446  33.027  1.00  0.00     0.049 A 
ATOM     59  H   UNL A   1      42.416  30.173  31.634  1.00  0.00     0.167 HD
ATOM     60  C   UNL A   1      41.280  32.642  32.422  1.00  0.00     0.074 A 
ATOM     61  C   UNL A   1      40.350  33.748  32.537  1.00  0.00     0.031 C 
ATOM     62  C   UNL A   1      42.430  32.538  33.130  1.00  0.00     0.031 A 
BRANCH  49  63
ATOM     63  C   UNL A   1      45.646  27.402  31.988  1.00  0.00    -0.014 A 
ATOM     64  C   UNL A   1      46.841  27.547  31.263  1.00  0.00     0.010 A 
ATOM     65  C   UNL A   1      45.621  26.541  33.102  1.00  0.00     0.010 A 
ATOM     66  C   UNL A   1      47.984  26.834  31.635  1.00  0.00     0.020 A 
ATOM     67  C   UNL A   1      46.766  25.839  33.489  1.00  0.00     0.020 A 
ATOM     68  C   UNL A   1      47.940  25.983  32.745  1.00  0.00     0.054 A 
BRANCH  68  69
ATOM     69  S   UNL A   1      49.451  25.107  33.237  1.00  0.00     0.124 S 
ATOM     70  O   UNL A   1      50.125  24.927  31.953  1.00  0.00    -0.237 OA
ATOM     71  O   UNL A   1      50.089  26.052  34.151  1.00  0.00    -0.237 OA
ATOM     72  O   UNL A   1      48.956  23.882  33.858  1.00  0.00    -0.744 OA
ENDBRANCH  68  69
ENDBRANCH  49  63
BRANCH  50  73
ATOM     73  C   UNL A   1      37.346  32.499  29.856  1.00  0.00    -0.014 A 
ATOM     74  C   UNL A   1      36.174  32.152  30.548  1.00  0.00     0.010 A 
ATOM     75  C   UNL A   1      37.307  33.552  28.923  1.00  0.00     0.010 A 
ATOM     76  C   UNL A   1      34.979  32.832  30.296  1.00  0.00     0.020 A 
ATOM     77  C   UNL A   1      36.122  34.250  28.689  1.00  0.00     0.020 A 
ATOM     78  C   UNL A   1      34.961  33.875  29.366  1.00  0.00     0.054 A 
BRANCH  78  79
ATOM     79  S   UNL A   1      33.414  34.780  29.081  1.00  0.00     0.124 S 
ATOM     80  O   UNL A   1      32.867  34.873  30.430  1.00  0.00    -0.237 OA
ATOM     81  O   UNL A   1      33.877  36.037  28.498  1.00  0.00    -0.237 OA
ATOM     82  O   UNL A   1      32.679  33.912  28.164  1.00  0.00    -0.744 OA
ENDBRANCH  78  79
ENDBRANCH  50  73
BRANCH  62  83
ATOM     83  C   UNL A   1      42.761  33.665  34.068  1.00  0.00    -0.014 A 
ATOM     84  C   UNL A   1      42.243  33.694  35.375  1.00  0.00     0.010 A 
ATOM     85  C   UNL A   1      43.624  34.691  33.645  1.00  0.00     0.010 A 
ATOM     86  C   UNL A   1      42.560  34.749  36.234  1.00  0.00     0.020 A 
ATOM     87  C   UNL A   1      43.960  35.736  34.509  1.00  0.00     0.020 A 
ATOM     88  C   UNL A   1      43.411  35.767  35.794  1.00  0.00     0.054 A 
BRANCH  88  89
ATOM     89  S   UNL A   1      43.838  37.111  36.935  1.00  0.00     0.124 S 
ATOM     90  O   UNL A   1      42.730  37.062  37.887  1.00  0.00    -0.237 OA
ATOM     91  O   UNL A   1      45.136  36.693  37.460  1.00  0.00    -0.237 OA
ATOM     92  O   UNL A   1      43.872  38.294  36.078  1.00  0.00    -0.744 OA
ENDBRANCH  88  89
ENDBRANCH  62  83
ENDBRANCH  36  37
ENDBRANCH  29  31
ENDBRANCH  28  29
ENDBRANCH  27  28
ENDBRANCH   1  27
TORSDOF 18
ENDMDL
MODEL 2
REMARK VINA RESULT:     -11.3      2.534      4.711
REMARK SMILES CCc1ccc2c(CC(=O)OCCOC(=O)c3ccc(-c4c5nc(c(-c6ccc(S(=O)(=O)[O-])cc6)c6ccc([nH]6)c(-c6ccc(S(=O)(=O)[O-])cc6)c6nc(c(-c7ccc(S(=O)(=O)[O-])cc7)c7ccc4[nH]7)C=C6)C=C5)cc3)c(C(=O)c3cc(C)ccn3)[nH]c2c1
REMARK SMILES IDX 12 1 11 2 9 3 10 4 8 5 7 6 3 7 4 8 89 9 5 10 88 11 6 12
REMARK SMILES IDX 87 13 77 14 2 16 1 17 78 18 79 19 80 20 81 21 86 22 82 23
REMARK SMILES IDX 85 24 83 25 84 26 13 27 14 28 15 29 16 30 17 31 18 32 76 33
REMARK SMILES IDX 19 34 75 35 20 36 21 37 22 38 69 39 23 40 74 41 68 42 70 43
REMARK SMILES IDX 24 44 73 45 67 46 66 47 25 49 55 50 36 51 54 52 37 53 40 54
REMARK SMILES IDX 53 55 71 56 38 57 39 58 52 60 72 61 41 62 26 63 27 64 35 65
REMARK SMILES IDX 28 66 34 67 29 68 30 69 31 70 32 71 33 72 56 73 57 74 65 75
REMARK SMILES IDX 58 76 64 77 59 78 60 79 61 80 62 81 63 82 42 83 43 84 51 85
REMARK SMILES IDX 44 86 50 87 45 88 46 89 47 90 48 91 49 92
REMARK H PARENT 87 15 70 48 40 59
REMARK Flexibility Score: inf
ROOT
ATOM      1  C   UNL A   1      37.444  22.209  25.845  1.00  0.00     0.274 C 
ENDROOT
BRANCH   1   2
ATOM      2  O   UNL A   1      37.163  22.322  24.437  1.00  0.00    -0.462 OA
BRANCH   2   3
ATOM      3  C   UNL A   1      36.220  23.243  24.097  1.00  0.00     0.310 C 
ATOM      4  O   UNL A   1      35.793  23.401  22.955  1.00  0.00    -0.252 OA
BRANCH   3   5
ATOM      5  C   UNL A   1      35.683  24.056  25.255  1.00  0.00     0.161 C 
BRANCH   5   6
ATOM      6  C   UNL A   1      34.191  24.159  25.365  1.00  0.00     0.000 A 
ATOM      7  C   UNL A   1      31.386  27.001  24.009  1.00  0.00    -0.046 A 
ATOM      8  C   UNL A   1      32.733  27.364  23.893  1.00  0.00     0.004 A 
ATOM      9  C   UNL A   1      31.048  25.810  24.680  1.00  0.00     0.030 A 
ATOM     10  C   UNL A   1      33.755  26.532  24.369  1.00  0.00     0.011 A 
ATOM     11  C   UNL A   1      32.083  24.977  25.118  1.00  0.00     0.046 A 
ATOM     12  C   UNL A   1      33.425  25.294  24.950  1.00  0.00     0.004 A 
ATOM     13  N   UNL A   1      32.038  23.748  25.729  1.00  0.00    -0.352 N 
ATOM     14  C   UNL A   1      33.282  23.153  25.698  1.00  0.00     0.093 A 
ATOM     15  H   UNL A   1      31.233  23.347  26.129  1.00  0.00     0.167 HD
BRANCH   7  16
ATOM     16  C   UNL A   1      30.257  27.822  23.426  1.00  0.00     0.032 C 
ATOM     17  C   UNL A   1      30.645  29.113  22.716  1.00  0.00     0.009 C 
ENDBRANCH   7  16
BRANCH  14  18
ATOM     18  C   UNL A   1      33.509  21.729  25.882  1.00  0.00     0.227 C 
ATOM     19  O   UNL A   1      34.124  21.265  26.838  1.00  0.00    -0.285 OA
BRANCH  18  20
ATOM     20  C   UNL A   1      33.114  20.794  24.802  1.00  0.00     0.113 A 
ATOM     21  C   UNL A   1      33.347  19.432  24.966  1.00  0.00     0.036 A 
ATOM     22  N   UNL A   1      32.552  21.343  23.701  1.00  0.00    -0.253 NA
ATOM     23  C   UNL A   1      32.963  18.569  23.939  1.00  0.00    -0.047 A 
ATOM     24  C   UNL A   1      32.114  20.479  22.762  1.00  0.00     0.112 A 
ATOM     25  C   UNL A   1      33.227  17.096  24.017  1.00  0.00     0.044 C 
ATOM     26  C   UNL A   1      32.303  19.107  22.829  1.00  0.00     0.023 A 
ENDBRANCH  18  20
ENDBRANCH  14  18
ENDBRANCH   5   6
ENDBRANCH   3   5
ENDBRANCH   2   3
ENDBRANCH   1   2
BRANCH   1  27
ATOM     27  C   UNL A   1      38.913  22.518  26.119  1.00  0.00     0.275 C 
BRANCH  27  28
ATOM     28  O   UNL A   1      39.045  23.882  26.551  1.00  0.00    -0.458 OA
BRANCH  28  29
ATOM     29  C   UNL A   1      40.316  24.310  26.735  1.00  0.00     0.338 C 
ATOM     30  O   UNL A   1      41.329  23.803  26.269  1.00  0.00    -0.246 OA
BRANCH  29  31
ATOM     31  C   UNL A   1      40.344  25.466  27.651  1.00  0.00     0.060 A 
ATOM     32  C   UNL A   1      41.361  26.421  27.600  1.00  0.00     0.016 A 
ATOM     33  C   UNL A   1      39.364  25.548  28.642  1.00  0.00     0.016 A 
ATOM     34  C   UNL A   1      41.448  27.402  28.590  1.00  0.00     0.010 A 
ATOM     35  C   UNL A   1      39.395  26.592  29.569  1.00  0.00     0.010 A 
ATOM     36  C   UNL A   1      40.452  27.518  29.572  1.00  0.00    -0.014 A 
BRANCH  36  37
ATOM     37  C   UNL A   1      40.486  28.609  30.586  1.00  0.00     0.031 A 
ATOM     38  C   UNL A   1      41.428  28.536  31.763  1.00  0.00     0.074 A 
ATOM     39  C   UNL A   1      39.626  29.643  30.487  1.00  0.00     0.049 A 
ATOM     40  N   UNL A   1      41.447  29.266  32.850  1.00  0.00    -0.248 NA
ATOM     41  C   UNL A   1      42.473  27.498  31.723  1.00  0.00     0.031 C 
ATOM     42  C   UNL A   1      38.668  29.852  29.399  1.00  0.00     0.029 A 
ATOM     43  N   UNL A   1      39.408  30.710  31.325  1.00  0.00    -0.354 N 
ATOM     44  C   UNL A   1      42.460  28.744  33.646  1.00  0.00     0.074 A 
ATOM     45  C   UNL A   1      43.041  27.636  32.915  1.00  0.00     0.031 C 
ATOM     46  C   UNL A   1      37.980  30.980  29.625  1.00  0.00     0.029 A 
ATOM     47  C   UNL A   1      38.387  31.532  30.911  1.00  0.00     0.049 A 
ATOM     48  H   UNL A   1      39.932  30.869  32.144  1.00  0.00     0.167 HD
ATOM     49  C   UNL A   1      42.865  29.148  34.874  1.00  0.00     0.031 A 
ATOM     50  C   UNL A   1      37.802  32.585  31.513  1.00  0.00     0.031 A 
ATOM     51  C   UNL A   1      42.324  30.282  35.578  1.00  0.00     0.049 A 
ATOM     52  C   UNL A   1      38.267  33.008  32.876  1.00  0.00     0.074 A 
ATOM     53  C   UNL A   1      42.703  30.790  36.809  1.00  0.00     0.029 A 
ATOM     54  N   UNL A   1      41.300  31.091  35.111  1.00  0.00    -0.354 N 
ATOM     55  N   UNL A   1      39.211  32.487  33.619  1.00  0.00    -0.248 NA
ATOM     56  C   UNL A   1      37.578  34.154  33.484  1.00  0.00     0.031 C 
ATOM     57  C   UNL A   1      41.886  31.886  37.103  1.00  0.00     0.029 A 
ATOM     58  C   UNL A   1      41.025  32.085  36.036  1.00  0.00     0.049 A 
ATOM     59  H   UNL A   1      40.838  30.977  34.250  1.00  0.00     0.167 HD
ATOM     60  C   UNL A   1      39.237  33.248  34.781  1.00  0.00     0.074 A 
ATOM     61  C   UNL A   1      38.228  34.278  34.633  1.00  0.00     0.031 C 
ATOM     62  C   UNL A   1      40.022  33.103  35.876  1.00  0.00     0.031 A 
BRANCH  49  63
ATOM     63  C   UNL A   1      43.937  28.350  35.566  1.00  0.00    -0.014 A 
ATOM     64  C   UNL A   1      45.296  28.688  35.444  1.00  0.00     0.010 A 
ATOM     65  C   UNL A   1      43.566  27.304  36.433  1.00  0.00     0.010 A 
ATOM     66  C   UNL A   1      46.265  27.984  36.165  1.00  0.00     0.020 A 
ATOM     67  C   UNL A   1      44.531  26.610  37.168  1.00  0.00     0.020 A 
ATOM     68  C   UNL A   1      45.878  26.949  37.021  1.00  0.00     0.054 A 
BRANCH  68  69
ATOM     69  S   UNL A   1      47.152  26.085  37.983  1.00  0.00     0.124 S 
ATOM     70  O   UNL A   1      47.393  27.025  39.074  1.00  0.00    -0.237 OA
ATOM     71  O   UNL A   1      46.482  24.843  38.363  1.00  0.00    -0.237 OA
ATOM     72  O   UNL A   1      48.255  25.929  37.039  1.00  0.00    -0.744 OA
ENDBRANCH  68  69
ENDBRANCH  49  63
BRANCH  50  73
ATOM     73  C   UNL A   1      36.661  33.273  30.851  1.00  0.00    -0.014 A 
ATOM     74  C   UNL A   1      36.854  34.000  29.665  1.00  0.00     0.010 A 
ATOM     75  C   UNL A   1      35.371  33.194  31.406  1.00  0.00     0.010 A 
ATOM     76  C   UNL A   1      35.779  34.653  29.055  1.00  0.00     0.020 A 
ATOM     77  C   UNL A   1      34.290  33.823  30.786  1.00  0.00     0.020 A 
ATOM     78  C   UNL A   1      34.504  34.562  29.622  1.00  0.00     0.054 A 
BRANCH  78  79
ATOM     79  S   UNL A   1      33.109  35.377  28.797  1.00  0.00     0.124 S 
ATOM     80  O   UNL A   1      32.332  35.865  29.932  1.00  0.00    -0.237 OA
ATOM     81  O   UNL A   1      33.765  36.405  27.992  1.00  0.00    -0.237 OA
ATOM     82  O   UNL A   1      32.492  34.297  28.031  1.00  0.00    -0.744 OA
ENDBRANCH  78  79
ENDBRANCH  50  73
BRANCH  62  83
ATOM     83  C   UNL A   1      39.840  34.100  36.985  1.00  0.00    -0.014 A 
ATOM     84  C   UNL A   1      39.025  33.809  38.093  1.00  0.00     0.010 A 
ATOM     85  C   UNL A   1      40.518  35.331  36.931  1.00  0.00     0.010 A 
ATOM     86  C   UNL A   1      38.866  34.748  39.116  1.00  0.00     0.020 A 
ATOM     87  C   UNL A   1      40.378  36.262  37.963  1.00  0.00     0.020 A 
ATOM     88  C   UNL A   1      39.539  35.972  39.041  1.00  0.00     0.054 A 
BRANCH  88  89
ATOM     89  S   UNL A   1      39.347  37.164  40.395  1.00  0.00     0.124 S 
ATOM     90  O   UNL A   1      38.590  36.389  41.375  1.00  0.00    -0.237 OA
ATOM     91  O   UNL A   1      40.729  37.463  40.764  1.00  0.00    -0.237 OA
ATOM     92  O   UNL A   1      38.620  38.271  39.779  1.00  0.00    -0.744 OA
ENDBRANCH  88  89
ENDBRANCH  62  83
ENDBRANCH  36  37
ENDBRANCH  29  31
ENDBRANCH  28  29
ENDBRANCH  27  28
ENDBRANCH   1  27
TORSDOF 18
ENDMDL
MODEL 3
REMARK VINA RESULT:     -11.2      1.329      4.046
REMARK SMILES CCc1ccc2c(CC(=O)OCCOC(=O)c3ccc(-c4c5nc(c(-c6ccc(S(=O)(=O)[O-])cc6)c6ccc([nH]6)c(-c6ccc(S(=O)(=O)[O-])cc6)c6nc(c(-c7ccc(S(=O)(=O)[O-])cc7)c7ccc4[nH]7)C=C6)C=C5)cc3)c(C(=O)c3cc(C)ccn3)[nH]c2c1
REMARK SMILES IDX 12 1 11 2 9 3 10 4 8 5 7 6 3 7 4 8 89 9 5 10 88 11 6 12
REMARK SMILES IDX 87 13 77 14 2 16 1 17 78 18 79 19 80 20 81 21 86 22 82 23
REMARK SMILES IDX 85 24 83 25 84 26 13 27 14 28 15 29 16 30 17 31 18 32 76 33
REMARK SMILES IDX 19 34 75 35 20 36 21 37 22 38 69 39 23 40 74 41 68 42 70 43
REMARK SMILES IDX 24 44 73 45 67 46 66 47 25 49 55 50 36 51 54 52 37 53 40 54
REMARK SMILES IDX 53 55 71 56 38 57 39 58 52 60 72 61 41 62 26 63 27 64 35 65
REMARK SMILES IDX 28 66 34 67 29 68 30 69 31 70 32 71 33 72 56 73 57 74 65 75
REMARK SMILES IDX 58 76 64 77 59 78 60 79 61 80 62 81 63 82 42 83 43 84 51 85
REMARK SMILES IDX 44 86 50 87 45 88 46 89 47 90 48 91 49 92
REMARK H PARENT 87 15 70 48 40 59
REMARK Flexibility Score: inf
ROOT
ATOM      1  C   UNL A   1      35.393  23.321  25.928  1.00  0.00     0.274 C 
ENDROOT
BRANCH   1   2
ATOM      2  O   UNL A   1      35.439  24.728  25.619  1.00  0.00    -0.462 OA
BRANCH   2   3
ATOM      3  C   UNL A   1      34.309  25.245  25.064  1.00  0.00     0.310 C 
ATOM      4  O   UNL A   1      34.052  25.202  23.863  1.00  0.00    -0.252 OA
BRANCH   3   5
ATOM      5  C   UNL A   1      33.341  25.856  26.053  1.00  0.00     0.161 C 
BRANCH   5   6
ATOM      6  C   UNL A   1      31.889  25.812  25.682  1.00  0.00     0.000 A 
ATOM      7  C   UNL A   1      29.431  28.315  23.341  1.00  0.00    -0.046 A 
ATOM      8  C   UNL A   1      30.707  28.807  23.633  1.00  0.00     0.004 A 
ATOM      9  C   UNL A   1      28.999  27.117  23.943  1.00  0.00     0.030 A 
ATOM     10  C   UNL A   1      31.592  28.097  24.456  1.00  0.00     0.011 A 
ATOM     11  C   UNL A   1      29.908  26.407  24.735  1.00  0.00     0.046 A 
ATOM     12  C   UNL A   1      31.201  26.851  24.979  1.00  0.00     0.004 A 
ATOM     13  N   UNL A   1      29.775  25.198  25.374  1.00  0.00    -0.352 N 
ATOM     14  C   UNL A   1      31.010  24.731  25.773  1.00  0.00     0.093 A 
ATOM     15  H   UNL A   1      28.922  24.731  25.525  1.00  0.00     0.167 HD
BRANCH   7  16
ATOM     16  C   UNL A   1      28.480  28.999  22.384  1.00  0.00     0.032 C 
ATOM     17  C   UNL A   1      27.873  30.318  22.848  1.00  0.00     0.009 C 
ENDBRANCH   7  16
BRANCH  14  18
ATOM     18  C   UNL A   1      31.287  23.343  26.106  1.00  0.00     0.227 C 
ATOM     19  O   UNL A   1      31.283  22.915  27.257  1.00  0.00    -0.285 OA
BRANCH  18  20
ATOM     20  C   UNL A   1      31.741  22.424  25.035  1.00  0.00     0.113 A 
ATOM     21  C   UNL A   1      32.285  21.193  25.384  1.00  0.00     0.036 A 
ATOM     22  N   UNL A   1      31.602  22.863  23.762  1.00  0.00    -0.253 NA
ATOM     23  C   UNL A   1      32.701  20.342  24.359  1.00  0.00    -0.047 A 
ATOM     24  C   UNL A   1      31.933  21.987  22.791  1.00  0.00     0.112 A 
ATOM     25  C   UNL A   1      33.345  19.021  24.654  1.00  0.00     0.044 C 
ATOM     26  C   UNL A   1      32.487  20.740  23.035  1.00  0.00     0.023 A 
ENDBRANCH  18  20
ENDBRANCH  14  18
ENDBRANCH   5   6
ENDBRANCH   3   5
ENDBRANCH   2   3
ENDBRANCH   1   2
BRANCH   1  27
ATOM     27  C   UNL A   1      36.483  22.575  25.163  1.00  0.00     0.275 C 
BRANCH  27  28
ATOM     28  O   UNL A   1      37.650  23.406  25.058  1.00  0.00    -0.458 OA
BRANCH  28  29
ATOM     29  C   UNL A   1      38.645  23.118  25.929  1.00  0.00     0.338 C 
ATOM     30  O   UNL A   1      39.130  22.013  26.140  1.00  0.00    -0.246 OA
BRANCH  29  31
ATOM     31  C   UNL A   1      39.048  24.328  26.670  1.00  0.00     0.060 A 
ATOM     32  C   UNL A   1      39.921  25.270  26.121  1.00  0.00     0.016 A 
ATOM     33  C   UNL A   1      38.600  24.480  27.983  1.00  0.00     0.016 A 
ATOM     34  C   UNL A   1      40.413  26.310  26.912  1.00  0.00     0.010 A 
ATOM     35  C   UNL A   1      39.013  25.580  28.738  1.00  0.00     0.010 A 
ATOM     36  C   UNL A   1      39.945  26.495  28.223  1.00  0.00    -0.014 A 
BRANCH  36  37
ATOM     37  C   UNL A   1      40.398  27.647  29.052  1.00  0.00     0.031 A 
ATOM     38  C   UNL A   1      41.683  27.571  29.839  1.00  0.00     0.074 A 
ATOM     39  C   UNL A   1      39.625  28.748  29.149  1.00  0.00     0.049 A 
ATOM     40  N   UNL A   1      42.123  28.371  30.778  1.00  0.00    -0.248 NA
ATOM     41  C   UNL A   1      42.580  26.439  29.550  1.00  0.00     0.031 C 
ATOM     42  C   UNL A   1      38.364  28.968  28.435  1.00  0.00     0.029 A 
ATOM     43  N   UNL A   1      39.779  29.887  29.902  1.00  0.00    -0.354 N 
ATOM     44  C   UNL A   1      43.314  27.814  31.230  1.00  0.00     0.074 A 
ATOM     45  C   UNL A   1      43.534  26.608  30.459  1.00  0.00     0.031 C 
ATOM     46  C   UNL A   1      37.870  30.169  28.769  1.00  0.00     0.029 A 
ATOM     47  C   UNL A   1      38.732  30.770  29.780  1.00  0.00     0.049 A 
ATOM     48  H   UNL A   1      40.562  30.054  30.474  1.00  0.00     0.167 HD
ATOM     49  C   UNL A   1      44.144  28.264  32.202  1.00  0.00     0.031 A 
ATOM     50  C   UNL A   1      38.459  31.913  30.437  1.00  0.00     0.031 A 
ATOM     51  C   UNL A   1      43.953  29.491  32.932  1.00  0.00     0.049 A 
ATOM     52  C   UNL A   1      39.394  32.386  31.512  1.00  0.00     0.074 A 
ATOM     53  C   UNL A   1      44.767  30.047  33.905  1.00  0.00     0.029 A 
ATOM     54  N   UNL A   1      42.885  30.357  32.763  1.00  0.00    -0.354 N 
ATOM     55  N   UNL A   1      40.502  31.833  31.939  1.00  0.00    -0.248 NA
ATOM     56  C   UNL A   1      39.032  33.632  32.202  1.00  0.00     0.031 C 
ATOM     57  C   UNL A   1      44.174  31.233  34.349  1.00  0.00     0.029 A 
ATOM     58  C   UNL A   1      43.011  31.435  33.623  1.00  0.00     0.049 A 
ATOM     59  H   UNL A   1      42.147  30.226  32.126  1.00  0.00     0.167 HD
ATOM     60  C   UNL A   1      40.976  32.669  32.942  1.00  0.00     0.074 A 
ATOM     61  C   UNL A   1      40.046  33.776  33.044  1.00  0.00     0.031 C 
ATOM     62  C   UNL A   1      42.081  32.529  33.713  1.00  0.00     0.031 A 
BRANCH  49  63
ATOM     63  C   UNL A   1      45.336  27.420  32.564  1.00  0.00    -0.014 A 
ATOM     64  C   UNL A   1      46.605  27.668  32.011  1.00  0.00     0.010 A 
ATOM     65  C   UNL A   1      45.202  26.424  33.551  1.00  0.00     0.010 A 
ATOM     66  C   UNL A   1      47.713  26.925  32.428  1.00  0.00     0.020 A 
ATOM     67  C   UNL A   1      46.311  25.692  33.983  1.00  0.00     0.020 A 
ATOM     68  C   UNL A   1      47.561  25.941  33.409  1.00  0.00     0.054 A 
BRANCH  68  69
ATOM     69  S   UNL A   1      49.025  25.026  33.968  1.00  0.00     0.124 S 
ATOM     70  O   UNL A   1      49.771  26.061  34.680  1.00  0.00    -0.237 OA
ATOM     71  O   UNL A   1      48.449  23.980  34.810  1.00  0.00    -0.237 OA
ATOM     72  O   UNL A   1      49.637  24.558  32.728  1.00  0.00    -0.744 OA
ENDBRANCH  68  69
ENDBRANCH  49  63
BRANCH  50  73
ATOM     73  C   UNL A   1      37.206  32.657  30.137  1.00  0.00    -0.014 A 
ATOM     74  C   UNL A   1      37.125  33.502  29.018  1.00  0.00     0.010 A 
ATOM     75  C   UNL A   1      36.083  32.512  30.972  1.00  0.00     0.010 A 
ATOM     76  C   UNL A   1      35.948  34.206  28.750  1.00  0.00     0.020 A 
ATOM     77  C   UNL A   1      34.897  33.192  30.692  1.00  0.00     0.020 A 
ATOM     78  C   UNL A   1      34.842  34.048  29.591  1.00  0.00     0.054 A 
BRANCH  78  79
ATOM     79  S   UNL A   1      33.305  34.932  29.206  1.00  0.00     0.124 S 
ATOM     80  O   UNL A   1      32.711  34.074  28.187  1.00  0.00    -0.237 OA
ATOM     81  O   UNL A   1      32.614  34.954  30.494  1.00  0.00    -0.237 OA
ATOM     82  O   UNL A   1      33.772  36.234  28.738  1.00  0.00    -0.744 OA
ENDBRANCH  78  79
ENDBRANCH  50  73
BRANCH  62  83
ATOM     83  C   UNL A   1      42.359  33.615  34.715  1.00  0.00    -0.014 A 
ATOM     84  C   UNL A   1      43.054  34.779  34.346  1.00  0.00     0.010 A 
ATOM     85  C   UNL A   1      41.892  33.479  36.034  1.00  0.00     0.010 A 
ATOM     86  C   UNL A   1      43.305  35.778  35.290  1.00  0.00     0.020 A 
ATOM     87  C   UNL A   1      42.122  34.486  36.974  1.00  0.00     0.020 A 
ATOM     88  C   UNL A   1      42.842  35.622  36.600  1.00  0.00     0.054 A 
BRANCH  88  89
ATOM     89  S   UNL A   1      43.148  36.946  37.803  1.00  0.00     0.124 S 
ATOM     90  O   UNL A   1      44.024  36.283  38.766  1.00  0.00    -0.237 OA
ATOM     91  O   UNL A   1      43.778  37.984  36.991  1.00  0.00    -0.237 OA
ATOM     92  O   UNL A   1      41.813  37.276  38.298  1.00  0.00    -0.744 OA
ENDBRANCH  88  89
ENDBRANCH  62  83
ENDBRANCH  36  37
ENDBRANCH  29  31
ENDBRANCH  28  29
ENDBRANCH  27  28
ENDBRANCH   1  27
TORSDOF 18
ENDMDL
