MODEL 1
REMARK VINA RESULT:     -10.9      0.000      0.000
REMARK SMILES CC(=O)Oc1c(Cl)cc(-c2ccccc2)cc1C(=O)OCCOC(=O)c1ccc(-c2c3nc(c(-c4ccc(S(=O)(=O)[O-])cc4)c4ccc([nH]4)c(-c4ccc(S(=O)(=O)[O-])cc4)c4nc(c(-c5ccc(S(=O)(=O)[O-])cc5)c5ccc2[nH]5)C=C4)C=C3)cc1
REMARK SMILES IDX 22 1 21 2 20 3 18 4 19 5 17 6 5 7 6 8 7 9 8 10 16 11 9 12
REMARK SMILES IDX 4 13 2 14 1 15 3 16 10 17 11 18 15 19 12 20 14 21 13 22
REMARK SMILES IDX 23 23 24 24 25 25 26 26 27 27 85 28 28 29 84 30 29 31 30 32
REMARK SMILES IDX 31 33 78 34 32 35 83 36 77 37 79 38 33 39 82 40 76 41 75 42
REMARK SMILES IDX 34 44 64 45 45 46 63 47 46 48 49 49 62 50 80 51 47 52 48 53
REMARK SMILES IDX 61 55 81 56 50 57 35 58 36 59 44 60 37 61 43 62 38 63 39 64
REMARK SMILES IDX 40 65 41 66 42 67 65 68 66 69 74 70 67 71 73 72 68 73 69 74
REMARK SMILES IDX 70 75 71 76 72 77 51 78 52 79 60 80 53 81 59 82 54 83 55 84
REMARK SMILES IDX 56 85 57 86 58 87
REMARK H PARENT 79 43 49 54
REMARK Flexibility Score: inf
ROOT
ATOM      1  C   UNL A   1      37.968  23.304  26.048  1.00  0.00     0.275 C 
ENDROOT
BRANCH   1   2
ATOM      2  C   UNL A   1      36.933  23.466  24.936  1.00  0.00     0.275 C 
BRANCH   2   3
ATOM      3  O   UNL A   1      35.699  24.020  25.440  1.00  0.00    -0.458 OA
BRANCH   3   4
ATOM      4  C   UNL A   1      34.815  24.438  24.502  1.00  0.00     0.342 C 
ATOM      5  O   UNL A   1      34.841  24.165  23.312  1.00  0.00    -0.246 OA
BRANCH   4   6
ATOM      6  C   UNL A   1      33.709  25.212  25.104  1.00  0.00     0.105 A 
ATOM      7  C   UNL A   1      32.415  24.720  25.268  1.00  0.00     0.164 A 
ATOM      8  C   UNL A   1      31.462  25.489  25.953  1.00  0.00     0.085 A 
ATOM      9  Cl  UNL A   1      29.892  24.860  26.313  1.00  0.00    -0.080 Cl
ATOM     10  C   UNL A   1      31.778  26.776  26.409  1.00  0.00     0.033 A 
ATOM     11  C   UNL A   1      34.022  26.479  25.613  1.00  0.00     0.028 A 
ATOM     12  C   UNL A   1      33.064  27.295  26.227  1.00  0.00    -0.016 A 
BRANCH   7  13
ATOM     13  O   UNL A   1      32.122  23.416  24.856  1.00  0.00    -0.424 OA
BRANCH  13  14
ATOM     14  C   UNL A   1      32.387  22.472  25.840  1.00  0.00     0.308 C 
ATOM     15  C   UNL A   1      32.234  21.097  25.257  1.00  0.00     0.139 C 
ATOM     16  O   UNL A   1      32.659  22.690  27.013  1.00  0.00    -0.252 OA
ENDBRANCH  13  14
ENDBRANCH   7  13
BRANCH  12  17
ATOM     17  C   UNL A   1      33.450  28.641  26.665  1.00  0.00    -0.018 A 
ATOM     18  C   UNL A   1      32.504  29.672  26.761  1.00  0.00     0.009 A 
ATOM     19  C   UNL A   1      34.767  28.903  27.082  1.00  0.00     0.009 A 
ATOM     20  C   UNL A   1      32.863  30.923  27.271  1.00  0.00     0.001 A 
ATOM     21  C   UNL A   1      35.127  30.153  27.589  1.00  0.00     0.001 A 
ATOM     22  C   UNL A   1      34.172  31.162  27.687  1.00  0.00     0.000 A 
ENDBRANCH  12  17
ENDBRANCH   4   6
ENDBRANCH   3   4
ENDBRANCH   2   3
ENDBRANCH   1   2
BRANCH   1  23
ATOM     23  O   UNL A   1      38.555  24.574  26.377  1.00  0.00    -0.458 OA
BRANCH  23  24
ATOM     24  C   UNL A   1      39.851  24.531  26.759  1.00  0.00     0.338 C 
ATOM     25  O   UNL A   1      40.743  23.848  26.284  1.00  0.00    -0.246 OA
BRANCH  24  26
ATOM     26  C   UNL A   1      40.082  25.483  27.854  1.00  0.00     0.060 A 
ATOM     27  C   UNL A   1      39.215  25.476  28.942  1.00  0.00     0.016 A 
ATOM     28  C   UNL A   1      41.048  26.479  27.733  1.00  0.00     0.016 A 
ATOM     29  C   UNL A   1      39.222  26.534  29.848  1.00  0.00     0.010 A 
ATOM     30  C   UNL A   1      41.136  27.471  28.716  1.00  0.00     0.010 A 
ATOM     31  C   UNL A   1      40.197  27.538  29.763  1.00  0.00    -0.014 A 
BRANCH  31  32
ATOM     32  C   UNL A   1      40.232  28.661  30.747  1.00  0.00     0.031 A 
ATOM     33  C   UNL A   1      41.234  28.651  31.876  1.00  0.00     0.074 A 
ATOM     34  C   UNL A   1      39.362  29.687  30.648  1.00  0.00     0.049 A 
ATOM     35  N   UNL A   1      41.283  29.404  32.946  1.00  0.00    -0.248 NA
ATOM     36  C   UNL A   1      42.311  27.651  31.801  1.00  0.00     0.031 C 
ATOM     37  C   UNL A   1      38.367  29.864  29.586  1.00  0.00     0.029 A 
ATOM     38  N   UNL A   1      39.173  30.782  31.457  1.00  0.00    -0.354 N 
ATOM     39  C   UNL A   1      42.348  28.926  33.702  1.00  0.00     0.074 A 
ATOM     40  C   UNL A   1      42.922  27.821  32.966  1.00  0.00     0.031 C 
ATOM     41  C   UNL A   1      37.704  31.012  29.786  1.00  0.00     0.029 A 
ATOM     42  C   UNL A   1      38.152  31.605  31.041  1.00  0.00     0.049 A 
ATOM     43  H   UNL A   1      39.717  30.961  32.258  1.00  0.00     0.167 HD
ATOM     44  C   UNL A   1      42.799  29.363  34.904  1.00  0.00     0.031 A 
ATOM     45  C   UNL A   1      37.594  32.686  31.619  1.00  0.00     0.031 A 
ATOM     46  C   UNL A   1      42.252  30.491  35.612  1.00  0.00     0.049 A 
ATOM     47  C   UNL A   1      38.096  33.140  32.959  1.00  0.00     0.074 A 
ATOM     48  C   UNL A   1      42.645  31.016  36.832  1.00  0.00     0.029 A 
ATOM     49  N   UNL A   1      41.207  31.281  35.157  1.00  0.00    -0.354 N 
ATOM     50  N   UNL A   1      39.058  32.634  33.691  1.00  0.00    -0.248 NA
ATOM     51  C   UNL A   1      37.423  34.300  33.560  1.00  0.00     0.031 C 
ATOM     52  C   UNL A   1      41.815  32.102  37.130  1.00  0.00     0.029 A 
ATOM     53  C   UNL A   1      40.938  32.284  36.073  1.00  0.00     0.049 A 
ATOM     54  H   UNL A   1      40.727  31.148  34.308  1.00  0.00     0.167 HD
ATOM     55  C   UNL A   1      39.114  33.420  34.837  1.00  0.00     0.074 A 
ATOM     56  C   UNL A   1      38.102  34.448  34.689  1.00  0.00     0.031 C 
ATOM     57  C   UNL A   1      39.927  33.297  35.914  1.00  0.00     0.031 A 
BRANCH  44  58
ATOM     58  C   UNL A   1      43.917  28.589  35.553  1.00  0.00    -0.014 A 
ATOM     59  C   UNL A   1      45.266  28.923  35.340  1.00  0.00     0.010 A 
ATOM     60  C   UNL A   1      43.606  27.527  36.424  1.00  0.00     0.010 A 
ATOM     61  C   UNL A   1      46.283  28.181  35.950  1.00  0.00     0.020 A 
ATOM     62  C   UNL A   1      44.618  26.801  37.057  1.00  0.00     0.020 A 
ATOM     63  C   UNL A   1      45.953  27.120  36.800  1.00  0.00     0.054 A 
BRANCH  63  64
ATOM     64  S   UNL A   1      47.289  26.182  37.590  1.00  0.00     0.124 S 
ATOM     65  O   UNL A   1      46.553  25.101  38.241  1.00  0.00    -0.237 OA
ATOM     66  O   UNL A   1      48.119  25.782  36.455  1.00  0.00    -0.237 OA
ATOM     67  O   UNL A   1      47.904  27.149  38.495  1.00  0.00    -0.744 OA
ENDBRANCH  63  64
ENDBRANCH  44  58
BRANCH  45  68
ATOM     68  C   UNL A   1      36.458  33.377  30.949  1.00  0.00    -0.014 A 
ATOM     69  C   UNL A   1      35.203  33.463  31.575  1.00  0.00     0.010 A 
ATOM     70  C   UNL A   1      36.642  33.986  29.693  1.00  0.00     0.010 A 
ATOM     71  C   UNL A   1      34.151  34.144  30.956  1.00  0.00     0.020 A 
ATOM     72  C   UNL A   1      35.601  34.691  29.085  1.00  0.00     0.020 A 
ATOM     73  C   UNL A   1      34.358  34.758  29.717  1.00  0.00     0.054 A 
BRANCH  73  74
ATOM     74  S   UNL A   1      33.002  35.702  28.965  1.00  0.00     0.124 S 
ATOM     75  O   UNL A   1      32.211  36.077  30.132  1.00  0.00    -0.237 OA
ATOM     76  O   UNL A   1      33.705  36.796  28.298  1.00  0.00    -0.237 OA
ATOM     77  O   UNL A   1      32.375  34.736  28.065  1.00  0.00    -0.744 OA
ENDBRANCH  73  74
ENDBRANCH  45  68
BRANCH  57  78
ATOM     78  C   UNL A   1      39.779  34.323  37.004  1.00  0.00    -0.014 A 
ATOM     79  C   UNL A   1      39.031  34.050  38.162  1.00  0.00     0.010 A 
ATOM     80  C   UNL A   1      40.434  35.561  36.883  1.00  0.00     0.010 A 
ATOM     81  C   UNL A   1      38.916  35.011  39.169  1.00  0.00     0.020 A 
ATOM     82  C   UNL A   1      40.341  36.516  37.899  1.00  0.00     0.020 A 
ATOM     83  C   UNL A   1      39.569  36.240  39.030  1.00  0.00     0.054 A 
BRANCH  83  84
ATOM     84  S   UNL A   1      39.437  37.459  40.367  1.00  0.00     0.124 S 
ATOM     85  O   UNL A   1      38.526  38.443  39.792  1.00  0.00    -0.237 OA
ATOM     86  O   UNL A   1      38.896  36.670  41.471  1.00  0.00    -0.237 OA
ATOM     87  O   UNL A   1      40.813  37.916  40.553  1.00  0.00    -0.744 OA
ENDBRANCH  83  84
ENDBRANCH  57  78
ENDBRANCH  31  32
ENDBRANCH  24  26
ENDBRANCH  23  24
ENDBRANCH   1  23
TORSDOF 17
ENDMDL
MODEL 2
REMARK VINA RESULT:     -10.9      6.734     11.914
REMARK SMILES CC(=O)Oc1c(Cl)cc(-c2ccccc2)cc1C(=O)OCCOC(=O)c1ccc(-c2c3nc(c(-c4ccc(S(=O)(=O)[O-])cc4)c4ccc([nH]4)c(-c4ccc(S(=O)(=O)[O-])cc4)c4nc(c(-c5ccc(S(=O)(=O)[O-])cc5)c5ccc2[nH]5)C=C4)C=C3)cc1
REMARK SMILES IDX 22 1 21 2 20 3 18 4 19 5 17 6 5 7 6 8 7 9 8 10 16 11 9 12
REMARK SMILES IDX 4 13 2 14 1 15 3 16 10 17 11 18 15 19 12 20 14 21 13 22
REMARK SMILES IDX 23 23 24 24 25 25 26 26 27 27 85 28 28 29 84 30 29 31 30 32
REMARK SMILES IDX 31 33 78 34 32 35 83 36 77 37 79 38 33 39 82 40 76 41 75 42
REMARK SMILES IDX 34 44 64 45 45 46 63 47 46 48 49 49 62 50 80 51 47 52 48 53
REMARK SMILES IDX 61 55 81 56 50 57 35 58 36 59 44 60 37 61 43 62 38 63 39 64
REMARK SMILES IDX 40 65 41 66 42 67 65 68 66 69 74 70 67 71 73 72 68 73 69 74
REMARK SMILES IDX 70 75 71 76 72 77 51 78 52 79 60 80 53 81 59 82 54 83 55 84
REMARK SMILES IDX 56 85 57 86 58 87
REMARK H PARENT 79 43 49 54
REMARK Flexibility Score: inf
ROOT
ATOM      1  C   UNL A   1      34.146  31.319  27.804  1.00  0.00     0.275 C 
ENDROOT
BRANCH   1   2
ATOM      2  C   UNL A   1      33.031  30.376  27.355  1.00  0.00     0.275 C 
BRANCH   2   3
ATOM      3  O   UNL A   1      33.246  29.907  26.008  1.00  0.00    -0.458 OA
BRANCH   3   4
ATOM      4  C   UNL A   1      33.234  28.562  25.844  1.00  0.00     0.342 C 
ATOM      5  O   UNL A   1      33.947  27.757  26.422  1.00  0.00    -0.246 OA
BRANCH   4   6
ATOM      6  C   UNL A   1      32.156  28.136  24.926  1.00  0.00     0.105 A 
ATOM      7  C   UNL A   1      31.898  26.806  24.594  1.00  0.00     0.164 A 
ATOM      8  C   UNL A   1      30.782  26.492  23.804  1.00  0.00     0.085 A 
ATOM      9  Cl  UNL A   1      30.334  24.851  23.494  1.00  0.00    -0.080 Cl
ATOM     10  C   UNL A   1      29.968  27.509  23.283  1.00  0.00     0.033 A 
ATOM     11  C   UNL A   1      31.302  29.134  24.440  1.00  0.00     0.028 A 
ATOM     12  C   UNL A   1      30.231  28.849  23.583  1.00  0.00    -0.016 A 
BRANCH   7  13
ATOM     13  O   UNL A   1      32.683  25.796  25.159  1.00  0.00    -0.424 OA
BRANCH  13  14
ATOM     14  C   UNL A   1      32.071  25.188  26.248  1.00  0.00     0.308 C 
ATOM     15  C   UNL A   1      32.742  23.874  26.519  1.00  0.00     0.139 C 
ATOM     16  O   UNL A   1      31.110  25.608  26.878  1.00  0.00    -0.252 OA
ENDBRANCH  13  14
ENDBRANCH   7  13
BRANCH  12  17
ATOM     17  C   UNL A   1      29.427  29.957  23.054  1.00  0.00    -0.018 A 
ATOM     18  C   UNL A   1      29.256  31.142  23.784  1.00  0.00     0.009 A 
ATOM     19  C   UNL A   1      28.880  29.884  21.760  1.00  0.00     0.009 A 
ATOM     20  C   UNL A   1      28.569  32.226  23.230  1.00  0.00     0.001 A 
ATOM     21  C   UNL A   1      28.191  30.966  21.209  1.00  0.00     0.001 A 
ATOM     22  C   UNL A   1      28.040  32.139  21.944  1.00  0.00     0.000 A 
ENDBRANCH  12  17
ENDBRANCH   4   6
ENDBRANCH   3   4
ENDBRANCH   2   3
ENDBRANCH   1   2
BRANCH   1  23
ATOM     23  O   UNL A   1      35.415  30.643  27.781  1.00  0.00    -0.458 OA
BRANCH  23  24
ATOM     24  C   UNL A   1      36.117  30.694  28.934  1.00  0.00     0.338 C 
ATOM     25  O   UNL A   1      35.773  31.192  29.993  1.00  0.00    -0.246 OA
BRANCH  24  26
ATOM     26  C   UNL A   1      37.406  30.009  28.765  1.00  0.00     0.060 A 
ATOM     27  C   UNL A   1      38.136  29.662  29.897  1.00  0.00     0.016 A 
ATOM     28  C   UNL A   1      37.963  29.854  27.497  1.00  0.00     0.016 A 
ATOM     29  C   UNL A   1      39.470  29.281  29.780  1.00  0.00     0.010 A 
ATOM     30  C   UNL A   1      39.262  29.347  27.376  1.00  0.00     0.010 A 
ATOM     31  C   UNL A   1      40.050  29.096  28.516  1.00  0.00    -0.014 A 
BRANCH  31  32
ATOM     32  C   UNL A   1      41.470  28.659  28.378  1.00  0.00     0.031 A 
ATOM     33  C   UNL A   1      42.591  29.660  28.519  1.00  0.00     0.074 A 
ATOM     34  C   UNL A   1      41.769  27.370  28.111  1.00  0.00     0.049 A 
ATOM     35  N   UNL A   1      43.859  29.531  28.220  1.00  0.00    -0.248 NA
ATOM     36  C   UNL A   1      42.235  30.987  29.049  1.00  0.00     0.031 C 
ATOM     37  C   UNL A   1      40.801  26.276  27.994  1.00  0.00     0.029 A 
ATOM     38  N   UNL A   1      42.980  26.760  27.888  1.00  0.00    -0.354 N 
ATOM     39  C   UNL A   1      44.437  30.774  28.458  1.00  0.00     0.074 A 
ATOM     40  C   UNL A   1      43.382  31.644  28.931  1.00  0.00     0.031 C 
ATOM     41  C   UNL A   1      41.455  25.129  27.762  1.00  0.00     0.029 A 
ATOM     42  C   UNL A   1      42.877  25.416  27.613  1.00  0.00     0.049 A 
ATOM     43  H   UNL A   1      43.840  27.238  27.924  1.00  0.00     0.167 HD
ATOM     44  C   UNL A   1      45.726  31.157  28.288  1.00  0.00     0.031 A 
ATOM     45  C   UNL A   1      43.804  24.516  27.230  1.00  0.00     0.031 A 
ATOM     46  C   UNL A   1      46.782  30.276  27.858  1.00  0.00     0.049 A 
ATOM     47  C   UNL A   1      45.221  24.966  27.029  1.00  0.00     0.074 A 
ATOM     48  C   UNL A   1      48.122  30.569  27.663  1.00  0.00     0.029 A 
ATOM     49  N   UNL A   1      46.623  28.929  27.575  1.00  0.00    -0.354 N 
ATOM     50  N   UNL A   1      45.736  26.161  27.192  1.00  0.00    -0.248 NA
ATOM     51  C   UNL A   1      46.180  23.951  26.573  1.00  0.00     0.031 C 
ATOM     52  C   UNL A   1      48.766  29.405  27.229  1.00  0.00     0.029 A 
ATOM     53  C   UNL A   1      47.837  28.377  27.201  1.00  0.00     0.049 A 
ATOM     54  H   UNL A   1      45.772  28.437  27.631  1.00  0.00     0.167 HD
ATOM     55  C   UNL A   1      47.082  26.040  26.868  1.00  0.00     0.074 A 
ATOM     56  C   UNL A   1      47.306  24.650  26.520  1.00  0.00     0.031 C 
ATOM     57  C   UNL A   1      48.043  26.994  26.855  1.00  0.00     0.031 A 
BRANCH  44  58
ATOM     58  C   UNL A   1      46.062  32.607  28.526  1.00  0.00    -0.014 A 
ATOM     59  C   UNL A   1      45.860  33.584  27.536  1.00  0.00     0.010 A 
ATOM     60  C   UNL A   1      46.557  33.002  29.784  1.00  0.00     0.010 A 
ATOM     61  C   UNL A   1      46.188  34.921  27.783  1.00  0.00     0.020 A 
ATOM     62  C   UNL A   1      46.862  34.341  30.044  1.00  0.00     0.020 A 
ATOM     63  C   UNL A   1      46.693  35.290  29.034  1.00  0.00     0.054 A 
BRANCH  63  64
ATOM     64  S   UNL A   1      47.099  37.032  29.335  1.00  0.00     0.124 S 
ATOM     65  O   UNL A   1      48.418  36.930  29.956  1.00  0.00    -0.237 OA
ATOM     66  O   UNL A   1      47.080  37.606  27.992  1.00  0.00    -0.237 OA
ATOM     67  O   UNL A   1      46.029  37.490  30.219  1.00  0.00    -0.744 OA
ENDBRANCH  63  64
ENDBRANCH  44  58
BRANCH  45  68
ATOM     68  C   UNL A   1      43.399  23.108  26.963  1.00  0.00    -0.014 A 
ATOM     69  C   UNL A   1      43.558  22.549  25.684  1.00  0.00     0.010 A 
ATOM     70  C   UNL A   1      42.884  22.310  28.001  1.00  0.00     0.010 A 
ATOM     71  C   UNL A   1      43.209  21.216  25.448  1.00  0.00     0.020 A 
ATOM     72  C   UNL A   1      42.561  20.970  27.776  1.00  0.00     0.020 A 
ATOM     73  C   UNL A   1      42.717  20.433  26.497  1.00  0.00     0.054 A 
BRANCH  73  74
ATOM     74  S   UNL A   1      42.342  18.684  26.189  1.00  0.00     0.124 S 
ATOM     75  O   UNL A   1      42.524  18.097  27.512  1.00  0.00    -0.237 OA
ATOM     76  O   UNL A   1      40.965  18.735  25.701  1.00  0.00    -0.237 OA
ATOM     77  O   UNL A   1      43.334  18.296  25.188  1.00  0.00    -0.744 OA
ENDBRANCH  73  74
ENDBRANCH  45  68
BRANCH  57  78
ATOM     78  C   UNL A   1      49.435  26.560  26.487  1.00  0.00    -0.014 A 
ATOM     79  C   UNL A   1      50.285  25.962  27.433  1.00  0.00     0.010 A 
ATOM     80  C   UNL A   1      49.882  26.716  25.162  1.00  0.00     0.010 A 
ATOM     81  C   UNL A   1      51.570  25.553  27.068  1.00  0.00     0.020 A 
ATOM     82  C   UNL A   1      51.157  26.288  24.787  1.00  0.00     0.020 A 
ATOM     83  C   UNL A   1      51.999  25.722  25.748  1.00  0.00     0.054 A 
BRANCH  83  84
ATOM     84  S   UNL A   1      53.658  25.150  25.287  1.00  0.00     0.124 S 
ATOM     85  O   UNL A   1      53.795  25.677  23.933  1.00  0.00    -0.237 OA
ATOM     86  O   UNL A   1      54.508  25.778  26.296  1.00  0.00    -0.237 OA
ATOM     87  O   UNL A   1      53.560  23.695  25.382  1.00  0.00    -0.744 OA
ENDBRANCH  83  84
ENDBRANCH  57  78
ENDBRANCH  31  32
ENDBRANCH  24  26
ENDBRANCH  23  24
ENDBRANCH   1  23
TORSDOF 17
ENDMDL
MODEL 3
REMARK VINA RESULT:     -10.9      6.663     12.042
REMARK SMILES CC(=O)Oc1c(Cl)cc(-c2ccccc2)cc1C(=O)OCCOC(=O)c1ccc(-c2c3nc(c(-c4ccc(S(=O)(=O)[O-])cc4)c4ccc([nH]4)c(-c4ccc(S(=O)(=O)[O-])cc4)c4nc(c(-c5ccc(S(=O)(=O)[O-])cc5)c5ccc2[nH]5)C=C4)C=C3)cc1
REMARK SMILES IDX 22 1 21 2 20 3 18 4 19 5 17 6 5 7 6 8 7 9 8 10 16 11 9 12
REMARK SMILES IDX 4 13 2 14 1 15 3 16 10 17 11 18 15 19 12 20 14 21 13 22
REMARK SMILES IDX 23 23 24 24 25 25 26 26 27 27 85 28 28 29 84 30 29 31 30 32
REMARK SMILES IDX 31 33 78 34 32 35 83 36 77 37 79 38 33 39 82 40 76 41 75 42
REMARK SMILES IDX 34 44 64 45 45 46 63 47 46 48 49 49 62 50 80 51 47 52 48 53
REMARK SMILES IDX 61 55 81 56 50 57 35 58 36 59 44 60 37 61 43 62 38 63 39 64
REMARK SMILES IDX 40 65 41 66 42 67 65 68 66 69 74 70 67 71 73 72 68 73 69 74
REMARK SMILES IDX 70 75 71 76 72 77 51 78 52 79 60 80 53 81 59 82 54 83 55 84
REMARK SMILES IDX 56 85 57 86 58 87
REMARK H PARENT 79 43 49 54
REMARK Flexibility Score: inf
ROOT
ATOM      1  C   UNL A   1      34.055  29.686  27.393  1.00  0.00     0.275 C 
ENDROOT
BRANCH   1   2
ATOM      2  C   UNL A   1      33.638  28.986  26.101  1.00  0.00     0.275 C 
BRANCH   2   3
ATOM      3  O   UNL A   1      34.024  27.596  26.105  1.00  0.00    -0.458 OA
BRANCH   3   4
ATOM      4  C   UNL A   1      33.992  26.971  24.903  1.00  0.00     0.342 C 
ATOM      5  O   UNL A   1      34.028  27.510  23.808  1.00  0.00    -0.246 OA
BRANCH   4   6
ATOM      6  C   UNL A   1      34.009  25.501  25.053  1.00  0.00     0.105 A 
ATOM      7  C   UNL A   1      32.882  24.693  24.908  1.00  0.00     0.164 A 
ATOM      8  C   UNL A   1      33.018  23.297  24.957  1.00  0.00     0.085 A 
ATOM      9  Cl  UNL A   1      31.680  22.252  24.631  1.00  0.00    -0.080 Cl
ATOM     10  C   UNL A   1      34.263  22.711  25.225  1.00  0.00     0.033 A 
ATOM     11  C   UNL A   1      35.254  24.896  25.267  1.00  0.00     0.028 A 
ATOM     12  C   UNL A   1      35.398  23.510  25.402  1.00  0.00    -0.016 A 
BRANCH   7  13
ATOM     13  O   UNL A   1      31.654  25.281  24.590  1.00  0.00    -0.424 OA
BRANCH  13  14
ATOM     14  C   UNL A   1      30.850  25.479  25.705  1.00  0.00     0.308 C 
ATOM     15  C   UNL A   1      29.497  25.951  25.259  1.00  0.00     0.139 C 
ATOM     16  O   UNL A   1      31.175  25.344  26.877  1.00  0.00    -0.252 OA
ENDBRANCH  13  14
ENDBRANCH   7  13
BRANCH  12  17
ATOM     17  C   UNL A   1      36.723  22.957  25.703  1.00  0.00    -0.018 A 
ATOM     18  C   UNL A   1      37.092  21.677  25.264  1.00  0.00     0.009 A 
ATOM     19  C   UNL A   1      37.686  23.738  26.367  1.00  0.00     0.009 A 
ATOM     20  C   UNL A   1      38.389  21.199  25.472  1.00  0.00     0.001 A 
ATOM     21  C   UNL A   1      38.980  23.259  26.578  1.00  0.00     0.001 A 
ATOM     22  C   UNL A   1      39.332  21.990  26.126  1.00  0.00     0.000 A 
ENDBRANCH  12  17
ENDBRANCH   4   6
ENDBRANCH   3   4
ENDBRANCH   2   3
ENDBRANCH   1   2
BRANCH   1  23
ATOM     23  O   UNL A   1      35.360  29.244  27.805  1.00  0.00    -0.458 OA
BRANCH  23  24
ATOM     24  C   UNL A   1      35.977  30.032  28.713  1.00  0.00     0.338 C 
ATOM     25  O   UNL A   1      35.457  30.766  29.536  1.00  0.00    -0.246 OA
BRANCH  24  26
ATOM     26  C   UNL A   1      37.433  29.867  28.610  1.00  0.00     0.060 A 
ATOM     27  C   UNL A   1      38.013  29.801  27.347  1.00  0.00     0.016 A 
ATOM     28  C   UNL A   1      38.199  29.618  29.746  1.00  0.00     0.016 A 
ATOM     29  C   UNL A   1      39.326  29.363  27.202  1.00  0.00     0.010 A 
ATOM     30  C   UNL A   1      39.555  29.302  29.603  1.00  0.00     0.010 A 
ATOM     31  C   UNL A   1      40.127  29.126  28.329  1.00  0.00    -0.014 A 
BRANCH  31  32
ATOM     32  C   UNL A   1      41.546  28.684  28.185  1.00  0.00     0.031 A 
ATOM     33  C   UNL A   1      42.669  29.685  28.302  1.00  0.00     0.074 A 
ATOM     34  C   UNL A   1      41.840  27.391  27.934  1.00  0.00     0.049 A 
ATOM     35  N   UNL A   1      43.935  29.549  27.995  1.00  0.00    -0.248 NA
ATOM     36  C   UNL A   1      42.321  31.020  28.816  1.00  0.00     0.031 C 
ATOM     37  C   UNL A   1      40.868  26.298  27.842  1.00  0.00     0.029 A 
ATOM     38  N   UNL A   1      43.047  26.775  27.711  1.00  0.00    -0.354 N 
ATOM     39  C   UNL A   1      44.517  30.794  28.210  1.00  0.00     0.074 A 
ATOM     40  C   UNL A   1      43.468  31.672  28.679  1.00  0.00     0.031 C 
ATOM     41  C   UNL A   1      41.518  25.146  27.621  1.00  0.00     0.029 A 
ATOM     42  C   UNL A   1      42.939  25.427  27.456  1.00  0.00     0.049 A 
ATOM     43  H   UNL A   1      43.909  27.252  27.732  1.00  0.00     0.167 HD
ATOM     44  C   UNL A   1      45.806  31.171  28.024  1.00  0.00     0.031 A 
ATOM     45  C   UNL A   1      43.861  24.520  27.078  1.00  0.00     0.031 A 
ATOM     46  C   UNL A   1      46.856  30.282  27.598  1.00  0.00     0.049 A 
ATOM     47  C   UNL A   1      45.277  24.964  26.859  1.00  0.00     0.074 A 
ATOM     48  C   UNL A   1      48.195  30.569  27.387  1.00  0.00     0.029 A 
ATOM     49  N   UNL A   1      46.692  28.931  27.335  1.00  0.00    -0.354 N 
ATOM     50  N   UNL A   1      45.796  26.160  27.000  1.00  0.00    -0.248 NA
ATOM     51  C   UNL A   1      46.230  23.940  26.409  1.00  0.00     0.031 C 
ATOM     52  C   UNL A   1      48.833  29.397  26.965  1.00  0.00     0.029 A 
ATOM     53  C   UNL A   1      47.902  28.372  26.959  1.00  0.00     0.049 A 
ATOM     54  H   UNL A   1      45.841  28.442  27.405  1.00  0.00     0.167 HD
ATOM     55  C   UNL A   1      47.139  26.031  26.666  1.00  0.00     0.074 A 
ATOM     56  C   UNL A   1      47.357  24.636  26.336  1.00  0.00     0.031 C 
ATOM     57  C   UNL A   1      48.102  26.983  26.632  1.00  0.00     0.031 A 
BRANCH  44  58
ATOM     58  C   UNL A   1      46.146  32.624  28.238  1.00  0.00    -0.014 A 
ATOM     59  C   UNL A   1      45.997  33.576  27.214  1.00  0.00     0.010 A 
ATOM     60  C   UNL A   1      46.592  33.048  29.505  1.00  0.00     0.010 A 
ATOM     61  C   UNL A   1      46.329  34.916  27.441  1.00  0.00     0.020 A 
ATOM     62  C   UNL A   1      46.900  34.390  29.743  1.00  0.00     0.020 A 
ATOM     63  C   UNL A   1      46.785  35.313  28.702  1.00  0.00     0.054 A 
BRANCH  63  64
ATOM     64  S   UNL A   1      47.196  37.058  28.975  1.00  0.00     0.124 S 
ATOM     65  O   UNL A   1      47.329  37.113  30.429  1.00  0.00    -0.237 OA
ATOM     66  O   UNL A   1      48.439  37.219  28.224  1.00  0.00    -0.237 OA
ATOM     67  O   UNL A   1      46.046  37.775  28.428  1.00  0.00    -0.744 OA
ENDBRANCH  63  64
ENDBRANCH  44  58
BRANCH  45  68
ATOM     68  C   UNL A   1      43.451  23.110  26.834  1.00  0.00    -0.014 A 
ATOM     69  C   UNL A   1      43.609  22.528  25.565  1.00  0.00     0.010 A 
ATOM     70  C   UNL A   1      42.931  22.332  27.886  1.00  0.00     0.010 A 
ATOM     71  C   UNL A   1      43.254  21.192  25.352  1.00  0.00     0.020 A 
ATOM     72  C   UNL A   1      42.604  20.989  27.683  1.00  0.00     0.020 A 
ATOM     73  C   UNL A   1      42.759  20.430  26.414  1.00  0.00     0.054 A 
BRANCH  73  74
ATOM     74  S   UNL A   1      42.377  18.677  26.136  1.00  0.00     0.124 S 
ATOM     75  O   UNL A   1      42.661  18.094  27.442  1.00  0.00    -0.237 OA
ATOM     76  O   UNL A   1      40.968  18.715  25.750  1.00  0.00    -0.237 OA
ATOM     77  O   UNL A   1      43.296  18.296  25.065  1.00  0.00    -0.744 OA
ENDBRANCH  73  74
ENDBRANCH  45  68
BRANCH  57  78
ATOM     78  C   UNL A   1      49.490  26.541  26.258  1.00  0.00    -0.014 A 
ATOM     79  C   UNL A   1      49.986  26.729  24.956  1.00  0.00     0.010 A 
ATOM     80  C   UNL A   1      50.322  25.967  27.236  1.00  0.00     0.010 A 
ATOM     81  C   UNL A   1      51.283  26.322  24.631  1.00  0.00     0.020 A 
ATOM     82  C   UNL A   1      51.627  25.581  26.921  1.00  0.00     0.020 A 
ATOM     83  C   UNL A   1      52.094  25.748  25.615  1.00  0.00     0.054 A 
BRANCH  83  84
ATOM     84  S   UNL A   1      53.787  25.262  25.181  1.00  0.00     0.124 S 
ATOM     85  O   UNL A   1      53.956  25.888  23.873  1.00  0.00    -0.237 OA
ATOM     86  O   UNL A   1      54.577  25.843  26.263  1.00  0.00    -0.237 OA
ATOM     87  O   UNL A   1      53.735  23.802  25.171  1.00  0.00    -0.744 OA
ENDBRANCH  83  84
ENDBRANCH  57  78
ENDBRANCH  31  32
ENDBRANCH  24  26
ENDBRANCH  23  24
ENDBRANCH   1  23
TORSDOF 17
ENDMDL
