MODEL 1
REMARK VINA RESULT:     -11.7      0.000      0.000
REMARK SMILES Cc1cc(=O)c(Oc2ccc(C(=O)OCCOC(=O)c3ccc(-c4c5nc(c(-c6ccc(S(=O)(=O)[O-])cc6)c6ccc([nH]6)c(-c6ccc(S(=O)(=O)[O-])cc6)c6nc(c(-c7ccc(S(=O)(=O)[O-])cc7)c7ccc4[nH]7)C=C6)C=C5)cc3)cc2)c(-c2ccc(S(C)(=O)=O)cc2)o1
REMARK SMILES IDX 15 1 14 2 12 3 13 4 11 5 8 6 9 7 81 8 10 9 80 10 7 11 6 12
REMARK SMILES IDX 1 13 2 14 3 15 93 16 4 17 82 18 5 19 83 20 84 21 92 22 85 23
REMARK SMILES IDX 91 24 86 25 87 26 88 27 89 28 90 29 16 30 17 31 18 32 19 33
REMARK SMILES IDX 20 34 21 35 79 36 22 37 78 38 23 39 24 40 25 41 72 42 26 43
REMARK SMILES IDX 77 44 71 45 73 46 27 47 76 48 70 49 69 50 28 52 58 53 39 54
REMARK SMILES IDX 57 55 40 56 43 57 56 58 74 59 41 60 42 61 55 63 75 64 44 65
REMARK SMILES IDX 29 66 30 67 38 68 31 69 37 70 32 71 33 72 34 73 35 74 36 75
REMARK SMILES IDX 59 76 60 77 68 78 61 79 67 80 62 81 63 82 64 83 65 84 66 85
REMARK SMILES IDX 45 86 46 87 54 88 47 89 53 90 48 91 49 92 50 93 51 94 52 95
REMARK H PARENT 73 51 43 62
REMARK Flexibility Score: inf
ROOT
ATOM      1  C   UNL A   1      34.739  31.859  28.059  1.00  0.00     0.275 C 
ENDROOT
BRANCH   1   2
ATOM      2  O   UNL A   1      34.353  30.835  27.120  1.00  0.00    -0.458 OA
BRANCH   2   3
ATOM      3  C   UNL A   1      33.021  30.609  26.978  1.00  0.00     0.338 C 
ATOM      4  O   UNL A   1      32.163  31.458  26.788  1.00  0.00    -0.246 OA
BRANCH   3   5
ATOM      5  C   UNL A   1      32.750  29.146  26.916  1.00  0.00     0.060 A 
ATOM      6  C   UNL A   1      31.999  26.494  26.440  1.00  0.00     0.127 A 
ATOM      7  C   UNL A   1      31.085  27.367  27.024  1.00  0.00     0.048 A 
ATOM      8  C   UNL A   1      33.314  26.908  26.206  1.00  0.00     0.048 A 
ATOM      9  C   UNL A   1      31.473  28.688  27.281  1.00  0.00     0.019 A 
ATOM     10  C   UNL A   1      33.685  28.237  26.413  1.00  0.00     0.019 A 
BRANCH   6  11
ATOM     11  O   UNL A   1      31.722  25.187  26.144  1.00  0.00    -0.449 OA
BRANCH  11  12
ATOM     12  C   UNL A   1      31.964  24.640  24.893  1.00  0.00     0.217 A 
ATOM     13  C   UNL A   1      33.498  23.200  21.125  1.00  0.00     0.088 C 
ATOM     14  C   UNL A   1      33.001  23.560  22.489  1.00  0.00     0.105 A 
ATOM     15  C   UNL A   1      33.513  23.064  23.618  1.00  0.00     0.098 A 
ATOM     16  O   UNL A   1      31.971  24.473  22.487  1.00  0.00    -0.457 OA
ATOM     17  C   UNL A   1      32.975  23.534  24.905  1.00  0.00     0.228 A 
ATOM     18  C   UNL A   1      31.543  25.063  23.675  1.00  0.00     0.180 A 
ATOM     19  O   UNL A   1      33.402  23.046  25.948  1.00  0.00    -0.285 OA
BRANCH  18  20
ATOM     20  C   UNL A   1      30.674  26.219  23.357  1.00  0.00     0.021 A 
ATOM     21  C   UNL A   1      31.256  27.396  22.852  1.00  0.00     0.013 A 
ATOM     22  C   UNL A   1      29.322  26.247  23.716  1.00  0.00     0.013 A 
ATOM     23  C   UNL A   1      30.516  28.577  22.730  1.00  0.00     0.021 A 
ATOM     24  C   UNL A   1      28.569  27.419  23.576  1.00  0.00     0.021 A 
ATOM     25  C   UNL A   1      29.172  28.588  23.102  1.00  0.00     0.067 A 
BRANCH  25  26
ATOM     26  S   UNL A   1      28.223  30.095  23.067  1.00  0.00     0.175 S 
ATOM     27  C   UNL A   1      28.157  30.577  21.365  1.00  0.00     0.163 C 
ATOM     28  O   UNL A   1      26.865  29.804  23.483  1.00  0.00    -0.224 OA
ATOM     29  O   UNL A   1      29.001  31.108  23.760  1.00  0.00    -0.224 OA
ENDBRANCH  25  26
ENDBRANCH  18  20
ENDBRANCH  11  12
ENDBRANCH   6  11
ENDBRANCH   3   5
ENDBRANCH   2   3
ENDBRANCH   1   2
BRANCH   1  30
ATOM     30  C   UNL A   1      35.826  31.374  29.032  1.00  0.00     0.275 C 
BRANCH  30  31
ATOM     31  O   UNL A   1      36.362  30.077  28.697  1.00  0.00    -0.458 OA
BRANCH  31  32
ATOM     32  C   UNL A   1      37.022  29.480  29.715  1.00  0.00     0.338 C 
ATOM     33  O   UNL A   1      36.535  29.099  30.768  1.00  0.00    -0.246 OA
BRANCH  32  34
ATOM     34  C   UNL A   1      38.449  29.267  29.420  1.00  0.00     0.060 A 
ATOM     35  C   UNL A   1      39.348  28.765  30.365  1.00  0.00     0.016 A 
ATOM     36  C   UNL A   1      38.848  29.426  28.091  1.00  0.00     0.016 A 
ATOM     37  C   UNL A   1      40.654  28.444  29.973  1.00  0.00     0.010 A 
ATOM     38  C   UNL A   1      40.138  29.095  27.697  1.00  0.00     0.010 A 
ATOM     39  C   UNL A   1      41.059  28.623  28.640  1.00  0.00    -0.014 A 
BRANCH  39  40
ATOM     40  C   UNL A   1      42.471  28.466  28.217  1.00  0.00     0.031 A 
ATOM     41  C   UNL A   1      43.387  29.650  28.364  1.00  0.00     0.074 A 
ATOM     42  C   UNL A   1      42.907  27.325  27.650  1.00  0.00     0.049 A 
ATOM     43  N   UNL A   1      44.632  29.779  27.993  1.00  0.00    -0.248 NA
ATOM     44  C   UNL A   1      42.814  30.859  28.984  1.00  0.00     0.031 C 
ATOM     45  C   UNL A   1      42.097  26.131  27.415  1.00  0.00     0.029 A 
ATOM     46  N   UNL A   1      44.145  26.991  27.155  1.00  0.00    -0.354 N 
ATOM     47  C   UNL A   1      44.991  31.077  28.338  1.00  0.00     0.074 A 
ATOM     48  C   UNL A   1      43.818  31.717  28.884  1.00  0.00     0.031 C 
ATOM     49  C   UNL A   1      42.862  25.189  26.833  1.00  0.00     0.029 A 
ATOM     50  C   UNL A   1      44.212  25.717  26.639  1.00  0.00     0.049 A 
ATOM     51  H   UNL A   1      44.913  27.607  27.169  1.00  0.00     0.167 HD
ATOM     52  C   UNL A   1      46.202  31.670  28.243  1.00  0.00     0.031 A 
ATOM     53  C   UNL A   1      45.247  25.052  26.084  1.00  0.00     0.031 A 
ATOM     54  C   UNL A   1      47.370  31.018  27.724  1.00  0.00     0.049 A 
ATOM     55  C   UNL A   1      46.593  25.728  26.005  1.00  0.00     0.074 A 
ATOM     56  C   UNL A   1      48.653  31.523  27.612  1.00  0.00     0.029 A 
ATOM     57  N   UNL A   1      47.405  29.715  27.254  1.00  0.00    -0.354 N 
ATOM     58  N   UNL A   1      46.926  26.939  26.384  1.00  0.00    -0.248 NA
ATOM     59  C   UNL A   1      47.709  24.947  25.447  1.00  0.00     0.031 C 
ATOM     60  C   UNL A   1      49.457  30.535  27.041  1.00  0.00     0.029 A 
ATOM     61  C   UNL A   1      48.688  29.397  26.852  1.00  0.00     0.049 A 
ATOM     62  H   UNL A   1      46.631  29.108  27.213  1.00  0.00     0.167 HD
ATOM     63  C   UNL A   1      48.290  27.056  26.134  1.00  0.00     0.074 A 
ATOM     64  C   UNL A   1      48.726  25.788  25.585  1.00  0.00     0.031 C 
ATOM     65  C   UNL A   1      49.106  28.119  26.333  1.00  0.00     0.031 A 
BRANCH  52  66
ATOM     66  C   UNL A   1      46.346  33.073  28.764  1.00  0.00    -0.014 A 
ATOM     67  C   UNL A   1      46.179  34.172  27.903  1.00  0.00     0.010 A 
ATOM     68  C   UNL A   1      46.759  33.296  30.090  1.00  0.00     0.010 A 
ATOM     69  C   UNL A   1      46.458  35.467  28.349  1.00  0.00     0.020 A 
ATOM     70  C   UNL A   1      47.011  34.591  30.547  1.00  0.00     0.020 A 
ATOM     71  C   UNL A   1      46.883  35.666  29.665  1.00  0.00     0.054 A 
BRANCH  71  72
ATOM     72  S   UNL A   1      47.285  37.347  30.214  1.00  0.00     0.124 S 
ATOM     73  O   UNL A   1      46.017  37.797  30.777  1.00  0.00    -0.237 OA
ATOM     74  O   UNL A   1      48.360  37.119  31.177  1.00  0.00    -0.237 OA
ATOM     75  O   UNL A   1      47.697  38.019  28.983  1.00  0.00    -0.744 OA
ENDBRANCH  71  72
ENDBRANCH  52  66
BRANCH  53  76
ATOM     76  C   UNL A   1      45.058  23.652  25.608  1.00  0.00    -0.014 A 
ATOM     77  C   UNL A   1      45.312  22.564  26.463  1.00  0.00     0.010 A 
ATOM     78  C   UNL A   1      44.662  23.397  24.282  1.00  0.00     0.010 A 
ATOM     79  C   UNL A   1      45.207  21.251  25.994  1.00  0.00     0.020 A 
ATOM     80  C   UNL A   1      44.529  22.085  23.816  1.00  0.00     0.020 A 
ATOM     81  C   UNL A   1      44.828  21.019  24.669  1.00  0.00     0.054 A 
BRANCH  81  82
ATOM     82  S   UNL A   1      44.725  19.309  24.072  1.00  0.00     0.124 S 
ATOM     83  O   UNL A   1      44.483  19.506  22.646  1.00  0.00    -0.237 OA
ATOM     84  O   UNL A   1      46.038  18.769  24.418  1.00  0.00    -0.237 OA
ATOM     85  O   UNL A   1      43.606  18.750  24.826  1.00  0.00    -0.744 OA
ENDBRANCH  81  82
ENDBRANCH  53  76
BRANCH  65  86
ATOM     86  C   UNL A   1      50.563  27.988  25.983  1.00  0.00    -0.014 A 
ATOM     87  C   UNL A   1      50.975  28.183  24.650  1.00  0.00     0.010 A 
ATOM     88  C   UNL A   1      51.482  27.490  26.922  1.00  0.00     0.010 A 
ATOM     89  C   UNL A   1      52.266  27.833  24.251  1.00  0.00     0.020 A 
ATOM     90  C   UNL A   1      52.783  27.163  26.531  1.00  0.00     0.020 A 
ATOM     91  C   UNL A   1      53.156  27.308  25.191  1.00  0.00     0.054 A 
BRANCH  91  92
ATOM     92  S   UNL A   1      54.805  26.789  24.642  1.00  0.00     0.124 S 
ATOM     93  O   UNL A   1      54.879  27.365  23.304  1.00  0.00    -0.237 OA
ATOM     94  O   UNL A   1      55.682  27.398  25.640  1.00  0.00    -0.237 OA
ATOM     95  O   UNL A   1      54.739  25.330  24.693  1.00  0.00    -0.744 OA
ENDBRANCH  91  92
ENDBRANCH  65  86
ENDBRANCH  39  40
ENDBRANCH  32  34
ENDBRANCH  31  32
ENDBRANCH  30  31
ENDBRANCH   1  30
TORSDOF 18
ENDMDL
MODEL 2
REMARK VINA RESULT:     -11.6      6.520     11.895
REMARK SMILES Cc1cc(=O)c(Oc2ccc(C(=O)OCCOC(=O)c3ccc(-c4c5nc(c(-c6ccc(S(=O)(=O)[O-])cc6)c6ccc([nH]6)c(-c6ccc(S(=O)(=O)[O-])cc6)c6nc(c(-c7ccc(S(=O)(=O)[O-])cc7)c7ccc4[nH]7)C=C6)C=C5)cc3)cc2)c(-c2ccc(S(C)(=O)=O)cc2)o1
REMARK SMILES IDX 15 1 14 2 12 3 13 4 11 5 8 6 9 7 81 8 10 9 80 10 7 11 6 12
REMARK SMILES IDX 1 13 2 14 3 15 93 16 4 17 82 18 5 19 83 20 84 21 92 22 85 23
REMARK SMILES IDX 91 24 86 25 87 26 88 27 89 28 90 29 16 30 17 31 18 32 19 33
REMARK SMILES IDX 20 34 21 35 79 36 22 37 78 38 23 39 24 40 25 41 72 42 26 43
REMARK SMILES IDX 77 44 71 45 73 46 27 47 76 48 70 49 69 50 28 52 58 53 39 54
REMARK SMILES IDX 57 55 40 56 43 57 56 58 74 59 41 60 42 61 55 63 75 64 44 65
REMARK SMILES IDX 29 66 30 67 38 68 31 69 37 70 32 71 33 72 34 73 35 74 36 75
REMARK SMILES IDX 59 76 60 77 68 78 61 79 67 80 62 81 63 82 64 83 65 84 66 85
REMARK SMILES IDX 45 86 46 87 54 88 47 89 53 90 48 91 49 92 50 93 51 94 52 95
REMARK H PARENT 73 51 43 62
REMARK Flexibility Score: inf
ROOT
ATOM      1  C   UNL A   1      40.687  22.619  27.099  1.00  0.00     0.275 C 
ENDROOT
BRANCH   1   2
ATOM      2  O   UNL A   1      39.276  22.698  26.818  1.00  0.00    -0.458 OA
BRANCH   2   3
ATOM      3  C   UNL A   1      38.782  21.800  25.927  1.00  0.00     0.338 C 
ATOM      4  O   UNL A   1      39.179  20.656  25.762  1.00  0.00    -0.246 OA
BRANCH   3   5
ATOM      5  C   UNL A   1      37.555  22.340  25.275  1.00  0.00     0.060 A 
ATOM      6  C   UNL A   1      35.511  23.690  23.926  1.00  0.00     0.127 A 
ATOM      7  C   UNL A   1      35.909  24.136  25.183  1.00  0.00     0.048 A 
ATOM      8  C   UNL A   1      36.045  22.509  23.399  1.00  0.00     0.048 A 
ATOM      9  C   UNL A   1      36.918  23.444  25.865  1.00  0.00     0.019 A 
ATOM     10  C   UNL A   1      37.085  21.849  24.054  1.00  0.00     0.019 A 
BRANCH   6  11
ATOM     11  O   UNL A   1      34.540  24.294  23.175  1.00  0.00    -0.449 OA
BRANCH  11  12
ATOM     12  C   UNL A   1      33.285  24.593  23.680  1.00  0.00     0.217 A 
ATOM     13  C   UNL A   1      29.798  25.791  25.924  1.00  0.00     0.088 C 
ATOM     14  C   UNL A   1      31.007  25.518  25.086  1.00  0.00     0.105 A 
ATOM     15  C   UNL A   1      31.907  26.449  24.760  1.00  0.00     0.098 A 
ATOM     16  O   UNL A   1      31.127  24.206  24.687  1.00  0.00    -0.457 OA
ATOM     17  C   UNL A   1      33.085  26.049  23.974  1.00  0.00     0.228 A 
ATOM     18  C   UNL A   1      32.299  23.753  24.084  1.00  0.00     0.180 A 
ATOM     19  O   UNL A   1      33.893  26.906  23.625  1.00  0.00    -0.285 OA
BRANCH  18  20
ATOM     20  C   UNL A   1      32.291  22.273  24.059  1.00  0.00     0.021 A 
ATOM     21  C   UNL A   1      32.624  21.566  25.229  1.00  0.00     0.013 A 
ATOM     22  C   UNL A   1      32.147  21.554  22.867  1.00  0.00     0.013 A 
ATOM     23  C   UNL A   1      32.831  20.182  25.208  1.00  0.00     0.021 A 
ATOM     24  C   UNL A   1      32.330  20.166  22.842  1.00  0.00     0.021 A 
ATOM     25  C   UNL A   1      32.693  19.485  24.008  1.00  0.00     0.067 A 
BRANCH  25  26
ATOM     26  S   UNL A   1      33.053  17.744  23.912  1.00  0.00     0.175 S 
ATOM     27  C   UNL A   1      34.776  17.592  24.293  1.00  0.00     0.163 C 
ATOM     28  O   UNL A   1      32.321  17.054  24.956  1.00  0.00    -0.224 OA
ATOM     29  O   UNL A   1      32.895  17.349  22.522  1.00  0.00    -0.224 OA
ENDBRANCH  25  26
ENDBRANCH  18  20
ENDBRANCH  11  12
ENDBRANCH   6  11
ENDBRANCH   3   5
ENDBRANCH   2   3
ENDBRANCH   1   2
BRANCH   1  30
ATOM     30  C   UNL A   1      41.537  23.260  25.989  1.00  0.00     0.275 C 
BRANCH  30  31
ATOM     31  O   UNL A   1      42.293  24.406  26.431  1.00  0.00    -0.458 OA
BRANCH  31  32
ATOM     32  C   UNL A   1      41.674  25.588  26.208  1.00  0.00     0.338 C 
ATOM     33  O   UNL A   1      41.271  26.001  25.132  1.00  0.00    -0.246 OA
BRANCH  32  34
ATOM     34  C   UNL A   1      41.468  26.363  27.443  1.00  0.00     0.060 A 
ATOM     35  C   UNL A   1      40.509  26.016  28.399  1.00  0.00     0.016 A 
ATOM     36  C   UNL A   1      42.391  27.375  27.714  1.00  0.00     0.016 A 
ATOM     37  C   UNL A   1      40.468  26.706  29.618  1.00  0.00     0.010 A 
ATOM     38  C   UNL A   1      42.363  28.049  28.927  1.00  0.00     0.010 A 
ATOM     39  C   UNL A   1      41.387  27.736  29.880  1.00  0.00    -0.014 A 
BRANCH  39  40
ATOM     40  C   UNL A   1      41.274  28.606  31.075  1.00  0.00     0.031 A 
ATOM     41  C   UNL A   1      40.238  29.698  31.057  1.00  0.00     0.074 A 
ATOM     42  C   UNL A   1      42.117  28.477  32.116  1.00  0.00     0.049 A 
ATOM     43  N   UNL A   1      40.006  30.628  31.944  1.00  0.00    -0.248 NA
ATOM     44  C   UNL A   1      39.370  29.769  29.867  1.00  0.00     0.031 C 
ATOM     45  C   UNL A   1      43.188  27.486  32.223  1.00  0.00     0.029 A 
ATOM     46  N   UNL A   1      42.212  29.196  33.284  1.00  0.00    -0.354 N 
ATOM     47  C   UNL A   1      38.967  31.388  31.422  1.00  0.00     0.074 A 
ATOM     48  C   UNL A   1      38.657  30.857  30.116  1.00  0.00     0.031 C 
ATOM     49  C   UNL A   1      43.823  27.651  33.397  1.00  0.00     0.029 A 
ATOM     50  C   UNL A   1      43.218  28.769  34.120  1.00  0.00     0.049 A 
ATOM     51  H   UNL A   1      41.615  29.948  33.501  1.00  0.00     0.167 HD
ATOM     52  C   UNL A   1      38.302  32.415  31.998  1.00  0.00     0.031 A 
ATOM     53  C   UNL A   1      43.598  29.222  35.333  1.00  0.00     0.031 A 
ATOM     54  C   UNL A   1      38.597  32.921  33.308  1.00  0.00     0.049 A 
ATOM     55  C   UNL A   1      42.830  30.357  35.964  1.00  0.00     0.074 A 
ATOM     56  C   UNL A   1      37.962  33.940  33.994  1.00  0.00     0.029 A 
ATOM     57  N   UNL A   1      39.592  32.431  34.138  1.00  0.00    -0.354 N 
ATOM     58  N   UNL A   1      41.815  31.030  35.477  1.00  0.00    -0.248 NA
ATOM     59  C   UNL A   1      43.239  30.781  37.312  1.00  0.00     0.031 C 
ATOM     60  C   UNL A   1      38.598  34.090  35.228  1.00  0.00     0.029 A 
ATOM     61  C   UNL A   1      39.590  33.127  35.332  1.00  0.00     0.049 A 
ATOM     62  H   UNL A   1      40.209  31.698  33.910  1.00  0.00     0.167 HD
ATOM     63  C   UNL A   1      41.449  31.938  36.466  1.00  0.00     0.074 A 
ATOM     64  C   UNL A   1      42.341  31.719  37.586  1.00  0.00     0.031 C 
ATOM     65  C   UNL A   1      40.469  32.874  36.445  1.00  0.00     0.031 A 
BRANCH  52  66
ATOM     66  C   UNL A   1      37.151  33.025  31.246  1.00  0.00    -0.014 A 
ATOM     67  C   UNL A   1      35.826  32.737  31.617  1.00  0.00     0.010 A 
ATOM     68  C   UNL A   1      37.390  33.799  30.095  1.00  0.00     0.010 A 
ATOM     69  C   UNL A   1      34.760  33.182  30.831  1.00  0.00     0.020 A 
ATOM     70  C   UNL A   1      36.326  34.269  29.323  1.00  0.00     0.020 A 
ATOM     71  C   UNL A   1      35.018  33.935  29.682  1.00  0.00     0.054 A 
BRANCH  71  72
ATOM     72  S   UNL A   1      33.626  34.466  28.648  1.00  0.00     0.124 S 
ATOM     73  O   UNL A   1      32.609  34.786  29.643  1.00  0.00    -0.237 OA
ATOM     74  O   UNL A   1      34.184  35.605  27.923  1.00  0.00    -0.237 OA
ATOM     75  O   UNL A   1      33.347  33.292  27.823  1.00  0.00    -0.744 OA
ENDBRANCH  71  72
ENDBRANCH  52  66
BRANCH  53  76
ATOM     76  C   UNL A   1      44.728  28.565  36.049  1.00  0.00    -0.014 A 
ATOM     77  C   UNL A   1      46.049  29.011  35.865  1.00  0.00     0.010 A 
ATOM     78  C   UNL A   1      44.494  27.460  36.888  1.00  0.00     0.010 A 
ATOM     79  C   UNL A   1      47.117  28.348  36.478  1.00  0.00     0.020 A 
ATOM     80  C   UNL A   1      45.557  26.810  37.525  1.00  0.00     0.020 A 
ATOM     81  C   UNL A   1      46.865  27.243  37.296  1.00  0.00     0.054 A 
BRANCH  81  82
ATOM     82  S   UNL A   1      48.266  26.379  38.059  1.00  0.00     0.124 S 
ATOM     83  O   UNL A   1      49.322  26.598  37.074  1.00  0.00    -0.237 OA
ATOM     84  O   UNL A   1      48.430  27.090  39.325  1.00  0.00    -0.237 OA
ATOM     85  O   UNL A   1      47.795  25.002  38.177  1.00  0.00    -0.744 OA
ENDBRANCH  81  82
ENDBRANCH  53  76
BRANCH  65  86
ATOM     86  C   UNL A   1      40.269  33.738  37.660  1.00  0.00    -0.014 A 
ATOM     87  C   UNL A   1      39.375  33.323  38.665  1.00  0.00     0.010 A 
ATOM     88  C   UNL A   1      40.813  35.033  37.713  1.00  0.00     0.010 A 
ATOM     89  C   UNL A   1      38.987  34.206  39.675  1.00  0.00     0.020 A 
ATOM     90  C   UNL A   1      40.447  35.910  38.737  1.00  0.00     0.020 A 
ATOM     91  C   UNL A   1      39.512  35.500  39.694  1.00  0.00     0.054 A 
BRANCH  91  92
ATOM     92  S   UNL A   1      38.944  36.659  40.968  1.00  0.00     0.124 S 
ATOM     93  O   UNL A   1      38.434  37.769  40.170  1.00  0.00    -0.237 OA
ATOM     94  O   UNL A   1      37.934  35.881  41.682  1.00  0.00    -0.237 OA
ATOM     95  O   UNL A   1      40.155  36.944  41.735  1.00  0.00    -0.744 OA
ENDBRANCH  91  92
ENDBRANCH  65  86
ENDBRANCH  39  40
ENDBRANCH  32  34
ENDBRANCH  31  32
ENDBRANCH  30  31
ENDBRANCH   1  30
TORSDOF 18
ENDMDL
MODEL 3
REMARK VINA RESULT:     -11.5      2.977      9.537
REMARK SMILES Cc1cc(=O)c(Oc2ccc(C(=O)OCCOC(=O)c3ccc(-c4c5nc(c(-c6ccc(S(=O)(=O)[O-])cc6)c6ccc([nH]6)c(-c6ccc(S(=O)(=O)[O-])cc6)c6nc(c(-c7ccc(S(=O)(=O)[O-])cc7)c7ccc4[nH]7)C=C6)C=C5)cc3)cc2)c(-c2ccc(S(C)(=O)=O)cc2)o1
REMARK SMILES IDX 15 1 14 2 12 3 13 4 11 5 8 6 9 7 81 8 10 9 80 10 7 11 6 12
REMARK SMILES IDX 1 13 2 14 3 15 93 16 4 17 82 18 5 19 83 20 84 21 92 22 85 23
REMARK SMILES IDX 91 24 86 25 87 26 88 27 89 28 90 29 16 30 17 31 18 32 19 33
REMARK SMILES IDX 20 34 21 35 79 36 22 37 78 38 23 39 24 40 25 41 72 42 26 43
REMARK SMILES IDX 77 44 71 45 73 46 27 47 76 48 70 49 69 50 28 52 58 53 39 54
REMARK SMILES IDX 57 55 40 56 43 57 56 58 74 59 41 60 42 61 55 63 75 64 44 65
REMARK SMILES IDX 29 66 30 67 38 68 31 69 37 70 32 71 33 72 34 73 35 74 36 75
REMARK SMILES IDX 59 76 60 77 68 78 61 79 67 80 62 81 63 82 64 83 65 84 66 85
REMARK SMILES IDX 45 86 46 87 54 88 47 89 53 90 48 91 49 92 50 93 51 94 52 95
REMARK H PARENT 73 51 43 62
REMARK Flexibility Score: inf
ROOT
ATOM      1  C   UNL A   1      39.089  19.902  25.792  1.00  0.00     0.275 C 
ENDROOT
BRANCH   1   2
ATOM      2  O   UNL A   1      39.116  21.203  25.173  1.00  0.00    -0.458 OA
BRANCH   2   3
ATOM      3  C   UNL A   1      38.691  22.247  25.931  1.00  0.00     0.338 C 
ATOM      4  O   UNL A   1      39.284  22.736  26.881  1.00  0.00    -0.246 OA
BRANCH   3   5
ATOM      5  C   UNL A   1      37.458  22.844  25.343  1.00  0.00     0.060 A 
ATOM      6  C   UNL A   1      34.968  23.562  24.293  1.00  0.00     0.127 A 
ATOM      7  C   UNL A   1      35.854  22.831  23.507  1.00  0.00     0.048 A 
ATOM      8  C   UNL A   1      35.368  24.033  25.548  1.00  0.00     0.048 A 
ATOM      9  C   UNL A   1      37.109  22.493  24.029  1.00  0.00     0.019 A 
ATOM     10  C   UNL A   1      36.596  23.652  26.088  1.00  0.00     0.019 A 
BRANCH   6  11
ATOM     11  O   UNL A   1      33.719  23.941  23.883  1.00  0.00    -0.449 OA
BRANCH  11  12
ATOM     12  C   UNL A   1      32.568  23.567  24.559  1.00  0.00     0.217 A 
ATOM     13  C   UNL A   1      29.363  22.739  27.329  1.00  0.00     0.088 C 
ATOM     14  C   UNL A   1      30.402  23.160  26.338  1.00  0.00     0.105 A 
ATOM     15  C   UNL A   1      30.744  24.432  26.120  1.00  0.00     0.098 A 
ATOM     16  O   UNL A   1      31.000  22.113  25.675  1.00  0.00    -0.457 OA
ATOM     17  C   UNL A   1      31.820  24.720  25.157  1.00  0.00     0.228 A 
ATOM     18  C   UNL A   1      32.125  22.326  24.881  1.00  0.00     0.180 A 
ATOM     19  O   UNL A   1      32.107  25.888  24.910  1.00  0.00    -0.285 OA
BRANCH  18  20
ATOM     20  C   UNL A   1      32.747  21.021  24.560  1.00  0.00     0.021 A 
ATOM     21  C   UNL A   1      32.073  20.132  23.703  1.00  0.00     0.013 A 
ATOM     22  C   UNL A   1      33.891  20.564  25.225  1.00  0.00     0.013 A 
ATOM     23  C   UNL A   1      32.512  18.815  23.530  1.00  0.00     0.021 A 
ATOM     24  C   UNL A   1      34.349  19.254  25.040  1.00  0.00     0.021 A 
ATOM     25  C   UNL A   1      33.648  18.375  24.209  1.00  0.00     0.067 A 
BRANCH  25  26
ATOM     26  S   UNL A   1      34.178  16.678  24.105  1.00  0.00     0.175 S 
ATOM     27  C   UNL A   1      32.892  15.729  24.866  1.00  0.00     0.163 C 
ATOM     28  O   UNL A   1      34.231  16.287  22.710  1.00  0.00    -0.224 OA
ATOM     29  O   UNL A   1      35.353  16.544  24.950  1.00  0.00    -0.224 OA
ENDBRANCH  25  26
ENDBRANCH  18  20
ENDBRANCH  11  12
ENDBRANCH   6  11
ENDBRANCH   3   5
ENDBRANCH   2   3
ENDBRANCH   1   2
BRANCH   1  30
ATOM     30  C   UNL A   1      40.469  19.485  26.328  1.00  0.00     0.275 C 
BRANCH  30  31
ATOM     31  O   UNL A   1      41.450  19.272  25.291  1.00  0.00    -0.458 OA
BRANCH  31  32
ATOM     32  C   UNL A   1      42.727  19.412  25.711  1.00  0.00     0.338 C 
ATOM     33  O   UNL A   1      43.574  18.535  25.757  1.00  0.00    -0.246 OA
BRANCH  32  34
ATOM     34  C   UNL A   1      43.052  20.800  26.084  1.00  0.00     0.060 A 
ATOM     35  C   UNL A   1      43.134  21.223  27.414  1.00  0.00     0.016 A 
ATOM     36  C   UNL A   1      43.450  21.654  25.053  1.00  0.00     0.016 A 
ATOM     37  C   UNL A   1      43.595  22.514  27.701  1.00  0.00     0.010 A 
ATOM     38  C   UNL A   1      43.921  22.929  25.335  1.00  0.00     0.010 A 
ATOM     39  C   UNL A   1      43.976  23.378  26.660  1.00  0.00    -0.014 A 
BRANCH  39  40
ATOM     40  C   UNL A   1      44.302  24.804  26.900  1.00  0.00     0.031 A 
ATOM     41  C   UNL A   1      45.742  25.227  26.789  1.00  0.00     0.074 A 
ATOM     42  C   UNL A   1      43.355  25.683  27.279  1.00  0.00     0.049 A 
ATOM     43  N   UNL A   1      46.279  26.392  27.030  1.00  0.00    -0.248 NA
ATOM     44  C   UNL A   1      46.707  24.190  26.381  1.00  0.00     0.031 C 
ATOM     45  C   UNL A   1      41.937  25.375  27.464  1.00  0.00     0.029 A 
ATOM     46  N   UNL A   1      43.449  27.018  27.590  1.00  0.00    -0.354 N 
ATOM     47  C   UNL A   1      47.640  26.230  26.800  1.00  0.00     0.074 A 
ATOM     48  C   UNL A   1      47.857  24.842  26.466  1.00  0.00     0.031 C 
ATOM     49  C   UNL A   1      41.291  26.493  27.843  1.00  0.00     0.029 A 
ATOM     50  C   UNL A   1      42.250  27.593  27.944  1.00  0.00     0.049 A 
ATOM     51  H   UNL A   1      44.297  27.518  27.561  1.00  0.00     0.167 HD
ATOM     52  C   UNL A   1      48.616  27.163  26.826  1.00  0.00     0.031 A 
ATOM     53  C   UNL A   1      41.960  28.862  28.299  1.00  0.00     0.031 A 
ATOM     54  C   UNL A   1      48.389  28.547  27.132  1.00  0.00     0.049 A 
ATOM     55  C   UNL A   1      43.063  29.891  28.303  1.00  0.00     0.074 A 
ATOM     56  C   UNL A   1      49.308  29.581  27.156  1.00  0.00     0.029 A 
ATOM     57  N   UNL A   1      47.154  29.095  27.441  1.00  0.00    -0.354 N 
ATOM     58  N   UNL A   1      44.336  29.730  28.032  1.00  0.00    -0.248 NA
ATOM     59  C   UNL A   1      42.693  31.275  28.639  1.00  0.00     0.031 C 
ATOM     60  C   UNL A   1      48.633  30.749  27.515  1.00  0.00     0.029 A 
ATOM     61  C   UNL A   1      47.286  30.453  27.657  1.00  0.00     0.049 A 
ATOM     62  H   UNL A   1      46.310  28.591  27.498  1.00  0.00     0.167 HD
ATOM     63  C   UNL A   1      44.912  30.992  28.140  1.00  0.00     0.074 A 
ATOM     64  C   UNL A   1      43.848  31.910  28.486  1.00  0.00     0.031 C 
ATOM     65  C   UNL A   1      46.207  31.355  27.974  1.00  0.00     0.031 A 
BRANCH  52  66
ATOM     66  C   UNL A   1      50.012  26.740  26.458  1.00  0.00    -0.014 A 
ATOM     67  C   UNL A   1      50.474  26.880  25.138  1.00  0.00     0.010 A 
ATOM     68  C   UNL A   1      50.828  26.097  27.407  1.00  0.00     0.010 A 
ATOM     69  C   UNL A   1      51.712  26.352  24.763  1.00  0.00     0.020 A 
ATOM     70  C   UNL A   1      52.078  25.593  27.043  1.00  0.00     0.020 A 
ATOM     71  C   UNL A   1      52.501  25.702  25.716  1.00  0.00     0.054 A 
BRANCH  71  72
ATOM     72  S   UNL A   1      54.085  24.982  25.204  1.00  0.00     0.124 S 
ATOM     73  O   UNL A   1      53.726  23.588  24.969  1.00  0.00    -0.237 OA
ATOM     74  O   UNL A   1      54.417  25.760  24.012  1.00  0.00    -0.237 OA
ATOM     75  O   UNL A   1      54.956  25.219  26.353  1.00  0.00    -0.744 OA
ENDBRANCH  71  72
ENDBRANCH  52  66
BRANCH  53  76
ATOM     76  C   UNL A   1      40.555  29.237  28.628  1.00  0.00    -0.014 A 
ATOM     77  C   UNL A   1      40.149  29.392  29.966  1.00  0.00     0.010 A 
ATOM     78  C   UNL A   1      39.603  29.401  27.605  1.00  0.00     0.010 A 
ATOM     79  C   UNL A   1      38.814  29.670  30.278  1.00  0.00     0.020 A 
ATOM     80  C   UNL A   1      38.272  29.706  27.911  1.00  0.00     0.020 A 
ATOM     81  C   UNL A   1      37.881  29.813  29.247  1.00  0.00     0.054 A 
BRANCH  81  82
ATOM     82  S   UNL A   1      36.148  30.146  29.673  1.00  0.00     0.124 S 
ATOM     83  O   UNL A   1      35.442  29.497  28.572  1.00  0.00    -0.237 OA
ATOM     84  O   UNL A   1      36.009  29.499  30.976  1.00  0.00    -0.237 OA
ATOM     85  O   UNL A   1      36.075  31.604  29.693  1.00  0.00    -0.744 OA
ENDBRANCH  81  82
ENDBRANCH  53  76
BRANCH  65  86
ATOM     86  C   UNL A   1      46.579  32.803  28.141  1.00  0.00    -0.014 A 
ATOM     87  C   UNL A   1      46.813  33.313  29.433  1.00  0.00     0.010 A 
ATOM     88  C   UNL A   1      46.508  33.689  27.053  1.00  0.00     0.010 A 
ATOM     89  C   UNL A   1      46.918  34.690  29.641  1.00  0.00     0.020 A 
ATOM     90  C   UNL A   1      46.638  35.066  27.254  1.00  0.00     0.020 A 
ATOM     91  C   UNL A   1      46.811  35.558  28.552  1.00  0.00     0.054 A 
BRANCH  91  92
ATOM     92  S   UNL A   1      46.877  37.346  28.847  1.00  0.00     0.124 S 
ATOM     93  O   UNL A   1      47.239  37.412  30.259  1.00  0.00    -0.237 OA
ATOM     94  O   UNL A   1      47.907  37.790  27.911  1.00  0.00    -0.237 OA
ATOM     95  O   UNL A   1      45.523  37.795  28.527  1.00  0.00    -0.744 OA
ENDBRANCH  91  92
ENDBRANCH  65  86
ENDBRANCH  39  40
ENDBRANCH  32  34
ENDBRANCH  31  32
ENDBRANCH  30  31
ENDBRANCH   1  30
TORSDOF 18
ENDMDL
