MODEL 1
REMARK VINA RESULT:     -10.3      0.000      0.000
REMARK SMILES N#Cc1ccc2c(c1)C=C(C(=O)OCCOC(=O)c1ccc(-c3c4nc(c(-c5ccc(S(=O)(=O)[O-])cc5)c5ccc([nH]5)c(-c5ccc(S(=O)(=O)[O-])cc5)c5nc(c(-c6ccc(S(=O)(=O)[O-])cc6)c6ccc3[nH]6)C=C5)C=C4)cc1)[C@@H](C(F)(F)F)O2
REMARK SMILES IDX 15 1 14 2 13 3 11 4 12 5 10 6 3 7 4 8 8 9 5 10 7 11 6 12
REMARK SMILES IDX 9 13 84 14 79 15 2 16 1 17 80 18 81 19 82 20 83 21 16 22
REMARK SMILES IDX 17 23 18 24 19 25 20 26 78 27 21 28 77 29 22 30 23 31 24 32
REMARK SMILES IDX 71 33 25 34 76 35 70 36 72 37 26 38 75 39 69 40 68 41 27 43
REMARK SMILES IDX 57 44 38 45 56 46 39 47 42 48 55 49 73 50 40 51 41 52 54 54
REMARK SMILES IDX 74 55 43 56 28 57 29 58 37 59 30 60 36 61 31 62 32 63 33 64
REMARK SMILES IDX 34 65 35 66 58 67 59 68 67 69 60 70 66 71 61 72 62 73 63 74
REMARK SMILES IDX 64 75 65 76 44 77 45 78 53 79 46 80 52 81 47 82 48 83 49 84
REMARK SMILES IDX 50 85 51 86
REMARK H PARENT 72 42 42 53
REMARK Flexibility Score: inf
ROOT
ATOM      1  C   UNL A   1      40.282  21.560  27.226  1.00  0.00     0.275 C 
ENDROOT
BRANCH   1   2
ATOM      2  C   UNL A   1      41.693  21.033  26.953  1.00  0.00     0.275 C 
BRANCH   2   3
ATOM      3  O   UNL A   1      42.684  22.084  27.036  1.00  0.00    -0.459 OA
BRANCH   3   4
ATOM      4  C   UNL A   1      43.048  22.640  25.857  1.00  0.00     0.338 C 
ATOM      5  O   UNL A   1      42.444  22.551  24.800  1.00  0.00    -0.246 OA
BRANCH   4   6
ATOM      6  C   UNL A   1      44.304  23.408  25.996  1.00  0.00     0.087 C 
ATOM      7  C   UNL A   1      46.543  27.675  25.843  1.00  0.00     0.053 A 
ATOM      8  C   UNL A   1      47.778  27.019  25.809  1.00  0.00     0.023 A 
ATOM      9  C   UNL A   1      45.375  26.922  25.949  1.00  0.00     0.031 A 
ATOM     10  C   UNL A   1      47.841  25.621  25.888  1.00  0.00     0.048 A 
ATOM     11  C   UNL A   1      45.445  25.522  26.000  1.00  0.00     0.019 A 
ATOM     12  C   UNL A   1      46.673  24.868  25.978  1.00  0.00     0.128 A 
ATOM     13  C   UNL A   1      44.229  24.742  26.025  1.00  0.00     0.027 C 
ATOM     14  O   UNL A   1      46.804  23.509  26.046  1.00  0.00    -0.475 OA
ATOM     15  C   UNL A   1      45.611  22.674  25.933  1.00  0.00     0.316 C 
BRANCH   7  16
ATOM     16  C   UNL A   1      46.474  29.102  25.745  1.00  0.00     0.099 C 
ATOM     17  N   UNL A   1      46.427  30.259  25.652  1.00  0.00    -0.192 NA
ENDBRANCH   7  16
BRANCH  15  18
ATOM     18  C   UNL A   1      45.709  21.846  24.641  1.00  0.00     0.430 C 
ATOM     19  F   UNL A   1      45.270  22.550  23.570  1.00  0.00    -0.167 F 
ATOM     20  F   UNL A   1      46.988  21.493  24.366  1.00  0.00    -0.167 F 
ATOM     21  F   UNL A   1      44.981  20.709  24.706  1.00  0.00    -0.167 F 
ENDBRANCH  15  18
ENDBRANCH   4   6
ENDBRANCH   3   4
ENDBRANCH   2   3
ENDBRANCH   1   2
BRANCH   1  22
ATOM     22  O   UNL A   1      39.630  21.964  26.010  1.00  0.00    -0.458 OA
BRANCH  22  23
ATOM     23  C   UNL A   1      38.756  22.985  26.152  1.00  0.00     0.338 C 
ATOM     24  O   UNL A   1      37.556  22.968  25.941  1.00  0.00    -0.246 OA
BRANCH  23  25
ATOM     25  C   UNL A   1      39.433  24.130  26.768  1.00  0.00     0.060 A 
ATOM     26  C   UNL A   1      40.171  25.042  26.031  1.00  0.00     0.016 A 
ATOM     27  C   UNL A   1      39.165  24.377  28.107  1.00  0.00     0.016 A 
ATOM     28  C   UNL A   1      40.644  26.195  26.670  1.00  0.00     0.010 A 
ATOM     29  C   UNL A   1      39.450  25.607  28.675  1.00  0.00     0.010 A 
ATOM     30  C   UNL A   1      40.253  26.514  27.989  1.00  0.00    -0.014 A 
BRANCH  30  31
ATOM     31  C   UNL A   1      40.700  27.763  28.670  1.00  0.00     0.031 A 
ATOM     32  C   UNL A   1      42.139  27.930  29.113  1.00  0.00     0.074 A 
ATOM     33  C   UNL A   1      39.803  28.743  28.909  1.00  0.00     0.049 A 
ATOM     34  N   UNL A   1      42.708  28.970  29.671  1.00  0.00    -0.248 NA
ATOM     35  C   UNL A   1      43.057  26.786  28.951  1.00  0.00     0.031 C 
ATOM     36  C   UNL A   1      38.370  28.662  28.616  1.00  0.00     0.029 A 
ATOM     37  N   UNL A   1      39.962  30.008  29.420  1.00  0.00    -0.354 N 
ATOM     38  C   UNL A   1      44.024  28.597  29.924  1.00  0.00     0.074 A 
ATOM     39  C   UNL A   1      44.153  27.210  29.559  1.00  0.00     0.031 C 
ATOM     40  C   UNL A   1      37.803  29.852  28.851  1.00  0.00     0.029 A 
ATOM     41  C   UNL A   1      38.811  30.765  29.381  1.00  0.00     0.049 A 
ATOM     42  H   UNL A   1      40.815  30.341  29.780  1.00  0.00     0.167 HD
ATOM     43  C   UNL A   1      45.054  29.356  30.365  1.00  0.00     0.031 A 
ATOM     44  C   UNL A   1      38.590  32.054  29.713  1.00  0.00     0.031 A 
ATOM     45  C   UNL A   1      44.928  30.754  30.674  1.00  0.00     0.049 A 
ATOM     46  C   UNL A   1      39.752  32.885  30.188  1.00  0.00     0.074 A 
ATOM     47  C   UNL A   1      45.923  31.636  31.054  1.00  0.00     0.029 A 
ATOM     48  N   UNL A   1      43.745  31.476  30.624  1.00  0.00    -0.354 N 
ATOM     49  N   UNL A   1      41.010  32.536  30.318  1.00  0.00    -0.248 NA
ATOM     50  C   UNL A   1      39.474  34.282  30.543  1.00  0.00     0.031 C 
ATOM     51  C   UNL A   1      45.329  32.868  31.318  1.00  0.00     0.029 A 
ATOM     52  C   UNL A   1      43.980  32.786  31.004  1.00  0.00     0.049 A 
ATOM     53  H   UNL A   1      42.870  31.112  30.359  1.00  0.00     0.167 HD
ATOM     54  C   UNL A   1      41.677  33.677  30.750  1.00  0.00     0.074 A 
ATOM     55  C   UNL A   1      40.688  34.732  30.831  1.00  0.00     0.031 C 
ATOM     56  C   UNL A   1      42.987  33.831  31.062  1.00  0.00     0.031 A 
BRANCH  43  57
ATOM     57  C   UNL A   1      46.424  28.730  30.486  1.00  0.00    -0.014 A 
ATOM     58  C   UNL A   1      47.249  28.617  29.351  1.00  0.00     0.010 A 
ATOM     59  C   UNL A   1      46.831  28.113  31.684  1.00  0.00     0.010 A 
ATOM     60  C   UNL A   1      48.419  27.854  29.395  1.00  0.00     0.020 A 
ATOM     61  C   UNL A   1      48.022  27.383  31.744  1.00  0.00     0.020 A 
ATOM     62  C   UNL A   1      48.790  27.229  30.588  1.00  0.00     0.054 A 
BRANCH  62  63
ATOM     63  S   UNL A   1      50.264  26.173  30.603  1.00  0.00     0.124 S 
ATOM     64  O   UNL A   1      49.844  25.069  31.461  1.00  0.00    -0.237 OA
ATOM     65  O   UNL A   1      50.434  25.845  29.188  1.00  0.00    -0.237 OA
ATOM     66  O   UNL A   1      51.302  27.037  31.160  1.00  0.00    -0.744 OA
ENDBRANCH  62  63
ENDBRANCH  43  57
BRANCH  44  67
ATOM     67  C   UNL A   1      37.227  32.634  29.529  1.00  0.00    -0.014 A 
ATOM     68  C   UNL A   1      36.900  33.335  28.351  1.00  0.00     0.010 A 
ATOM     69  C   UNL A   1      36.280  32.576  30.566  1.00  0.00     0.010 A 
ATOM     70  C   UNL A   1      35.691  34.026  28.245  1.00  0.00     0.020 A 
ATOM     71  C   UNL A   1      35.048  33.231  30.447  1.00  0.00     0.020 A 
ATOM     72  C   UNL A   1      34.777  33.980  29.301  1.00  0.00     0.054 A 
BRANCH  72  73
ATOM     73  S   UNL A   1      33.247  34.945  29.166  1.00  0.00     0.124 S 
ATOM     74  O   UNL A   1      33.743  36.228  28.675  1.00  0.00    -0.237 OA
ATOM     75  O   UNL A   1      32.464  34.166  28.210  1.00  0.00    -0.237 OA
ATOM     76  O   UNL A   1      32.727  34.958  30.531  1.00  0.00    -0.744 OA
ENDBRANCH  72  73
ENDBRANCH  44  67
BRANCH  56  77
ATOM     77  C   UNL A   1      43.462  35.186  31.521  1.00  0.00    -0.014 A 
ATOM     78  C   UNL A   1      43.351  35.539  32.880  1.00  0.00     0.010 A 
ATOM     79  C   UNL A   1      43.851  36.166  30.591  1.00  0.00     0.010 A 
ATOM     80  C   UNL A   1      43.561  36.856  33.292  1.00  0.00     0.020 A 
ATOM     81  C   UNL A   1      44.104  37.476  31.006  1.00  0.00     0.020 A 
ATOM     82  C   UNL A   1      43.924  37.819  32.348  1.00  0.00     0.054 A 
BRANCH  82  83
ATOM     83  S   UNL A   1      44.124  39.537  32.892  1.00  0.00     0.124 S 
ATOM     84  O   UNL A   1      44.970  39.389  34.072  1.00  0.00    -0.237 OA
ATOM     85  O   UNL A   1      44.758  40.165  31.735  1.00  0.00    -0.237 OA
ATOM     86  O   UNL A   1      42.755  39.975  33.157  1.00  0.00    -0.744 OA
ENDBRANCH  82  83
ENDBRANCH  56  77
ENDBRANCH  30  31
ENDBRANCH  23  25
ENDBRANCH  22  23
ENDBRANCH   1  22
TORSDOF 16
ENDMDL
MODEL 2
REMARK VINA RESULT:     -10.1      4.820     11.914
REMARK SMILES N#Cc1ccc2c(c1)C=C(C(=O)OCCOC(=O)c1ccc(-c3c4nc(c(-c5ccc(S(=O)(=O)[O-])cc5)c5ccc([nH]5)c(-c5ccc(S(=O)(=O)[O-])cc5)c5nc(c(-c6ccc(S(=O)(=O)[O-])cc6)c6ccc3[nH]6)C=C5)C=C4)cc1)[C@@H](C(F)(F)F)O2
REMARK SMILES IDX 15 1 14 2 13 3 11 4 12 5 10 6 3 7 4 8 8 9 5 10 7 11 6 12
REMARK SMILES IDX 9 13 84 14 79 15 2 16 1 17 80 18 81 19 82 20 83 21 16 22
REMARK SMILES IDX 17 23 18 24 19 25 20 26 78 27 21 28 77 29 22 30 23 31 24 32
REMARK SMILES IDX 71 33 25 34 76 35 70 36 72 37 26 38 75 39 69 40 68 41 27 43
REMARK SMILES IDX 57 44 38 45 56 46 39 47 42 48 55 49 73 50 40 51 41 52 54 54
REMARK SMILES IDX 74 55 43 56 28 57 29 58 37 59 30 60 36 61 31 62 32 63 33 64
REMARK SMILES IDX 34 65 35 66 58 67 59 68 67 69 60 70 66 71 61 72 62 73 63 74
REMARK SMILES IDX 64 75 65 76 44 77 45 78 53 79 46 80 52 81 47 82 48 83 49 84
REMARK SMILES IDX 50 85 51 86
REMARK H PARENT 72 42 42 53
REMARK Flexibility Score: inf
ROOT
ATOM      1  C   UNL A   1      33.955  32.713  28.030  1.00  0.00     0.275 C 
ENDROOT
BRANCH   1   2
ATOM      2  C   UNL A   1      35.123  33.624  28.418  1.00  0.00     0.275 C 
BRANCH   2   3
ATOM      3  O   UNL A   1      34.956  34.175  29.745  1.00  0.00    -0.459 OA
BRANCH   3   4
ATOM      4  C   UNL A   1      34.847  33.269  30.746  1.00  0.00     0.338 C 
ATOM      5  O   UNL A   1      34.050  32.347  30.800  1.00  0.00    -0.246 OA
BRANCH   4   6
ATOM      6  C   UNL A   1      35.848  33.523  31.804  1.00  0.00     0.087 C 
ATOM      7  C   UNL A   1      39.031  31.736  34.953  1.00  0.00     0.053 A 
ATOM      8  C   UNL A   1      39.068  32.971  35.608  1.00  0.00     0.023 A 
ATOM      9  C   UNL A   1      38.249  31.595  33.807  1.00  0.00     0.031 A 
ATOM     10  C   UNL A   1      38.332  34.058  35.115  1.00  0.00     0.048 A 
ATOM     11  C   UNL A   1      37.495  32.680  33.336  1.00  0.00     0.019 A 
ATOM     12  C   UNL A   1      37.538  33.912  33.979  1.00  0.00     0.128 A 
ATOM     13  C   UNL A   1      36.621  32.506  32.199  1.00  0.00     0.027 C 
ATOM     14  O   UNL A   1      36.842  35.009  33.555  1.00  0.00    -0.475 OA
ATOM     15  C   UNL A   1      35.844  34.851  32.501  1.00  0.00     0.316 C 
BRANCH   7  16
ATOM     16  C   UNL A   1      39.768  30.619  35.463  1.00  0.00     0.099 C 
ATOM     17  N   UNL A   1      40.359  29.703  35.865  1.00  0.00    -0.192 NA
ENDBRANCH   7  16
BRANCH  15  18
ATOM     18  C   UNL A   1      34.454  35.154  33.087  1.00  0.00     0.430 C 
ATOM     19  F   UNL A   1      34.537  36.021  34.125  1.00  0.00    -0.167 F 
ATOM     20  F   UNL A   1      33.639  35.732  32.172  1.00  0.00    -0.167 F 
ATOM     21  F   UNL A   1      33.834  34.040  33.535  1.00  0.00    -0.167 F 
ENDBRANCH  15  18
ENDBRANCH   4   6
ENDBRANCH   3   4
ENDBRANCH   2   3
ENDBRANCH   1   2
BRANCH   1  22
ATOM     22  O   UNL A   1      34.369  31.702  27.096  1.00  0.00    -0.458 OA
BRANCH  22  23
ATOM     23  C   UNL A   1      34.433  30.453  27.610  1.00  0.00     0.338 C 
ATOM     24  O   UNL A   1      33.592  29.574  27.528  1.00  0.00    -0.246 OA
BRANCH  23  25
ATOM     25  C   UNL A   1      35.766  30.221  28.172  1.00  0.00     0.060 A 
ATOM     26  C   UNL A   1      35.957  29.724  29.452  1.00  0.00     0.016 A 
ATOM     27  C   UNL A   1      36.846  30.349  27.311  1.00  0.00     0.016 A 
ATOM     28  C   UNL A   1      37.254  29.376  29.849  1.00  0.00     0.010 A 
ATOM     29  C   UNL A   1      38.080  29.809  27.632  1.00  0.00     0.010 A 
ATOM     30  C   UNL A   1      38.326  29.371  28.930  1.00  0.00    -0.014 A 
BRANCH  30  31
ATOM     31  C   UNL A   1      39.703  28.951  29.318  1.00  0.00     0.031 A 
ATOM     32  C   UNL A   1      40.557  29.828  30.211  1.00  0.00     0.074 A 
ATOM     33  C   UNL A   1      40.195  27.786  28.847  1.00  0.00     0.049 A 
ATOM     34  N   UNL A   1      41.754  29.590  30.687  1.00  0.00    -0.248 NA
ATOM     35  C   UNL A   1      40.032  31.152  30.596  1.00  0.00     0.031 C 
ATOM     36  C   UNL A   1      39.506  26.901  27.905  1.00  0.00     0.029 A 
ATOM     37  N   UNL A   1      41.368  27.126  29.118  1.00  0.00    -0.354 N 
ATOM     38  C   UNL A   1      42.112  30.726  31.406  1.00  0.00     0.074 A 
ATOM     39  C   UNL A   1      41.061  31.694  31.228  1.00  0.00     0.031 C 
ATOM     40  C   UNL A   1      40.216  25.774  27.758  1.00  0.00     0.029 A 
ATOM     41  C   UNL A   1      41.446  25.879  28.536  1.00  0.00     0.049 A 
ATOM     42  H   UNL A   1      42.086  27.507  29.674  1.00  0.00     0.167 HD
ATOM     43  C   UNL A   1      43.192  30.926  32.197  1.00  0.00     0.031 A 
ATOM     44  C   UNL A   1      42.387  24.917  28.630  1.00  0.00     0.031 A 
ATOM     45  C   UNL A   1      44.207  29.932  32.414  1.00  0.00     0.049 A 
ATOM     46  C   UNL A   1      43.573  25.155  29.526  1.00  0.00     0.074 A 
ATOM     47  C   UNL A   1      45.302  30.002  33.255  1.00  0.00     0.029 A 
ATOM     48  N   UNL A   1      44.247  28.689  31.801  1.00  0.00    -0.354 N 
ATOM     49  N   UNL A   1      43.836  26.196  30.279  1.00  0.00    -0.248 NA
ATOM     50  C   UNL A   1      44.579  24.087  29.601  1.00  0.00     0.031 C 
ATOM     51  C   UNL A   1      46.050  28.838  33.086  1.00  0.00     0.029 A 
ATOM     52  C   UNL A   1      45.370  27.996  32.218  1.00  0.00     0.049 A 
ATOM     53  H   UNL A   1      43.576  28.350  31.164  1.00  0.00     0.167 HD
ATOM     54  C   UNL A   1      45.026  25.900  30.934  1.00  0.00     0.074 A 
ATOM     55  C   UNL A   1      45.416  24.571  30.510  1.00  0.00     0.031 C 
ATOM     56  C   UNL A   1      45.735  26.665  31.799  1.00  0.00     0.031 A 
BRANCH  43  57
ATOM     57  C   UNL A   1      43.317  32.234  32.945  1.00  0.00    -0.014 A 
ATOM     58  C   UNL A   1      42.783  32.358  34.240  1.00  0.00     0.010 A 
ATOM     59  C   UNL A   1      43.823  33.383  32.307  1.00  0.00     0.010 A 
ATOM     60  C   UNL A   1      42.697  33.609  34.858  1.00  0.00     0.020 A 
ATOM     61  C   UNL A   1      43.777  34.629  32.937  1.00  0.00     0.020 A 
ATOM     62  C   UNL A   1      43.181  34.739  34.195  1.00  0.00     0.054 A 
BRANCH  62  63
ATOM     63  S   UNL A   1      42.983  36.365  34.975  1.00  0.00     0.124 S 
ATOM     64  O   UNL A   1      43.532  37.261  33.962  1.00  0.00    -0.237 OA
ATOM     65  O   UNL A   1      41.537  36.446  35.175  1.00  0.00    -0.237 OA
ATOM     66  O   UNL A   1      43.766  36.256  36.204  1.00  0.00    -0.744 OA
ENDBRANCH  62  63
ENDBRANCH  43  57
BRANCH  44  67
ATOM     67  C   UNL A   1      42.188  23.626  27.907  1.00  0.00    -0.014 A 
ATOM     68  C   UNL A   1      41.283  22.664  28.396  1.00  0.00     0.010 A 
ATOM     69  C   UNL A   1      42.973  23.307  26.784  1.00  0.00     0.010 A 
ATOM     70  C   UNL A   1      41.220  21.390  27.827  1.00  0.00     0.020 A 
ATOM     71  C   UNL A   1      42.881  22.047  26.183  1.00  0.00     0.020 A 
ATOM     72  C   UNL A   1      42.031  21.085  26.731  1.00  0.00     0.054 A 
BRANCH  72  73
ATOM     73  S   UNL A   1      41.981  19.402  26.056  1.00  0.00     0.124 S 
ATOM     74  O   UNL A   1      42.841  19.524  24.882  1.00  0.00    -0.237 OA
ATOM     75  O   UNL A   1      42.525  18.604  27.153  1.00  0.00    -0.237 OA
ATOM     76  O   UNL A   1      40.565  19.185  25.773  1.00  0.00    -0.744 OA
ENDBRANCH  72  73
ENDBRANCH  44  67
BRANCH  56  77
ATOM     77  C   UNL A   1      47.015  26.108  32.369  1.00  0.00    -0.014 A 
ATOM     78  C   UNL A   1      48.215  26.240  31.643  1.00  0.00     0.010 A 
ATOM     79  C   UNL A   1      47.000  25.309  33.525  1.00  0.00     0.010 A 
ATOM     80  C   UNL A   1      49.359  25.538  32.028  1.00  0.00     0.020 A 
ATOM     81  C   UNL A   1      48.156  24.638  33.937  1.00  0.00     0.020 A 
ATOM     82  C   UNL A   1      49.317  24.731  33.166  1.00  0.00     0.054 A 
BRANCH  82  83
ATOM     83  S   UNL A   1      50.791  23.774  33.608  1.00  0.00     0.124 S 
ATOM     84  O   UNL A   1      50.322  22.994  34.749  1.00  0.00    -0.237 OA
ATOM     85  O   UNL A   1      51.054  23.013  32.388  1.00  0.00    -0.237 OA
ATOM     86  O   UNL A   1      51.786  24.798  33.920  1.00  0.00    -0.744 OA
ENDBRANCH  82  83
ENDBRANCH  56  77
ENDBRANCH  30  31
ENDBRANCH  23  25
ENDBRANCH  22  23
ENDBRANCH   1  22
TORSDOF 16
ENDMDL
MODEL 3
REMARK VINA RESULT:     -10.1      4.331     10.863
REMARK SMILES N#Cc1ccc2c(c1)C=C(C(=O)OCCOC(=O)c1ccc(-c3c4nc(c(-c5ccc(S(=O)(=O)[O-])cc5)c5ccc([nH]5)c(-c5ccc(S(=O)(=O)[O-])cc5)c5nc(c(-c6ccc(S(=O)(=O)[O-])cc6)c6ccc3[nH]6)C=C5)C=C4)cc1)[C@@H](C(F)(F)F)O2
REMARK SMILES IDX 15 1 14 2 13 3 11 4 12 5 10 6 3 7 4 8 8 9 5 10 7 11 6 12
REMARK SMILES IDX 9 13 84 14 79 15 2 16 1 17 80 18 81 19 82 20 83 21 16 22
REMARK SMILES IDX 17 23 18 24 19 25 20 26 78 27 21 28 77 29 22 30 23 31 24 32
REMARK SMILES IDX 71 33 25 34 76 35 70 36 72 37 26 38 75 39 69 40 68 41 27 43
REMARK SMILES IDX 57 44 38 45 56 46 39 47 42 48 55 49 73 50 40 51 41 52 54 54
REMARK SMILES IDX 74 55 43 56 28 57 29 58 37 59 30 60 36 61 31 62 32 63 33 64
REMARK SMILES IDX 34 65 35 66 58 67 59 68 67 69 60 70 66 71 61 72 62 73 63 74
REMARK SMILES IDX 64 75 65 76 44 77 45 78 53 79 46 80 52 81 47 82 48 83 49 84
REMARK SMILES IDX 50 85 51 86
REMARK H PARENT 72 42 42 53
REMARK Flexibility Score: inf
ROOT
ATOM      1  C   UNL A   1      32.581  30.249  26.768  1.00  0.00     0.275 C 
ENDROOT
BRANCH   1   2
ATOM      2  C   UNL A   1      32.697  29.700  25.343  1.00  0.00     0.275 C 
BRANCH   2   3
ATOM      3  O   UNL A   1      33.235  28.357  25.328  1.00  0.00    -0.459 OA
BRANCH   3   4
ATOM      4  C   UNL A   1      32.350  27.376  25.035  1.00  0.00     0.338 C 
ATOM      5  O   UNL A   1      31.134  27.452  25.119  1.00  0.00    -0.246 OA
BRANCH   4   6
ATOM      6  C   UNL A   1      33.043  26.155  24.571  1.00  0.00     0.087 C 
ATOM      7  C   UNL A   1      36.782  23.143  25.012  1.00  0.00     0.053 A 
ATOM      8  C   UNL A   1      36.470  22.583  23.769  1.00  0.00     0.023 A 
ATOM      9  C   UNL A   1      35.962  24.143  25.534  1.00  0.00     0.031 A 
ATOM     10  C   UNL A   1      35.343  23.018  23.058  1.00  0.00     0.048 A 
ATOM     11  C   UNL A   1      34.851  24.590  24.804  1.00  0.00     0.019 A 
ATOM     12  C   UNL A   1      34.533  24.028  23.572  1.00  0.00     0.128 A 
ATOM     13  C   UNL A   1      34.053  25.684  25.309  1.00  0.00     0.027 C 
ATOM     14  O   UNL A   1      33.452  24.408  22.827  1.00  0.00    -0.475 OA
ATOM     15  C   UNL A   1      32.700  25.595  23.222  1.00  0.00     0.316 C 
BRANCH   7  16
ATOM     16  C   UNL A   1      37.942  22.714  25.733  1.00  0.00     0.099 C 
ATOM     17  N   UNL A   1      38.892  22.380  26.313  1.00  0.00    -0.192 NA
ENDBRANCH   7  16
BRANCH  15  18
ATOM     18  C   UNL A   1      32.858  26.668  22.131  1.00  0.00     0.430 C 
ATOM     19  F   UNL A   1      33.016  26.106  20.909  1.00  0.00    -0.167 F 
ATOM     20  F   UNL A   1      31.764  27.463  22.047  1.00  0.00    -0.167 F 
ATOM     21  F   UNL A   1      33.925  27.468  22.351  1.00  0.00    -0.167 F 
ENDBRANCH  15  18
ENDBRANCH   4   6
ENDBRANCH   3   4
ENDBRANCH   2   3
ENDBRANCH   1   2
BRANCH   1  22
ATOM     22  O   UNL A   1      33.614  29.721  27.618  1.00  0.00    -0.458 OA
BRANCH  22  23
ATOM     23  C   UNL A   1      34.456  30.648  28.124  1.00  0.00     0.338 C 
ATOM     24  O   UNL A   1      34.171  31.756  28.546  1.00  0.00    -0.246 OA
BRANCH  23  25
ATOM     25  C   UNL A   1      35.799  30.075  28.254  1.00  0.00     0.060 A 
ATOM     26  C   UNL A   1      36.722  30.101  27.220  1.00  0.00     0.016 A 
ATOM     27  C   UNL A   1      36.186  29.655  29.518  1.00  0.00     0.016 A 
ATOM     28  C   UNL A   1      38.032  29.683  27.481  1.00  0.00     0.010 A 
ATOM     29  C   UNL A   1      37.521  29.447  29.821  1.00  0.00     0.010 A 
ATOM     30  C   UNL A   1      38.461  29.392  28.795  1.00  0.00    -0.014 A 
BRANCH  30  31
ATOM     31  C   UNL A   1      39.866  28.999  29.103  1.00  0.00     0.031 A 
ATOM     32  C   UNL A   1      40.774  29.923  29.889  1.00  0.00     0.074 A 
ATOM     33  C   UNL A   1      40.334  27.814  28.657  1.00  0.00     0.049 A 
ATOM     34  N   UNL A   1      42.004  29.716  30.289  1.00  0.00    -0.248 NA
ATOM     35  C   UNL A   1      40.266  31.262  30.245  1.00  0.00     0.031 C 
ATOM     36  C   UNL A   1      39.587  26.880  27.811  1.00  0.00     0.029 A 
ATOM     37  N   UNL A   1      41.529  27.174  28.876  1.00  0.00    -0.354 N 
ATOM     38  C   UNL A   1      42.402  30.888  30.924  1.00  0.00     0.074 A 
ATOM     39  C   UNL A   1      41.333  31.840  30.774  1.00  0.00     0.031 C 
ATOM     40  C   UNL A   1      40.294  25.751  27.670  1.00  0.00     0.029 A 
ATOM     41  C   UNL A   1      41.575  25.901  28.352  1.00  0.00     0.049 A 
ATOM     42  H   UNL A   1      42.280  27.586  29.360  1.00  0.00     0.167 HD
ATOM     43  C   UNL A   1      43.533  31.133  31.625  1.00  0.00     0.031 A 
ATOM     44  C   UNL A   1      42.530  24.950  28.426  1.00  0.00     0.031 A 
ATOM     45  C   UNL A   1      44.570  30.156  31.818  1.00  0.00     0.049 A 
ATOM     46  C   UNL A   1      43.774  25.237  29.222  1.00  0.00     0.074 A 
ATOM     47  C   UNL A   1      45.722  30.273  32.574  1.00  0.00     0.029 A 
ATOM     48  N   UNL A   1      44.577  28.884  31.265  1.00  0.00    -0.354 N 
ATOM     49  N   UNL A   1      44.081  26.316  29.902  1.00  0.00    -0.248 NA
ATOM     50  C   UNL A   1      44.791  24.180  29.278  1.00  0.00     0.031 C 
ATOM     51  C   UNL A   1      46.466  29.106  32.410  1.00  0.00     0.029 A 
ATOM     52  C   UNL A   1      45.733  28.219  31.635  1.00  0.00     0.049 A 
ATOM     53  H   UNL A   1      43.866  28.511  30.696  1.00  0.00     0.167 HD
ATOM     54  C   UNL A   1      45.316  26.059  30.484  1.00  0.00     0.074 A 
ATOM     55  C   UNL A   1      45.686  24.713  30.099  1.00  0.00     0.031 C 
ATOM     56  C   UNL A   1      46.079  26.870  31.258  1.00  0.00     0.031 A 
BRANCH  43  57
ATOM     57  C   UNL A   1      43.700  32.477  32.296  1.00  0.00    -0.014 A 
ATOM     58  C   UNL A   1      44.389  33.512  31.638  1.00  0.00     0.010 A 
ATOM     59  C   UNL A   1      43.314  32.665  33.637  1.00  0.00     0.010 A 
ATOM     60  C   UNL A   1      44.739  34.681  32.320  1.00  0.00     0.020 A 
ATOM     61  C   UNL A   1      43.625  33.849  34.312  1.00  0.00     0.020 A 
ATOM     62  C   UNL A   1      44.368  34.835  33.658  1.00  0.00     0.054 A 
BRANCH  62  63
ATOM     63  S   UNL A   1      44.906  36.319  34.551  1.00  0.00     0.124 S 
ATOM     64  O   UNL A   1      46.186  35.895  35.110  1.00  0.00    -0.237 OA
ATOM     65  O   UNL A   1      44.979  37.320  33.489  1.00  0.00    -0.237 OA
ATOM     66  O   UNL A   1      43.841  36.538  35.528  1.00  0.00    -0.744 OA
ENDBRANCH  62  63
ENDBRANCH  43  57
BRANCH  44  67
ATOM     67  C   UNL A   1      42.291  23.623  27.784  1.00  0.00    -0.014 A 
ATOM     68  C   UNL A   1      41.814  22.536  28.542  1.00  0.00     0.010 A 
ATOM     69  C   UNL A   1      42.632  23.409  26.436  1.00  0.00     0.010 A 
ATOM     70  C   UNL A   1      41.754  21.253  27.991  1.00  0.00     0.020 A 
ATOM     71  C   UNL A   1      42.532  22.134  25.867  1.00  0.00     0.020 A 
ATOM     72  C   UNL A   1      42.127  21.058  26.659  1.00  0.00     0.054 A 
BRANCH  72  73
ATOM     73  S   UNL A   1      42.109  19.372  25.990  1.00  0.00     0.124 S 
ATOM     74  O   UNL A   1      42.620  18.597  27.118  1.00  0.00    -0.237 OA
ATOM     75  O   UNL A   1      40.696  19.170  25.677  1.00  0.00    -0.237 OA
ATOM     76  O   UNL A   1      42.996  19.451  24.834  1.00  0.00    -0.744 OA
ENDBRANCH  72  73
ENDBRANCH  44  67
BRANCH  56  77
ATOM     77  C   UNL A   1      47.401  26.348  31.761  1.00  0.00    -0.014 A 
ATOM     78  C   UNL A   1      48.537  26.418  30.932  1.00  0.00     0.010 A 
ATOM     79  C   UNL A   1      47.480  25.639  32.972  1.00  0.00     0.010 A 
ATOM     80  C   UNL A   1      49.708  25.739  31.274  1.00  0.00     0.020 A 
ATOM     81  C   UNL A   1      48.665  24.993  33.337  1.00  0.00     0.020 A 
ATOM     82  C   UNL A   1      49.759  25.020  32.469  1.00  0.00     0.054 A 
BRANCH  82  83
ATOM     83  S   UNL A   1      51.264  24.089  32.860  1.00  0.00     0.124 S 
ATOM     84  O   UNL A   1      51.192  23.981  34.314  1.00  0.00    -0.237 OA
ATOM     85  O   UNL A   1      51.068  22.841  32.124  1.00  0.00    -0.237 OA
ATOM     86  O   UNL A   1      52.338  24.940  32.351  1.00  0.00    -0.744 OA
ENDBRANCH  82  83
ENDBRANCH  56  77
ENDBRANCH  30  31
ENDBRANCH  23  25
ENDBRANCH  22  23
ENDBRANCH   1  22
TORSDOF 16
ENDMDL
