MODEL 1
REMARK VINA RESULT:     -10.1      0.000      0.000
REMARK SMILES COc1ccsc1CN(Cc1ccccc1)C(=O)/C=C/C(=O)OCCOC(=O)c1ccc(-c2c3nc(c(-c4ccc(S(=O)(=O)[O-])cc4)c4ccc([nH]4)c(-c4ccc(S(=O)(=O)[O-])cc4)c4nc(c(-c5ccc(S(=O)(=O)[O-])cc5)c5ccc2[nH]5)C=C4)C=C3)cc1
REMARK SMILES IDX 24 1 23 2 21 3 22 4 20 5 19 6 17 7 18 8 9 9 8 10 7 11 3 12
REMARK SMILES IDX 4 13 5 14 6 15 2 16 1 17 10 18 11 19 12 20 16 21 13 22 15 23
REMARK SMILES IDX 14 24 25 25 26 26 27 27 28 28 29 29 30 30 88 31 31 32 87 33
REMARK SMILES IDX 32 34 33 35 34 36 81 37 35 38 86 39 80 40 82 41 36 42 85 43
REMARK SMILES IDX 79 44 78 45 37 47 67 48 48 49 66 50 49 51 52 52 65 53 83 54
REMARK SMILES IDX 50 55 51 56 64 58 84 59 53 60 38 61 39 62 47 63 40 64 46 65
REMARK SMILES IDX 41 66 42 67 43 68 44 69 45 70 68 71 69 72 77 73 70 74 76 75
REMARK SMILES IDX 71 76 72 77 73 78 74 79 75 80 54 81 55 82 63 83 56 84 62 85
REMARK SMILES IDX 57 86 58 87 59 88 60 89 61 90
REMARK H PARENT 82 46 52 57
REMARK Flexibility Score: inf
ROOT
ATOM      1  C   UNL A   1      39.800  22.495  26.951  1.00  0.00     0.275 C 
ENDROOT
BRANCH   1   2
ATOM      2  O   UNL A   1      38.580  22.328  26.210  1.00  0.00    -0.459 OA
BRANCH   2   3
ATOM      3  C   UNL A   1      38.507  21.188  25.494  1.00  0.00     0.331 C 
ATOM      4  O   UNL A   1      39.228  20.208  25.599  1.00  0.00    -0.247 OA
BRANCH   3   5
ATOM      5  C   UNL A   1      37.361  21.234  24.582  1.00  0.00     0.099 C 
ATOM      6  C   UNL A   1      36.431  22.143  24.874  1.00  0.00     0.079 C 
BRANCH   6   7
ATOM      7  C   UNL A   1      35.345  22.580  23.970  1.00  0.00     0.247 C 
ATOM      8  O   UNL A   1      35.690  23.067  22.894  1.00  0.00    -0.270 OA
BRANCH   7   9
ATOM      9  N   UNL A   1      34.032  22.249  24.291  1.00  0.00    -0.330 N 
BRANCH   9  10
ATOM     10  C   UNL A   1      32.969  23.107  23.763  1.00  0.00     0.170 C 
BRANCH  10  11
ATOM     11  C   UNL A   1      32.850  24.412  24.499  1.00  0.00     0.066 A 
ATOM     12  C   UNL A   1      33.222  25.659  24.039  1.00  0.00     0.134 A 
ATOM     13  C   UNL A   1      33.023  26.690  24.997  1.00  0.00     0.058 A 
ATOM     14  C   UNL A   1      32.489  26.198  26.167  1.00  0.00     0.069 A 
ATOM     15  S   UNL A   1      32.200  24.512  26.084  1.00  0.00    -0.143 S 
BRANCH  12  16
ATOM     16  O   UNL A   1      33.682  25.815  22.774  1.00  0.00    -0.496 OA
ATOM     17  C   UNL A   1      33.654  27.175  22.359  1.00  0.00     0.278 C 
ENDBRANCH  12  16
ENDBRANCH  10  11
ENDBRANCH   9  10
BRANCH   9  18
ATOM     18  C   UNL A   1      33.586  21.061  25.030  1.00  0.00     0.155 C 
BRANCH  18  19
ATOM     19  C   UNL A   1      33.627  19.725  24.309  1.00  0.00    -0.029 A 
ATOM     20  C   UNL A   1      34.586  18.732  24.544  1.00  0.00     0.005 A 
ATOM     21  C   UNL A   1      32.565  19.410  23.444  1.00  0.00     0.005 A 
ATOM     22  C   UNL A   1      34.426  17.438  24.038  1.00  0.00     0.000 A 
ATOM     23  C   UNL A   1      32.417  18.126  22.912  1.00  0.00     0.000 A 
ATOM     24  C   UNL A   1      33.332  17.131  23.235  1.00  0.00     0.000 A 
ENDBRANCH  18  19
ENDBRANCH   9  18
ENDBRANCH   7   9
ENDBRANCH   6   7
ENDBRANCH   3   5
ENDBRANCH   2   3
ENDBRANCH   1   2
BRANCH   1  25
ATOM     25  C   UNL A   1      40.508  23.781  26.519  1.00  0.00     0.275 C 
BRANCH  25  26
ATOM     26  O   UNL A   1      39.740  24.959  26.836  1.00  0.00    -0.458 OA
BRANCH  26  27
ATOM     27  C   UNL A   1      40.374  26.136  26.622  1.00  0.00     0.338 C 
ATOM     28  O   UNL A   1      40.976  26.481  25.618  1.00  0.00    -0.246 OA
BRANCH  27  29
ATOM     29  C   UNL A   1      40.192  27.036  27.769  1.00  0.00     0.060 A 
ATOM     30  C   UNL A   1      40.795  28.293  27.738  1.00  0.00     0.016 A 
ATOM     31  C   UNL A   1      39.570  26.575  28.929  1.00  0.00     0.016 A 
ATOM     32  C   UNL A   1      40.824  29.074  28.893  1.00  0.00     0.010 A 
ATOM     33  C   UNL A   1      39.564  27.382  30.073  1.00  0.00     0.010 A 
ATOM     34  C   UNL A   1      40.215  28.627  30.073  1.00  0.00    -0.014 A 
BRANCH  34  35
ATOM     35  C   UNL A   1      40.299  29.445  31.312  1.00  0.00     0.031 A 
ATOM     36  C   UNL A   1      41.435  29.238  32.280  1.00  0.00     0.074 A 
ATOM     37  C   UNL A   1      39.370  30.389  31.564  1.00  0.00     0.049 A 
ATOM     38  N   UNL A   1      41.626  29.778  33.457  1.00  0.00    -0.248 NA
ATOM     39  C   UNL A   1      42.492  28.299  31.870  1.00  0.00     0.031 C 
ATOM     40  C   UNL A   1      38.249  30.731  30.688  1.00  0.00     0.029 A 
ATOM     41  N   UNL A   1      39.223  31.233  32.637  1.00  0.00    -0.354 N 
ATOM     42  C   UNL A   1      42.805  29.224  33.943  1.00  0.00     0.074 A 
ATOM     43  C   UNL A   1      43.279  28.297  32.937  1.00  0.00     0.031 C 
ATOM     44  C   UNL A   1      37.534  31.716  31.254  1.00  0.00     0.029 A 
ATOM     45  C   UNL A   1      38.111  32.036  32.558  1.00  0.00     0.049 A 
ATOM     46  H   UNL A   1      39.855  31.259  33.393  1.00  0.00     0.167 HD
ATOM     47  C   UNL A   1      43.436  29.464  35.118  1.00  0.00     0.031 A 
ATOM     48  C   UNL A   1      37.591  32.908  33.445  1.00  0.00     0.031 A 
ATOM     49  C   UNL A   1      42.970  30.393  36.115  1.00  0.00     0.049 A 
ATOM     50  C   UNL A   1      38.274  33.112  34.769  1.00  0.00     0.074 A 
ATOM     51  C   UNL A   1      43.545  30.707  37.335  1.00  0.00     0.029 A 
ATOM     52  N   UNL A   1      41.821  31.161  36.007  1.00  0.00    -0.354 N 
ATOM     53  N   UNL A   1      39.376  32.563  35.219  1.00  0.00    -0.248 NA
ATOM     54  C   UNL A   1      37.639  34.050  35.706  1.00  0.00     0.031 C 
ATOM     55  C   UNL A   1      42.721  31.632  37.983  1.00  0.00     0.029 A 
ATOM     56  C   UNL A   1      41.659  31.933  37.146  1.00  0.00     0.049 A 
ATOM     57  H   UNL A   1      41.210  31.157  35.235  1.00  0.00     0.167 HD
ATOM     58  C   UNL A   1      39.579  33.104  36.485  1.00  0.00     0.074 A 
ATOM     59  C   UNL A   1      38.493  34.033  36.721  1.00  0.00     0.031 C 
ATOM     60  C   UNL A   1      40.574  32.854  37.370  1.00  0.00     0.031 A 
BRANCH  47  61
ATOM     61  C   UNL A   1      44.685  28.675  35.410  1.00  0.00    -0.014 A 
ATOM     62  C   UNL A   1      44.626  27.417  36.036  1.00  0.00     0.010 A 
ATOM     63  C   UNL A   1      45.935  29.187  35.018  1.00  0.00     0.010 A 
ATOM     64  C   UNL A   1      45.798  26.704  36.299  1.00  0.00     0.020 A 
ATOM     65  C   UNL A   1      47.108  28.465  35.258  1.00  0.00     0.020 A 
ATOM     66  C   UNL A   1      47.034  27.235  35.914  1.00  0.00     0.054 A 
BRANCH  66  67
ATOM     67  S   UNL A   1      48.540  26.285  36.258  1.00  0.00     0.124 S 
ATOM     68  O   UNL A   1      48.302  25.061  35.497  1.00  0.00    -0.237 OA
ATOM     69  O   UNL A   1      49.594  27.152  35.738  1.00  0.00    -0.237 OA
ATOM     70  O   UNL A   1      48.527  26.128  37.711  1.00  0.00    -0.744 OA
ENDBRANCH  66  67
ENDBRANCH  47  61
BRANCH  48  71
ATOM     71  C   UNL A   1      36.331  33.630  33.120  1.00  0.00    -0.014 A 
ATOM     72  C   UNL A   1      36.365  34.932  32.595  1.00  0.00     0.010 A 
ATOM     73  C   UNL A   1      35.085  33.009  33.332  1.00  0.00     0.010 A 
ATOM     74  C   UNL A   1      35.177  35.607  32.298  1.00  0.00     0.020 A 
ATOM     75  C   UNL A   1      33.897  33.669  33.012  1.00  0.00     0.020 A 
ATOM     76  C   UNL A   1      33.950  34.969  32.506  1.00  0.00     0.054 A 
BRANCH  76  77
ATOM     77  S   UNL A   1      32.421  35.838  32.061  1.00  0.00     0.124 S 
ATOM     78  O   UNL A   1      32.621  37.143  32.685  1.00  0.00    -0.237 OA
ATOM     79  O   UNL A   1      32.461  35.822  30.600  1.00  0.00    -0.237 OA
ATOM     80  O   UNL A   1      31.374  35.012  32.656  1.00  0.00    -0.744 OA
ENDBRANCH  76  77
ENDBRANCH  48  71
BRANCH  60  81
ATOM     81  C   UNL A   1      40.556  33.620  38.665  1.00  0.00    -0.014 A 
ATOM     82  C   UNL A   1      39.874  33.130  39.792  1.00  0.00     0.010 A 
ATOM     83  C   UNL A   1      41.275  34.825  38.767  1.00  0.00     0.010 A 
ATOM     84  C   UNL A   1      39.887  33.847  40.992  1.00  0.00     0.020 A 
ATOM     85  C   UNL A   1      41.308  35.534  39.971  1.00  0.00     0.020 A 
ATOM     86  C   UNL A   1      40.601  35.047  41.073  1.00  0.00     0.054 A 
BRANCH  86  87
ATOM     87  S   UNL A   1      40.638  35.940  42.651  1.00  0.00     0.124 S 
ATOM     88  O   UNL A   1      41.316  37.180  42.283  1.00  0.00    -0.237 OA
ATOM     89  O   UNL A   1      39.221  36.073  42.980  1.00  0.00    -0.237 OA
ATOM     90  O   UNL A   1      41.395  35.054  43.533  1.00  0.00    -0.744 OA
ENDBRANCH  86  87
ENDBRANCH  60  81
ENDBRANCH  34  35
ENDBRANCH  27  29
ENDBRANCH  26  27
ENDBRANCH  25  26
ENDBRANCH   1  25
TORSDOF 21
ENDMDL
MODEL 2
REMARK VINA RESULT:     -10.1      1.877      2.736
REMARK SMILES COc1ccsc1CN(Cc1ccccc1)C(=O)/C=C/C(=O)OCCOC(=O)c1ccc(-c2c3nc(c(-c4ccc(S(=O)(=O)[O-])cc4)c4ccc([nH]4)c(-c4ccc(S(=O)(=O)[O-])cc4)c4nc(c(-c5ccc(S(=O)(=O)[O-])cc5)c5ccc2[nH]5)C=C4)C=C3)cc1
REMARK SMILES IDX 24 1 23 2 21 3 22 4 20 5 19 6 17 7 18 8 9 9 8 10 7 11 3 12
REMARK SMILES IDX 4 13 5 14 6 15 2 16 1 17 10 18 11 19 12 20 16 21 13 22 15 23
REMARK SMILES IDX 14 24 25 25 26 26 27 27 28 28 29 29 30 30 88 31 31 32 87 33
REMARK SMILES IDX 32 34 33 35 34 36 81 37 35 38 86 39 80 40 82 41 36 42 85 43
REMARK SMILES IDX 79 44 78 45 37 47 67 48 48 49 66 50 49 51 52 52 65 53 83 54
REMARK SMILES IDX 50 55 51 56 64 58 84 59 53 60 38 61 39 62 47 63 40 64 46 65
REMARK SMILES IDX 41 66 42 67 43 68 44 69 45 70 68 71 69 72 77 73 70 74 76 75
REMARK SMILES IDX 71 76 72 77 73 78 74 79 75 80 54 81 55 82 63 83 56 84 62 85
REMARK SMILES IDX 57 86 58 87 59 88 60 89 61 90
REMARK H PARENT 82 46 52 57
REMARK Flexibility Score: inf
ROOT
ATOM      1  C   UNL A   1      38.425  21.821  25.755  1.00  0.00     0.275 C 
ENDROOT
BRANCH   1   2
ATOM      2  O   UNL A   1      37.467  22.893  25.755  1.00  0.00    -0.459 OA
BRANCH   2   3
ATOM      3  C   UNL A   1      36.179  22.498  25.716  1.00  0.00     0.331 C 
ATOM      4  O   UNL A   1      35.696  21.517  26.259  1.00  0.00    -0.247 OA
BRANCH   3   5
ATOM      5  C   UNL A   1      35.373  23.468  24.971  1.00  0.00     0.099 C 
ATOM      6  C   UNL A   1      34.393  24.052  25.662  1.00  0.00     0.079 C 
BRANCH   6   7
ATOM      7  C   UNL A   1      33.639  25.251  25.235  1.00  0.00     0.247 C 
ATOM      8  O   UNL A   1      34.254  26.071  24.554  1.00  0.00    -0.270 OA
BRANCH   7   9
ATOM      9  N   UNL A   1      32.266  25.292  25.455  1.00  0.00    -0.330 N 
BRANCH   9  10
ATOM     10  C   UNL A   1      31.774  26.197  26.495  1.00  0.00     0.170 C 
BRANCH  10  11
ATOM     11  C   UNL A   1      32.044  27.644  26.188  1.00  0.00     0.066 A 
ATOM     12  C   UNL A   1      31.476  28.397  25.181  1.00  0.00     0.134 A 
ATOM     13  C   UNL A   1      31.979  29.725  25.125  1.00  0.00     0.058 A 
ATOM     14  C   UNL A   1      32.916  29.953  26.108  1.00  0.00     0.069 A 
ATOM     15  S   UNL A   1      33.152  28.581  27.105  1.00  0.00    -0.143 S 
BRANCH  12  16
ATOM     16  O   UNL A   1      30.509  27.870  24.391  1.00  0.00    -0.496 OA
ATOM     17  C   UNL A   1      30.592  28.347  23.054  1.00  0.00     0.278 C 
ENDBRANCH  12  16
ENDBRANCH  10  11
ENDBRANCH   9  10
BRANCH   9  18
ATOM     18  C   UNL A   1      31.235  24.590  24.680  1.00  0.00     0.155 C 
BRANCH  18  19
ATOM     19  C   UNL A   1      31.497  23.140  24.308  1.00  0.00    -0.029 A 
ATOM     20  C   UNL A   1      31.809  22.702  23.014  1.00  0.00     0.005 A 
ATOM     21  C   UNL A   1      31.554  22.193  25.346  1.00  0.00     0.005 A 
ATOM     22  C   UNL A   1      32.282  21.407  22.785  1.00  0.00     0.000 A 
ATOM     23  C   UNL A   1      31.999  20.888  25.114  1.00  0.00     0.000 A 
ATOM     24  C   UNL A   1      32.392  20.505  23.838  1.00  0.00     0.000 A 
ENDBRANCH  18  19
ENDBRANCH   9  18
ENDBRANCH   7   9
ENDBRANCH   6   7
ENDBRANCH   3   5
ENDBRANCH   2   3
ENDBRANCH   1   2
BRANCH   1  25
ATOM     25  C   UNL A   1      39.746  22.295  26.365  1.00  0.00     0.275 C 
BRANCH  25  26
ATOM     26  O   UNL A   1      39.601  23.538  27.082  1.00  0.00    -0.458 OA
BRANCH  26  27
ATOM     27  C   UNL A   1      40.624  24.413  26.933  1.00  0.00     0.338 C 
ATOM     28  O   UNL A   1      41.574  24.318  26.173  1.00  0.00    -0.246 OA
BRANCH  27  29
ATOM     29  C   UNL A   1      40.422  25.592  27.785  1.00  0.00     0.060 A 
ATOM     30  C   UNL A   1      41.395  26.592  27.789  1.00  0.00     0.016 A 
ATOM     31  C   UNL A   1      39.363  25.628  28.692  1.00  0.00     0.016 A 
ATOM     32  C   UNL A   1      41.339  27.606  28.743  1.00  0.00     0.010 A 
ATOM     33  C   UNL A   1      39.288  26.673  29.619  1.00  0.00     0.010 A 
ATOM     34  C   UNL A   1      40.290  27.657  29.672  1.00  0.00    -0.014 A 
BRANCH  34  35
ATOM     35  C   UNL A   1      40.270  28.714  30.718  1.00  0.00     0.031 A 
ATOM     36  C   UNL A   1      41.228  28.647  31.879  1.00  0.00     0.074 A 
ATOM     37  C   UNL A   1      39.408  29.745  30.622  1.00  0.00     0.049 A 
ATOM     38  N   UNL A   1      41.296  29.412  32.938  1.00  0.00    -0.248 NA
ATOM     39  C   UNL A   1      42.239  27.578  31.843  1.00  0.00     0.031 C 
ATOM     40  C   UNL A   1      38.463  29.962  29.525  1.00  0.00     0.029 A 
ATOM     41  N   UNL A   1      39.187  30.806  31.465  1.00  0.00    -0.354 N 
ATOM     42  C   UNL A   1      42.334  28.902  33.710  1.00  0.00     0.074 A 
ATOM     43  C   UNL A   1      42.860  27.755  33.001  1.00  0.00     0.031 C 
ATOM     44  C   UNL A   1      37.770  31.087  29.758  1.00  0.00     0.029 A 
ATOM     45  C   UNL A   1      38.179  31.642  31.047  1.00  0.00     0.049 A 
ATOM     46  H   UNL A   1      39.701  30.954  32.292  1.00  0.00     0.167 HD
ATOM     47  C   UNL A   1      42.807  29.348  34.899  1.00  0.00     0.031 A 
ATOM     48  C   UNL A   1      37.620  32.713  31.644  1.00  0.00     0.031 A 
ATOM     49  C   UNL A   1      42.292  30.495  35.600  1.00  0.00     0.049 A 
ATOM     50  C   UNL A   1      38.120  33.151  32.993  1.00  0.00     0.074 A 
ATOM     51  C   UNL A   1      42.711  31.026  36.809  1.00  0.00     0.029 A 
ATOM     52  N   UNL A   1      41.248  31.292  35.156  1.00  0.00    -0.354 N 
ATOM     53  N   UNL A   1      39.088  32.643  33.717  1.00  0.00    -0.248 NA
ATOM     54  C   UNL A   1      37.447  34.305  33.608  1.00  0.00     0.031 C 
ATOM     55  C   UNL A   1      41.892  32.117  37.116  1.00  0.00     0.029 A 
ATOM     56  C   UNL A   1      40.997  32.298  36.075  1.00  0.00     0.049 A 
ATOM     57  H   UNL A   1      40.758  31.162  34.312  1.00  0.00     0.167 HD
ATOM     58  C   UNL A   1      39.154  33.428  34.864  1.00  0.00     0.074 A 
ATOM     59  C   UNL A   1      38.138  34.452  34.730  1.00  0.00     0.031 C 
ATOM     60  C   UNL A   1      39.982  33.311  35.931  1.00  0.00     0.031 A 
BRANCH  47  61
ATOM     61  C   UNL A   1      43.920  28.563  35.542  1.00  0.00    -0.014 A 
ATOM     62  C   UNL A   1      45.270  28.885  35.313  1.00  0.00     0.010 A 
ATOM     63  C   UNL A   1      43.607  27.509  36.419  1.00  0.00     0.010 A 
ATOM     64  C   UNL A   1      46.286  28.141  35.919  1.00  0.00     0.020 A 
ATOM     65  C   UNL A   1      44.620  26.778  37.047  1.00  0.00     0.020 A 
ATOM     66  C   UNL A   1      45.955  27.087  36.778  1.00  0.00     0.054 A 
BRANCH  66  67
ATOM     67  S   UNL A   1      47.292  26.144  37.560  1.00  0.00     0.124 S 
ATOM     68  O   UNL A   1      46.582  24.964  38.046  1.00  0.00    -0.237 OA
ATOM     69  O   UNL A   1      48.213  25.911  36.451  1.00  0.00    -0.237 OA
ATOM     70  O   UNL A   1      47.789  27.043  38.599  1.00  0.00    -0.744 OA
ENDBRANCH  66  67
ENDBRANCH  47  61
BRANCH  48  71
ATOM     71  C   UNL A   1      36.495  33.426  30.982  1.00  0.00    -0.014 A 
ATOM     72  C   UNL A   1      35.280  33.633  31.657  1.00  0.00     0.010 A 
ATOM     73  C   UNL A   1      36.639  33.909  29.668  1.00  0.00     0.010 A 
ATOM     74  C   UNL A   1      34.225  34.299  31.026  1.00  0.00     0.020 A 
ATOM     75  C   UNL A   1      35.597  34.598  29.044  1.00  0.00     0.020 A 
ATOM     76  C   UNL A   1      34.392  34.779  29.724  1.00  0.00     0.054 A 
BRANCH  76  77
ATOM     77  S   UNL A   1      33.031  35.692  28.943  1.00  0.00     0.124 S 
ATOM     78  O   UNL A   1      33.747  36.722  28.196  1.00  0.00    -0.237 OA
ATOM     79  O   UNL A   1      32.379  34.662  28.138  1.00  0.00    -0.237 OA
ATOM     80  O   UNL A   1      32.247  36.171  30.079  1.00  0.00    -0.744 OA
ENDBRANCH  76  77
ENDBRANCH  48  71
BRANCH  60  81
ATOM     81  C   UNL A   1      39.849  34.335  37.025  1.00  0.00    -0.014 A 
ATOM     82  C   UNL A   1      40.504  35.577  36.945  1.00  0.00     0.010 A 
ATOM     83  C   UNL A   1      39.017  34.068  38.127  1.00  0.00     0.010 A 
ATOM     84  C   UNL A   1      40.351  36.522  37.963  1.00  0.00     0.020 A 
ATOM     85  C   UNL A   1      38.844  35.019  39.136  1.00  0.00     0.020 A 
ATOM     86  C   UNL A   1      39.524  36.236  39.054  1.00  0.00     0.054 A 
BRANCH  86  87
ATOM     87  S   UNL A   1      39.308  37.494  40.343  1.00  0.00     0.124 S 
ATOM     88  O   UNL A   1      38.899  36.687  41.489  1.00  0.00    -0.237 OA
ATOM     89  O   UNL A   1      40.637  38.091  40.438  1.00  0.00    -0.237 OA
ATOM     90  O   UNL A   1      38.274  38.372  39.800  1.00  0.00    -0.744 OA
ENDBRANCH  86  87
ENDBRANCH  60  81
ENDBRANCH  34  35
ENDBRANCH  27  29
ENDBRANCH  26  27
ENDBRANCH  25  26
ENDBRANCH   1  25
TORSDOF 21
ENDMDL
MODEL 3
REMARK VINA RESULT:      -9.9      7.006     12.559
REMARK SMILES COc1ccsc1CN(Cc1ccccc1)C(=O)/C=C/C(=O)OCCOC(=O)c1ccc(-c2c3nc(c(-c4ccc(S(=O)(=O)[O-])cc4)c4ccc([nH]4)c(-c4ccc(S(=O)(=O)[O-])cc4)c4nc(c(-c5ccc(S(=O)(=O)[O-])cc5)c5ccc2[nH]5)C=C4)C=C3)cc1
REMARK SMILES IDX 24 1 23 2 21 3 22 4 20 5 19 6 17 7 18 8 9 9 8 10 7 11 3 12
REMARK SMILES IDX 4 13 5 14 6 15 2 16 1 17 10 18 11 19 12 20 16 21 13 22 15 23
REMARK SMILES IDX 14 24 25 25 26 26 27 27 28 28 29 29 30 30 88 31 31 32 87 33
REMARK SMILES IDX 32 34 33 35 34 36 81 37 35 38 86 39 80 40 82 41 36 42 85 43
REMARK SMILES IDX 79 44 78 45 37 47 67 48 48 49 66 50 49 51 52 52 65 53 83 54
REMARK SMILES IDX 50 55 51 56 64 58 84 59 53 60 38 61 39 62 47 63 40 64 46 65
REMARK SMILES IDX 41 66 42 67 43 68 44 69 45 70 68 71 69 72 77 73 70 74 76 75
REMARK SMILES IDX 71 76 72 77 73 78 74 79 75 80 54 81 55 82 63 83 56 84 62 85
REMARK SMILES IDX 57 86 58 87 59 88 60 89 61 90
REMARK H PARENT 82 46 52 57
REMARK Flexibility Score: inf
ROOT
ATOM      1  C   UNL A   1      34.547  29.919  26.650  1.00  0.00     0.275 C 
ENDROOT
BRANCH   1   2
ATOM      2  O   UNL A   1      33.794  28.738  26.323  1.00  0.00    -0.459 OA
BRANCH   2   3
ATOM      3  C   UNL A   1      33.284  28.723  25.075  1.00  0.00     0.331 C 
ATOM      4  O   UNL A   1      32.579  29.578  24.561  1.00  0.00    -0.247 OA
BRANCH   3   5
ATOM      5  C   UNL A   1      33.754  27.542  24.349  1.00  0.00     0.099 C 
ATOM      6  C   UNL A   1      32.880  27.005  23.496  1.00  0.00     0.079 C 
BRANCH   6   7
ATOM      7  C   UNL A   1      33.201  26.008  22.453  1.00  0.00     0.247 C 
ATOM      8  O   UNL A   1      33.851  26.411  21.489  1.00  0.00    -0.270 OA
BRANCH   7   9
ATOM      9  N   UNL A   1      32.927  24.666  22.703  1.00  0.00    -0.330 N 
BRANCH   9  10
ATOM     10  C   UNL A   1      31.530  24.290  22.922  1.00  0.00     0.170 C 
BRANCH  10  11
ATOM     11  C   UNL A   1      31.257  23.845  24.331  1.00  0.00     0.066 A 
ATOM     12  C   UNL A   1      31.387  22.566  24.836  1.00  0.00     0.134 A 
ATOM     13  C   UNL A   1      31.005  22.464  26.201  1.00  0.00     0.058 A 
ATOM     14  C   UNL A   1      30.602  23.680  26.707  1.00  0.00     0.069 A 
ATOM     15  S   UNL A   1      30.723  24.933  25.546  1.00  0.00    -0.143 S 
BRANCH  12  16
ATOM     16  O   UNL A   1      31.878  21.569  24.061  1.00  0.00    -0.496 OA
ATOM     17  C   UNL A   1      32.418  20.506  24.838  1.00  0.00     0.278 C 
ENDBRANCH  12  16
ENDBRANCH  10  11
ENDBRANCH   9  10
BRANCH   9  18
ATOM     18  C   UNL A   1      33.890  23.558  22.671  1.00  0.00     0.155 C 
BRANCH  18  19
ATOM     19  C   UNL A   1      35.000  23.557  23.708  1.00  0.00    -0.029 A 
ATOM     20  C   UNL A   1      34.854  24.028  25.019  1.00  0.00     0.005 A 
ATOM     21  C   UNL A   1      36.213  22.929  23.375  1.00  0.00     0.005 A 
ATOM     22  C   UNL A   1      35.826  23.772  25.991  1.00  0.00     0.000 A 
ATOM     23  C   UNL A   1      37.199  22.697  24.338  1.00  0.00     0.000 A 
ATOM     24  C   UNL A   1      36.991  23.092  25.654  1.00  0.00     0.000 A 
ENDBRANCH  18  19
ENDBRANCH   9  18
ENDBRANCH   7   9
ENDBRANCH   6   7
ENDBRANCH   3   5
ENDBRANCH   2   3
ENDBRANCH   1   2
BRANCH   1  25
ATOM     25  C   UNL A   1      35.051  29.840  28.093  1.00  0.00     0.275 C 
BRANCH  25  26
ATOM     26  O   UNL A   1      36.471  30.074  28.188  1.00  0.00    -0.458 OA
BRANCH  26  27
ATOM     27  C   UNL A   1      37.089  29.455  29.221  1.00  0.00     0.338 C 
ATOM     28  O   UNL A   1      36.620  29.194  30.317  1.00  0.00    -0.246 OA
BRANCH  27  29
ATOM     29  C   UNL A   1      38.446  29.043  28.836  1.00  0.00     0.060 A 
ATOM     30  C   UNL A   1      39.311  28.574  29.826  1.00  0.00     0.016 A 
ATOM     31  C   UNL A   1      38.908  29.276  27.541  1.00  0.00     0.016 A 
ATOM     32  C   UNL A   1      40.661  28.388  29.532  1.00  0.00     0.010 A 
ATOM     33  C   UNL A   1      40.256  29.045  27.241  1.00  0.00     0.010 A 
ATOM     34  C   UNL A   1      41.150  28.626  28.240  1.00  0.00    -0.014 A 
BRANCH  34  35
ATOM     35  C   UNL A   1      42.602  28.475  27.952  1.00  0.00     0.031 A 
ATOM     36  C   UNL A   1      43.548  29.616  28.216  1.00  0.00     0.074 A 
ATOM     37  C   UNL A   1      43.078  27.309  27.473  1.00  0.00     0.049 A 
ATOM     38  N   UNL A   1      44.823  29.713  27.937  1.00  0.00    -0.248 NA
ATOM     39  C   UNL A   1      42.985  30.804  28.879  1.00  0.00     0.031 C 
ATOM     40  C   UNL A   1      42.283  26.106  27.221  1.00  0.00     0.029 A 
ATOM     41  N   UNL A   1      44.352  26.947  27.108  1.00  0.00    -0.354 N 
ATOM     42  C   UNL A   1      45.209  30.981  28.360  1.00  0.00     0.074 A 
ATOM     43  C   UNL A   1      44.030  31.620  28.905  1.00  0.00     0.031 C 
ATOM     44  C   UNL A   1      43.087  25.139  26.751  1.00  0.00     0.029 A 
ATOM     45  C   UNL A   1      44.442  25.668  26.614  1.00  0.00     0.049 A 
ATOM     46  H   UNL A   1      45.128  27.548  27.193  1.00  0.00     0.167 HD
ATOM     47  C   UNL A   1      46.433  31.560  28.302  1.00  0.00     0.031 A 
ATOM     48  C   UNL A   1      45.484  25.004  26.077  1.00  0.00     0.031 A 
ATOM     49  C   UNL A   1      47.609  30.921  27.770  1.00  0.00     0.049 A 
ATOM     50  C   UNL A   1      46.819  25.689  25.965  1.00  0.00     0.074 A 
ATOM     51  C   UNL A   1      48.895  31.427  27.673  1.00  0.00     0.029 A 
ATOM     52  N   UNL A   1      47.646  29.637  27.248  1.00  0.00    -0.354 N 
ATOM     53  N   UNL A   1      47.159  26.895  26.351  1.00  0.00    -0.248 NA
ATOM     54  C   UNL A   1      47.907  24.924  25.340  1.00  0.00     0.031 C 
ATOM     55  C   UNL A   1      49.699  30.465  27.054  1.00  0.00     0.029 A 
ATOM     56  C   UNL A   1      48.928  29.341  26.811  1.00  0.00     0.049 A 
ATOM     57  H   UNL A   1      46.876  29.026  27.197  1.00  0.00     0.167 HD
ATOM     58  C   UNL A   1      48.508  27.027  26.033  1.00  0.00     0.074 A 
ATOM     59  C   UNL A   1      48.922  25.773  25.438  1.00  0.00     0.031 C 
ATOM     60  C   UNL A   1      49.328  28.090  26.219  1.00  0.00     0.031 A 
BRANCH  47  61
ATOM     61  C   UNL A   1      46.555  32.978  28.792  1.00  0.00    -0.014 A 
ATOM     62  C   UNL A   1      46.327  34.070  27.935  1.00  0.00     0.010 A 
ATOM     63  C   UNL A   1      46.867  33.221  30.142  1.00  0.00     0.010 A 
ATOM     64  C   UNL A   1      46.448  35.378  28.412  1.00  0.00     0.020 A 
ATOM     65  C   UNL A   1      46.965  34.528  30.628  1.00  0.00     0.020 A 
ATOM     66  C   UNL A   1      46.773  35.600  29.754  1.00  0.00     0.054 A 
BRANCH  66  67
ATOM     67  S   UNL A   1      46.914  37.307  30.350  1.00  0.00     0.124 S 
ATOM     68  O   UNL A   1      46.297  38.057  29.259  1.00  0.00    -0.237 OA
ATOM     69  O   UNL A   1      46.156  37.276  31.598  1.00  0.00    -0.237 OA
ATOM     70  O   UNL A   1      48.353  37.502  30.505  1.00  0.00    -0.744 OA
ENDBRANCH  66  67
ENDBRANCH  47  61
BRANCH  48  71
ATOM     71  C   UNL A   1      45.297  23.618  25.571  1.00  0.00    -0.014 A 
ATOM     72  C   UNL A   1      45.595  22.511  26.383  1.00  0.00     0.010 A 
ATOM     73  C   UNL A   1      44.810  23.401  24.268  1.00  0.00     0.010 A 
ATOM     74  C   UNL A   1      45.421  21.211  25.898  1.00  0.00     0.020 A 
ATOM     75  C   UNL A   1      44.611  22.104  23.789  1.00  0.00     0.020 A 
ATOM     76  C   UNL A   1      44.928  21.016  24.604  1.00  0.00     0.054 A 
BRANCH  76  77
ATOM     77  S   UNL A   1      44.655  19.322  24.013  1.00  0.00     0.124 S 
ATOM     78  O   UNL A   1      43.428  18.952  24.712  1.00  0.00    -0.237 OA
ATOM     79  O   UNL A   1      44.531  19.506  22.570  1.00  0.00    -0.237 OA
ATOM     80  O   UNL A   1      45.860  18.615  24.441  1.00  0.00    -0.744 OA
ENDBRANCH  76  77
ENDBRANCH  48  71
BRANCH  60  81
ATOM     81  C   UNL A   1      50.766  27.934  25.805  1.00  0.00    -0.014 A 
ATOM     82  C   UNL A   1      51.197  28.301  24.519  1.00  0.00     0.010 A 
ATOM     83  C   UNL A   1      51.708  27.459  26.736  1.00  0.00     0.010 A 
ATOM     84  C   UNL A   1      52.541  28.168  24.160  1.00  0.00     0.020 A 
ATOM     85  C   UNL A   1      53.056  27.345  26.388  1.00  0.00     0.020 A 
ATOM     86  C   UNL A   1      53.462  27.688  25.097  1.00  0.00     0.054 A 
BRANCH  86  87
ATOM     87  S   UNL A   1      55.210  27.561  24.623  1.00  0.00     0.124 S 
ATOM     88  O   UNL A   1      55.517  28.934  24.230  1.00  0.00    -0.237 OA
ATOM     89  O   UNL A   1      55.845  27.103  25.856  1.00  0.00    -0.237 OA
ATOM     90  O   UNL A   1      55.203  26.588  23.534  1.00  0.00    -0.744 OA
ENDBRANCH  86  87
ENDBRANCH  60  81
ENDBRANCH  34  35
ENDBRANCH  27  29
ENDBRANCH  26  27
ENDBRANCH  25  26
ENDBRANCH   1  25
TORSDOF 21
ENDMDL
