MODEL 1
REMARK VINA RESULT:     -10.2      0.000      0.000
REMARK SMILES Cc1nsc(NC(=O)CC[C@H](C)CC[NH3+])c1C(=O)OCCOC(=O)c1ccc(-c2c3nc(c(-c4ccc(S(=O)(=O)[O-])cc4)c4ccc([nH]4)c(-c4ccc(S(=O)(=O)[O-])cc4)c4nc(c(-c5ccc(S(=O)(=O)[O-])cc5)c5ccc2[nH]5)C=C4)C=C3)cc1
REMARK SMILES IDX 17 1 18 2 16 3 1 4 2 5 3 6 4 7 5 8 6 9 7 10 8 12 9 13 10 14
REMARK SMILES IDX 11 15 12 16 13 17 14 18 15 19 19 23 20 24 21 25 22 26 23 27
REMARK SMILES IDX 24 28 25 29 26 30 84 31 27 32 83 33 28 34 29 35 30 36 77 37
REMARK SMILES IDX 31 38 82 39 76 40 78 41 32 42 81 43 75 44 74 45 33 47 63 48
REMARK SMILES IDX 44 49 62 50 45 51 48 52 61 53 79 54 46 55 47 56 60 58 80 59
REMARK SMILES IDX 49 60 34 61 35 62 43 63 36 64 42 65 37 66 38 67 39 68 40 69
REMARK SMILES IDX 41 70 64 71 65 72 73 73 66 74 72 75 67 76 68 77 69 78 70 79
REMARK SMILES IDX 71 80 50 81 51 82 59 83 52 84 58 85 53 86 54 87 55 88 56 89
REMARK SMILES IDX 57 90
REMARK H PARENT 6 11 15 20 15 21 15 22 78 46 48 57
REMARK Flexibility Score: inf
ROOT
ATOM      1  C   UNL A   1      34.745  22.728  23.781  1.00  0.00     0.343 C 
ATOM      2  O   UNL A   1      34.951  23.316  22.721  1.00  0.00    -0.246 OA
ENDROOT
BRANCH   1   3
ATOM      3  C   UNL A   1      33.505  22.882  24.513  1.00  0.00     0.117 A 
ATOM      4  C   UNL A   1      34.394  23.349  26.947  1.00  0.00     0.069 C 
ATOM      5  C   UNL A   1      33.340  23.286  25.889  1.00  0.00     0.068 A 
ATOM      6  N   UNL A   1      32.100  23.660  26.207  1.00  0.00    -0.195 NA
ATOM      7  S   UNL A   1      31.138  23.370  24.894  1.00  0.00    -0.017 S 
ATOM      8  C   UNL A   1      32.261  22.521  23.980  1.00  0.00     0.130 A 
BRANCH   8   9
ATOM      9  N   UNL A   1      32.054  21.737  22.857  1.00  0.00    -0.316 N 
ATOM     10  C   UNL A   1      32.088  20.499  22.326  1.00  0.00     0.225 C 
ATOM     11  H   UNL A   1      31.754  22.344  22.141  1.00  0.00     0.170 HD
ATOM     12  O   UNL A   1      31.686  20.537  21.141  1.00  0.00    -0.275 OA
BRANCH  10  13
ATOM     13  C   UNL A   1      32.420  19.082  22.819  1.00  0.00     0.101 C 
BRANCH  13  14
ATOM     14  C   UNL A   1      33.382  18.633  23.931  1.00  0.00     0.013 C 
BRANCH  14  15
ATOM     15  C   UNL A   1      33.066  17.309  24.643  1.00  0.00    -0.008 C 
ATOM     16  C   UNL A   1      32.638  17.662  26.068  1.00  0.00     0.008 C 
BRANCH  15  17
ATOM     17  C   UNL A   1      34.209  16.356  24.208  1.00  0.00     0.064 C 
BRANCH  17  18
ATOM     18  C   UNL A   1      35.141  15.563  25.116  1.00  0.00     0.259 C 
BRANCH  18  19
ATOM     19  N   UNL A   1      36.129  16.315  25.862  1.00  0.00    -0.358 N 
ATOM     20  H   UNL A   1      37.050  16.171  25.448  1.00  0.00     0.344 HD
ATOM     21  H   UNL A   1      36.138  15.998  26.831  1.00  0.00     0.344 HD
ATOM     22  H   UNL A   1      35.895  17.308  25.831  1.00  0.00     0.344 HD
ENDBRANCH  18  19
ENDBRANCH  17  18
ENDBRANCH  15  17
ENDBRANCH  14  15
ENDBRANCH  13  14
ENDBRANCH  10  13
ENDBRANCH   8   9
ENDBRANCH   1   3
BRANCH   1  23
ATOM     23  O   UNL A   1      35.628  21.875  24.371  1.00  0.00    -0.458 OA
BRANCH  23  24
ATOM     24  C   UNL A   1      37.000  22.297  24.375  1.00  0.00     0.275 C 
BRANCH  24  25
ATOM     25  C   UNL A   1      37.788  21.547  25.435  1.00  0.00     0.275 C 
BRANCH  25  26
ATOM     26  O   UNL A   1      38.490  22.466  26.266  1.00  0.00    -0.458 OA
BRANCH  26  27
ATOM     27  C   UNL A   1      39.771  22.140  26.545  1.00  0.00     0.338 C 
ATOM     28  O   UNL A   1      40.204  21.044  26.858  1.00  0.00    -0.246 OA
BRANCH  27  29
ATOM     29  C   UNL A   1      40.550  23.370  26.641  1.00  0.00     0.060 A 
ATOM     30  C   UNL A   1      41.677  23.348  27.469  1.00  0.00     0.016 A 
ATOM     31  C   UNL A   1      39.927  24.558  26.236  1.00  0.00     0.016 A 
ATOM     32  C   UNL A   1      42.051  24.522  28.076  1.00  0.00     0.010 A 
ATOM     33  C   UNL A   1      40.283  25.717  26.860  1.00  0.00     0.010 A 
ATOM     34  C   UNL A   1      41.276  25.658  27.835  1.00  0.00    -0.014 A 
BRANCH  34  35
ATOM     35  C   UNL A   1      41.553  26.856  28.587  1.00  0.00     0.031 A 
ATOM     36  C   UNL A   1      42.745  27.582  28.078  1.00  0.00     0.074 A 
ATOM     37  C   UNL A   1      40.656  27.283  29.498  1.00  0.00     0.049 A 
ATOM     38  N   UNL A   1      43.803  27.933  28.725  1.00  0.00    -0.248 NA
ATOM     39  C   UNL A   1      42.848  27.781  26.617  1.00  0.00     0.031 C 
ATOM     40  C   UNL A   1      39.321  26.734  29.782  1.00  0.00     0.029 A 
ATOM     41  N   UNL A   1      40.665  28.415  30.237  1.00  0.00    -0.354 N 
ATOM     42  C   UNL A   1      44.620  28.575  27.797  1.00  0.00     0.074 A 
ATOM     43  C   UNL A   1      44.071  28.291  26.499  1.00  0.00     0.031 C 
ATOM     44  C   UNL A   1      38.566  27.693  30.366  1.00  0.00     0.029 A 
ATOM     45  C   UNL A   1      39.399  28.860  30.600  1.00  0.00     0.049 A 
ATOM     46  H   UNL A   1      41.492  28.882  30.494  1.00  0.00     0.167 HD
ATOM     47  C   UNL A   1      45.549  29.494  28.178  1.00  0.00     0.031 A 
ATOM     48  C   UNL A   1      39.062  30.138  30.924  1.00  0.00     0.031 A 
ATOM     49  C   UNL A   1      45.821  29.406  29.586  1.00  0.00     0.049 A 
ATOM     50  C   UNL A   1      40.339  30.855  31.210  1.00  0.00     0.074 A 
ATOM     51  C   UNL A   1      46.347  28.423  30.399  1.00  0.00     0.029 A 
ATOM     52  N   UNL A   1      45.140  30.273  30.412  1.00  0.00    -0.354 N 
ATOM     53  N   UNL A   1      41.128  30.542  32.204  1.00  0.00    -0.248 NA
ATOM     54  C   UNL A   1      40.989  31.549  30.103  1.00  0.00     0.031 C 
ATOM     55  C   UNL A   1      45.560  28.476  31.583  1.00  0.00     0.029 A 
ATOM     56  C   UNL A   1      44.659  29.538  31.464  1.00  0.00     0.049 A 
ATOM     57  H   UNL A   1      45.022  31.240  30.271  1.00  0.00     0.167 HD
ATOM     58  C   UNL A   1      42.416  30.612  31.683  1.00  0.00     0.074 A 
ATOM     59  C   UNL A   1      42.270  31.312  30.405  1.00  0.00     0.031 C 
ATOM     60  C   UNL A   1      43.431  29.839  32.172  1.00  0.00     0.031 A 
BRANCH  47  61
ATOM     61  C   UNL A   1      45.884  30.721  27.371  1.00  0.00    -0.014 A 
ATOM     62  C   UNL A   1      47.243  31.049  27.194  1.00  0.00     0.010 A 
ATOM     63  C   UNL A   1      44.936  31.715  27.046  1.00  0.00     0.010 A 
ATOM     64  C   UNL A   1      47.633  32.341  26.826  1.00  0.00     0.020 A 
ATOM     65  C   UNL A   1      45.314  32.993  26.637  1.00  0.00     0.020 A 
ATOM     66  C   UNL A   1      46.663  33.312  26.576  1.00  0.00     0.054 A 
BRANCH  66  67
ATOM     67  S   UNL A   1      47.179  35.015  26.262  1.00  0.00     0.124 S 
ATOM     68  O   UNL A   1      48.245  34.828  25.281  1.00  0.00    -0.237 OA
ATOM     69  O   UNL A   1      45.950  35.621  25.756  1.00  0.00    -0.237 OA
ATOM     70  O   UNL A   1      47.610  35.491  27.574  1.00  0.00    -0.744 OA
ENDBRANCH  66  67
ENDBRANCH  47  61
BRANCH  48  71
ATOM     71  C   UNL A   1      37.789  30.828  30.566  1.00  0.00    -0.014 A 
ATOM     72  C   UNL A   1      37.123  31.677  31.470  1.00  0.00     0.010 A 
ATOM     73  C   UNL A   1      37.341  30.837  29.227  1.00  0.00     0.010 A 
ATOM     74  C   UNL A   1      36.079  32.523  31.040  1.00  0.00     0.020 A 
ATOM     75  C   UNL A   1      36.300  31.667  28.792  1.00  0.00     0.020 A 
ATOM     76  C   UNL A   1      35.684  32.523  29.698  1.00  0.00     0.054 A 
BRANCH  76  77
ATOM     77  S   UNL A   1      34.450  33.724  29.112  1.00  0.00     0.124 S 
ATOM     78  O   UNL A   1      33.751  34.079  30.343  1.00  0.00    -0.237 OA
ATOM     79  O   UNL A   1      35.279  34.774  28.528  1.00  0.00    -0.237 OA
ATOM     80  O   UNL A   1      33.656  32.960  28.148  1.00  0.00    -0.744 OA
ENDBRANCH  76  77
ENDBRANCH  48  71
BRANCH  60  81
ATOM     81  C   UNL A   1      43.200  29.034  33.431  1.00  0.00    -0.014 A 
ATOM     82  C   UNL A   1      42.837  29.603  34.668  1.00  0.00     0.010 A 
ATOM     83  C   UNL A   1      43.119  27.638  33.289  1.00  0.00     0.010 A 
ATOM     84  C   UNL A   1      42.415  28.793  35.735  1.00  0.00     0.020 A 
ATOM     85  C   UNL A   1      42.683  26.829  34.339  1.00  0.00     0.020 A 
ATOM     86  C   UNL A   1      42.338  27.409  35.561  1.00  0.00     0.054 A 
BRANCH  86  87
ATOM     87  S   UNL A   1      41.728  26.365  36.914  1.00  0.00     0.124 S 
ATOM     88  O   UNL A   1      40.587  27.129  37.412  1.00  0.00    -0.237 OA
ATOM     89  O   UNL A   1      41.400  25.112  36.238  1.00  0.00    -0.237 OA
ATOM     90  O   UNL A   1      42.864  26.283  37.831  1.00  0.00    -0.744 OA
ENDBRANCH  86  87
ENDBRANCH  60  81
ENDBRANCH  34  35
ENDBRANCH  27  29
ENDBRANCH  26  27
ENDBRANCH  25  26
ENDBRANCH  24  25
ENDBRANCH  23  24
ENDBRANCH   1  23
TORSDOF 21
ENDMDL
MODEL 2
REMARK VINA RESULT:     -10.1      2.239      4.113
REMARK SMILES Cc1nsc(NC(=O)CC[C@H](C)CC[NH3+])c1C(=O)OCCOC(=O)c1ccc(-c2c3nc(c(-c4ccc(S(=O)(=O)[O-])cc4)c4ccc([nH]4)c(-c4ccc(S(=O)(=O)[O-])cc4)c4nc(c(-c5ccc(S(=O)(=O)[O-])cc5)c5ccc2[nH]5)C=C4)C=C3)cc1
REMARK SMILES IDX 17 1 18 2 16 3 1 4 2 5 3 6 4 7 5 8 6 9 7 10 8 12 9 13 10 14
REMARK SMILES IDX 11 15 12 16 13 17 14 18 15 19 19 23 20 24 21 25 22 26 23 27
REMARK SMILES IDX 24 28 25 29 26 30 84 31 27 32 83 33 28 34 29 35 30 36 77 37
REMARK SMILES IDX 31 38 82 39 76 40 78 41 32 42 81 43 75 44 74 45 33 47 63 48
REMARK SMILES IDX 44 49 62 50 45 51 48 52 61 53 79 54 46 55 47 56 60 58 80 59
REMARK SMILES IDX 49 60 34 61 35 62 43 63 36 64 42 65 37 66 38 67 39 68 40 69
REMARK SMILES IDX 41 70 64 71 65 72 73 73 66 74 72 75 67 76 68 77 69 78 70 79
REMARK SMILES IDX 71 80 50 81 51 82 59 83 52 84 58 85 53 86 54 87 55 88 56 89
REMARK SMILES IDX 57 90
REMARK H PARENT 6 11 15 20 15 21 15 22 78 46 48 57
REMARK Flexibility Score: inf
ROOT
ATOM      1  C   UNL A   1      34.486  22.980  23.472  1.00  0.00     0.343 C 
ATOM      2  O   UNL A   1      34.415  23.755  22.520  1.00  0.00    -0.246 OA
ENDROOT
BRANCH   1   3
ATOM      3  C   UNL A   1      33.357  22.737  24.346  1.00  0.00     0.117 A 
ATOM      4  C   UNL A   1      32.215  20.684  23.158  1.00  0.00     0.069 C 
ATOM      5  C   UNL A   1      32.419  21.641  24.287  1.00  0.00     0.068 A 
ATOM      6  N   UNL A   1      31.688  21.484  25.391  1.00  0.00    -0.195 NA
ATOM      7  S   UNL A   1      32.035  22.744  26.405  1.00  0.00    -0.017 S 
ATOM      8  C   UNL A   1      32.947  23.650  25.326  1.00  0.00     0.130 A 
BRANCH   8   9
ATOM      9  N   UNL A   1      33.344  24.974  25.421  1.00  0.00    -0.316 N 
ATOM     10  C   UNL A   1      33.201  26.228  24.950  1.00  0.00     0.225 C 
ATOM     11  H   UNL A   1      34.017  25.017  26.139  1.00  0.00     0.170 HD
ATOM     12  O   UNL A   1      33.924  27.011  25.608  1.00  0.00    -0.275 OA
BRANCH  10  13
ATOM     13  C   UNL A   1      32.345  26.930  23.883  1.00  0.00     0.101 C 
BRANCH  13  14
ATOM     14  C   UNL A   1      30.986  27.634  24.027  1.00  0.00     0.013 C 
BRANCH  14  15
ATOM     15  C   UNL A   1      30.985  29.170  24.024  1.00  0.00    -0.008 C 
ATOM     16  C   UNL A   1      31.506  29.618  25.390  1.00  0.00     0.008 C 
BRANCH  15  17
ATOM     17  C   UNL A   1      29.641  29.552  23.353  1.00  0.00     0.064 C 
BRANCH  17  18
ATOM     18  C   UNL A   1      29.430  30.031  21.922  1.00  0.00     0.259 C 
BRANCH  18  19
ATOM     19  N   UNL A   1      29.547  31.455  21.681  1.00  0.00    -0.358 N 
ATOM     20  H   UNL A   1      28.679  31.917  21.949  1.00  0.00     0.344 HD
ATOM     21  H   UNL A   1      29.729  31.619  20.690  1.00  0.00     0.344 HD
ATOM     22  H   UNL A   1      30.318  31.831  22.234  1.00  0.00     0.344 HD
ENDBRANCH  18  19
ENDBRANCH  17  18
ENDBRANCH  15  17
ENDBRANCH  14  15
ENDBRANCH  13  14
ENDBRANCH  10  13
ENDBRANCH   8   9
ENDBRANCH   1   3
BRANCH   1  23
ATOM     23  O   UNL A   1      35.599  22.269  23.802  1.00  0.00    -0.458 OA
BRANCH  23  24
ATOM     24  C   UNL A   1      36.651  23.009  24.441  1.00  0.00     0.275 C 
BRANCH  24  25
ATOM     25  C   UNL A   1      37.576  22.076  25.204  1.00  0.00     0.275 C 
BRANCH  25  26
ATOM     26  O   UNL A   1      38.240  22.787  26.244  1.00  0.00    -0.458 OA
BRANCH  26  27
ATOM     27  C   UNL A   1      39.487  22.361  26.538  1.00  0.00     0.338 C 
ATOM     28  O   UNL A   1      39.834  21.225  26.817  1.00  0.00    -0.246 OA
BRANCH  27  29
ATOM     29  C   UNL A   1      40.347  23.528  26.703  1.00  0.00     0.060 A 
ATOM     30  C   UNL A   1      41.384  23.429  27.636  1.00  0.00     0.016 A 
ATOM     31  C   UNL A   1      39.861  24.756  26.234  1.00  0.00     0.016 A 
ATOM     32  C   UNL A   1      41.790  24.578  28.271  1.00  0.00     0.010 A 
ATOM     33  C   UNL A   1      40.245  25.891  26.884  1.00  0.00     0.010 A 
ATOM     34  C   UNL A   1      41.133  25.767  27.951  1.00  0.00    -0.014 A 
BRANCH  34  35
ATOM     35  C   UNL A   1      41.430  26.950  28.719  1.00  0.00     0.031 A 
ATOM     36  C   UNL A   1      42.679  27.617  28.273  1.00  0.00     0.074 A 
ATOM     37  C   UNL A   1      40.510  27.418  29.586  1.00  0.00     0.049 A 
ATOM     38  N   UNL A   1      43.720  27.916  28.973  1.00  0.00    -0.248 NA
ATOM     39  C   UNL A   1      42.865  27.813  26.819  1.00  0.00     0.031 C 
ATOM     40  C   UNL A   1      39.138  26.935  29.801  1.00  0.00     0.029 A 
ATOM     41  N   UNL A   1      40.537  28.549  30.328  1.00  0.00    -0.354 N 
ATOM     42  C   UNL A   1      44.612  28.519  28.089  1.00  0.00     0.074 A 
ATOM     43  C   UNL A   1      44.116  28.262  26.765  1.00  0.00     0.031 C 
ATOM     44  C   UNL A   1      38.402  27.929  30.350  1.00  0.00     0.029 A 
ATOM     45  C   UNL A   1      39.278  29.054  30.629  1.00  0.00     0.049 A 
ATOM     46  H   UNL A   1      41.372  28.974  30.628  1.00  0.00     0.167 HD
ATOM     47  C   UNL A   1      45.565  29.390  28.519  1.00  0.00     0.031 A 
ATOM     48  C   UNL A   1      38.987  30.346  30.941  1.00  0.00     0.031 A 
ATOM     49  C   UNL A   1      45.761  29.288  29.939  1.00  0.00     0.049 A 
ATOM     50  C   UNL A   1      40.282  31.000  31.293  1.00  0.00     0.074 A 
ATOM     51  C   UNL A   1      46.197  28.279  30.774  1.00  0.00     0.029 A 
ATOM     52  N   UNL A   1      45.083  30.186  30.733  1.00  0.00    -0.354 N 
ATOM     53  N   UNL A   1      41.004  30.647  32.323  1.00  0.00    -0.248 NA
ATOM     54  C   UNL A   1      41.019  31.663  30.222  1.00  0.00     0.031 C 
ATOM     55  C   UNL A   1      45.356  28.370  31.918  1.00  0.00     0.029 A 
ATOM     56  C   UNL A   1      44.514  29.474  31.758  1.00  0.00     0.049 A 
ATOM     57  H   UNL A   1      45.019  31.158  30.590  1.00  0.00     0.167 HD
ATOM     58  C   UNL A   1      42.318  30.656  31.868  1.00  0.00     0.074 A 
ATOM     59  C   UNL A   1      42.270  31.363  30.586  1.00  0.00     0.031 C 
ATOM     60  C   UNL A   1      43.269  29.833  32.404  1.00  0.00     0.031 A 
BRANCH  47  61
ATOM     61  C   UNL A   1      45.999  30.601  27.735  1.00  0.00    -0.014 A 
ATOM     62  C   UNL A   1      47.343  30.676  27.319  1.00  0.00     0.010 A 
ATOM     63  C   UNL A   1      45.235  31.785  27.655  1.00  0.00     0.010 A 
ATOM     64  C   UNL A   1      47.921  31.898  26.957  1.00  0.00     0.020 A 
ATOM     65  C   UNL A   1      45.790  32.999  27.255  1.00  0.00     0.020 A 
ATOM     66  C   UNL A   1      47.145  33.056  26.954  1.00  0.00     0.054 A 
BRANCH  66  67
ATOM     67  S   UNL A   1      47.938  34.650  26.644  1.00  0.00     0.124 S 
ATOM     68  O   UNL A   1      47.837  34.756  25.192  1.00  0.00    -0.237 OA
ATOM     69  O   UNL A   1      47.096  35.567  27.408  1.00  0.00    -0.237 OA
ATOM     70  O   UNL A   1      49.290  34.468  27.168  1.00  0.00    -0.744 OA
ENDBRANCH  66  67
ENDBRANCH  47  61
BRANCH  48  71
ATOM     71  C   UNL A   1      37.769  31.098  30.523  1.00  0.00    -0.014 A 
ATOM     72  C   UNL A   1      36.637  31.204  31.352  1.00  0.00     0.010 A 
ATOM     73  C   UNL A   1      37.806  31.926  29.378  1.00  0.00     0.010 A 
ATOM     74  C   UNL A   1      35.608  32.126  31.066  1.00  0.00     0.020 A 
ATOM     75  C   UNL A   1      36.785  32.837  29.081  1.00  0.00     0.020 A 
ATOM     76  C   UNL A   1      35.697  32.948  29.939  1.00  0.00     0.054 A 
BRANCH  76  77
ATOM     77  S   UNL A   1      34.452  34.244  29.656  1.00  0.00     0.124 S 
ATOM     78  O   UNL A   1      35.073  35.051  28.610  1.00  0.00    -0.237 OA
ATOM     79  O   UNL A   1      33.279  33.476  29.250  1.00  0.00    -0.237 OA
ATOM     80  O   UNL A   1      34.336  34.901  30.958  1.00  0.00    -0.744 OA
ENDBRANCH  76  77
ENDBRANCH  48  71
BRANCH  60  81
ATOM     81  C   UNL A   1      42.936  29.039  33.647  1.00  0.00    -0.014 A 
ATOM     82  C   UNL A   1      42.075  27.923  33.655  1.00  0.00     0.010 A 
ATOM     83  C   UNL A   1      43.707  29.296  34.793  1.00  0.00     0.010 A 
ATOM     84  C   UNL A   1      41.985  27.094  34.785  1.00  0.00     0.020 A 
ATOM     85  C   UNL A   1      43.636  28.466  35.913  1.00  0.00     0.020 A 
ATOM     86  C   UNL A   1      42.770  27.372  35.907  1.00  0.00     0.054 A 
BRANCH  86  87
ATOM     87  S   UNL A   1      42.708  26.264  37.344  1.00  0.00     0.124 S 
ATOM     88  O   UNL A   1      41.319  26.384  37.776  1.00  0.00    -0.237 OA
ATOM     89  O   UNL A   1      43.080  24.970  36.775  1.00  0.00    -0.237 OA
ATOM     90  O   UNL A   1      43.694  26.831  38.264  1.00  0.00    -0.744 OA
ENDBRANCH  86  87
ENDBRANCH  60  81
ENDBRANCH  34  35
ENDBRANCH  27  29
ENDBRANCH  26  27
ENDBRANCH  25  26
ENDBRANCH  24  25
ENDBRANCH  23  24
ENDBRANCH   1  23
TORSDOF 21
ENDMDL
MODEL 3
REMARK VINA RESULT:      -9.6      5.290     11.643
REMARK SMILES Cc1nsc(NC(=O)CC[C@H](C)CC[NH3+])c1C(=O)OCCOC(=O)c1ccc(-c2c3nc(c(-c4ccc(S(=O)(=O)[O-])cc4)c4ccc([nH]4)c(-c4ccc(S(=O)(=O)[O-])cc4)c4nc(c(-c5ccc(S(=O)(=O)[O-])cc5)c5ccc2[nH]5)C=C4)C=C3)cc1
REMARK SMILES IDX 17 1 18 2 16 3 1 4 2 5 3 6 4 7 5 8 6 9 7 10 8 12 9 13 10 14
REMARK SMILES IDX 11 15 12 16 13 17 14 18 15 19 19 23 20 24 21 25 22 26 23 27
REMARK SMILES IDX 24 28 25 29 26 30 84 31 27 32 83 33 28 34 29 35 30 36 77 37
REMARK SMILES IDX 31 38 82 39 76 40 78 41 32 42 81 43 75 44 74 45 33 47 63 48
REMARK SMILES IDX 44 49 62 50 45 51 48 52 61 53 79 54 46 55 47 56 60 58 80 59
REMARK SMILES IDX 49 60 34 61 35 62 43 63 36 64 42 65 37 66 38 67 39 68 40 69
REMARK SMILES IDX 41 70 64 71 65 72 73 73 66 74 72 75 67 76 68 77 69 78 70 79
REMARK SMILES IDX 71 80 50 81 51 82 59 83 52 84 58 85 53 86 54 87 55 88 56 89
REMARK SMILES IDX 57 90
REMARK H PARENT 6 11 15 20 15 21 15 22 78 46 48 57
REMARK Flexibility Score: inf
ROOT
ATOM      1  C   UNL A   1      34.506  34.057  31.596  1.00  0.00     0.343 C 
ATOM      2  O   UNL A   1      34.000  32.968  31.863  1.00  0.00    -0.246 OA
ENDROOT
BRANCH   1   3
ATOM      3  C   UNL A   1      33.789  35.072  30.853  1.00  0.00     0.117 A 
ATOM      4  C   UNL A   1      32.911  36.614  32.799  1.00  0.00     0.069 C 
ATOM      5  C   UNL A   1      33.189  36.280  31.369  1.00  0.00     0.068 A 
ATOM      6  N   UNL A   1      32.884  37.183  30.437  1.00  0.00    -0.195 NA
ATOM      7  S   UNL A   1      33.181  36.498  28.960  1.00  0.00    -0.017 S 
ATOM      8  C   UNL A   1      33.468  34.934  29.497  1.00  0.00     0.130 A 
BRANCH   8   9
ATOM      9  N   UNL A   1      33.523  33.759  28.764  1.00  0.00    -0.316 N 
ATOM     10  C   UNL A   1      34.307  32.824  28.194  1.00  0.00     0.225 C 
ATOM     11  H   UNL A   1      32.591  33.497  28.581  1.00  0.00     0.170 HD
ATOM     12  O   UNL A   1      33.594  31.932  27.680  1.00  0.00    -0.275 OA
BRANCH  10  13
ATOM     13  C   UNL A   1      35.815  32.548  28.081  1.00  0.00     0.101 C 
BRANCH  13  14
ATOM     14  C   UNL A   1      36.568  31.208  28.091  1.00  0.00     0.013 C 
BRANCH  14  15
ATOM     15  C   UNL A   1      37.241  30.789  29.406  1.00  0.00    -0.008 C 
ATOM     16  C   UNL A   1      36.373  29.690  30.020  1.00  0.00     0.008 C 
BRANCH  15  17
ATOM     17  C   UNL A   1      37.674  32.127  30.060  1.00  0.00     0.064 C 
BRANCH  17  18
ATOM     18  C   UNL A   1      38.274  33.340  29.360  1.00  0.00     0.259 C 
BRANCH  18  19
ATOM     19  N   UNL A   1      37.948  34.642  29.907  1.00  0.00    -0.358 N 
ATOM     20  H   UNL A   1      37.500  34.527  30.815  1.00  0.00     0.344 HD
ATOM     21  H   UNL A   1      37.314  35.129  29.273  1.00  0.00     0.344 HD
ATOM     22  H   UNL A   1      38.804  35.188  30.018  1.00  0.00     0.344 HD
ENDBRANCH  18  19
ENDBRANCH  17  18
ENDBRANCH  15  17
ENDBRANCH  14  15
ENDBRANCH  13  14
ENDBRANCH  10  13
ENDBRANCH   8   9
ENDBRANCH   1   3
BRANCH   1  23
ATOM     23  O   UNL A   1      35.761  34.432  31.967  1.00  0.00    -0.458 OA
BRANCH  23  24
ATOM     24  C   UNL A   1      35.980  34.581  33.378  1.00  0.00     0.275 C 
BRANCH  24  25
ATOM     25  C   UNL A   1      36.262  33.234  34.022  1.00  0.00     0.275 C 
BRANCH  25  26
ATOM     26  O   UNL A   1      37.455  32.673  33.483  1.00  0.00    -0.458 OA
BRANCH  26  27
ATOM     27  C   UNL A   1      37.881  31.534  34.071  1.00  0.00     0.338 C 
ATOM     28  O   UNL A   1      37.735  31.202  35.235  1.00  0.00    -0.246 OA
BRANCH  27  29
ATOM     29  C   UNL A   1      38.764  30.838  33.141  1.00  0.00     0.060 A 
ATOM     30  C   UNL A   1      38.541  29.470  32.953  1.00  0.00     0.016 A 
ATOM     31  C   UNL A   1      39.976  31.462  32.816  1.00  0.00     0.016 A 
ATOM     32  C   UNL A   1      39.621  28.679  32.640  1.00  0.00     0.010 A 
ATOM     33  C   UNL A   1      41.052  30.673  32.532  1.00  0.00     0.010 A 
ATOM     34  C   UNL A   1      40.871  29.292  32.541  1.00  0.00    -0.014 A 
BRANCH  34  35
ATOM     35  C   UNL A   1      42.037  28.460  32.376  1.00  0.00     0.031 A 
ATOM     36  C   UNL A   1      42.539  27.925  33.667  1.00  0.00     0.074 A 
ATOM     37  C   UNL A   1      42.423  28.111  31.133  1.00  0.00     0.049 A 
ATOM     38  N   UNL A   1      43.720  28.035  34.173  1.00  0.00    -0.248 NA
ATOM     39  C   UNL A   1      41.546  27.347  34.597  1.00  0.00     0.031 C 
ATOM     40  C   UNL A   1      41.740  28.384  29.860  1.00  0.00     0.029 A 
ATOM     41  N   UNL A   1      43.415  27.272  30.753  1.00  0.00    -0.354 N 
ATOM     42  C   UNL A   1      43.674  27.368  35.395  1.00  0.00     0.074 A 
ATOM     43  C   UNL A   1      42.286  27.132  35.682  1.00  0.00     0.031 C 
ATOM     44  C   UNL A   1      42.147  27.481  28.939  1.00  0.00     0.029 A 
ATOM     45  C   UNL A   1      43.195  26.662  29.524  1.00  0.00     0.049 A 
ATOM     46  H   UNL A   1      44.219  27.109  31.298  1.00  0.00     0.167 HD
ATOM     47  C   UNL A   1      44.793  26.846  35.966  1.00  0.00     0.031 A 
ATOM     48  C   UNL A   1      43.740  25.488  29.104  1.00  0.00     0.031 A 
ATOM     49  C   UNL A   1      45.983  27.394  35.377  1.00  0.00     0.049 A 
ATOM     50  C   UNL A   1      44.894  25.209  30.008  1.00  0.00     0.074 A 
ATOM     51  C   UNL A   1      46.518  28.665  35.308  1.00  0.00     0.029 A 
ATOM     52  N   UNL A   1      46.581  26.663  34.375  1.00  0.00    -0.354 N 
ATOM     53  N   UNL A   1      45.954  25.971  30.073  1.00  0.00    -0.248 NA
ATOM     54  C   UNL A   1      44.643  24.402  31.198  1.00  0.00     0.031 C 
ATOM     55  C   UNL A   1      47.034  28.766  33.986  1.00  0.00     0.029 A 
ATOM     56  C   UNL A   1      46.864  27.532  33.352  1.00  0.00     0.049 A 
ATOM     57  H   UNL A   1      46.770  25.697  34.390  1.00  0.00     0.167 HD
ATOM     58  C   UNL A   1      46.255  26.063  31.427  1.00  0.00     0.074 A 
ATOM     59  C   UNL A   1      45.457  25.014  32.065  1.00  0.00     0.031 C 
ATOM     60  C   UNL A   1      46.875  27.162  31.952  1.00  0.00     0.031 A 
BRANCH  47  61
ATOM     61  C   UNL A   1      44.804  25.556  36.744  1.00  0.00    -0.014 A 
ATOM     62  C   UNL A   1      45.257  25.588  38.078  1.00  0.00     0.010 A 
ATOM     63  C   UNL A   1      44.681  24.287  36.138  1.00  0.00     0.010 A 
ATOM     64  C   UNL A   1      45.678  24.423  38.728  1.00  0.00     0.020 A 
ATOM     65  C   UNL A   1      45.058  23.115  36.792  1.00  0.00     0.020 A 
ATOM     66  C   UNL A   1      45.600  23.196  38.068  1.00  0.00     0.054 A 
BRANCH  66  67
ATOM     67  S   UNL A   1      46.295  21.725  38.854  1.00  0.00     0.124 S 
ATOM     68  O   UNL A   1      45.519  21.651  40.088  1.00  0.00    -0.237 OA
ATOM     69  O   UNL A   1      46.017  20.687  37.865  1.00  0.00    -0.237 OA
ATOM     70  O   UNL A   1      47.707  22.061  39.020  1.00  0.00    -0.744 OA
ENDBRANCH  66  67
ENDBRANCH  47  61
BRANCH  48  71
ATOM     71  C   UNL A   1      43.055  24.442  28.291  1.00  0.00    -0.014 A 
ATOM     72  C   UNL A   1      43.772  23.516  27.512  1.00  0.00     0.010 A 
ATOM     73  C   UNL A   1      41.674  24.201  28.467  1.00  0.00     0.010 A 
ATOM     74  C   UNL A   1      43.140  22.379  26.965  1.00  0.00     0.020 A 
ATOM     75  C   UNL A   1      41.035  23.081  27.921  1.00  0.00     0.020 A 
ATOM     76  C   UNL A   1      41.776  22.162  27.187  1.00  0.00     0.054 A 
BRANCH  76  77
ATOM     77  S   UNL A   1      40.996  20.620  26.618  1.00  0.00     0.124 S 
ATOM     78  O   UNL A   1      39.673  21.075  26.202  1.00  0.00    -0.237 OA
ATOM     79  O   UNL A   1      41.885  20.190  25.543  1.00  0.00    -0.237 OA
ATOM     80  O   UNL A   1      41.011  19.767  27.807  1.00  0.00    -0.744 OA
ENDBRANCH  76  77
ENDBRANCH  48  71
BRANCH  60  81
ATOM     81  C   UNL A   1      47.421  28.214  31.012  1.00  0.00    -0.014 A 
ATOM     82  C   UNL A   1      48.628  28.073  30.296  1.00  0.00     0.010 A 
ATOM     83  C   UNL A   1      46.562  29.272  30.671  1.00  0.00     0.010 A 
ATOM     84  C   UNL A   1      48.965  28.976  29.274  1.00  0.00     0.020 A 
ATOM     85  C   UNL A   1      46.882  30.161  29.644  1.00  0.00     0.020 A 
ATOM     86  C   UNL A   1      48.085  30.013  28.953  1.00  0.00     0.054 A 
BRANCH  86  87
ATOM     87  S   UNL A   1      48.485  31.139  27.587  1.00  0.00     0.124 S 
ATOM     88  O   UNL A   1      49.099  30.245  26.610  1.00  0.00    -0.237 OA
ATOM     89  O   UNL A   1      47.178  31.677  27.214  1.00  0.00    -0.237 OA
ATOM     90  O   UNL A   1      49.394  32.112  28.192  1.00  0.00    -0.744 OA
ENDBRANCH  86  87
ENDBRANCH  60  81
ENDBRANCH  34  35
ENDBRANCH  27  29
ENDBRANCH  26  27
ENDBRANCH  25  26
ENDBRANCH  24  25
ENDBRANCH  23  24
ENDBRANCH   1  23
TORSDOF 21
ENDMDL
