MODEL 1
REMARK VINA RESULT:      -9.4      0.000      0.000
REMARK SMILES CC[C@@H](C)Nc1cc(OC)c(C(=O)OCCOC(=O)c2ccc(-c3c4nc(c(-c5ccc(S(=O)(=O)[O-])cc5)c5ccc([nH]5)c(-c5ccc(S(=O)(=O)[O-])cc5)c5nc(c(-c6ccc(S(=O)(=O)[O-])cc6)c6ccc3[nH]6)C=C5)C=C4)cc2)cc1Cl
REMARK SMILES IDX 15 1 14 2 12 3 13 4 11 5 6 6 7 7 81 8 8 9 80 10 82 11 5 12
REMARK SMILES IDX 3 14 4 15 2 16 1 17 9 18 10 19 16 20 17 21 18 22 19 23 20 24
REMARK SMILES IDX 21 25 79 26 22 27 78 28 23 29 24 30 25 31 72 32 26 33 77 34
REMARK SMILES IDX 71 35 73 36 27 37 76 38 70 39 69 40 28 42 58 43 39 44 57 45
REMARK SMILES IDX 40 46 43 47 56 48 74 49 41 50 42 51 55 53 75 54 44 55 29 56
REMARK SMILES IDX 30 57 38 58 31 59 37 60 32 61 33 62 34 63 35 64 36 65 59 66
REMARK SMILES IDX 60 67 68 68 61 69 67 70 62 71 63 72 64 73 65 74 66 75 45 76
REMARK SMILES IDX 46 77 54 78 47 79 53 80 48 81 49 82 50 83 51 84 52 85
REMARK H PARENT 5 13 73 41 43 52
REMARK Flexibility Score: inf
ROOT
ATOM      1  C   UNL A   1      33.747  28.004  25.846  1.00  0.00     0.275 C 
ENDROOT
BRANCH   1   2
ATOM      2  O   UNL A   1      32.803  27.014  26.282  1.00  0.00    -0.458 OA
BRANCH   2   3
ATOM      3  C   UNL A   1      32.240  26.251  25.317  1.00  0.00     0.342 C 
ATOM      4  O   UNL A   1      31.236  26.496  24.676  1.00  0.00    -0.246 OA
BRANCH   3   5
ATOM      5  C   UNL A   1      33.091  25.062  25.154  1.00  0.00     0.103 A 
ATOM      6  C   UNL A   1      34.715  22.738  25.124  1.00  0.00     0.057 A 
ATOM      7  C   UNL A   1      34.487  23.504  23.967  1.00  0.00     0.074 A 
ATOM      8  C   UNL A   1      34.092  23.163  26.307  1.00  0.00     0.065 A 
ATOM      9  C   UNL A   1      33.685  24.663  23.955  1.00  0.00     0.135 A 
ATOM     10  C   UNL A   1      33.298  24.312  26.324  1.00  0.00     0.042 A 
ATOM     11  Cl  UNL A   1      34.320  22.359  27.824  1.00  0.00    -0.082 Cl
BRANCH   6  12
ATOM     12  N   UNL A   1      35.481  21.579  24.999  1.00  0.00    -0.381 N 
ATOM     13  H   UNL A   1      35.084  20.704  25.210  1.00  0.00     0.160 HD
BRANCH  12  14
ATOM     14  C   UNL A   1      36.874  21.660  24.556  1.00  0.00     0.075 C 
ATOM     15  C   UNL A   1      37.527  20.291  24.742  1.00  0.00     0.031 C 
BRANCH  14  16
ATOM     16  C   UNL A   1      37.589  22.744  25.387  1.00  0.00     0.021 C 
ATOM     17  C   UNL A   1      38.837  22.233  26.092  1.00  0.00     0.006 C 
ENDBRANCH  14  16
ENDBRANCH  12  14
ENDBRANCH   6  12
BRANCH   9  18
ATOM     18  O   UNL A   1      33.653  25.229  22.713  1.00  0.00    -0.496 OA
ATOM     19  C   UNL A   1      33.094  24.545  21.604  1.00  0.00     0.278 C 
ENDBRANCH   9  18
ENDBRANCH   3   5
ENDBRANCH   2   3
ENDBRANCH   1   2
BRANCH   1  20
ATOM     20  C   UNL A   1      33.256  29.382  26.294  1.00  0.00     0.275 C 
BRANCH  20  21
ATOM     21  O   UNL A   1      33.602  29.611  27.675  1.00  0.00    -0.458 OA
BRANCH  21  22
ATOM     22  C   UNL A   1      34.427  30.667  27.900  1.00  0.00     0.338 C 
ATOM     23  O   UNL A   1      34.106  31.840  27.989  1.00  0.00    -0.246 OA
BRANCH  22  24
ATOM     24  C   UNL A   1      35.799  30.177  28.157  1.00  0.00     0.060 A 
ATOM     25  C   UNL A   1      36.096  29.699  29.438  1.00  0.00     0.016 A 
ATOM     26  C   UNL A   1      36.784  30.180  27.164  1.00  0.00     0.016 A 
ATOM     27  C   UNL A   1      37.369  29.202  29.723  1.00  0.00     0.010 A 
ATOM     28  C   UNL A   1      38.067  29.707  27.457  1.00  0.00     0.010 A 
ATOM     29  C   UNL A   1      38.365  29.219  28.739  1.00  0.00    -0.014 A 
BRANCH  29  30
ATOM     30  C   UNL A   1      39.745  28.810  29.088  1.00  0.00     0.031 A 
ATOM     31  C   UNL A   1      40.625  29.774  29.832  1.00  0.00     0.074 A 
ATOM     32  C   UNL A   1      40.193  27.580  28.775  1.00  0.00     0.049 A 
ATOM     33  N   UNL A   1      41.845  29.607  30.272  1.00  0.00    -0.248 NA
ATOM     34  C   UNL A   1      40.050  31.096  30.129  1.00  0.00     0.031 C 
ATOM     35  C   UNL A   1      39.413  26.544  28.099  1.00  0.00     0.029 A 
ATOM     36  N   UNL A   1      41.413  26.993  28.993  1.00  0.00    -0.354 N 
ATOM     37  C   UNL A   1      42.176  30.790  30.920  1.00  0.00     0.074 A 
ATOM     38  C   UNL A   1      41.042  31.680  30.787  1.00  0.00     0.031 C 
ATOM     39  C   UNL A   1      40.177  25.447  27.954  1.00  0.00     0.029 A 
ATOM     40  C   UNL A   1      41.505  25.711  28.505  1.00  0.00     0.049 A 
ATOM     41  H   UNL A   1      42.155  27.447  29.454  1.00  0.00     0.167 HD
ATOM     42  C   UNL A   1      43.321  31.106  31.572  1.00  0.00     0.031 A 
ATOM     43  C   UNL A   1      42.546  24.853  28.497  1.00  0.00     0.031 A 
ATOM     44  C   UNL A   1      44.468  30.244  31.651  1.00  0.00     0.049 A 
ATOM     45  C   UNL A   1      43.849  25.275  29.130  1.00  0.00     0.074 A 
ATOM     46  C   UNL A   1      45.689  30.487  32.256  1.00  0.00     0.029 A 
ATOM     47  N   UNL A   1      44.543  28.976  31.093  1.00  0.00    -0.354 N 
ATOM     48  N   UNL A   1      44.136  26.388  29.764  1.00  0.00    -0.248 NA
ATOM     49  C   UNL A   1      44.964  24.322  29.052  1.00  0.00     0.031 C 
ATOM     50  C   UNL A   1      46.520  29.388  32.017  1.00  0.00     0.029 A 
ATOM     51  C   UNL A   1      45.798  28.435  31.316  1.00  0.00     0.049 A 
ATOM     52  H   UNL A   1      43.812  28.527  30.610  1.00  0.00     0.167 HD
ATOM     53  C   UNL A   1      45.455  26.255  30.185  1.00  0.00     0.074 A 
ATOM     54  C   UNL A   1      45.904  24.950  29.746  1.00  0.00     0.031 C 
ATOM     55  C   UNL A   1      46.225  27.131  30.876  1.00  0.00     0.031 A 
BRANCH  42  56
ATOM     56  C   UNL A   1      43.391  32.461  32.219  1.00  0.00    -0.014 A 
ATOM     57  C   UNL A   1      43.062  32.630  33.576  1.00  0.00     0.010 A 
ATOM     58  C   UNL A   1      43.815  33.575  31.471  1.00  0.00     0.010 A 
ATOM     59  C   UNL A   1      43.122  33.897  34.165  1.00  0.00     0.020 A 
ATOM     60  C   UNL A   1      43.897  34.838  32.062  1.00  0.00     0.020 A 
ATOM     61  C   UNL A   1      43.534  34.994  33.402  1.00  0.00     0.054 A 
BRANCH  61  62
ATOM     62  S   UNL A   1      43.612  36.624  34.193  1.00  0.00     0.124 S 
ATOM     63  O   UNL A   1      44.412  36.343  35.384  1.00  0.00    -0.237 OA
ATOM     64  O   UNL A   1      44.267  37.443  33.177  1.00  0.00    -0.237 OA
ATOM     65  O   UNL A   1      42.212  36.954  34.449  1.00  0.00    -0.744 OA
ENDBRANCH  61  62
ENDBRANCH  42  56
BRANCH  43  66
ATOM     66  C   UNL A   1      42.418  23.517  27.851  1.00  0.00    -0.014 A 
ATOM     67  C   UNL A   1      41.940  22.410  28.575  1.00  0.00     0.010 A 
ATOM     68  C   UNL A   1      42.816  23.337  26.513  1.00  0.00     0.010 A 
ATOM     69  C   UNL A   1      41.892  21.142  27.983  1.00  0.00     0.020 A 
ATOM     70  C   UNL A   1      42.743  22.078  25.910  1.00  0.00     0.020 A 
ATOM     71  C   UNL A   1      42.299  20.985  26.655  1.00  0.00     0.054 A 
BRANCH  71  72
ATOM     72  S   UNL A   1      42.217  19.336  25.901  1.00  0.00     0.124 S 
ATOM     73  O   UNL A   1      42.766  18.492  26.957  1.00  0.00    -0.237 OA
ATOM     74  O   UNL A   1      40.788  19.177  25.641  1.00  0.00    -0.237 OA
ATOM     75  O   UNL A   1      43.049  19.466  24.707  1.00  0.00    -0.744 OA
ENDBRANCH  71  72
ENDBRANCH  43  66
BRANCH  55  76
ATOM     76  C   UNL A   1      47.622  26.698  31.235  1.00  0.00    -0.014 A 
ATOM     77  C   UNL A   1      47.868  25.880  32.352  1.00  0.00     0.010 A 
ATOM     78  C   UNL A   1      48.696  27.063  30.403  1.00  0.00     0.010 A 
ATOM     79  C   UNL A   1      49.168  25.458  32.646  1.00  0.00     0.020 A 
ATOM     80  C   UNL A   1      49.993  26.622  30.678  1.00  0.00     0.020 A 
ATOM     81  C   UNL A   1      50.222  25.832  31.806  1.00  0.00     0.054 A 
BRANCH  81  82
ATOM     82  S   UNL A   1      51.892  25.228  32.178  1.00  0.00     0.124 S 
ATOM     83  O   UNL A   1      51.664  23.798  32.365  1.00  0.00    -0.237 OA
ATOM     84  O   UNL A   1      52.641  25.593  30.977  1.00  0.00    -0.237 OA
ATOM     85  O   UNL A   1      52.264  25.963  33.384  1.00  0.00    -0.744 OA
ENDBRANCH  81  82
ENDBRANCH  55  76
ENDBRANCH  29  30
ENDBRANCH  22  24
ENDBRANCH  21  22
ENDBRANCH  20  21
ENDBRANCH   1  20
TORSDOF 18
ENDMDL
MODEL 2
REMARK VINA RESULT:      -8.9      2.899      9.508
REMARK SMILES CC[C@@H](C)Nc1cc(OC)c(C(=O)OCCOC(=O)c2ccc(-c3c4nc(c(-c5ccc(S(=O)(=O)[O-])cc5)c5ccc([nH]5)c(-c5ccc(S(=O)(=O)[O-])cc5)c5nc(c(-c6ccc(S(=O)(=O)[O-])cc6)c6ccc3[nH]6)C=C5)C=C4)cc2)cc1Cl
REMARK SMILES IDX 15 1 14 2 12 3 13 4 11 5 6 6 7 7 81 8 8 9 80 10 82 11 5 12
REMARK SMILES IDX 3 14 4 15 2 16 1 17 9 18 10 19 16 20 17 21 18 22 19 23 20 24
REMARK SMILES IDX 21 25 79 26 22 27 78 28 23 29 24 30 25 31 72 32 26 33 77 34
REMARK SMILES IDX 71 35 73 36 27 37 76 38 70 39 69 40 28 42 58 43 39 44 57 45
REMARK SMILES IDX 40 46 43 47 56 48 74 49 41 50 42 51 55 53 75 54 44 55 29 56
REMARK SMILES IDX 30 57 38 58 31 59 37 60 32 61 33 62 34 63 35 64 36 65 59 66
REMARK SMILES IDX 60 67 68 68 61 69 67 70 62 71 63 72 64 73 65 74 66 75 45 76
REMARK SMILES IDX 46 77 54 78 47 79 53 80 48 81 49 82 50 83 51 84 52 85
REMARK H PARENT 5 13 73 41 43 52
REMARK Flexibility Score: inf
ROOT
ATOM      1  C   UNL A   1      35.611  22.126  24.941  1.00  0.00     0.275 C 
ENDROOT
BRANCH   1   2
ATOM      2  O   UNL A   1      34.652  23.175  24.739  1.00  0.00    -0.458 OA
BRANCH   2   3
ATOM      3  C   UNL A   1      34.023  23.638  25.843  1.00  0.00     0.342 C 
ATOM      4  O   UNL A   1      34.216  23.303  26.996  1.00  0.00    -0.246 OA
BRANCH   3   5
ATOM      5  C   UNL A   1      33.065  24.662  25.398  1.00  0.00     0.103 A 
ATOM      6  C   UNL A   1      31.418  26.719  24.353  1.00  0.00     0.057 A 
ATOM      7  C   UNL A   1      31.036  25.952  25.467  1.00  0.00     0.074 A 
ATOM      8  C   UNL A   1      32.654  26.419  23.760  1.00  0.00     0.065 A 
ATOM      9  C   UNL A   1      31.836  24.924  26.007  1.00  0.00     0.135 A 
ATOM     10  C   UNL A   1      33.469  25.411  24.280  1.00  0.00     0.042 A 
ATOM     11  Cl  UNL A   1      33.287  27.310  22.418  1.00  0.00    -0.082 Cl
BRANCH   6  12
ATOM     12  N   UNL A   1      30.516  27.670  23.876  1.00  0.00    -0.381 N 
ATOM     13  H   UNL A   1      29.627  27.389  23.562  1.00  0.00     0.160 HD
BRANCH  12  14
ATOM     14  C   UNL A   1      30.888  29.086  23.840  1.00  0.00     0.075 C 
ATOM     15  C   UNL A   1      31.456  29.478  25.204  1.00  0.00     0.031 C 
BRANCH  14  16
ATOM     16  C   UNL A   1      29.633  29.911  23.494  1.00  0.00     0.021 C 
ATOM     17  C   UNL A   1      29.517  30.233  22.011  1.00  0.00     0.006 C 
ENDBRANCH  14  16
ENDBRANCH  12  14
ENDBRANCH   6  12
BRANCH   9  18
ATOM     18  O   UNL A   1      31.244  24.359  27.099  1.00  0.00    -0.496 OA
ATOM     19  C   UNL A   1      30.407  23.221  26.979  1.00  0.00     0.278 C 
ENDBRANCH   9  18
ENDBRANCH   3   5
ENDBRANCH   2   3
ENDBRANCH   1   2
BRANCH   1  20
ATOM     20  C   UNL A   1      36.986  22.625  24.492  1.00  0.00     0.275 C 
BRANCH  20  21
ATOM     21  O   UNL A   1      37.493  23.602  25.423  1.00  0.00    -0.458 OA
BRANCH  21  22
ATOM     22  C   UNL A   1      38.620  23.239  26.089  1.00  0.00     0.338 C 
ATOM     23  O   UNL A   1      39.167  22.150  26.062  1.00  0.00    -0.246 OA
BRANCH  22  24
ATOM     24  C   UNL A   1      39.190  24.419  26.777  1.00  0.00     0.060 A 
ATOM     25  C   UNL A   1      38.835  24.633  28.114  1.00  0.00     0.016 A 
ATOM     26  C   UNL A   1      40.060  25.303  26.132  1.00  0.00     0.016 A 
ATOM     27  C   UNL A   1      39.366  25.716  28.815  1.00  0.00     0.010 A 
ATOM     28  C   UNL A   1      40.570  26.405  26.827  1.00  0.00     0.010 A 
ATOM     29  C   UNL A   1      40.223  26.617  28.170  1.00  0.00    -0.014 A 
BRANCH  29  30
ATOM     30  C   UNL A   1      40.677  27.833  28.883  1.00  0.00     0.031 A 
ATOM     31  C   UNL A   1      42.078  27.883  29.423  1.00  0.00     0.074 A 
ATOM     32  C   UNL A   1      39.858  28.892  29.016  1.00  0.00     0.049 A 
ATOM     33  N   UNL A   1      42.692  28.859  30.038  1.00  0.00    -0.248 NA
ATOM     34  C   UNL A   1      42.900  26.676  29.232  1.00  0.00     0.031 C 
ATOM     35  C   UNL A   1      38.495  28.977  28.492  1.00  0.00     0.029 A 
ATOM     36  N   UNL A   1      40.058  30.103  29.629  1.00  0.00    -0.354 N 
ATOM     37  C   UNL A   1      43.978  28.399  30.285  1.00  0.00     0.074 A 
ATOM     38  C   UNL A   1      44.048  27.042  29.785  1.00  0.00     0.031 C 
ATOM     39  C   UNL A   1      37.979  30.178  28.809  1.00  0.00     0.029 A 
ATOM     40  C   UNL A   1      38.965  30.936  29.577  1.00  0.00     0.049 A 
ATOM     41  H   UNL A   1      40.904  30.353  30.066  1.00  0.00     0.167 HD
ATOM     42  C   UNL A   1      45.012  29.048  30.874  1.00  0.00     0.031 A 
ATOM     43  C   UNL A   1      38.780  32.166  30.098  1.00  0.00     0.031 A 
ATOM     44  C   UNL A   1      44.922  30.373  31.425  1.00  0.00     0.049 A 
ATOM     45  C   UNL A   1      39.912  32.822  30.850  1.00  0.00     0.074 A 
ATOM     46  C   UNL A   1      45.901  31.103  32.075  1.00  0.00     0.029 A 
ATOM     47  N   UNL A   1      43.781  31.161  31.405  1.00  0.00    -0.354 N 
ATOM     48  N   UNL A   1      41.133  32.383  31.051  1.00  0.00    -0.248 NA
ATOM     49  C   UNL A   1      39.643  34.141  31.438  1.00  0.00     0.031 C 
ATOM     50  C   UNL A   1      45.336  32.312  32.495  1.00  0.00     0.029 A 
ATOM     51  C   UNL A   1      44.023  32.360  32.054  1.00  0.00     0.049 A 
ATOM     52  H   UNL A   1      42.925  30.906  30.990  1.00  0.00     0.167 HD
ATOM     53  C   UNL A   1      41.784  33.385  31.762  1.00  0.00     0.074 A 
ATOM     54  C   UNL A   1      40.827  34.457  31.946  1.00  0.00     0.031 C 
ATOM     55  C   UNL A   1      43.059  33.418  32.222  1.00  0.00     0.031 A 
BRANCH  42  56
ATOM     56  C   UNL A   1      46.316  28.309  30.980  1.00  0.00    -0.014 A 
ATOM     57  C   UNL A   1      47.289  28.415  29.969  1.00  0.00     0.010 A 
ATOM     58  C   UNL A   1      46.587  27.521  32.113  1.00  0.00     0.010 A 
ATOM     59  C   UNL A   1      48.495  27.717  30.073  1.00  0.00     0.020 A 
ATOM     60  C   UNL A   1      47.800  26.838  32.231  1.00  0.00     0.020 A 
ATOM     61  C   UNL A   1      48.741  26.928  31.201  1.00  0.00     0.054 A 
BRANCH  61  62
ATOM     62  S   UNL A   1      50.318  26.039  31.316  1.00  0.00     0.124 S 
ATOM     63  O   UNL A   1      51.083  26.899  32.218  1.00  0.00    -0.237 OA
ATOM     64  O   UNL A   1      49.919  24.747  31.869  1.00  0.00    -0.237 OA
ATOM     65  O   UNL A   1      50.797  26.002  29.937  1.00  0.00    -0.744 OA
ENDBRANCH  61  62
ENDBRANCH  42  56
BRANCH  43  66
ATOM     66  C   UNL A   1      37.469  32.858  29.954  1.00  0.00    -0.014 A 
ATOM     67  C   UNL A   1      36.492  32.768  30.961  1.00  0.00     0.010 A 
ATOM     68  C   UNL A   1      37.175  33.580  28.782  1.00  0.00     0.010 A 
ATOM     69  C   UNL A   1      35.236  33.360  30.786  1.00  0.00     0.020 A 
ATOM     70  C   UNL A   1      35.932  34.196  28.616  1.00  0.00     0.020 A 
ATOM     71  C   UNL A   1      34.963  34.066  29.611  1.00  0.00     0.054 A 
BRANCH  71  72
ATOM     72  S   UNL A   1      33.333  34.838  29.408  1.00  0.00     0.124 S 
ATOM     73  O   UNL A   1      33.679  36.125  28.816  1.00  0.00    -0.237 OA
ATOM     74  O   UNL A   1      32.645  33.899  28.526  1.00  0.00    -0.237 OA
ATOM     75  O   UNL A   1      32.811  34.896  30.772  1.00  0.00    -0.744 OA
ENDBRANCH  71  72
ENDBRANCH  43  66
BRANCH  55  76
ATOM     76  C   UNL A   1      43.511  34.666  32.934  1.00  0.00    -0.014 A 
ATOM     77  C   UNL A   1      44.014  35.769  32.223  1.00  0.00     0.010 A 
ATOM     78  C   UNL A   1      43.369  34.756  34.331  1.00  0.00     0.010 A 
ATOM     79  C   UNL A   1      44.393  36.932  32.901  1.00  0.00     0.020 A 
ATOM     80  C   UNL A   1      43.721  35.925  35.009  1.00  0.00     0.020 A 
ATOM     81  C   UNL A   1      44.243  37.002  34.290  1.00  0.00     0.054 A 
BRANCH  81  82
ATOM     82  S   UNL A   1      44.691  38.541  35.141  1.00  0.00     0.124 S 
ATOM     83  O   UNL A   1      43.734  39.489  34.579  1.00  0.00    -0.237 OA
ATOM     84  O   UNL A   1      44.488  38.201  36.548  1.00  0.00    -0.237 OA
ATOM     85  O   UNL A   1      46.084  38.756  34.754  1.00  0.00    -0.744 OA
ENDBRANCH  81  82
ENDBRANCH  55  76
ENDBRANCH  29  30
ENDBRANCH  22  24
ENDBRANCH  21  22
ENDBRANCH  20  21
ENDBRANCH   1  20
TORSDOF 18
ENDMDL
MODEL 3
REMARK VINA RESULT:      -8.8      4.856      7.227
REMARK SMILES CC[C@@H](C)Nc1cc(OC)c(C(=O)OCCOC(=O)c2ccc(-c3c4nc(c(-c5ccc(S(=O)(=O)[O-])cc5)c5ccc([nH]5)c(-c5ccc(S(=O)(=O)[O-])cc5)c5nc(c(-c6ccc(S(=O)(=O)[O-])cc6)c6ccc3[nH]6)C=C5)C=C4)cc2)cc1Cl
REMARK SMILES IDX 15 1 14 2 12 3 13 4 11 5 6 6 7 7 81 8 8 9 80 10 82 11 5 12
REMARK SMILES IDX 3 14 4 15 2 16 1 17 9 18 10 19 16 20 17 21 18 22 19 23 20 24
REMARK SMILES IDX 21 25 79 26 22 27 78 28 23 29 24 30 25 31 72 32 26 33 77 34
REMARK SMILES IDX 71 35 73 36 27 37 76 38 70 39 69 40 28 42 58 43 39 44 57 45
REMARK SMILES IDX 40 46 43 47 56 48 74 49 41 50 42 51 55 53 75 54 44 55 29 56
REMARK SMILES IDX 30 57 38 58 31 59 37 60 32 61 33 62 34 63 35 64 36 65 59 66
REMARK SMILES IDX 60 67 68 68 61 69 67 70 62 71 63 72 64 73 65 74 66 75 45 76
REMARK SMILES IDX 46 77 54 78 47 79 53 80 48 81 49 82 50 83 51 84 52 85
REMARK H PARENT 5 13 73 41 43 52
REMARK Flexibility Score: inf
ROOT
ATOM      1  C   UNL A   1      34.342  31.523  27.854  1.00  0.00     0.275 C 
ENDROOT
BRANCH   1   2
ATOM      2  O   UNL A   1      35.424  32.435  27.609  1.00  0.00    -0.458 OA
BRANCH   2   3
ATOM      3  C   UNL A   1      35.387  33.608  28.280  1.00  0.00     0.342 C 
ATOM      4  O   UNL A   1      34.859  34.644  27.925  1.00  0.00    -0.246 OA
BRANCH   3   5
ATOM      5  C   UNL A   1      36.088  33.399  29.556  1.00  0.00     0.103 A 
ATOM      6  C   UNL A   1      37.669  32.927  31.862  1.00  0.00     0.057 A 
ATOM      7  C   UNL A   1      36.294  33.208  31.946  1.00  0.00     0.074 A 
ATOM      8  C   UNL A   1      38.242  32.900  30.581  1.00  0.00     0.065 A 
ATOM      9  C   UNL A   1      35.486  33.446  30.816  1.00  0.00     0.135 A 
ATOM     10  C   UNL A   1      37.462  33.125  29.445  1.00  0.00     0.042 A 
ATOM     11  Cl  UNL A   1      39.908  32.513  30.310  1.00  0.00    -0.082 Cl
BRANCH   6  12
ATOM     12  N   UNL A   1      38.376  32.764  33.053  1.00  0.00    -0.381 N 
ATOM     13  H   UNL A   1      38.794  31.898  33.261  1.00  0.00     0.160 HD
BRANCH  12  14
ATOM     14  C   UNL A   1      38.499  33.878  33.996  1.00  0.00     0.075 C 
ATOM     15  C   UNL A   1      39.723  34.710  33.613  1.00  0.00     0.031 C 
BRANCH  14  16
ATOM     16  C   UNL A   1      38.631  33.301  35.419  1.00  0.00     0.021 C 
ATOM     17  C   UNL A   1      37.363  33.451  36.247  1.00  0.00     0.006 C 
ENDBRANCH  14  16
ENDBRANCH  12  14
ENDBRANCH   6  12
BRANCH   9  18
ATOM     18  O   UNL A   1      34.188  33.666  31.174  1.00  0.00    -0.496 OA
ATOM     19  C   UNL A   1      33.668  34.979  31.301  1.00  0.00     0.278 C 
ENDBRANCH   9  18
ENDBRANCH   3   5
ENDBRANCH   2   3
ENDBRANCH   1   2
BRANCH   1  20
ATOM     20  C   UNL A   1      34.911  30.109  27.983  1.00  0.00     0.275 C 
BRANCH  20  21
ATOM     21  O   UNL A   1      36.348  30.134  27.856  1.00  0.00    -0.458 OA
BRANCH  21  22
ATOM     22  C   UNL A   1      37.034  29.670  28.933  1.00  0.00     0.338 C 
ATOM     23  O   UNL A   1      36.580  29.416  30.035  1.00  0.00    -0.246 OA
BRANCH  22  24
ATOM     24  C   UNL A   1      38.432  29.382  28.542  1.00  0.00     0.060 A 
ATOM     25  C   UNL A   1      39.365  29.156  29.560  1.00  0.00     0.016 A 
ATOM     26  C   UNL A   1      38.829  29.329  27.202  1.00  0.00     0.016 A 
ATOM     27  C   UNL A   1      40.690  28.856  29.242  1.00  0.00     0.010 A 
ATOM     28  C   UNL A   1      40.163  29.055  26.884  1.00  0.00     0.010 A 
ATOM     29  C   UNL A   1      41.100  28.819  27.903  1.00  0.00    -0.014 A 
BRANCH  29  30
ATOM     30  C   UNL A   1      42.532  28.628  27.581  1.00  0.00     0.031 A 
ATOM     31  C   UNL A   1      43.481  29.779  27.758  1.00  0.00     0.074 A 
ATOM     32  C   UNL A   1      42.985  27.429  27.170  1.00  0.00     0.049 A 
ATOM     33  N   UNL A   1      44.775  29.818  27.577  1.00  0.00    -0.248 NA
ATOM     34  C   UNL A   1      42.894  31.051  28.211  1.00  0.00     0.031 C 
ATOM     35  C   UNL A   1      42.167  26.227  27.008  1.00  0.00     0.029 A 
ATOM     36  N   UNL A   1      44.248  27.025  26.818  1.00  0.00    -0.354 N 
ATOM     37  C   UNL A   1      45.163  31.107  27.918  1.00  0.00     0.074 A 
ATOM     38  C   UNL A   1      43.964  31.830  28.283  1.00  0.00     0.031 C 
ATOM     39  C   UNL A   1      42.951  25.219  26.586  1.00  0.00     0.029 A 
ATOM     40  C   UNL A   1      44.319  25.709  26.425  1.00  0.00     0.049 A 
ATOM     41  H   UNL A   1      45.031  27.621  26.845  1.00  0.00     0.167 HD
ATOM     42  C   UNL A   1      46.409  31.641  27.929  1.00  0.00     0.031 A 
ATOM     43  C   UNL A   1      45.366  24.988  25.978  1.00  0.00     0.031 A 
ATOM     44  C   UNL A   1      47.591  30.939  27.507  1.00  0.00     0.049 A 
ATOM     45  C   UNL A   1      46.723  25.641  25.891  1.00  0.00     0.074 A 
ATOM     46  C   UNL A   1      48.892  31.403  27.445  1.00  0.00     0.029 A 
ATOM     47  N   UNL A   1      47.611  29.626  27.059  1.00  0.00    -0.354 N 
ATOM     48  N   UNL A   1      47.079  26.854  26.243  1.00  0.00    -0.248 NA
ATOM     49  C   UNL A   1      47.820  24.825  25.352  1.00  0.00     0.031 C 
ATOM     50  C   UNL A   1      49.692  30.388  26.910  1.00  0.00     0.029 A 
ATOM     51  C   UNL A   1      48.899  29.272  26.694  1.00  0.00     0.049 A 
ATOM     52  H   UNL A   1      46.827  29.033  27.009  1.00  0.00     0.167 HD
ATOM     53  C   UNL A   1      48.445  26.936  25.997  1.00  0.00     0.074 A 
ATOM     54  C   UNL A   1      48.854  25.647  25.478  1.00  0.00     0.031 C 
ATOM     55  C   UNL A   1      49.288  27.981  26.185  1.00  0.00     0.031 A 
BRANCH  42  56
ATOM     56  C   UNL A   1      46.541  33.068  28.380  1.00  0.00    -0.014 A 
ATOM     57  C   UNL A   1      46.419  34.129  27.463  1.00  0.00     0.010 A 
ATOM     58  C   UNL A   1      46.764  33.358  29.738  1.00  0.00     0.010 A 
ATOM     59  C   UNL A   1      46.553  35.452  27.892  1.00  0.00     0.020 A 
ATOM     60  C   UNL A   1      46.878  34.680  30.174  1.00  0.00     0.020 A 
ATOM     61  C   UNL A   1      46.787  35.719  29.244  1.00  0.00     0.054 A 
BRANCH  61  62
ATOM     62  S   UNL A   1      46.948  37.446  29.775  1.00  0.00     0.124 S 
ATOM     63  O   UNL A   1      45.775  38.062  29.156  1.00  0.00    -0.237 OA
ATOM     64  O   UNL A   1      46.904  37.340  31.231  1.00  0.00    -0.237 OA
ATOM     65  O   UNL A   1      48.234  37.862  29.222  1.00  0.00    -0.744 OA
ENDBRANCH  61  62
ENDBRANCH  42  56
BRANCH  43  66
ATOM     66  C   UNL A   1      45.181  23.572  25.553  1.00  0.00    -0.014 A 
ATOM     67  C   UNL A   1      45.204  22.528  26.495  1.00  0.00     0.010 A 
ATOM     68  C   UNL A   1      45.023  23.256  24.190  1.00  0.00     0.010 A 
ATOM     69  C   UNL A   1      45.103  21.195  26.080  1.00  0.00     0.020 A 
ATOM     70  C   UNL A   1      44.895  21.928  23.775  1.00  0.00     0.020 A 
ATOM     71  C   UNL A   1      44.954  20.905  24.721  1.00  0.00     0.054 A 
BRANCH  71  72
ATOM     72  S   UNL A   1      44.812  19.171  24.204  1.00  0.00     0.124 S 
ATOM     73  O   UNL A   1      44.152  19.295  22.909  1.00  0.00    -0.237 OA
ATOM     74  O   UNL A   1      46.206  18.736  24.166  1.00  0.00    -0.237 OA
ATOM     75  O   UNL A   1      44.007  18.565  25.262  1.00  0.00    -0.744 OA
ENDBRANCH  71  72
ENDBRANCH  43  66
BRANCH  55  76
ATOM     76  C   UNL A   1      50.745  27.768  25.865  1.00  0.00    -0.014 A 
ATOM     77  C   UNL A   1      51.594  27.086  26.754  1.00  0.00     0.010 A 
ATOM     78  C   UNL A   1      51.253  28.202  24.627  1.00  0.00     0.010 A 
ATOM     79  C   UNL A   1      52.934  26.866  26.421  1.00  0.00     0.020 A 
ATOM     80  C   UNL A   1      52.584  27.961  24.279  1.00  0.00     0.020 A 
ATOM     81  C   UNL A   1      53.420  27.305  25.185  1.00  0.00     0.054 A 
BRANCH  81  82
ATOM     82  S   UNL A   1      55.148  26.961  24.753  1.00  0.00     0.124 S 
ATOM     83  O   UNL A   1      55.871  27.829  25.677  1.00  0.00    -0.237 OA
ATOM     84  O   UNL A   1      55.266  25.527  25.014  1.00  0.00    -0.237 OA
ATOM     85  O   UNL A   1      55.233  27.339  23.344  1.00  0.00    -0.744 OA
ENDBRANCH  81  82
ENDBRANCH  55  76
ENDBRANCH  29  30
ENDBRANCH  22  24
ENDBRANCH  21  22
ENDBRANCH  20  21
ENDBRANCH   1  20
TORSDOF 18
ENDMDL
