MODEL 1
REMARK VINA RESULT:     -10.5      0.000      0.000
REMARK SMILES CCNC(=O)NC(=O)[C@@H](C)[NH2+][C@](C)(CC)C(=O)OCCOC(=O)c1ccc(-c2c3nc(c(-c4ccc(S(=O)(=O)[O-])cc4)c4ccc([nH]4)c(-c4ccc(S(=O)(=O)[O-])cc4)c4nc(c(-c5ccc(S(=O)(=O)[O-])cc5)c5ccc2[nH]5)C=C4)C=C3)cc1
REMARK SMILES IDX 19 1 18 2 16 3 17 4 12 5 13 6 11 7 9 10 10 11 7 12 3 13 4 14
REMARK SMILES IDX 5 16 6 17 8 19 2 20 1 21 14 22 15 23 20 24 21 25 22 26 23 27
REMARK SMILES IDX 24 28 25 29 83 30 26 31 82 32 27 33 28 34 29 35 76 36 30 37
REMARK SMILES IDX 81 38 75 39 77 40 31 41 80 42 74 43 73 44 32 46 62 47 43 48
REMARK SMILES IDX 61 49 44 50 47 51 60 52 78 53 45 54 46 55 59 57 79 58 48 59
REMARK SMILES IDX 33 60 34 61 42 62 35 63 41 64 36 65 37 66 38 67 39 68 40 69
REMARK SMILES IDX 63 70 64 71 72 72 65 73 71 74 66 75 67 76 68 77 69 78 70 79
REMARK SMILES IDX 49 80 50 81 58 82 51 83 57 84 52 85 53 86 54 87 55 88 56 89
REMARK H PARENT 11 8 11 9 3 15 6 18 77 45 47 56
REMARK Flexibility Score: inf
ROOT
ATOM      1  C   UNL A   1      38.086  22.249  25.343  1.00  0.00     0.274 C 
ENDROOT
BRANCH   1   2
ATOM      2  O   UNL A   1      36.687  22.035  25.071  1.00  0.00    -0.457 OA
BRANCH   2   3
ATOM      3  C   UNL A   1      36.231  22.641  23.950  1.00  0.00     0.367 C 
ATOM      4  O   UNL A   1      36.912  22.803  22.935  1.00  0.00    -0.245 OA
BRANCH   3   5
ATOM      5  C   UNL A   1      34.798  23.269  24.059  1.00  0.00     0.191 C 
ATOM      6  C   UNL A   1      34.916  24.528  24.927  1.00  0.00     0.092 C 
BRANCH   5   7
ATOM      7  N   UNL A   1      34.038  22.161  24.703  1.00  0.00    -0.322 N 
ATOM      8  H   UNL A   1      33.376  21.834  23.999  1.00  0.00     0.347 HD
ATOM      9  H   UNL A   1      34.801  21.563  25.022  1.00  0.00     0.347 HD
BRANCH   7  10
ATOM     10  C   UNL A   1      33.265  22.309  25.936  1.00  0.00     0.270 C 
ATOM     11  C   UNL A   1      33.747  21.692  27.259  1.00  0.00     0.086 C 
BRANCH  10  12
ATOM     12  C   UNL A   1      31.848  21.722  25.693  1.00  0.00     0.285 C 
ATOM     13  N   UNL A   1      30.740  24.608  26.861  1.00  0.00    -0.338 N 
ATOM     14  C   UNL A   1      30.309  23.326  26.816  1.00  0.00     0.321 C 
ATOM     15  H   UNL A   1      30.508  25.086  27.690  1.00  0.00     0.165 HD
ATOM     16  O   UNL A   1      29.485  22.943  27.644  1.00  0.00    -0.248 OA
ATOM     17  N   UNL A   1      30.705  22.503  25.802  1.00  0.00    -0.273 N 
ATOM     18  H   UNL A   1      30.089  22.455  25.036  1.00  0.00     0.175 HD
ATOM     19  O   UNL A   1      31.710  20.554  25.311  1.00  0.00    -0.268 OA
BRANCH  13  20
ATOM     20  C   UNL A   1      31.486  25.402  25.901  1.00  0.00     0.114 C 
ATOM     21  C   UNL A   1      30.617  26.427  25.195  1.00  0.00     0.027 C 
ENDBRANCH  13  20
ENDBRANCH  10  12
ENDBRANCH   7  10
ENDBRANCH   5   7
BRANCH   5  22
ATOM     22  C   UNL A   1      34.178  23.636  22.689  1.00  0.00     0.077 C 
ATOM     23  C   UNL A   1      32.652  23.793  22.682  1.00  0.00     0.011 C 
ENDBRANCH   5  22
ENDBRANCH   3   5
ENDBRANCH   2   3
ENDBRANCH   1   2
BRANCH   1  24
ATOM     24  C   UNL A   1      38.324  23.555  26.098  1.00  0.00     0.275 C 
BRANCH  24  25
ATOM     25  O   UNL A   1      39.383  23.402  27.063  1.00  0.00    -0.458 OA
BRANCH  25  26
ATOM     26  C   UNL A   1      40.418  24.257  26.935  1.00  0.00     0.338 C 
ATOM     27  O   UNL A   1      41.434  24.090  26.266  1.00  0.00    -0.246 OA
BRANCH  26  28
ATOM     28  C   UNL A   1      40.183  25.491  27.703  1.00  0.00     0.060 A 
ATOM     29  C   UNL A   1      40.991  26.605  27.495  1.00  0.00     0.016 A 
ATOM     30  C   UNL A   1      39.273  25.483  28.758  1.00  0.00     0.016 A 
ATOM     31  C   UNL A   1      40.989  27.659  28.406  1.00  0.00     0.010 A 
ATOM     32  C   UNL A   1      39.197  26.587  29.614  1.00  0.00     0.010 A 
ATOM     33  C   UNL A   1      40.091  27.664  29.481  1.00  0.00    -0.014 A 
BRANCH  33  34
ATOM     34  C   UNL A   1      40.132  28.747  30.502  1.00  0.00     0.031 A 
ATOM     35  C   UNL A   1      41.142  28.680  31.621  1.00  0.00     0.074 A 
ATOM     36  C   UNL A   1      39.293  29.801  30.430  1.00  0.00     0.049 A 
ATOM     37  N   UNL A   1      41.206  29.385  32.721  1.00  0.00    -0.248 NA
ATOM     38  C   UNL A   1      42.219  27.683  31.486  1.00  0.00     0.031 C 
ATOM     39  C   UNL A   1      38.318  30.045  29.364  1.00  0.00     0.029 A 
ATOM     40  N   UNL A   1      39.130  30.871  31.276  1.00  0.00    -0.354 N 
ATOM     41  C   UNL A   1      42.293  28.884  33.431  1.00  0.00     0.074 A 
ATOM     42  C   UNL A   1      42.862  27.817  32.637  1.00  0.00     0.031 C 
ATOM     43  C   UNL A   1      37.678  31.199  29.608  1.00  0.00     0.029 A 
ATOM     44  C   UNL A   1      38.129  31.730  30.890  1.00  0.00     0.049 A 
ATOM     45  H   UNL A   1      39.678  31.009  32.082  1.00  0.00     0.167 HD
ATOM     46  C   UNL A   1      42.769  29.274  34.637  1.00  0.00     0.031 A 
ATOM     47  C   UNL A   1      37.590  32.793  31.519  1.00  0.00     0.031 A 
ATOM     48  C   UNL A   1      42.219  30.355  35.411  1.00  0.00     0.049 A 
ATOM     49  C   UNL A   1      38.096  33.173  32.882  1.00  0.00     0.074 A 
ATOM     50  C   UNL A   1      42.597  30.797  36.668  1.00  0.00     0.029 A 
ATOM     51  N   UNL A   1      41.189  31.181  34.990  1.00  0.00    -0.354 N 
ATOM     52  N   UNL A   1      39.056  32.624  33.587  1.00  0.00    -0.248 NA
ATOM     53  C   UNL A   1      37.432  34.305  33.545  1.00  0.00     0.031 C 
ATOM     54  C   UNL A   1      41.777  31.877  37.017  1.00  0.00     0.029 A 
ATOM     55  C   UNL A   1      40.920  32.132  35.959  1.00  0.00     0.049 A 
ATOM     56  H   UNL A   1      40.718  31.103  34.129  1.00  0.00     0.167 HD
ATOM     57  C   UNL A   1      39.118  33.351  34.770  1.00  0.00     0.074 A 
ATOM     58  C   UNL A   1      38.116  34.392  34.677  1.00  0.00     0.031 C 
ATOM     59  C   UNL A   1      39.927  33.167  35.842  1.00  0.00     0.031 A 
BRANCH  46  60
ATOM     60  C   UNL A   1      43.922  28.500  35.218  1.00  0.00    -0.014 A 
ATOM     61  C   UNL A   1      43.712  27.326  35.961  1.00  0.00     0.010 A 
ATOM     62  C   UNL A   1      45.238  28.932  34.973  1.00  0.00     0.010 A 
ATOM     63  C   UNL A   1      44.800  26.613  36.474  1.00  0.00     0.020 A 
ATOM     64  C   UNL A   1      46.328  28.211  35.465  1.00  0.00     0.020 A 
ATOM     65  C   UNL A   1      46.102  27.062  36.225  1.00  0.00     0.054 A 
BRANCH  65  66
ATOM     66  S   UNL A   1      47.497  26.103  36.878  1.00  0.00     0.124 S 
ATOM     67  O   UNL A   1      47.797  25.212  35.761  1.00  0.00    -0.237 OA
ATOM     68  O   UNL A   1      48.498  27.131  37.148  1.00  0.00    -0.237 OA
ATOM     69  O   UNL A   1      46.944  25.451  38.062  1.00  0.00    -0.744 OA
ENDBRANCH  65  66
ENDBRANCH  46  60
BRANCH  47  70
ATOM     70  C   UNL A   1      36.452  33.528  30.901  1.00  0.00    -0.014 A 
ATOM     71  C   UNL A   1      35.305  33.841  31.650  1.00  0.00     0.010 A 
ATOM     72  C   UNL A   1      36.509  33.907  29.547  1.00  0.00     0.010 A 
ATOM     73  C   UNL A   1      34.226  34.499  31.050  1.00  0.00     0.020 A 
ATOM     74  C   UNL A   1      35.447  34.590  28.952  1.00  0.00     0.020 A 
ATOM     75  C   UNL A   1      34.304  34.867  29.703  1.00  0.00     0.054 A 
BRANCH  75  76
ATOM     76  S   UNL A   1      32.914  35.754  28.947  1.00  0.00     0.124 S 
ATOM     77  O   UNL A   1      32.344  34.732  28.074  1.00  0.00    -0.237 OA
ATOM     78  O   UNL A   1      32.103  36.123  30.104  1.00  0.00    -0.237 OA
ATOM     79  O   UNL A   1      33.559  36.874  28.267  1.00  0.00    -0.744 OA
ENDBRANCH  75  76
ENDBRANCH  47  70
BRANCH  59  80
ATOM     80  C   UNL A   1      39.790  34.138  36.981  1.00  0.00    -0.014 A 
ATOM     81  C   UNL A   1      38.928  33.874  38.060  1.00  0.00     0.010 A 
ATOM     82  C   UNL A   1      40.571  35.307  36.990  1.00  0.00     0.010 A 
ATOM     83  C   UNL A   1      38.829  34.781  39.119  1.00  0.00     0.020 A 
ATOM     84  C   UNL A   1      40.489  36.206  38.058  1.00  0.00     0.020 A 
ATOM     85  C   UNL A   1      39.608  35.943  39.108  1.00  0.00     0.054 A 
BRANCH  85  86
ATOM     86  S   UNL A   1      39.496  37.086  40.513  1.00  0.00     0.124 S 
ATOM     87  O   UNL A   1      40.902  37.332  40.816  1.00  0.00    -0.237 OA
ATOM     88  O   UNL A   1      38.767  38.219  39.949  1.00  0.00    -0.237 OA
ATOM     89  O   UNL A   1      38.764  36.322  41.520  1.00  0.00    -0.744 OA
ENDBRANCH  85  86
ENDBRANCH  59  80
ENDBRANCH  33  34
ENDBRANCH  26  28
ENDBRANCH  25  26
ENDBRANCH  24  25
ENDBRANCH   1  24
TORSDOF 19
ENDMDL
MODEL 2
REMARK VINA RESULT:     -10.2      5.032     10.641
REMARK SMILES CCNC(=O)NC(=O)[C@@H](C)[NH2+][C@](C)(CC)C(=O)OCCOC(=O)c1ccc(-c2c3nc(c(-c4ccc(S(=O)(=O)[O-])cc4)c4ccc([nH]4)c(-c4ccc(S(=O)(=O)[O-])cc4)c4nc(c(-c5ccc(S(=O)(=O)[O-])cc5)c5ccc2[nH]5)C=C4)C=C3)cc1
REMARK SMILES IDX 19 1 18 2 16 3 17 4 12 5 13 6 11 7 9 10 10 11 7 12 3 13 4 14
REMARK SMILES IDX 5 16 6 17 8 19 2 20 1 21 14 22 15 23 20 24 21 25 22 26 23 27
REMARK SMILES IDX 24 28 25 29 83 30 26 31 82 32 27 33 28 34 29 35 76 36 30 37
REMARK SMILES IDX 81 38 75 39 77 40 31 41 80 42 74 43 73 44 32 46 62 47 43 48
REMARK SMILES IDX 61 49 44 50 47 51 60 52 78 53 45 54 46 55 59 57 79 58 48 59
REMARK SMILES IDX 33 60 34 61 42 62 35 63 41 64 36 65 37 66 38 67 39 68 40 69
REMARK SMILES IDX 63 70 64 71 72 72 65 73 71 74 66 75 67 76 68 77 69 78 70 79
REMARK SMILES IDX 49 80 50 81 58 82 51 83 57 84 52 85 53 86 54 87 55 88 56 89
REMARK H PARENT 11 8 11 9 3 15 6 18 77 45 47 56
REMARK Flexibility Score: inf
ROOT
ATOM      1  C   UNL A   1      32.231  29.817  25.744  1.00  0.00     0.274 C 
ENDROOT
BRANCH   1   2
ATOM      2  O   UNL A   1      33.271  29.243  24.929  1.00  0.00    -0.457 OA
BRANCH   2   3
ATOM      3  C   UNL A   1      32.828  28.474  23.907  1.00  0.00     0.367 C 
ATOM      4  O   UNL A   1      32.181  28.912  22.953  1.00  0.00    -0.245 OA
BRANCH   3   5
ATOM      5  C   UNL A   1      33.062  26.932  24.072  1.00  0.00     0.191 C 
ATOM      6  C   UNL A   1      33.788  26.442  22.813  1.00  0.00     0.092 C 
BRANCH   5   7
ATOM      7  N   UNL A   1      31.664  26.433  24.195  1.00  0.00    -0.322 N 
ATOM      8  H   UNL A   1      31.222  27.020  24.903  1.00  0.00     0.347 HD
ATOM      9  H   UNL A   1      31.359  26.468  23.222  1.00  0.00     0.347 HD
BRANCH   7  10
ATOM     10  C   UNL A   1      31.315  25.057  24.547  1.00  0.00     0.270 C 
ATOM     11  C   UNL A   1      30.449  24.191  23.618  1.00  0.00     0.086 C 
BRANCH  10  12
ATOM     12  C   UNL A   1      30.573  25.078  25.911  1.00  0.00     0.285 C 
ATOM     13  N   UNL A   1      31.402  21.885  26.113  1.00  0.00    -0.338 N 
ATOM     14  C   UNL A   1      30.405  22.681  26.566  1.00  0.00     0.321 C 
ATOM     15  H   UNL A   1      31.114  20.979  25.859  1.00  0.00     0.165 HD
ATOM     16  O   UNL A   1      29.322  22.176  26.858  1.00  0.00    -0.248 OA
ATOM     17  N   UNL A   1      30.633  24.007  26.793  1.00  0.00    -0.273 N 
ATOM     18  H   UNL A   1      30.875  24.239  27.718  1.00  0.00     0.175 HD
ATOM     19  O   UNL A   1      29.972  26.094  26.282  1.00  0.00    -0.268 OA
BRANCH  13  20
ATOM     20  C   UNL A   1      32.821  22.135  25.936  1.00  0.00     0.114 C 
ATOM     21  C   UNL A   1      33.607  21.955  27.222  1.00  0.00     0.027 C 
ENDBRANCH  13  20
ENDBRANCH  10  12
ENDBRANCH   7  10
ENDBRANCH   5   7
BRANCH   5  22
ATOM     22  C   UNL A   1      33.888  26.564  25.328  1.00  0.00     0.077 C 
ATOM     23  C   UNL A   1      34.674  25.249  25.234  1.00  0.00     0.011 C 
ENDBRANCH   5  22
ENDBRANCH   3   5
ENDBRANCH   2   3
ENDBRANCH   1   2
BRANCH   1  24
ATOM     24  C   UNL A   1      32.751  30.238  27.116  1.00  0.00     0.275 C 
BRANCH  24  25
ATOM     25  O   UNL A   1      34.111  30.704  27.027  1.00  0.00    -0.458 OA
BRANCH  25  26
ATOM     26  C   UNL A   1      34.705  31.001  28.202  1.00  0.00     0.338 C 
ATOM     27  O   UNL A   1      34.277  31.750  29.076  1.00  0.00    -0.246 OA
BRANCH  26  28
ATOM     28  C   UNL A   1      35.978  30.276  28.348  1.00  0.00     0.060 A 
ATOM     29  C   UNL A   1      36.376  29.813  29.599  1.00  0.00     0.016 A 
ATOM     30  C   UNL A   1      36.863  30.215  27.273  1.00  0.00     0.016 A 
ATOM     31  C   UNL A   1      37.690  29.406  29.816  1.00  0.00     0.010 A 
ATOM     32  C   UNL A   1      38.153  29.709  27.468  1.00  0.00     0.010 A 
ATOM     33  C   UNL A   1      38.599  29.349  28.752  1.00  0.00    -0.014 A 
BRANCH  33  34
ATOM     34  C   UNL A   1      40.025  28.989  28.987  1.00  0.00     0.031 A 
ATOM     35  C   UNL A   1      40.969  30.016  29.559  1.00  0.00     0.074 A 
ATOM     36  C   UNL A   1      40.480  27.748  28.715  1.00  0.00     0.049 A 
ATOM     37  N   UNL A   1      42.275  29.987  29.636  1.00  0.00    -0.248 NA
ATOM     38  C   UNL A   1      40.365  31.240  30.114  1.00  0.00     0.031 C 
ATOM     39  C   UNL A   1      39.670  26.627  28.233  1.00  0.00     0.029 A 
ATOM     40  N   UNL A   1      41.746  27.222  28.810  1.00  0.00    -0.354 N 
ATOM     41  C   UNL A   1      42.650  31.204  30.196  1.00  0.00     0.074 A 
ATOM     42  C   UNL A   1      41.435  31.948  30.443  1.00  0.00     0.031 C 
ATOM     43  C   UNL A   1      40.451  25.544  28.098  1.00  0.00     0.029 A 
ATOM     44  C   UNL A   1      41.831  25.915  28.393  1.00  0.00     0.049 A 
ATOM     45  H   UNL A   1      42.518  27.733  29.144  1.00  0.00     0.167 HD
ATOM     46  C   UNL A   1      43.895  31.661  30.472  1.00  0.00     0.031 A 
ATOM     47  C   UNL A   1      42.902  25.117  28.212  1.00  0.00     0.031 A 
ATOM     48  C   UNL A   1      45.100  30.907  30.252  1.00  0.00     0.049 A 
ATOM     49  C   UNL A   1      44.277  25.664  28.472  1.00  0.00     0.074 A 
ATOM     50  C   UNL A   1      46.413  31.299  30.453  1.00  0.00     0.029 A 
ATOM     51  N   UNL A   1      45.137  29.595  29.806  1.00  0.00    -0.354 N 
ATOM     52  N   UNL A   1      44.622  26.854  28.903  1.00  0.00    -0.248 NA
ATOM     53  C   UNL A   1      45.411  24.767  28.202  1.00  0.00     0.031 C 
ATOM     54  C   UNL A   1      47.246  30.230  30.104  1.00  0.00     0.029 A 
ATOM     55  C   UNL A   1      46.449  29.161  29.728  1.00  0.00     0.049 A 
ATOM     56  H   UNL A   1      44.348  29.053  29.578  1.00  0.00     0.167 HD
ATOM     57  C   UNL A   1      46.011  26.843  28.966  1.00  0.00     0.074 A 
ATOM     58  C   UNL A   1      46.441  25.524  28.552  1.00  0.00     0.031 C 
ATOM     59  C   UNL A   1      46.856  27.840  29.325  1.00  0.00     0.031 A 
BRANCH  46  60
ATOM     60  C   UNL A   1      44.022  33.062  31.008  1.00  0.00    -0.014 A 
ATOM     61  C   UNL A   1      44.156  33.308  32.384  1.00  0.00     0.010 A 
ATOM     62  C   UNL A   1      44.054  34.146  30.110  1.00  0.00     0.010 A 
ATOM     63  C   UNL A   1      44.292  34.617  32.857  1.00  0.00     0.020 A 
ATOM     64  C   UNL A   1      44.212  35.453  30.577  1.00  0.00     0.020 A 
ATOM     65  C   UNL A   1      44.315  35.682  31.950  1.00  0.00     0.054 A 
BRANCH  65  66
ATOM     66  S   UNL A   1      44.522  37.368  32.587  1.00  0.00     0.124 S 
ATOM     67  O   UNL A   1      43.263  37.577  33.297  1.00  0.00    -0.237 OA
ATOM     68  O   UNL A   1      45.708  37.251  33.431  1.00  0.00    -0.237 OA
ATOM     69  O   UNL A   1      44.697  38.174  31.381  1.00  0.00    -0.744 OA
ENDBRANCH  65  66
ENDBRANCH  46  60
BRANCH  47  70
ATOM     70  C   UNL A   1      42.723  23.737  27.683  1.00  0.00    -0.014 A 
ATOM     71  C   UNL A   1      42.846  23.471  26.308  1.00  0.00     0.010 A 
ATOM     72  C   UNL A   1      42.413  22.680  28.559  1.00  0.00     0.010 A 
ATOM     73  C   UNL A   1      42.639  22.178  25.816  1.00  0.00     0.020 A 
ATOM     74  C   UNL A   1      42.235  21.381  28.076  1.00  0.00     0.020 A 
ATOM     75  C   UNL A   1      42.332  21.142  26.705  1.00  0.00     0.054 A 
BRANCH  75  76
ATOM     76  S   UNL A   1      42.105  19.462  26.059  1.00  0.00     0.124 S 
ATOM     77  O   UNL A   1      42.923  19.491  24.850  1.00  0.00    -0.237 OA
ATOM     78  O   UNL A   1      42.610  18.629  27.147  1.00  0.00    -0.237 OA
ATOM     79  O   UNL A   1      40.663  19.378  25.840  1.00  0.00    -0.744 OA
ENDBRANCH  75  76
ENDBRANCH  47  70
BRANCH  59  80
ATOM     80  C   UNL A   1      48.326  27.529  29.328  1.00  0.00    -0.014 A 
ATOM     81  C   UNL A   1      49.098  27.663  28.162  1.00  0.00     0.010 A 
ATOM     82  C   UNL A   1      48.948  27.141  30.528  1.00  0.00     0.010 A 
ATOM     83  C   UNL A   1      50.468  27.386  28.190  1.00  0.00     0.020 A 
ATOM     84  C   UNL A   1      50.321  26.883  30.563  1.00  0.00     0.020 A 
ATOM     85  C   UNL A   1      51.069  26.994  29.390  1.00  0.00     0.054 A 
BRANCH  85  86
ATOM     86  S   UNL A   1      52.856  26.681  29.414  1.00  0.00     0.124 S 
ATOM     87  O   UNL A   1      53.005  25.869  30.618  1.00  0.00    -0.237 OA
ATOM     88  O   UNL A   1      53.078  25.980  28.152  1.00  0.00    -0.237 OA
ATOM     89  O   UNL A   1      53.439  28.018  29.487  1.00  0.00    -0.744 OA
ENDBRANCH  85  86
ENDBRANCH  59  80
ENDBRANCH  33  34
ENDBRANCH  26  28
ENDBRANCH  25  26
ENDBRANCH  24  25
ENDBRANCH   1  24
TORSDOF 19
ENDMDL
MODEL 3
REMARK VINA RESULT:      -9.9      2.319      3.430
REMARK SMILES CCNC(=O)NC(=O)[C@@H](C)[NH2+][C@](C)(CC)C(=O)OCCOC(=O)c1ccc(-c2c3nc(c(-c4ccc(S(=O)(=O)[O-])cc4)c4ccc([nH]4)c(-c4ccc(S(=O)(=O)[O-])cc4)c4nc(c(-c5ccc(S(=O)(=O)[O-])cc5)c5ccc2[nH]5)C=C4)C=C3)cc1
REMARK SMILES IDX 19 1 18 2 16 3 17 4 12 5 13 6 11 7 9 10 10 11 7 12 3 13 4 14
REMARK SMILES IDX 5 16 6 17 8 19 2 20 1 21 14 22 15 23 20 24 21 25 22 26 23 27
REMARK SMILES IDX 24 28 25 29 83 30 26 31 82 32 27 33 28 34 29 35 76 36 30 37
REMARK SMILES IDX 81 38 75 39 77 40 31 41 80 42 74 43 73 44 32 46 62 47 43 48
REMARK SMILES IDX 61 49 44 50 47 51 60 52 78 53 45 54 46 55 59 57 79 58 48 59
REMARK SMILES IDX 33 60 34 61 42 62 35 63 41 64 36 65 37 66 38 67 39 68 40 69
REMARK SMILES IDX 63 70 64 71 72 72 65 73 71 74 66 75 67 76 68 77 69 78 70 79
REMARK SMILES IDX 49 80 50 81 58 82 51 83 57 84 52 85 53 86 54 87 55 88 56 89
REMARK H PARENT 11 8 11 9 3 15 6 18 77 45 47 56
REMARK Flexibility Score: inf
ROOT
ATOM      1  C   UNL A   1      35.320  23.332  23.834  1.00  0.00     0.274 C 
ENDROOT
BRANCH   1   2
ATOM      2  O   UNL A   1      34.868  24.672  24.109  1.00  0.00    -0.457 OA
BRANCH   2   3
ATOM      3  C   UNL A   1      33.958  25.152  23.230  1.00  0.00     0.367 C 
ATOM      4  O   UNL A   1      34.023  24.971  22.012  1.00  0.00    -0.245 OA
BRANCH   3   5
ATOM      5  C   UNL A   1      32.865  26.097  23.839  1.00  0.00     0.191 C 
ATOM      6  C   UNL A   1      33.409  26.626  25.172  1.00  0.00     0.092 C 
BRANCH   5   7
ATOM      7  N   UNL A   1      31.715  25.162  23.986  1.00  0.00    -0.322 N 
ATOM      8  H   UNL A   1      31.492  24.847  23.041  1.00  0.00     0.347 HD
ATOM      9  H   UNL A   1      32.081  24.512  24.682  1.00  0.00     0.347 HD
BRANCH   7  10
ATOM     10  C   UNL A   1      30.436  25.529  24.593  1.00  0.00     0.270 C 
ATOM     11  C   UNL A   1      29.724  26.840  24.222  1.00  0.00     0.086 C 
BRANCH  10  12
ATOM     12  C   UNL A   1      30.626  25.578  26.133  1.00  0.00     0.285 C 
ATOM     13  N   UNL A   1      30.626  22.277  25.973  1.00  0.00    -0.338 N 
ATOM     14  C   UNL A   1      30.287  23.226  26.877  1.00  0.00     0.321 C 
ATOM     15  H   UNL A   1      30.037  21.489  25.972  1.00  0.00     0.165 HD
ATOM     16  O   UNL A   1      29.477  22.948  27.760  1.00  0.00    -0.248 OA
ATOM     17  N   UNL A   1      30.914  24.437  26.870  1.00  0.00    -0.273 N 
ATOM     18  H   UNL A   1      31.685  24.514  27.479  1.00  0.00     0.175 HD
ATOM     19  O   UNL A   1      30.606  26.660  26.733  1.00  0.00    -0.268 OA
BRANCH  13  20
ATOM     20  C   UNL A   1      31.706  22.220  25.004  1.00  0.00     0.114 C 
ATOM     21  C   UNL A   1      32.664  21.073  25.270  1.00  0.00     0.027 C 
ENDBRANCH  13  20
ENDBRANCH  10  12
ENDBRANCH   7  10
ENDBRANCH   5   7
BRANCH   5  22
ATOM     22  C   UNL A   1      32.493  27.285  22.919  1.00  0.00     0.077 C 
ATOM     23  C   UNL A   1      33.533  28.412  22.849  1.00  0.00     0.011 C 
ENDBRANCH   5  22
ENDBRANCH   3   5
ENDBRANCH   2   3
ENDBRANCH   1   2
BRANCH   1  24
ATOM     24  C   UNL A   1      36.842  23.225  23.882  1.00  0.00     0.275 C 
BRANCH  24  25
ATOM     25  O   UNL A   1      37.371  23.946  25.011  1.00  0.00    -0.458 OA
BRANCH  25  26
ATOM     26  C   UNL A   1      38.338  23.314  25.707  1.00  0.00     0.338 C 
ATOM     27  O   UNL A   1      38.643  22.127  25.635  1.00  0.00    -0.246 OA
BRANCH  26  28
ATOM     28  C   UNL A   1      39.047  24.249  26.596  1.00  0.00     0.060 A 
ATOM     29  C   UNL A   1      38.733  24.294  27.952  1.00  0.00     0.016 A 
ATOM     30  C   UNL A   1      39.897  25.209  26.051  1.00  0.00     0.016 A 
ATOM     31  C   UNL A   1      39.158  25.361  28.741  1.00  0.00     0.010 A 
ATOM     32  C   UNL A   1      40.410  26.223  26.867  1.00  0.00     0.010 A 
ATOM     33  C   UNL A   1      40.004  26.342  28.208  1.00  0.00    -0.014 A 
BRANCH  33  34
ATOM     34  C   UNL A   1      40.403  27.526  29.019  1.00  0.00     0.031 A 
ATOM     35  C   UNL A   1      41.720  27.517  29.755  1.00  0.00     0.074 A 
ATOM     36  C   UNL A   1      39.612  28.617  29.088  1.00  0.00     0.049 A 
ATOM     37  N   UNL A   1      42.156  28.333  30.679  1.00  0.00    -0.248 NA
ATOM     38  C   UNL A   1      42.668  26.444  29.408  1.00  0.00     0.031 C 
ATOM     39  C   UNL A   1      38.350  28.805  28.369  1.00  0.00     0.029 A 
ATOM     40  N   UNL A   1      39.761  29.782  29.802  1.00  0.00    -0.354 N 
ATOM     41  C   UNL A   1      43.402  27.845  31.060  1.00  0.00     0.074 A 
ATOM     42  C   UNL A   1      43.654  26.663  30.266  1.00  0.00     0.031 C 
ATOM     43  C   UNL A   1      37.853  30.017  28.659  1.00  0.00     0.029 A 
ATOM     44  C   UNL A   1      38.710  30.656  29.652  1.00  0.00     0.049 A 
ATOM     45  H   UNL A   1      40.545  29.972  30.365  1.00  0.00     0.167 HD
ATOM     46  C   UNL A   1      44.254  28.334  31.992  1.00  0.00     0.031 A 
ATOM     47  C   UNL A   1      38.433  31.814  30.283  1.00  0.00     0.031 A 
ATOM     48  C   UNL A   1      44.014  29.526  32.760  1.00  0.00     0.049 A 
ATOM     49  C   UNL A   1      39.364  32.309  31.354  1.00  0.00     0.074 A 
ATOM     50  C   UNL A   1      44.791  30.079  33.764  1.00  0.00     0.029 A 
ATOM     51  N   UNL A   1      42.923  30.366  32.591  1.00  0.00    -0.354 N 
ATOM     52  N   UNL A   1      40.487  31.779  31.776  1.00  0.00    -0.248 NA
ATOM     53  C   UNL A   1      38.981  33.547  32.047  1.00  0.00     0.031 C 
ATOM     54  C   UNL A   1      44.157  31.240  34.219  1.00  0.00     0.029 A 
ATOM     55  C   UNL A   1      43.009  31.433  33.468  1.00  0.00     0.049 A 
ATOM     56  H   UNL A   1      42.196  30.223  31.944  1.00  0.00     0.167 HD
ATOM     57  C   UNL A   1      40.950  32.626  32.777  1.00  0.00     0.074 A 
ATOM     58  C   UNL A   1      39.998  33.713  32.880  1.00  0.00     0.031 C 
ATOM     59  C   UNL A   1      42.058  32.510  33.548  1.00  0.00     0.031 A 
BRANCH  46  60
ATOM     60  C   UNL A   1      45.513  27.555  32.265  1.00  0.00    -0.014 A 
ATOM     61  C   UNL A   1      46.748  27.954  31.728  1.00  0.00     0.010 A 
ATOM     62  C   UNL A   1      45.463  26.433  33.113  1.00  0.00     0.010 A 
ATOM     63  C   UNL A   1      47.908  27.227  32.010  1.00  0.00     0.020 A 
ATOM     64  C   UNL A   1      46.623  25.716  33.415  1.00  0.00     0.020 A 
ATOM     65  C   UNL A   1      47.838  26.109  32.850  1.00  0.00     0.054 A 
BRANCH  65  66
ATOM     66  S   UNL A   1      49.362  25.199  33.224  1.00  0.00     0.124 S 
ATOM     67  O   UNL A   1      49.779  24.754  31.898  1.00  0.00    -0.237 OA
ATOM     68  O   UNL A   1      50.205  26.222  33.839  1.00  0.00    -0.237 OA
ATOM     69  O   UNL A   1      48.919  24.138  34.126  1.00  0.00    -0.744 OA
ENDBRANCH  65  66
ENDBRANCH  46  60
BRANCH  47  70
ATOM     70  C   UNL A   1      37.174  32.548  29.975  1.00  0.00    -0.014 A 
ATOM     71  C   UNL A   1      37.117  33.468  28.914  1.00  0.00     0.010 A 
ATOM     72  C   UNL A   1      36.025  32.337  30.760  1.00  0.00     0.010 A 
ATOM     73  C   UNL A   1      35.941  34.180  28.658  1.00  0.00     0.020 A 
ATOM     74  C   UNL A   1      34.839  33.024  30.488  1.00  0.00     0.020 A 
ATOM     75  C   UNL A   1      34.810  33.954  29.449  1.00  0.00     0.054 A 
BRANCH  75  76
ATOM     76  S   UNL A   1      33.279  34.856  29.081  1.00  0.00     0.124 S 
ATOM     77  O   UNL A   1      33.792  36.114  28.550  1.00  0.00    -0.237 OA
ATOM     78  O   UNL A   1      32.618  33.982  28.116  1.00  0.00    -0.237 OA
ATOM     79  O   UNL A   1      32.620  34.944  30.382  1.00  0.00    -0.744 OA
ENDBRANCH  75  76
ENDBRANCH  47  70
BRANCH  59  80
ATOM     80  C   UNL A   1      42.324  33.607  34.540  1.00  0.00    -0.014 A 
ATOM     81  C   UNL A   1      41.894  33.499  35.874  1.00  0.00     0.010 A 
ATOM     82  C   UNL A   1      43.055  34.739  34.139  1.00  0.00     0.010 A 
ATOM     83  C   UNL A   1      42.168  34.521  36.786  1.00  0.00     0.020 A 
ATOM     84  C   UNL A   1      43.347  35.754  35.054  1.00  0.00     0.020 A 
ATOM     85  C   UNL A   1      42.890  35.644  36.369  1.00  0.00     0.054 A 
BRANCH  85  86
ATOM     86  S   UNL A   1      43.271  36.941  37.579  1.00  0.00     0.124 S 
ATOM     87  O   UNL A   1      43.793  38.006  36.728  1.00  0.00    -0.237 OA
ATOM     88  O   UNL A   1      41.971  37.205  38.190  1.00  0.00    -0.237 OA
ATOM     89  O   UNL A   1      44.250  36.311  38.462  1.00  0.00    -0.744 OA
ENDBRANCH  85  86
ENDBRANCH  59  80
ENDBRANCH  33  34
ENDBRANCH  26  28
ENDBRANCH  25  26
ENDBRANCH  24  25
ENDBRANCH   1  24
TORSDOF 19
ENDMDL
