MODEL 1
REMARK VINA RESULT:     -10.4      0.000      0.000
REMARK SMILES CC1(C)CC[NH+](CC[C@H]2CCC[C@]2([NH3+])C(=O)OCCOC(=O)c2ccc(-c3c4nc(c(-c5ccc(S(=O)(=O)[O-])cc5)c5ccc([nH]5)c(-c5ccc(S(=O)(=O)[O-])cc5)c5nc(c(-c6ccc(S(=O)(=O)[O-])cc6)c6ccc3[nH]6)C=C5)C=C4)cc2)CC1
REMARK SMILES IDX 18 1 17 2 15 3 16 4 13 5 9 6 10 7 11 8 12 9 8 10 7 11 6 12
REMARK SMILES IDX 1 13 2 14 3 15 4 16 84 17 5 18 83 19 14 21 19 25 20 26 21 27
REMARK SMILES IDX 22 28 23 29 24 30 82 31 25 32 81 33 26 34 27 35 28 36 75 37
REMARK SMILES IDX 29 38 80 39 74 40 76 41 30 42 79 43 73 44 72 45 31 47 61 48
REMARK SMILES IDX 42 49 60 50 43 51 46 52 59 53 77 54 44 55 45 56 58 58 78 59
REMARK SMILES IDX 47 60 32 61 33 62 41 63 34 64 40 65 35 66 36 67 37 68 38 69
REMARK SMILES IDX 39 70 62 71 63 72 71 73 64 74 70 75 65 76 66 77 67 78 68 79
REMARK SMILES IDX 69 80 48 81 49 82 57 83 50 84 56 85 51 86 52 87 53 88 54 89
REMARK SMILES IDX 55 90
REMARK H PARENT 6 20 14 22 14 23 14 24 76 46 46 57
REMARK Flexibility Score: inf
ROOT
ATOM      1  C   UNL A   1      33.734  28.998  24.238  1.00  0.00     0.274 C 
ENDROOT
BRANCH   1   2
ATOM      2  O   UNL A   1      33.910  27.584  23.958  1.00  0.00    -0.457 OA
BRANCH   2   3
ATOM      3  C   UNL A   1      33.615  27.197  22.678  1.00  0.00     0.368 C 
ATOM      4  O   UNL A   1      34.080  27.766  21.695  1.00  0.00    -0.245 OA
BRANCH   3   5
ATOM      5  C   UNL A   1      32.606  25.984  22.590  1.00  0.00     0.195 C 
ATOM      6  C   UNL A   1      31.815  25.734  23.922  1.00  0.00     0.068 C 
ATOM      7  C   UNL A   1      32.385  24.401  24.478  1.00  0.00     0.011 C 
ATOM      8  C   UNL A   1      33.680  24.146  23.719  1.00  0.00     0.008 C 
ATOM      9  C   UNL A   1      33.372  24.679  22.337  1.00  0.00     0.081 C 
BRANCH   6  10
ATOM     10  C   UNL A   1      30.267  25.699  23.817  1.00  0.00     0.072 C 
BRANCH  10  11
ATOM     11  C   UNL A   1      29.555  27.030  24.115  1.00  0.00     0.262 C 
BRANCH  11  12
ATOM     12  N   UNL A   1      29.364  27.991  23.030  1.00  0.00    -0.335 N 
ATOM     13  C   UNL A   1      28.155  31.269  21.572  1.00  0.00     0.011 C 
ATOM     14  C   UNL A   1      28.159  30.733  23.011  1.00  0.00    -0.025 C 
ATOM     15  C   UNL A   1      27.498  31.801  23.912  1.00  0.00     0.011 C 
ATOM     16  C   UNL A   1      27.339  29.438  23.087  1.00  0.00     0.068 C 
ATOM     17  C   UNL A   1      29.592  30.462  23.516  1.00  0.00     0.068 C 
ATOM     18  C   UNL A   1      28.023  28.198  22.522  1.00  0.00     0.262 C 
ATOM     19  C   UNL A   1      30.219  29.170  22.977  1.00  0.00     0.262 C 
ATOM     20  H   UNL A   1      29.783  27.399  22.311  1.00  0.00     0.348 HD
ENDBRANCH  11  12
ENDBRANCH  10  11
ENDBRANCH   6  10
BRANCH   5  21
ATOM     21  N   UNL A   1      31.774  26.200  21.388  1.00  0.00    -0.343 N 
ATOM     22  H   UNL A   1      31.984  25.481  20.695  1.00  0.00     0.345 HD
ATOM     23  H   UNL A   1      31.974  27.119  20.996  1.00  0.00     0.345 HD
ATOM     24  H   UNL A   1      30.788  26.147  21.643  1.00  0.00     0.345 HD
ENDBRANCH   5  21
ENDBRANCH   3   5
ENDBRANCH   2   3
ENDBRANCH   1   2
BRANCH   1  25
ATOM     25  C   UNL A   1      33.089  29.210  25.605  1.00  0.00     0.275 C 
BRANCH  25  26
ATOM     26  O   UNL A   1      34.113  28.988  26.581  1.00  0.00    -0.458 OA
BRANCH  26  27
ATOM     27  C   UNL A   1      34.295  29.987  27.470  1.00  0.00     0.338 C 
ATOM     28  O   UNL A   1      33.452  30.726  27.943  1.00  0.00    -0.246 OA
BRANCH  27  29
ATOM     29  C   UNL A   1      35.696  29.924  27.921  1.00  0.00     0.060 A 
ATOM     30  C   UNL A   1      36.703  30.193  26.992  1.00  0.00     0.016 A 
ATOM     31  C   UNL A   1      36.020  29.452  29.187  1.00  0.00     0.016 A 
ATOM     32  C   UNL A   1      38.021  29.872  27.274  1.00  0.00     0.010 A 
ATOM     33  C   UNL A   1      37.365  29.248  29.510  1.00  0.00     0.010 A 
ATOM     34  C   UNL A   1      38.376  29.405  28.539  1.00  0.00    -0.014 A 
BRANCH  34  35
ATOM     35  C   UNL A   1      39.775  28.990  28.827  1.00  0.00     0.031 A 
ATOM     36  C   UNL A   1      40.712  29.987  29.453  1.00  0.00     0.074 A 
ATOM     37  C   UNL A   1      40.215  27.743  28.562  1.00  0.00     0.049 A 
ATOM     38  N   UNL A   1      42.018  30.003  29.456  1.00  0.00    -0.248 NA
ATOM     39  C   UNL A   1      40.093  31.135  30.139  1.00  0.00     0.031 C 
ATOM     40  C   UNL A   1      39.402  26.629  28.066  1.00  0.00     0.029 A 
ATOM     41  N   UNL A   1      41.472  27.203  28.680  1.00  0.00    -0.354 N 
ATOM     42  C   UNL A   1      42.375  31.216  30.036  1.00  0.00     0.074 A 
ATOM     43  C   UNL A   1      41.150  31.888  30.410  1.00  0.00     0.031 C 
ATOM     44  C   UNL A   1      40.166  25.530  27.973  1.00  0.00     0.029 A 
ATOM     45  C   UNL A   1      41.545  25.894  28.266  1.00  0.00     0.049 A 
ATOM     46  H   UNL A   1      42.244  27.703  29.028  1.00  0.00     0.167 HD
ATOM     47  C   UNL A   1      43.618  31.723  30.207  1.00  0.00     0.031 A 
ATOM     48  C   UNL A   1      42.611  25.095  28.063  1.00  0.00     0.031 A 
ATOM     49  C   UNL A   1      44.818  30.995  29.896  1.00  0.00     0.049 A 
ATOM     50  C   UNL A   1      43.984  25.672  28.252  1.00  0.00     0.074 A 
ATOM     51  C   UNL A   1      46.135  31.409  29.996  1.00  0.00     0.029 A 
ATOM     52  N   UNL A   1      44.844  29.678  29.458  1.00  0.00    -0.354 N 
ATOM     53  N   UNL A   1      44.322  26.880  28.636  1.00  0.00    -0.248 NA
ATOM     54  C   UNL A   1      45.117  24.792  27.941  1.00  0.00     0.031 C 
ATOM     55  C   UNL A   1      46.955  30.346  29.601  1.00  0.00     0.029 A 
ATOM     56  C   UNL A   1      46.151  29.259  29.293  1.00  0.00     0.049 A 
ATOM     57  H   UNL A   1      44.048  29.124  29.291  1.00  0.00     0.167 HD
ATOM     58  C   UNL A   1      45.709  26.910  28.607  1.00  0.00     0.074 A 
ATOM     59  C   UNL A   1      46.147  25.590  28.195  1.00  0.00     0.031 C 
ATOM     60  C   UNL A   1      46.549  27.939  28.881  1.00  0.00     0.031 A 
BRANCH  47  61
ATOM     61  C   UNL A   1      43.730  33.148  30.675  1.00  0.00    -0.014 A 
ATOM     62  C   UNL A   1      43.693  34.234  29.783  1.00  0.00     0.010 A 
ATOM     63  C   UNL A   1      43.867  33.402  32.054  1.00  0.00     0.010 A 
ATOM     64  C   UNL A   1      43.831  35.543  30.257  1.00  0.00     0.020 A 
ATOM     65  C   UNL A   1      43.981  34.710  32.533  1.00  0.00     0.020 A 
ATOM     66  C   UNL A   1      43.982  35.772  31.628  1.00  0.00     0.054 A 
BRANCH  66  67
ATOM     67  S   UNL A   1      44.147  37.479  32.222  1.00  0.00     0.124 S 
ATOM     68  O   UNL A   1      43.183  37.508  33.319  1.00  0.00    -0.237 OA
ATOM     69  O   UNL A   1      45.551  37.549  32.618  1.00  0.00    -0.237 OA
ATOM     70  O   UNL A   1      43.791  38.287  31.058  1.00  0.00    -0.744 OA
ENDBRANCH  66  67
ENDBRANCH  47  61
BRANCH  48  71
ATOM     71  C   UNL A   1      42.411  23.707  27.561  1.00  0.00    -0.014 A 
ATOM     72  C   UNL A   1      42.457  23.430  26.185  1.00  0.00     0.010 A 
ATOM     73  C   UNL A   1      42.221  22.646  28.466  1.00  0.00     0.010 A 
ATOM     74  C   UNL A   1      42.323  22.116  25.723  1.00  0.00     0.020 A 
ATOM     75  C   UNL A   1      42.117  21.329  28.010  1.00  0.00     0.020 A 
ATOM     76  C   UNL A   1      42.161  21.073  26.639  1.00  0.00     0.054 A 
BRANCH  76  77
ATOM     77  S   UNL A   1      42.077  19.365  26.031  1.00  0.00     0.124 S 
ATOM     78  O   UNL A   1      40.647  19.196  25.798  1.00  0.00    -0.237 OA
ATOM     79  O   UNL A   1      42.914  19.409  24.834  1.00  0.00    -0.237 OA
ATOM     80  O   UNL A   1      42.629  18.584  27.136  1.00  0.00    -0.744 OA
ENDBRANCH  76  77
ENDBRANCH  48  71
BRANCH  60  81
ATOM     81  C   UNL A   1      48.019  27.659  28.770  1.00  0.00    -0.014 A 
ATOM     82  C   UNL A   1      48.716  27.040  29.821  1.00  0.00     0.010 A 
ATOM     83  C   UNL A   1      48.699  27.986  27.583  1.00  0.00     0.010 A 
ATOM     84  C   UNL A   1      50.081  26.776  29.697  1.00  0.00     0.020 A 
ATOM     85  C   UNL A   1      50.059  27.706  27.449  1.00  0.00     0.020 A 
ATOM     86  C   UNL A   1      50.746  27.115  28.513  1.00  0.00     0.054 A 
BRANCH  86  87
ATOM     87  S   UNL A   1      52.511  26.732  28.357  1.00  0.00     0.124 S 
ATOM     88  O   UNL A   1      53.048  27.988  27.842  1.00  0.00    -0.237 OA
ATOM     89  O   UNL A   1      52.893  26.399  29.727  1.00  0.00    -0.237 OA
ATOM     90  O   UNL A   1      52.538  25.610  27.420  1.00  0.00    -0.744 OA
ENDBRANCH  86  87
ENDBRANCH  60  81
ENDBRANCH  34  35
ENDBRANCH  27  29
ENDBRANCH  26  27
ENDBRANCH  25  26
ENDBRANCH   1  25
TORSDOF 18
ENDMDL
MODEL 2
REMARK VINA RESULT:     -10.3      2.159      4.278
REMARK SMILES CC1(C)CC[NH+](CC[C@H]2CCC[C@]2([NH3+])C(=O)OCCOC(=O)c2ccc(-c3c4nc(c(-c5ccc(S(=O)(=O)[O-])cc5)c5ccc([nH]5)c(-c5ccc(S(=O)(=O)[O-])cc5)c5nc(c(-c6ccc(S(=O)(=O)[O-])cc6)c6ccc3[nH]6)C=C5)C=C4)cc2)CC1
REMARK SMILES IDX 18 1 17 2 15 3 16 4 13 5 9 6 10 7 11 8 12 9 8 10 7 11 6 12
REMARK SMILES IDX 1 13 2 14 3 15 4 16 84 17 5 18 83 19 14 21 19 25 20 26 21 27
REMARK SMILES IDX 22 28 23 29 24 30 82 31 25 32 81 33 26 34 27 35 28 36 75 37
REMARK SMILES IDX 29 38 80 39 74 40 76 41 30 42 79 43 73 44 72 45 31 47 61 48
REMARK SMILES IDX 42 49 60 50 43 51 46 52 59 53 77 54 44 55 45 56 58 58 78 59
REMARK SMILES IDX 47 60 32 61 33 62 41 63 34 64 40 65 35 66 36 67 37 68 38 69
REMARK SMILES IDX 39 70 62 71 63 72 71 73 64 74 70 75 65 76 66 77 67 78 68 79
REMARK SMILES IDX 69 80 48 81 49 82 57 83 50 84 56 85 51 86 52 87 53 88 54 89
REMARK SMILES IDX 55 90
REMARK H PARENT 6 20 14 22 14 23 14 24 76 46 46 57
REMARK Flexibility Score: inf
ROOT
ATOM      1  C   UNL A   1      33.698  27.934  24.889  1.00  0.00     0.274 C 
ENDROOT
BRANCH   1   2
ATOM      2  O   UNL A   1      33.226  26.564  24.805  1.00  0.00    -0.457 OA
BRANCH   2   3
ATOM      3  C   UNL A   1      33.616  25.876  23.687  1.00  0.00     0.368 C 
ATOM      4  O   UNL A   1      33.771  26.422  22.599  1.00  0.00    -0.245 OA
BRANCH   3   5
ATOM      5  C   UNL A   1      33.810  24.325  23.922  1.00  0.00     0.195 C 
ATOM      6  C   UNL A   1      33.016  23.778  25.161  1.00  0.00     0.068 C 
ATOM      7  C   UNL A   1      34.107  23.434  26.210  1.00  0.00     0.011 C 
ATOM      8  C   UNL A   1      35.380  24.122  25.739  1.00  0.00     0.008 C 
ATOM      9  C   UNL A   1      35.281  24.020  24.232  1.00  0.00     0.081 C 
BRANCH   6  10
ATOM     10  C   UNL A   1      32.064  22.580  24.905  1.00  0.00     0.072 C 
BRANCH  10  11
ATOM     11  C   UNL A   1      32.603  21.205  25.339  1.00  0.00     0.262 C 
BRANCH  11  12
ATOM     12  N   UNL A   1      33.207  20.330  24.336  1.00  0.00    -0.335 N 
ATOM     13  C   UNL A   1      34.196  16.960  22.925  1.00  0.00     0.011 C 
ATOM     14  C   UNL A   1      33.387  17.345  24.172  1.00  0.00    -0.025 C 
ATOM     15  C   UNL A   1      32.999  16.040  24.902  1.00  0.00     0.011 C 
ATOM     16  C   UNL A   1      34.249  18.205  25.107  1.00  0.00     0.068 C 
ATOM     17  C   UNL A   1      32.103  18.119  23.804  1.00  0.00     0.068 C 
ATOM     18  C   UNL A   1      34.443  19.652  24.669  1.00  0.00     0.262 C 
ATOM     19  C   UNL A   1      32.335  19.590  23.434  1.00  0.00     0.262 C 
ATOM     20  H   UNL A   1      33.528  21.091  23.735  1.00  0.00     0.348 HD
ENDBRANCH  11  12
ENDBRANCH  10  11
ENDBRANCH   6  10
BRANCH   5  21
ATOM     21  N   UNL A   1      33.523  23.653  22.637  1.00  0.00    -0.343 N 
ATOM     22  H   UNL A   1      33.279  24.353  21.935  1.00  0.00     0.345 HD
ATOM     23  H   UNL A   1      32.745  23.006  22.758  1.00  0.00     0.345 HD
ATOM     24  H   UNL A   1      34.349  23.138  22.331  1.00  0.00     0.345 HD
ENDBRANCH   5  21
ENDBRANCH   3   5
ENDBRANCH   2   3
ENDBRANCH   1   2
BRANCH   1  25
ATOM     25  C   UNL A   1      33.071  28.657  26.080  1.00  0.00     0.275 C 
BRANCH  25  26
ATOM     26  O   UNL A   1      34.037  28.620  27.136  1.00  0.00    -0.458 OA
BRANCH  26  27
ATOM     27  C   UNL A   1      34.332  29.812  27.697  1.00  0.00     0.338 C 
ATOM     28  O   UNL A   1      33.563  30.711  27.982  1.00  0.00    -0.246 OA
BRANCH  27  29
ATOM     29  C   UNL A   1      35.754  29.779  28.077  1.00  0.00     0.060 A 
ATOM     30  C   UNL A   1      36.710  30.021  27.087  1.00  0.00     0.016 A 
ATOM     31  C   UNL A   1      36.148  29.359  29.341  1.00  0.00     0.016 A 
ATOM     32  C   UNL A   1      38.043  29.724  27.314  1.00  0.00     0.010 A 
ATOM     33  C   UNL A   1      37.511  29.180  29.602  1.00  0.00     0.010 A 
ATOM     34  C   UNL A   1      38.468  29.309  28.575  1.00  0.00    -0.014 A 
BRANCH  34  35
ATOM     35  C   UNL A   1      39.885  28.919  28.806  1.00  0.00     0.031 A 
ATOM     36  C   UNL A   1      40.832  29.936  29.381  1.00  0.00     0.074 A 
ATOM     37  C   UNL A   1      40.332  27.675  28.534  1.00  0.00     0.049 A 
ATOM     38  N   UNL A   1      42.137  29.972  29.327  1.00  0.00    -0.248 NA
ATOM     39  C   UNL A   1      40.226  31.082  30.082  1.00  0.00     0.031 C 
ATOM     40  C   UNL A   1      39.516  26.544  28.086  1.00  0.00     0.029 A 
ATOM     41  N   UNL A   1      41.601  27.155  28.604  1.00  0.00    -0.354 N 
ATOM     42  C   UNL A   1      42.499  31.195  29.879  1.00  0.00     0.074 A 
ATOM     43  C   UNL A   1      41.281  31.854  30.299  1.00  0.00     0.031 C 
ATOM     44  C   UNL A   1      40.292  25.455  27.970  1.00  0.00     0.029 A 
ATOM     45  C   UNL A   1      41.677  25.843  28.199  1.00  0.00     0.049 A 
ATOM     46  H   UNL A   1      42.380  27.671  28.912  1.00  0.00     0.167 HD
ATOM     47  C   UNL A   1      43.741  31.724  29.990  1.00  0.00     0.031 A 
ATOM     48  C   UNL A   1      42.745  25.058  27.958  1.00  0.00     0.031 A 
ATOM     49  C   UNL A   1      44.938  31.010  29.634  1.00  0.00     0.049 A 
ATOM     50  C   UNL A   1      44.116  25.658  28.081  1.00  0.00     0.074 A 
ATOM     51  C   UNL A   1      46.251  31.445  29.673  1.00  0.00     0.029 A 
ATOM     52  N   UNL A   1      44.965  29.690  29.209  1.00  0.00    -0.354 N 
ATOM     53  N   UNL A   1      44.451  26.875  28.439  1.00  0.00    -0.248 NA
ATOM     54  C   UNL A   1      45.248  24.793  27.731  1.00  0.00     0.031 C 
ATOM     55  C   UNL A   1      47.070  30.390  29.253  1.00  0.00     0.029 A 
ATOM     56  C   UNL A   1      46.270  29.289  28.992  1.00  0.00     0.049 A 
ATOM     57  H   UNL A   1      44.171  29.121  29.083  1.00  0.00     0.167 HD
ATOM     58  C   UNL A   1      45.835  26.926  28.349  1.00  0.00     0.074 A 
ATOM     59  C   UNL A   1      46.276  25.608  27.932  1.00  0.00     0.031 C 
ATOM     60  C   UNL A   1      46.670  27.970  28.576  1.00  0.00     0.031 A 
BRANCH  47  61
ATOM     61  C   UNL A   1      43.851  33.155  30.439  1.00  0.00    -0.014 A 
ATOM     62  C   UNL A   1      43.906  34.222  29.526  1.00  0.00     0.010 A 
ATOM     63  C   UNL A   1      43.891  33.434  31.819  1.00  0.00     0.010 A 
ATOM     64  C   UNL A   1      44.038  35.538  29.985  1.00  0.00     0.020 A 
ATOM     65  C   UNL A   1      43.999  34.749  32.281  1.00  0.00     0.020 A 
ATOM     66  C   UNL A   1      44.092  35.792  31.359  1.00  0.00     0.054 A 
BRANCH  66  67
ATOM     67  S   UNL A   1      44.253  37.506  31.932  1.00  0.00     0.124 S 
ATOM     68  O   UNL A   1      45.672  37.577  32.269  1.00  0.00    -0.237 OA
ATOM     69  O   UNL A   1      43.846  38.278  30.761  1.00  0.00    -0.237 OA
ATOM     70  O   UNL A   1      43.338  37.578  33.069  1.00  0.00    -0.744 OA
ENDBRANCH  66  67
ENDBRANCH  47  61
BRANCH  48  71
ATOM     71  C   UNL A   1      42.545  23.663  27.480  1.00  0.00    -0.014 A 
ATOM     72  C   UNL A   1      42.617  23.358  26.110  1.00  0.00     0.010 A 
ATOM     73  C   UNL A   1      42.329  22.620  28.401  1.00  0.00     0.010 A 
ATOM     74  C   UNL A   1      42.483  22.037  25.671  1.00  0.00     0.020 A 
ATOM     75  C   UNL A   1      42.225  21.296  27.969  1.00  0.00     0.020 A 
ATOM     76  C   UNL A   1      42.294  21.013  26.604  1.00  0.00     0.054 A 
BRANCH  76  77
ATOM     77  S   UNL A   1      42.211  19.294  26.027  1.00  0.00     0.124 S 
ATOM     78  O   UNL A   1      42.656  18.557  27.205  1.00  0.00    -0.237 OA
ATOM     79  O   UNL A   1      40.800  19.140  25.678  1.00  0.00    -0.237 OA
ATOM     80  O   UNL A   1      43.128  19.273  24.889  1.00  0.00    -0.744 OA
ENDBRANCH  76  77
ENDBRANCH  48  71
BRANCH  60  81
ATOM     81  C   UNL A   1      48.138  27.712  28.404  1.00  0.00    -0.014 A 
ATOM     82  C   UNL A   1      48.809  28.109  27.236  1.00  0.00     0.010 A 
ATOM     83  C   UNL A   1      48.860  27.099  29.445  1.00  0.00     0.010 A 
ATOM     84  C   UNL A   1      50.178  27.873  27.098  1.00  0.00     0.020 A 
ATOM     85  C   UNL A   1      50.232  26.878  29.317  1.00  0.00     0.020 A 
ATOM     86  C   UNL A   1      50.880  27.254  28.138  1.00  0.00     0.054 A 
BRANCH  86  87
ATOM     87  S   UNL A   1      52.664  26.987  27.954  1.00  0.00     0.124 S 
ATOM     88  O   UNL A   1      53.038  28.063  27.042  1.00  0.00    -0.237 OA
ATOM     89  O   UNL A   1      53.154  27.123  29.324  1.00  0.00    -0.237 OA
ATOM     90  O   UNL A   1      52.755  25.638  27.399  1.00  0.00    -0.744 OA
ENDBRANCH  86  87
ENDBRANCH  60  81
ENDBRANCH  34  35
ENDBRANCH  27  29
ENDBRANCH  26  27
ENDBRANCH  25  26
ENDBRANCH   1  25
TORSDOF 18
ENDMDL
MODEL 3
REMARK VINA RESULT:     -10.3      3.278      7.838
REMARK SMILES CC1(C)CC[NH+](CC[C@H]2CCC[C@]2([NH3+])C(=O)OCCOC(=O)c2ccc(-c3c4nc(c(-c5ccc(S(=O)(=O)[O-])cc5)c5ccc([nH]5)c(-c5ccc(S(=O)(=O)[O-])cc5)c5nc(c(-c6ccc(S(=O)(=O)[O-])cc6)c6ccc3[nH]6)C=C5)C=C4)cc2)CC1
REMARK SMILES IDX 18 1 17 2 15 3 16 4 13 5 9 6 10 7 11 8 12 9 8 10 7 11 6 12
REMARK SMILES IDX 1 13 2 14 3 15 4 16 84 17 5 18 83 19 14 21 19 25 20 26 21 27
REMARK SMILES IDX 22 28 23 29 24 30 82 31 25 32 81 33 26 34 27 35 28 36 75 37
REMARK SMILES IDX 29 38 80 39 74 40 76 41 30 42 79 43 73 44 72 45 31 47 61 48
REMARK SMILES IDX 42 49 60 50 43 51 46 52 59 53 77 54 44 55 45 56 58 58 78 59
REMARK SMILES IDX 47 60 32 61 33 62 41 63 34 64 40 65 35 66 36 67 37 68 38 69
REMARK SMILES IDX 39 70 62 71 63 72 71 73 64 74 70 75 65 76 66 77 67 78 68 79
REMARK SMILES IDX 69 80 48 81 49 82 57 83 50 84 56 85 51 86 52 87 53 88 54 89
REMARK SMILES IDX 55 90
REMARK H PARENT 6 20 14 22 14 23 14 24 76 46 46 57
REMARK Flexibility Score: inf
ROOT
ATOM      1  C   UNL A   1      38.057  21.114  25.315  1.00  0.00     0.274 C 
ENDROOT
BRANCH   1   2
ATOM      2  O   UNL A   1      36.809  21.842  25.456  1.00  0.00    -0.457 OA
BRANCH   2   3
ATOM      3  C   UNL A   1      35.680  21.145  25.117  1.00  0.00     0.368 C 
ATOM      4  O   UNL A   1      35.673  19.923  24.996  1.00  0.00    -0.245 OA
BRANCH   3   5
ATOM      5  C   UNL A   1      34.413  22.056  24.868  1.00  0.00     0.195 C 
ATOM      6  C   UNL A   1      34.484  22.868  23.527  1.00  0.00     0.068 C 
ATOM      7  C   UNL A   1      34.675  24.344  23.968  1.00  0.00     0.011 C 
ATOM      8  C   UNL A   1      35.089  24.298  25.432  1.00  0.00     0.008 C 
ATOM      9  C   UNL A   1      34.305  23.120  25.968  1.00  0.00     0.081 C 
BRANCH   6  10
ATOM     10  C   UNL A   1      33.288  22.708  22.551  1.00  0.00     0.072 C 
BRANCH  10  11
ATOM     11  C   UNL A   1      32.850  23.995  21.829  1.00  0.00     0.262 C 
BRANCH  11  12
ATOM     12  N   UNL A   1      31.612  24.654  22.240  1.00  0.00    -0.335 N 
ATOM     13  C   UNL A   1      29.364  26.404  24.731  1.00  0.00     0.011 C 
ATOM     14  C   UNL A   1      30.817  25.920  24.835  1.00  0.00    -0.025 C 
ATOM     15  C   UNL A   1      31.317  26.234  26.263  1.00  0.00     0.011 C 
ATOM     16  C   UNL A   1      30.878  24.404  24.605  1.00  0.00     0.068 C 
ATOM     17  C   UNL A   1      31.731  26.630  23.812  1.00  0.00     0.068 C 
ATOM     18  C   UNL A   1      30.732  23.956  23.155  1.00  0.00     0.262 C 
ATOM     19  C   UNL A   1      31.602  26.104  22.377  1.00  0.00     0.262 C 
ATOM     20  H   UNL A   1      31.142  24.528  21.342  1.00  0.00     0.348 HD
ENDBRANCH  11  12
ENDBRANCH  10  11
ENDBRANCH   6  10
BRANCH   5  21
ATOM     21  N   UNL A   1      33.223  21.194  25.026  1.00  0.00    -0.343 N 
ATOM     22  H   UNL A   1      33.445  20.247  24.717  1.00  0.00     0.345 HD
ATOM     23  H   UNL A   1      32.457  21.564  24.464  1.00  0.00     0.345 HD
ATOM     24  H   UNL A   1      32.945  21.174  26.007  1.00  0.00     0.345 HD
ENDBRANCH   5  21
ENDBRANCH   3   5
ENDBRANCH   2   3
ENDBRANCH   1   2
BRANCH   1  25
ATOM     25  C   UNL A   1      39.173  21.779  26.117  1.00  0.00     0.275 C 
BRANCH  25  26
ATOM     26  O   UNL A   1      39.822  20.739  26.857  1.00  0.00    -0.458 OA
BRANCH  26  27
ATOM     27  C   UNL A   1      41.008  20.326  26.362  1.00  0.00     0.338 C 
ATOM     28  O   UNL A   1      41.232  19.327  25.703  1.00  0.00    -0.246 OA
BRANCH  27  29
ATOM     29  C   UNL A   1      41.985  21.399  26.607  1.00  0.00     0.060 A 
ATOM     30  C   UNL A   1      42.413  21.617  27.919  1.00  0.00     0.016 A 
ATOM     31  C   UNL A   1      42.352  22.279  25.597  1.00  0.00     0.016 A 
ATOM     32  C   UNL A   1      43.095  22.776  28.250  1.00  0.00     0.010 A 
ATOM     33  C   UNL A   1      43.148  23.384  25.916  1.00  0.00     0.010 A 
ATOM     34  C   UNL A   1      43.484  23.673  27.255  1.00  0.00    -0.014 A 
BRANCH  34  35
ATOM     35  C   UNL A   1      44.152  24.953  27.610  1.00  0.00     0.031 A 
ATOM     36  C   UNL A   1      43.324  26.063  28.200  1.00  0.00     0.074 A 
ATOM     37  C   UNL A   1      45.477  25.135  27.436  1.00  0.00     0.049 A 
ATOM     38  N   UNL A   1      43.572  27.344  28.240  1.00  0.00    -0.248 NA
ATOM     39  C   UNL A   1      42.032  25.679  28.794  1.00  0.00     0.031 C 
ATOM     40  C   UNL A   1      46.436  24.121  26.988  1.00  0.00     0.029 A 
ATOM     41  N   UNL A   1      46.251  26.254  27.625  1.00  0.00    -0.354 N 
ATOM     42  C   UNL A   1      42.420  27.930  28.754  1.00  0.00     0.074 A 
ATOM     43  C   UNL A   1      41.491  26.862  29.049  1.00  0.00     0.031 C 
ATOM     44  C   UNL A   1      47.670  24.647  26.986  1.00  0.00     0.029 A 
ATOM     45  C   UNL A   1      47.572  26.067  27.296  1.00  0.00     0.049 A 
ATOM     46  H   UNL A   1      45.894  27.106  27.964  1.00  0.00     0.167 HD
ATOM     47  C   UNL A   1      42.163  29.248  28.929  1.00  0.00     0.031 A 
ATOM     48  C   UNL A   1      48.582  26.951  27.175  1.00  0.00     0.031 A 
ATOM     49  C   UNL A   1      43.138  30.280  28.700  1.00  0.00     0.049 A 
ATOM     50  C   UNL A   1      48.281  28.410  27.368  1.00  0.00     0.074 A 
ATOM     51  C   UNL A   1      42.991  31.652  28.813  1.00  0.00     0.029 A 
ATOM     52  N   UNL A   1      44.459  30.045  28.346  1.00  0.00    -0.354 N 
ATOM     53  N   UNL A   1      47.143  28.979  27.686  1.00  0.00    -0.248 NA
ATOM     54  C   UNL A   1      49.390  29.346  27.146  1.00  0.00     0.031 C 
ATOM     55  C   UNL A   1      44.222  32.246  28.509  1.00  0.00     0.029 A 
ATOM     56  C   UNL A   1      45.143  31.243  28.246  1.00  0.00     0.049 A 
ATOM     57  H   UNL A   1      44.852  29.156  28.191  1.00  0.00     0.167 HD
ATOM     58  C   UNL A   1      47.395  30.344  27.695  1.00  0.00     0.074 A 
ATOM     59  C   UNL A   1      48.802  30.512  27.381  1.00  0.00     0.031 C 
ATOM     60  C   UNL A   1      46.541  31.371  27.929  1.00  0.00     0.031 A 
BRANCH  47  61
ATOM     61  C   UNL A   1      40.762  29.640  29.311  1.00  0.00    -0.014 A 
ATOM     62  C   UNL A   1      39.723  29.713  28.367  1.00  0.00     0.010 A 
ATOM     63  C   UNL A   1      40.481  29.933  30.659  1.00  0.00     0.010 A 
ATOM     64  C   UNL A   1      38.440  30.110  28.758  1.00  0.00     0.020 A 
ATOM     65  C   UNL A   1      39.195  30.307  31.058  1.00  0.00     0.020 A 
ATOM     66  C   UNL A   1      38.186  30.413  30.100  1.00  0.00     0.054 A 
BRANCH  66  67
ATOM     67  S   UNL A   1      36.512  30.915  30.588  1.00  0.00     0.124 S 
ATOM     68  O   UNL A   1      36.094  29.793  31.425  1.00  0.00    -0.237 OA
ATOM     69  O   UNL A   1      36.744  32.172  31.294  1.00  0.00    -0.237 OA
ATOM     70  O   UNL A   1      35.803  31.041  29.316  1.00  0.00    -0.744 OA
ENDBRANCH  66  67
ENDBRANCH  47  61
BRANCH  48  71
ATOM     71  C   UNL A   1      49.931  26.482  26.755  1.00  0.00    -0.014 A 
ATOM     72  C   UNL A   1      50.859  26.029  27.707  1.00  0.00     0.010 A 
ATOM     73  C   UNL A   1      50.276  26.442  25.391  1.00  0.00     0.010 A 
ATOM     74  C   UNL A   1      52.105  25.538  27.302  1.00  0.00     0.020 A 
ATOM     75  C   UNL A   1      51.507  25.924  24.981  1.00  0.00     0.020 A 
ATOM     76  C   UNL A   1      52.419  25.483  25.941  1.00  0.00     0.054 A 
BRANCH  76  77
ATOM     77  S   UNL A   1      54.003  24.762  25.427  1.00  0.00     0.124 S 
ATOM     78  O   UNL A   1      54.805  24.896  26.638  1.00  0.00    -0.237 OA
ATOM     79  O   UNL A   1      53.632  23.398  25.059  1.00  0.00    -0.237 OA
ATOM     80  O   UNL A   1      54.412  25.608  24.306  1.00  0.00    -0.744 OA
ENDBRANCH  76  77
ENDBRANCH  48  71
BRANCH  60  81
ATOM     81  C   UNL A   1      47.118  32.755  27.880  1.00  0.00    -0.014 A 
ATOM     82  C   UNL A   1      47.122  33.493  26.685  1.00  0.00     0.010 A 
ATOM     83  C   UNL A   1      47.624  33.337  29.056  1.00  0.00     0.010 A 
ATOM     84  C   UNL A   1      47.651  34.784  26.659  1.00  0.00     0.020 A 
ATOM     85  C   UNL A   1      48.136  34.635  29.037  1.00  0.00     0.020 A 
ATOM     86  C   UNL A   1      48.160  35.346  27.835  1.00  0.00     0.054 A 
BRANCH  86  87
ATOM     87  S   UNL A   1      48.810  37.037  27.790  1.00  0.00     0.124 S 
ATOM     88  O   UNL A   1      50.127  36.870  28.398  1.00  0.00    -0.237 OA
ATOM     89  O   UNL A   1      48.810  37.346  26.361  1.00  0.00    -0.237 OA
ATOM     90  O   UNL A   1      47.847  37.798  28.584  1.00  0.00    -0.744 OA
ENDBRANCH  86  87
ENDBRANCH  60  81
ENDBRANCH  34  35
ENDBRANCH  27  29
ENDBRANCH  26  27
ENDBRANCH  25  26
ENDBRANCH   1  25
TORSDOF 18
ENDMDL
