MODEL 1
REMARK VINA RESULT:     -10.7      0.000      0.000
REMARK SMILES C[C@H]1CC[C@@H]([C@@H](Cc2ccccc2)C(=O)OCCOC(=O)c2ccc(-c3c4nc(c(-c5ccc(S(=O)(=O)[O-])cc5)c5ccc([nH]5)c(-c5ccc(S(=O)(=O)[O-])cc5)c5nc(c(-c6ccc(S(=O)(=O)[O-])cc6)c6ccc3[nH]6)C=C5)C=C4)cc2)C[C@@H]1C
REMARK SMILES IDX 18 1 17 2 16 3 14 4 15 5 6 6 5 7 1 8 2 9 3 10 83 11 4 12
REMARK SMILES IDX 82 13 84 14 7 15 8 16 9 17 13 18 10 19 12 20 11 21 19 22
REMARK SMILES IDX 20 23 21 24 22 25 23 26 81 27 24 28 80 29 25 30 26 31 27 32
REMARK SMILES IDX 74 33 28 34 79 35 73 36 75 37 29 38 78 39 72 40 71 41 30 43
REMARK SMILES IDX 60 44 41 45 59 46 42 47 45 48 58 49 76 50 43 51 44 52 57 54
REMARK SMILES IDX 77 55 46 56 31 57 32 58 40 59 33 60 39 61 34 62 35 63 36 64
REMARK SMILES IDX 37 65 38 66 61 67 62 68 70 69 63 70 69 71 64 72 65 73 66 74
REMARK SMILES IDX 67 75 68 76 47 77 48 78 56 79 49 80 55 81 50 82 51 83 52 84
REMARK SMILES IDX 53 85 54 86
REMARK H PARENT 75 42 45 53
REMARK Flexibility Score: inf
ROOT
ATOM      1  C   UNL A   1      32.603  29.658  26.671  1.00  0.00     0.275 C 
ENDROOT
BRANCH   1   2
ATOM      2  C   UNL A   1      33.091  28.783  25.518  1.00  0.00     0.274 C 
BRANCH   2   3
ATOM      3  O   UNL A   1      33.173  27.396  25.901  1.00  0.00    -0.462 OA
BRANCH   3   4
ATOM      4  C   UNL A   1      32.238  26.567  25.373  1.00  0.00     0.309 C 
ATOM      5  O   UNL A   1      31.098  26.912  25.076  1.00  0.00    -0.252 OA
BRANCH   4   6
ATOM      6  C   UNL A   1      32.703  25.117  25.252  1.00  0.00     0.107 C 
BRANCH   6   7
ATOM      7  C   UNL A   1      31.565  24.039  25.208  1.00  0.00     0.004 C 
ATOM      8  C   UNL A   1      33.715  20.212  24.751  1.00  0.00     0.008 C 
ATOM      9  C   UNL A   1      32.534  21.177  24.901  1.00  0.00    -0.011 C 
ATOM     10  C   UNL A   1      32.701  21.968  26.211  1.00  0.00     0.004 C 
ATOM     11  C   UNL A   1      32.415  22.124  23.688  1.00  0.00    -0.011 C 
ATOM     12  C   UNL A   1      31.638  23.044  26.389  1.00  0.00     0.005 C 
ATOM     13  C   UNL A   1      31.367  23.226  23.922  1.00  0.00     0.008 C 
ATOM     14  C   UNL A   1      32.101  21.397  22.378  1.00  0.00     0.008 C 
ENDBRANCH   6   7
BRANCH   6  15
ATOM     15  C   UNL A   1      33.916  25.070  24.293  1.00  0.00     0.051 C 
BRANCH  15  16
ATOM     16  C   UNL A   1      35.094  24.134  24.490  1.00  0.00    -0.047 A 
ATOM     17  C   UNL A   1      35.496  23.349  23.394  1.00  0.00     0.004 A 
ATOM     18  C   UNL A   1      35.803  23.984  25.684  1.00  0.00     0.004 A 
ATOM     19  C   UNL A   1      36.605  22.504  23.475  1.00  0.00     0.000 A 
ATOM     20  C   UNL A   1      36.917  23.145  25.769  1.00  0.00     0.000 A 
ATOM     21  C   UNL A   1      37.325  22.412  24.662  1.00  0.00     0.000 A 
ENDBRANCH  15  16
ENDBRANCH   6  15
ENDBRANCH   4   6
ENDBRANCH   3   4
ENDBRANCH   2   3
ENDBRANCH   1   2
BRANCH   1  22
ATOM     22  O   UNL A   1      33.482  29.550  27.800  1.00  0.00    -0.458 OA
BRANCH  22  23
ATOM     23  C   UNL A   1      34.316  30.604  27.974  1.00  0.00     0.338 C 
ATOM     24  O   UNL A   1      34.012  31.779  28.073  1.00  0.00    -0.246 OA
BRANCH  23  25
ATOM     25  C   UNL A   1      35.676  30.097  28.192  1.00  0.00     0.060 A 
ATOM     26  C   UNL A   1      36.019  29.663  29.476  1.00  0.00     0.016 A 
ATOM     27  C   UNL A   1      36.610  30.079  27.155  1.00  0.00     0.016 A 
ATOM     28  C   UNL A   1      37.309  29.213  29.735  1.00  0.00     0.010 A 
ATOM     29  C   UNL A   1      37.906  29.636  27.418  1.00  0.00     0.010 A 
ATOM     30  C   UNL A   1      38.263  29.215  28.712  1.00  0.00    -0.014 A 
BRANCH  30  31
ATOM     31  C   UNL A   1      39.669  28.868  29.004  1.00  0.00     0.031 A 
ATOM     32  C   UNL A   1      40.572  29.923  29.573  1.00  0.00     0.074 A 
ATOM     33  C   UNL A   1      40.129  27.632  28.735  1.00  0.00     0.049 A 
ATOM     34  N   UNL A   1      41.860  29.881  29.782  1.00  0.00    -0.248 NA
ATOM     35  C   UNL A   1      39.938  31.198  29.953  1.00  0.00     0.031 C 
ATOM     36  C   UNL A   1      39.323  26.521  28.224  1.00  0.00     0.029 A 
ATOM     37  N   UNL A   1      41.391  27.111  28.842  1.00  0.00    -0.354 N 
ATOM     38  C   UNL A   1      42.199  31.131  30.288  1.00  0.00     0.074 A 
ATOM     39  C   UNL A   1      40.982  31.911  30.352  1.00  0.00     0.031 C 
ATOM     40  C   UNL A   1      40.118  25.451  28.049  1.00  0.00     0.029 A 
ATOM     41  C   UNL A   1      41.490  25.816  28.391  1.00  0.00     0.049 A 
ATOM     42  H   UNL A   1      42.154  27.615  29.206  1.00  0.00     0.167 HD
ATOM     43  C   UNL A   1      43.419  31.583  30.658  1.00  0.00     0.031 A 
ATOM     44  C   UNL A   1      42.574  25.030  28.242  1.00  0.00     0.031 A 
ATOM     45  C   UNL A   1      44.619  30.794  30.594  1.00  0.00     0.049 A 
ATOM     46  C   UNL A   1      43.927  25.579  28.611  1.00  0.00     0.074 A 
ATOM     47  C   UNL A   1      45.903  31.148  30.966  1.00  0.00     0.029 A 
ATOM     48  N   UNL A   1      44.681  29.490  30.123  1.00  0.00    -0.354 N 
ATOM     49  N   UNL A   1      44.233  26.759  29.102  1.00  0.00    -0.248 NA
ATOM     50  C   UNL A   1      45.081  24.694  28.407  1.00  0.00     0.031 C 
ATOM     51  C   UNL A   1      46.751  30.074  30.677  1.00  0.00     0.029 A 
ATOM     52  C   UNL A   1      45.986  29.033  30.175  1.00  0.00     0.049 A 
ATOM     53  H   UNL A   1      43.912  28.969  29.801  1.00  0.00     0.167 HD
ATOM     54  C   UNL A   1      45.610  26.744  29.290  1.00  0.00     0.074 A 
ATOM     55  C   UNL A   1      46.076  25.437  28.873  1.00  0.00     0.031 C 
ATOM     56  C   UNL A   1      46.420  27.722  29.764  1.00  0.00     0.031 A 
BRANCH  43  57
ATOM     57  C   UNL A   1      43.526  33.007  31.130  1.00  0.00    -0.014 A 
ATOM     58  C   UNL A   1      43.428  33.335  32.493  1.00  0.00     0.010 A 
ATOM     59  C   UNL A   1      43.790  34.026  30.197  1.00  0.00     0.010 A 
ATOM     60  C   UNL A   1      43.570  34.661  32.913  1.00  0.00     0.020 A 
ATOM     61  C   UNL A   1      43.954  35.350  30.614  1.00  0.00     0.020 A 
ATOM     62  C   UNL A   1      43.834  35.660  31.969  1.00  0.00     0.054 A 
BRANCH  62  63
ATOM     63  S   UNL A   1      44.065  37.365  32.546  1.00  0.00     0.124 S 
ATOM     64  O   UNL A   1      45.459  37.348  32.984  1.00  0.00    -0.237 OA
ATOM     65  O   UNL A   1      43.795  38.150  31.343  1.00  0.00    -0.237 OA
ATOM     66  O   UNL A   1      43.078  37.507  33.613  1.00  0.00    -0.744 OA
ENDBRANCH  62  63
ENDBRANCH  43  57
BRANCH  44  67
ATOM     67  C   UNL A   1      42.437  23.656  27.686  1.00  0.00    -0.014 A 
ATOM     68  C   UNL A   1      42.141  22.569  28.527  1.00  0.00     0.010 A 
ATOM     69  C   UNL A   1      42.631  23.423  26.311  1.00  0.00     0.010 A 
ATOM     70  C   UNL A   1      42.073  21.271  28.011  1.00  0.00     0.020 A 
ATOM     71  C   UNL A   1      42.535  22.131  25.787  1.00  0.00     0.020 A 
ATOM     72  C   UNL A   1      42.275  21.060  26.643  1.00  0.00     0.054 A 
BRANCH  72  73
ATOM     73  S   UNL A   1      42.164  19.371  25.989  1.00  0.00     0.124 S 
ATOM     74  O   UNL A   1      43.053  19.436  24.833  1.00  0.00    -0.237 OA
ATOM     75  O   UNL A   1      42.641  18.563  27.109  1.00  0.00    -0.237 OA
ATOM     76  O   UNL A   1      40.744  19.219  25.681  1.00  0.00    -0.744 OA
ENDBRANCH  72  73
ENDBRANCH  44  67
BRANCH  56  77
ATOM     77  C   UNL A   1      47.882  27.399  29.905  1.00  0.00    -0.014 A 
ATOM     78  C   UNL A   1      48.794  27.689  28.876  1.00  0.00     0.010 A 
ATOM     79  C   UNL A   1      48.354  26.850  31.111  1.00  0.00     0.010 A 
ATOM     80  C   UNL A   1      50.153  27.406  29.040  1.00  0.00     0.020 A 
ATOM     81  C   UNL A   1      49.715  26.590  31.288  1.00  0.00     0.020 A 
ATOM     82  C   UNL A   1      50.603  26.857  30.245  1.00  0.00     0.054 A 
BRANCH  82  83
ATOM     83  S   UNL A   1      52.377  26.541  30.453  1.00  0.00     0.124 S 
ATOM     84  O   UNL A   1      52.790  26.216  29.090  1.00  0.00    -0.237 OA
ATOM     85  O   UNL A   1      52.873  27.813  30.972  1.00  0.00    -0.237 OA
ATOM     86  O   UNL A   1      52.421  25.429  31.400  1.00  0.00    -0.744 OA
ENDBRANCH  82  83
ENDBRANCH  56  77
ENDBRANCH  30  31
ENDBRANCH  23  25
ENDBRANCH  22  23
ENDBRANCH   1  22
TORSDOF 17
ENDMDL
MODEL 2
REMARK VINA RESULT:     -10.3      2.755      9.233
REMARK SMILES C[C@H]1CC[C@@H]([C@@H](Cc2ccccc2)C(=O)OCCOC(=O)c2ccc(-c3c4nc(c(-c5ccc(S(=O)(=O)[O-])cc5)c5ccc([nH]5)c(-c5ccc(S(=O)(=O)[O-])cc5)c5nc(c(-c6ccc(S(=O)(=O)[O-])cc6)c6ccc3[nH]6)C=C5)C=C4)cc2)C[C@@H]1C
REMARK SMILES IDX 18 1 17 2 16 3 14 4 15 5 6 6 5 7 1 8 2 9 3 10 83 11 4 12
REMARK SMILES IDX 82 13 84 14 7 15 8 16 9 17 13 18 10 19 12 20 11 21 19 22
REMARK SMILES IDX 20 23 21 24 22 25 23 26 81 27 24 28 80 29 25 30 26 31 27 32
REMARK SMILES IDX 74 33 28 34 79 35 73 36 75 37 29 38 78 39 72 40 71 41 30 43
REMARK SMILES IDX 60 44 41 45 59 46 42 47 45 48 58 49 76 50 43 51 44 52 57 54
REMARK SMILES IDX 77 55 46 56 31 57 32 58 40 59 33 60 39 61 34 62 35 63 36 64
REMARK SMILES IDX 37 65 38 66 61 67 62 68 70 69 63 70 69 71 64 72 65 73 66 74
REMARK SMILES IDX 67 75 68 76 47 77 48 78 56 79 49 80 55 81 50 82 51 83 52 84
REMARK SMILES IDX 53 85 54 86
REMARK H PARENT 75 42 45 53
REMARK Flexibility Score: inf
ROOT
ATOM      1  C   UNL A   1      36.682  23.331  24.579  1.00  0.00     0.275 C 
ENDROOT
BRANCH   1   2
ATOM      2  C   UNL A   1      35.441  22.448  24.468  1.00  0.00     0.274 C 
BRANCH   2   3
ATOM      3  O   UNL A   1      34.528  22.674  25.561  1.00  0.00    -0.462 OA
BRANCH   3   4
ATOM      4  C   UNL A   1      33.223  22.844  25.232  1.00  0.00     0.309 C 
ATOM      5  O   UNL A   1      32.401  21.935  25.172  1.00  0.00    -0.252 OA
BRANCH   4   6
ATOM      6  C   UNL A   1      32.870  24.282  24.854  1.00  0.00     0.107 C 
BRANCH   6   7
ATOM      7  C   UNL A   1      32.192  24.470  23.452  1.00  0.00     0.004 C 
ATOM      8  C   UNL A   1      32.145  28.842  22.848  1.00  0.00     0.008 C 
ATOM      9  C   UNL A   1      31.917  27.356  22.547  1.00  0.00    -0.011 C 
ATOM     10  C   UNL A   1      33.273  26.628  22.580  1.00  0.00     0.004 C 
ATOM     11  C   UNL A   1      30.919  26.722  23.540  1.00  0.00    -0.011 C 
ATOM     12  C   UNL A   1      33.135  25.120  22.414  1.00  0.00     0.005 C 
ATOM     13  C   UNL A   1      30.842  25.193  23.376  1.00  0.00     0.008 C 
ATOM     14  C   UNL A   1      29.510  27.313  23.445  1.00  0.00     0.008 C 
ENDBRANCH   6   7
BRANCH   6  15
ATOM     15  C   UNL A   1      32.356  25.009  26.118  1.00  0.00     0.051 C 
BRANCH  15  16
ATOM     16  C   UNL A   1      32.546  26.496  26.356  1.00  0.00    -0.047 A 
ATOM     17  C   UNL A   1      33.790  27.059  26.020  1.00  0.00     0.004 A 
ATOM     18  C   UNL A   1      31.579  27.347  26.898  1.00  0.00     0.004 A 
ATOM     19  C   UNL A   1      34.027  28.429  26.156  1.00  0.00     0.000 A 
ATOM     20  C   UNL A   1      31.808  28.719  27.030  1.00  0.00     0.000 A 
ATOM     21  C   UNL A   1      33.029  29.262  26.650  1.00  0.00     0.000 A 
ENDBRANCH  15  16
ENDBRANCH   6  15
ENDBRANCH   4   6
ENDBRANCH   3   4
ENDBRANCH   2   3
ENDBRANCH   1   2
BRANCH   1  22
ATOM     22  O   UNL A   1      37.098  23.456  25.947  1.00  0.00    -0.458 OA
BRANCH  22  23
ATOM     23  C   UNL A   1      38.404  23.178  26.171  1.00  0.00     0.338 C 
ATOM     24  O   UNL A   1      39.032  22.209  25.783  1.00  0.00    -0.246 OA
BRANCH  23  25
ATOM     25  C   UNL A   1      39.022  24.329  26.842  1.00  0.00     0.060 A 
ATOM     26  C   UNL A   1      38.699  24.560  28.182  1.00  0.00     0.016 A 
ATOM     27  C   UNL A   1      39.881  25.186  26.152  1.00  0.00     0.016 A 
ATOM     28  C   UNL A   1      39.230  25.662  28.844  1.00  0.00     0.010 A 
ATOM     29  C   UNL A   1      40.406  26.295  26.814  1.00  0.00     0.010 A 
ATOM     30  C   UNL A   1      40.071  26.544  28.157  1.00  0.00    -0.014 A 
BRANCH  30  31
ATOM     31  C   UNL A   1      40.534  27.789  28.805  1.00  0.00     0.031 A 
ATOM     32  C   UNL A   1      41.912  27.825  29.400  1.00  0.00     0.074 A 
ATOM     33  C   UNL A   1      39.718  28.855  28.879  1.00  0.00     0.049 A 
ATOM     34  N   UNL A   1      42.473  28.755  30.124  1.00  0.00    -0.248 NA
ATOM     35  C   UNL A   1      42.770  26.654  29.149  1.00  0.00     0.031 C 
ATOM     36  C   UNL A   1      38.378  28.939  28.293  1.00  0.00     0.029 A 
ATOM     37  N   UNL A   1      39.893  30.069  29.492  1.00  0.00    -0.354 N 
ATOM     38  C   UNL A   1      43.736  28.272  30.443  1.00  0.00     0.074 A 
ATOM     39  C   UNL A   1      43.860  26.965  29.836  1.00  0.00     0.031 C 
ATOM     40  C   UNL A   1      37.848  30.139  28.589  1.00  0.00     0.029 A 
ATOM     41  C   UNL A   1      38.789  30.884  29.419  1.00  0.00     0.049 A 
ATOM     42  H   UNL A   1      40.729  30.330  29.941  1.00  0.00     0.167 HD
ATOM     43  C   UNL A   1      44.701  28.868  31.181  1.00  0.00     0.031 A 
ATOM     44  C   UNL A   1      38.558  32.083  29.989  1.00  0.00     0.031 A 
ATOM     45  C   UNL A   1      44.565  30.171  31.774  1.00  0.00     0.049 A 
ATOM     46  C   UNL A   1      39.629  32.697  30.851  1.00  0.00     0.074 A 
ATOM     47  C   UNL A   1      45.491  30.877  32.522  1.00  0.00     0.029 A 
ATOM     48  N   UNL A   1      43.430  30.963  31.687  1.00  0.00    -0.354 N 
ATOM     49  N   UNL A   1      40.826  32.236  31.134  1.00  0.00    -0.248 NA
ATOM     50  C   UNL A   1      39.321  33.992  31.471  1.00  0.00     0.031 C 
ATOM     51  C   UNL A   1      44.898  32.077  32.926  1.00  0.00     0.029 A 
ATOM     52  C   UNL A   1      43.623  32.141  32.385  1.00  0.00     0.049 A 
ATOM     53  H   UNL A   1      42.610  30.722  31.200  1.00  0.00     0.167 HD
ATOM     54  C   UNL A   1      41.421  33.198  31.941  1.00  0.00     0.074 A 
ATOM     55  C   UNL A   1      40.459  34.272  32.092  1.00  0.00     0.031 C 
ATOM     56  C   UNL A   1      42.652  33.198  32.509  1.00  0.00     0.031 A 
BRANCH  43  57
ATOM     57  C   UNL A   1      45.973  28.103  31.423  1.00  0.00    -0.014 A 
ATOM     58  C   UNL A   1      46.106  27.233  32.519  1.00  0.00     0.010 A 
ATOM     59  C   UNL A   1      47.031  28.212  30.502  1.00  0.00     0.010 A 
ATOM     60  C   UNL A   1      47.283  26.501  32.702  1.00  0.00     0.020 A 
ATOM     61  C   UNL A   1      48.201  27.466  30.669  1.00  0.00     0.020 A 
ATOM     62  C   UNL A   1      48.323  26.623  31.774  1.00  0.00     0.054 A 
BRANCH  62  63
ATOM     63  S   UNL A   1      49.820  25.624  32.006  1.00  0.00     0.124 S 
ATOM     64  O   UNL A   1      50.781  26.626  32.464  1.00  0.00    -0.237 OA
ATOM     65  O   UNL A   1      49.404  24.649  33.011  1.00  0.00    -0.237 OA
ATOM     66  O   UNL A   1      50.081  25.074  30.679  1.00  0.00    -0.744 OA
ENDBRANCH  62  63
ENDBRANCH  43  57
BRANCH  44  67
ATOM     67  C   UNL A   1      37.250  32.767  29.799  1.00  0.00    -0.014 A 
ATOM     68  C   UNL A   1      37.022  33.576  28.673  1.00  0.00     0.010 A 
ATOM     69  C   UNL A   1      36.231  32.634  30.762  1.00  0.00     0.010 A 
ATOM     70  C   UNL A   1      35.814  34.266  28.528  1.00  0.00     0.020 A 
ATOM     71  C   UNL A   1      35.011  33.299  30.606  1.00  0.00     0.020 A 
ATOM     72  C   UNL A   1      34.818  34.126  29.499  1.00  0.00     0.054 A 
BRANCH  72  73
ATOM     73  S   UNL A   1      33.250  35.013  29.283  1.00  0.00     0.124 S 
ATOM     74  O   UNL A   1      32.684  34.957  30.628  1.00  0.00    -0.237 OA
ATOM     75  O   UNL A   1      33.689  36.334  28.837  1.00  0.00    -0.237 OA
ATOM     76  O   UNL A   1      32.548  34.225  28.273  1.00  0.00    -0.744 OA
ENDBRANCH  72  73
ENDBRANCH  44  67
BRANCH  56  77
ATOM     77  C   UNL A   1      43.046  34.413  33.303  1.00  0.00    -0.014 A 
ATOM     78  C   UNL A   1      42.874  34.461  34.697  1.00  0.00     0.010 A 
ATOM     79  C   UNL A   1      43.650  35.500  32.644  1.00  0.00     0.010 A 
ATOM     80  C   UNL A   1      43.274  35.590  35.416  1.00  0.00     0.020 A 
ATOM     81  C   UNL A   1      44.075  36.619  33.364  1.00  0.00     0.020 A 
ATOM     82  C   UNL A   1      43.870  36.662  34.745  1.00  0.00     0.054 A 
BRANCH  82  83
ATOM     83  S   UNL A   1      44.423  38.097  35.705  1.00  0.00     0.124 S 
ATOM     84  O   UNL A   1      43.945  39.211  34.890  1.00  0.00    -0.237 OA
ATOM     85  O   UNL A   1      43.738  37.915  36.982  1.00  0.00    -0.237 OA
ATOM     86  O   UNL A   1      45.875  37.941  35.756  1.00  0.00    -0.744 OA
ENDBRANCH  82  83
ENDBRANCH  56  77
ENDBRANCH  30  31
ENDBRANCH  23  25
ENDBRANCH  22  23
ENDBRANCH   1  22
TORSDOF 17
ENDMDL
MODEL 3
REMARK VINA RESULT:     -10.3      4.767     10.495
REMARK SMILES C[C@H]1CC[C@@H]([C@@H](Cc2ccccc2)C(=O)OCCOC(=O)c2ccc(-c3c4nc(c(-c5ccc(S(=O)(=O)[O-])cc5)c5ccc([nH]5)c(-c5ccc(S(=O)(=O)[O-])cc5)c5nc(c(-c6ccc(S(=O)(=O)[O-])cc6)c6ccc3[nH]6)C=C5)C=C4)cc2)C[C@@H]1C
REMARK SMILES IDX 18 1 17 2 16 3 14 4 15 5 6 6 5 7 1 8 2 9 3 10 83 11 4 12
REMARK SMILES IDX 82 13 84 14 7 15 8 16 9 17 13 18 10 19 12 20 11 21 19 22
REMARK SMILES IDX 20 23 21 24 22 25 23 26 81 27 24 28 80 29 25 30 26 31 27 32
REMARK SMILES IDX 74 33 28 34 79 35 73 36 75 37 29 38 78 39 72 40 71 41 30 43
REMARK SMILES IDX 60 44 41 45 59 46 42 47 45 48 58 49 76 50 43 51 44 52 57 54
REMARK SMILES IDX 77 55 46 56 31 57 32 58 40 59 33 60 39 61 34 62 35 63 36 64
REMARK SMILES IDX 37 65 38 66 61 67 62 68 70 69 63 70 69 71 64 72 65 73 66 74
REMARK SMILES IDX 67 75 68 76 47 77 48 78 56 79 49 80 55 81 50 82 51 83 52 84
REMARK SMILES IDX 53 85 54 86
REMARK H PARENT 75 42 45 53
REMARK Flexibility Score: inf
ROOT
ATOM      1  C   UNL A   1      39.088  22.785  26.229  1.00  0.00     0.275 C 
ENDROOT
BRANCH   1   2
ATOM      2  C   UNL A   1      37.713  23.349  25.875  1.00  0.00     0.274 C 
BRANCH   2   3
ATOM      3  O   UNL A   1      36.659  22.422  26.201  1.00  0.00    -0.462 OA
BRANCH   3   4
ATOM      4  C   UNL A   1      36.163  21.686  25.174  1.00  0.00     0.309 C 
ATOM      5  O   UNL A   1      36.844  20.971  24.446  1.00  0.00    -0.252 OA
BRANCH   4   6
ATOM      6  C   UNL A   1      34.667  21.888  24.943  1.00  0.00     0.107 C 
BRANCH   6   7
ATOM      7  C   UNL A   1      34.279  22.641  23.622  1.00  0.00     0.004 C 
ATOM      8  C   UNL A   1      32.108  26.222  25.014  1.00  0.00     0.008 C 
ATOM      9  C   UNL A   1      32.741  25.227  24.035  1.00  0.00    -0.011 C 
ATOM     10  C   UNL A   1      34.241  25.099  24.356  1.00  0.00     0.004 C 
ATOM     11  C   UNL A   1      32.039  23.852  24.089  1.00  0.00    -0.011 C 
ATOM     12  C   UNL A   1      34.935  24.036  23.514  1.00  0.00     0.005 C 
ATOM     13  C   UNL A   1      32.794  22.792  23.268  1.00  0.00     0.008 C 
ATOM     14  C   UNL A   1      30.578  23.898  23.637  1.00  0.00     0.008 C 
ENDBRANCH   6   7
BRANCH   6  15
ATOM     15  C   UNL A   1      33.922  20.617  25.412  1.00  0.00     0.051 C 
BRANCH  15  16
ATOM     16  C   UNL A   1      33.660  19.426  24.509  1.00  0.00    -0.047 A 
ATOM     17  C   UNL A   1      34.586  18.367  24.538  1.00  0.00     0.004 A 
ATOM     18  C   UNL A   1      32.574  19.309  23.638  1.00  0.00     0.004 A 
ATOM     19  C   UNL A   1      34.389  17.211  23.779  1.00  0.00     0.000 A 
ATOM     20  C   UNL A   1      32.369  18.152  22.882  1.00  0.00     0.000 A 
ATOM     21  C   UNL A   1      33.271  17.098  22.959  1.00  0.00     0.000 A 
ENDBRANCH  15  16
ENDBRANCH   6  15
ENDBRANCH   4   6
ENDBRANCH   3   4
ENDBRANCH   2   3
ENDBRANCH   1   2
BRANCH   1  22
ATOM     22  O   UNL A   1      39.642  23.465  27.364  1.00  0.00    -0.458 OA
BRANCH  22  23
ATOM     23  C   UNL A   1      40.637  24.337  27.074  1.00  0.00     0.338 C 
ATOM     24  O   UNL A   1      41.436  24.271  26.157  1.00  0.00    -0.246 OA
BRANCH  23  25
ATOM     25  C   UNL A   1      40.516  25.501  27.961  1.00  0.00     0.060 A 
ATOM     26  C   UNL A   1      41.563  26.427  27.978  1.00  0.00     0.016 A 
ATOM     27  C   UNL A   1      39.403  25.660  28.788  1.00  0.00     0.016 A 
ATOM     28  C   UNL A   1      41.508  27.522  28.833  1.00  0.00     0.010 A 
ATOM     29  C   UNL A   1      39.352  26.755  29.651  1.00  0.00     0.010 A 
ATOM     30  C   UNL A   1      40.410  27.680  29.687  1.00  0.00    -0.014 A 
BRANCH  30  31
ATOM     31  C   UNL A   1      40.400  28.762  30.693  1.00  0.00     0.031 A 
ATOM     32  C   UNL A   1      41.348  28.680  31.854  1.00  0.00     0.074 A 
ATOM     33  C   UNL A   1      39.533  29.785  30.576  1.00  0.00     0.049 A 
ATOM     34  N   UNL A   1      41.422  29.439  32.913  1.00  0.00    -0.248 NA
ATOM     35  C   UNL A   1      42.343  27.594  31.817  1.00  0.00     0.031 C 
ATOM     36  C   UNL A   1      38.602  29.983  29.463  1.00  0.00     0.029 A 
ATOM     37  N   UNL A   1      39.287  30.842  31.412  1.00  0.00    -0.354 N 
ATOM     38  C   UNL A   1      42.447  28.907  33.686  1.00  0.00     0.074 A 
ATOM     39  C   UNL A   1      42.966  27.758  32.976  1.00  0.00     0.031 C 
ATOM     40  C   UNL A   1      37.875  31.089  29.695  1.00  0.00     0.029 A 
ATOM     41  C   UNL A   1      38.257  31.648  30.989  1.00  0.00     0.049 A 
ATOM     42  H   UNL A   1      39.797  31.007  32.237  1.00  0.00     0.167 HD
ATOM     43  C   UNL A   1      42.908  29.338  34.883  1.00  0.00     0.031 A 
ATOM     44  C   UNL A   1      37.671  32.697  31.597  1.00  0.00     0.031 A 
ATOM     45  C   UNL A   1      42.385  30.486  35.575  1.00  0.00     0.049 A 
ATOM     46  C   UNL A   1      38.168  33.122  32.954  1.00  0.00     0.074 A 
ATOM     47  C   UNL A   1      42.794  31.023  36.782  1.00  0.00     0.029 A 
ATOM     48  N   UNL A   1      41.337  31.271  35.119  1.00  0.00    -0.354 N 
ATOM     49  N   UNL A   1      39.148  32.618  33.669  1.00  0.00    -0.248 NA
ATOM     50  C   UNL A   1      37.480  34.254  33.588  1.00  0.00     0.031 C 
ATOM     51  C   UNL A   1      41.962  32.107  37.079  1.00  0.00     0.029 A 
ATOM     52  C   UNL A   1      41.070  32.277  36.031  1.00  0.00     0.049 A 
ATOM     53  H   UNL A   1      40.855  31.135  34.273  1.00  0.00     0.167 HD
ATOM     54  C   UNL A   1      39.211  33.391  34.822  1.00  0.00     0.074 A 
ATOM     55  C   UNL A   1      38.179  34.402  34.705  1.00  0.00     0.031 C 
ATOM     56  C   UNL A   1      40.045  33.277  35.884  1.00  0.00     0.031 A 
BRANCH  43  57
ATOM     57  C   UNL A   1      44.004  28.547  35.540  1.00  0.00    -0.014 A 
ATOM     58  C   UNL A   1      45.341  28.979  35.503  1.00  0.00     0.010 A 
ATOM     59  C   UNL A   1      43.680  27.382  36.259  1.00  0.00     0.010 A 
ATOM     60  C   UNL A   1      46.338  28.248  36.156  1.00  0.00     0.020 A 
ATOM     61  C   UNL A   1      44.670  26.660  36.931  1.00  0.00     0.020 A 
ATOM     62  C   UNL A   1      45.995  27.093  36.866  1.00  0.00     0.054 A 
BRANCH  62  63
ATOM     63  S   UNL A   1      47.300  26.190  37.746  1.00  0.00     0.124 S 
ATOM     64  O   UNL A   1      47.603  27.099  38.850  1.00  0.00    -0.237 OA
ATOM     65  O   UNL A   1      46.633  24.946  38.122  1.00  0.00    -0.237 OA
ATOM     66  O   UNL A   1      48.357  26.049  36.749  1.00  0.00    -0.744 OA
ENDBRANCH  62  63
ENDBRANCH  43  57
BRANCH  44  67
ATOM     67  C   UNL A   1      36.527  33.398  30.953  1.00  0.00    -0.014 A 
ATOM     68  C   UNL A   1      36.629  33.873  29.634  1.00  0.00     0.010 A 
ATOM     69  C   UNL A   1      35.335  33.621  31.668  1.00  0.00     0.010 A 
ATOM     70  C   UNL A   1      35.575  34.585  29.052  1.00  0.00     0.020 A 
ATOM     71  C   UNL A   1      34.268  34.306  31.081  1.00  0.00     0.020 A 
ATOM     72  C   UNL A   1      34.402  34.801  29.782  1.00  0.00     0.054 A 
BRANCH  72  73
ATOM     73  S   UNL A   1      33.037  35.709  29.004  1.00  0.00     0.124 S 
ATOM     74  O   UNL A   1      33.747  36.762  28.284  1.00  0.00    -0.237 OA
ATOM     75  O   UNL A   1      32.408  34.687  28.170  1.00  0.00    -0.237 OA
ATOM     76  O   UNL A   1      32.235  36.156  30.140  1.00  0.00    -0.744 OA
ENDBRANCH  72  73
ENDBRANCH  44  67
BRANCH  56  77
ATOM     77  C   UNL A   1      39.910  34.300  36.980  1.00  0.00    -0.014 A 
ATOM     78  C   UNL A   1      40.511  35.566  36.872  1.00  0.00     0.010 A 
ATOM     79  C   UNL A   1      39.122  34.003  38.107  1.00  0.00     0.010 A 
ATOM     80  C   UNL A   1      40.348  36.510  37.889  1.00  0.00     0.020 A 
ATOM     81  C   UNL A   1      38.936  34.953  39.113  1.00  0.00     0.020 A 
ATOM     82  C   UNL A   1      39.563  36.196  39.004  1.00  0.00     0.054 A 
BRANCH  82  83
ATOM     83  S   UNL A   1      39.329  37.452  40.290  1.00  0.00     0.124 S 
ATOM     84  O   UNL A   1      38.500  38.439  39.604  1.00  0.00    -0.237 OA
ATOM     85  O   UNL A   1      38.664  36.705  41.354  1.00  0.00    -0.237 OA
ATOM     86  O   UNL A   1      40.689  37.888  40.600  1.00  0.00    -0.744 OA
ENDBRANCH  82  83
ENDBRANCH  56  77
ENDBRANCH  30  31
ENDBRANCH  23  25
ENDBRANCH  22  23
ENDBRANCH   1  22
TORSDOF 17
ENDMDL
