MODEL 1
REMARK VINA RESULT:      -9.2      0.000      0.000
REMARK SMILES NS(=O)(=O)c1ccc(-n2nc(C(=O)NCCCCCCCCCCC(=O)OCCOC(=O)c3ccc(-c4c5nc(c(-c6ccc(S(=O)(=O)[O-])cc6)c6ccc([nH]6)c(-c6ccc(S(=O)(=O)[O-])cc6)c6nc(c(-c7ccc(S(=O)(=O)[O-])cc7)c7ccc4[nH]7)C=C6)C=C5)cc3)cc2-c2ccccc2)cc1
REMARK SMILES IDX 22 1 21 2 20 3 19 4 18 5 17 6 16 7 15 8 14 9 12 10 13 11
REMARK SMILES IDX 11 13 9 14 10 15 94 16 93 17 8 18 5 19 6 20 102 21 7 22
REMARK SMILES IDX 101 23 2 24 3 25 4 26 1 27 95 30 96 31 100 32 97 33 99 34
REMARK SMILES IDX 98 35 23 36 24 37 25 38 26 39 27 40 28 41 29 42 30 43 31 44
REMARK SMILES IDX 32 45 33 46 34 47 92 48 35 49 91 50 36 51 37 52 38 53 85 54
REMARK SMILES IDX 39 55 90 56 84 57 86 58 40 59 89 60 83 61 82 62 41 64 71 65
REMARK SMILES IDX 52 66 70 67 53 68 56 69 69 70 87 71 54 72 55 73 68 75 88 76
REMARK SMILES IDX 57 77 42 78 43 79 51 80 44 81 50 82 45 83 46 84 47 85 48 86
REMARK SMILES IDX 49 87 72 88 73 89 81 90 74 91 80 92 75 93 76 94 77 95 78 96
REMARK SMILES IDX 79 97 58 98 59 99 67 100 60 101 66 102 61 103 62 104 63 105
REMARK SMILES IDX 64 106 65 107
REMARK H PARENT 14 12 1 28 1 29 86 63 56 74
REMARK Flexibility Score: inf
ROOT
ATOM      1  C   UNL A   1      32.244  24.404  25.634  1.00  0.00     0.001 C 
ENDROOT
BRANCH   1   2
ATOM      2  C   UNL A   1      31.672  23.062  25.177  1.00  0.00     0.000 C 
BRANCH   2   3
ATOM      3  C   UNL A   1      32.238  22.636  23.822  1.00  0.00     0.000 C 
BRANCH   3   4
ATOM      4  C   UNL A   1      33.734  22.325  23.890  1.00  0.00     0.000 C 
BRANCH   4   5
ATOM      5  C   UNL A   1      34.041  21.140  24.812  1.00  0.00     0.000 C 
BRANCH   5   6
ATOM      6  C   UNL A   1      35.528  21.041  25.181  1.00  0.00     0.002 C 
BRANCH   6   7
ATOM      7  C   UNL A   1      36.053  22.302  25.872  1.00  0.00     0.021 C 
BRANCH   7   8
ATOM      8  C   UNL A   1      37.474  22.621  25.416  1.00  0.00     0.116 C 
BRANCH   8   9
ATOM      9  N   UNL A   1      38.414  21.835  26.172  1.00  0.00    -0.351 N 
ATOM     10  C   UNL A   1      39.606  22.143  26.774  1.00  0.00     0.271 C 
ATOM     11  O   UNL A   1      40.236  21.182  27.226  1.00  0.00    -0.267 OA
ATOM     12  H   UNL A   1      38.150  20.891  26.277  1.00  0.00     0.163 HD
BRANCH  10  13
ATOM     13  C   UNL A   1      40.076  23.537  26.924  1.00  0.00     0.151 A 
ATOM     14  N   UNL A   1      41.526  25.120  26.864  1.00  0.00    -0.232 N 
ATOM     15  N   UNL A   1      41.247  23.901  26.364  1.00  0.00    -0.162 NA
ATOM     16  C   UNL A   1      40.477  25.644  27.591  1.00  0.00     0.075 A 
ATOM     17  C   UNL A   1      39.511  24.663  27.571  1.00  0.00     0.065 A 
BRANCH  14  18
ATOM     18  C   UNL A   1      42.743  25.759  26.548  1.00  0.00     0.065 A 
ATOM     19  C   UNL A   1      45.130  26.788  25.609  1.00  0.00     0.082 A 
ATOM     20  C   UNL A   1      43.936  27.462  25.329  1.00  0.00     0.024 A 
ATOM     21  C   UNL A   1      45.141  25.630  26.396  1.00  0.00     0.024 A 
ATOM     22  C   UNL A   1      42.735  26.941  25.796  1.00  0.00     0.030 A 
ATOM     23  C   UNL A   1      43.942  25.128  26.895  1.00  0.00     0.030 A 
BRANCH  19  24
ATOM     24  S   UNL A   1      46.619  27.386  24.876  1.00  0.00     0.238 S 
ATOM     25  O   UNL A   1      46.339  28.641  24.218  1.00  0.00    -0.207 OA
ATOM     26  O   UNL A   1      47.292  26.290  24.220  1.00  0.00    -0.207 OA
BRANCH  24  27
ATOM     27  N   UNL A   1      47.591  27.757  26.197  1.00  0.00    -0.225 NA
ATOM     28  H   UNL A   1      48.453  28.198  25.872  1.00  0.00     0.137 HD
ATOM     29  H   UNL A   1      47.818  26.902  26.704  1.00  0.00     0.137 HD
ENDBRANCH  24  27
ENDBRANCH  19  24
ENDBRANCH  14  18
BRANCH  16  30
ATOM     30  C   UNL A   1      40.372  26.994  28.132  1.00  0.00     0.000 A 
ATOM     31  C   UNL A   1      39.664  27.987  27.444  1.00  0.00     0.010 A 
ATOM     32  C   UNL A   1      40.958  27.299  29.366  1.00  0.00     0.010 A 
ATOM     33  C   UNL A   1      39.564  29.274  27.970  1.00  0.00     0.001 A 
ATOM     34  C   UNL A   1      40.855  28.588  29.894  1.00  0.00     0.001 A 
ATOM     35  C   UNL A   1      40.161  29.574  29.194  1.00  0.00     0.000 A 
ENDBRANCH  16  30
ENDBRANCH  10  13
ENDBRANCH   8   9
ENDBRANCH   7   8
ENDBRANCH   6   7
ENDBRANCH   5   6
ENDBRANCH   4   5
ENDBRANCH   3   4
ENDBRANCH   2   3
ENDBRANCH   1   2
BRANCH   1  36
ATOM     36  C   UNL A   1      31.312  25.573  25.305  1.00  0.00     0.012 C 
BRANCH  36  37
ATOM     37  C   UNL A   1      31.803  26.536  24.220  1.00  0.00     0.123 C 
BRANCH  37  38
ATOM     38  C   UNL A   1      31.617  28.025  24.448  1.00  0.00     0.305 C 
ATOM     39  O   UNL A   1      30.602  28.625  24.115  1.00  0.00    -0.252 OA
BRANCH  38  40
ATOM     40  O   UNL A   1      32.653  28.591  25.118  1.00  0.00    -0.462 OA
BRANCH  40  41
ATOM     41  C   UNL A   1      32.367  29.245  26.368  1.00  0.00     0.274 C 
BRANCH  41  42
ATOM     42  C   UNL A   1      33.152  30.543  26.516  1.00  0.00     0.275 C 
BRANCH  42  43
ATOM     43  O   UNL A   1      33.720  30.638  27.820  1.00  0.00    -0.458 OA
BRANCH  43  44
ATOM     44  C   UNL A   1      34.027  31.899  28.191  1.00  0.00     0.338 C 
ATOM     45  O   UNL A   1      33.775  32.924  27.582  1.00  0.00    -0.246 OA
BRANCH  44  46
ATOM     46  C   UNL A   1      34.883  31.886  29.372  1.00  0.00     0.060 A 
ATOM     47  C   UNL A   1      34.899  33.024  30.188  1.00  0.00     0.016 A 
ATOM     48  C   UNL A   1      35.879  30.907  29.430  1.00  0.00     0.016 A 
ATOM     49  C   UNL A   1      36.023  33.270  30.946  1.00  0.00     0.010 A 
ATOM     50  C   UNL A   1      37.009  31.171  30.160  1.00  0.00     0.010 A 
ATOM     51  C   UNL A   1      37.097  32.381  30.847  1.00  0.00    -0.014 A 
BRANCH  51  52
ATOM     52  C   UNL A   1      38.325  32.692  31.546  1.00  0.00     0.031 A 
ATOM     53  C   UNL A   1      39.348  33.330  30.688  1.00  0.00     0.074 A 
ATOM     54  C   UNL A   1      38.417  32.595  32.885  1.00  0.00     0.049 A 
ATOM     55  N   UNL A   1      40.531  32.903  30.397  1.00  0.00    -0.248 NA
ATOM     56  C   UNL A   1      38.937  34.534  29.942  1.00  0.00     0.031 C 
ATOM     57  C   UNL A   1      37.345  32.294  33.841  1.00  0.00     0.029 A 
ATOM     58  N   UNL A   1      39.467  32.900  33.690  1.00  0.00    -0.354 N 
ATOM     59  C   UNL A   1      41.091  33.896  29.600  1.00  0.00     0.074 A 
ATOM     60  C   UNL A   1      40.012  34.758  29.191  1.00  0.00     0.031 C 
ATOM     61  C   UNL A   1      37.737  32.673  35.079  1.00  0.00     0.029 A 
ATOM     62  C   UNL A   1      39.120  33.118  35.018  1.00  0.00     0.049 A 
ATOM     63  H   UNL A   1      40.393  32.961  33.362  1.00  0.00     0.167 HD
ATOM     64  C   UNL A   1      42.432  34.115  29.557  1.00  0.00     0.031 A 
ATOM     65  C   UNL A   1      39.893  33.710  35.963  1.00  0.00     0.031 A 
ATOM     66  C   UNL A   1      43.184  32.991  30.043  1.00  0.00     0.049 A 
ATOM     67  C   UNL A   1      41.292  33.695  35.466  1.00  0.00     0.074 A 
ATOM     68  C   UNL A   1      43.265  31.660  29.683  1.00  0.00     0.029 A 
ATOM     69  N   UNL A   1      43.699  33.071  31.315  1.00  0.00    -0.354 N 
ATOM     70  N   UNL A   1      41.994  32.609  35.312  1.00  0.00    -0.248 NA
ATOM     71  C   UNL A   1      41.768  34.853  34.724  1.00  0.00     0.031 C 
ATOM     72  C   UNL A   1      43.370  30.950  30.915  1.00  0.00     0.029 A 
ATOM     73  C   UNL A   1      43.413  31.887  31.949  1.00  0.00     0.049 A 
ATOM     74  H   UNL A   1      44.183  33.837  31.701  1.00  0.00     0.167 HD
ATOM     75  C   UNL A   1      42.726  32.817  34.152  1.00  0.00     0.074 A 
ATOM     76  C   UNL A   1      42.625  34.251  33.894  1.00  0.00     0.031 C 
ATOM     77  C   UNL A   1      43.109  31.771  33.360  1.00  0.00     0.031 A 
BRANCH  64  78
ATOM     78  C   UNL A   1      43.002  35.506  29.443  1.00  0.00    -0.014 A 
ATOM     79  C   UNL A   1      43.551  35.937  28.224  1.00  0.00     0.010 A 
ATOM     80  C   UNL A   1      43.236  36.319  30.576  1.00  0.00     0.010 A 
ATOM     81  C   UNL A   1      44.314  37.113  28.152  1.00  0.00     0.020 A 
ATOM     82  C   UNL A   1      43.947  37.514  30.507  1.00  0.00     0.020 A 
ATOM     83  C   UNL A   1      44.509  37.890  29.297  1.00  0.00     0.054 A 
BRANCH  83  84
ATOM     84  S   UNL A   1      45.551  39.365  29.214  1.00  0.00     0.124 S 
ATOM     85  O   UNL A   1      44.842  40.279  30.105  1.00  0.00    -0.237 OA
ATOM     86  O   UNL A   1      46.833  38.867  29.705  1.00  0.00    -0.237 OA
ATOM     87  O   UNL A   1      45.527  39.722  27.798  1.00  0.00    -0.744 OA
ENDBRANCH  83  84
ENDBRANCH  64  78
BRANCH  65  88
ATOM     88  C   UNL A   1      39.475  34.571  37.096  1.00  0.00    -0.014 A 
ATOM     89  C   UNL A   1      38.836  34.012  38.220  1.00  0.00     0.010 A 
ATOM     90  C   UNL A   1      39.966  35.888  37.210  1.00  0.00     0.010 A 
ATOM     91  C   UNL A   1      38.763  34.713  39.434  1.00  0.00     0.020 A 
ATOM     92  C   UNL A   1      39.887  36.597  38.415  1.00  0.00     0.020 A 
ATOM     93  C   UNL A   1      39.313  35.993  39.531  1.00  0.00     0.054 A 
BRANCH  93  94
ATOM     94  S   UNL A   1      39.400  36.806  41.154  1.00  0.00     0.124 S 
ATOM     95  O   UNL A   1      38.916  38.151  40.855  1.00  0.00    -0.237 OA
ATOM     96  O   UNL A   1      38.512  35.982  41.969  1.00  0.00    -0.237 OA
ATOM     97  O   UNL A   1      40.816  36.719  41.507  1.00  0.00    -0.744 OA
ENDBRANCH  93  94
ENDBRANCH  65  88
BRANCH  77  98
ATOM     98  C   UNL A   1      42.984  30.368  33.919  1.00  0.00    -0.014 A 
ATOM     99  C   UNL A   1      43.924  29.778  34.788  1.00  0.00     0.010 A 
ATOM    100  C   UNL A   1      41.801  29.660  33.642  1.00  0.00     0.010 A 
ATOM    101  C   UNL A   1      43.707  28.499  35.324  1.00  0.00     0.020 A 
ATOM    102  C   UNL A   1      41.568  28.395  34.188  1.00  0.00     0.020 A 
ATOM    103  C   UNL A   1      42.529  27.812  35.014  1.00  0.00     0.054 A 
BRANCH 103 104
ATOM    104  S   UNL A   1      42.244  26.164  35.719  1.00  0.00     0.124 S 
ATOM    105  O   UNL A   1      43.145  25.324  34.937  1.00  0.00    -0.237 OA
ATOM    106  O   UNL A   1      42.608  26.343  37.122  1.00  0.00    -0.237 OA
ATOM    107  O   UNL A   1      40.819  25.928  35.485  1.00  0.00    -0.744 OA
ENDBRANCH 103 104
ENDBRANCH  77  98
ENDBRANCH  51  52
ENDBRANCH  44  46
ENDBRANCH  43  44
ENDBRANCH  42  43
ENDBRANCH  41  42
ENDBRANCH  40  41
ENDBRANCH  38  40
ENDBRANCH  37  38
ENDBRANCH  36  37
ENDBRANCH   1  36
TORSDOF 29
ENDMDL
MODEL 2
REMARK VINA RESULT:      -8.6      1.885      2.895
REMARK SMILES NS(=O)(=O)c1ccc(-n2nc(C(=O)NCCCCCCCCCCC(=O)OCCOC(=O)c3ccc(-c4c5nc(c(-c6ccc(S(=O)(=O)[O-])cc6)c6ccc([nH]6)c(-c6ccc(S(=O)(=O)[O-])cc6)c6nc(c(-c7ccc(S(=O)(=O)[O-])cc7)c7ccc4[nH]7)C=C6)C=C5)cc3)cc2-c2ccccc2)cc1
REMARK SMILES IDX 22 1 21 2 20 3 19 4 18 5 17 6 16 7 15 8 14 9 12 10 13 11
REMARK SMILES IDX 11 13 9 14 10 15 94 16 93 17 8 18 5 19 6 20 102 21 7 22
REMARK SMILES IDX 101 23 2 24 3 25 4 26 1 27 95 30 96 31 100 32 97 33 99 34
REMARK SMILES IDX 98 35 23 36 24 37 25 38 26 39 27 40 28 41 29 42 30 43 31 44
REMARK SMILES IDX 32 45 33 46 34 47 92 48 35 49 91 50 36 51 37 52 38 53 85 54
REMARK SMILES IDX 39 55 90 56 84 57 86 58 40 59 89 60 83 61 82 62 41 64 71 65
REMARK SMILES IDX 52 66 70 67 53 68 56 69 69 70 87 71 54 72 55 73 68 75 88 76
REMARK SMILES IDX 57 77 42 78 43 79 51 80 44 81 50 82 45 83 46 84 47 85 48 86
REMARK SMILES IDX 49 87 72 88 73 89 81 90 74 91 80 92 75 93 76 94 77 95 78 96
REMARK SMILES IDX 79 97 58 98 59 99 67 100 60 101 66 102 61 103 62 104 63 105
REMARK SMILES IDX 64 106 65 107
REMARK H PARENT 14 12 1 28 1 29 86 63 56 74
REMARK Flexibility Score: inf
ROOT
ATOM      1  C   UNL A   1      33.655  24.835  25.330  1.00  0.00     0.001 C 
ENDROOT
BRANCH   1   2
ATOM      2  C   UNL A   1      32.951  23.502  25.584  1.00  0.00     0.000 C 
BRANCH   2   3
ATOM      3  C   UNL A   1      32.623  22.775  24.280  1.00  0.00     0.000 C 
BRANCH   3   4
ATOM      4  C   UNL A   1      33.623  21.659  23.972  1.00  0.00     0.000 C 
BRANCH   4   5
ATOM      5  C   UNL A   1      34.132  20.965  25.241  1.00  0.00     0.000 C 
BRANCH   5   6
ATOM      6  C   UNL A   1      35.628  20.628  25.177  1.00  0.00     0.002 C 
BRANCH   6   7
ATOM      7  C   UNL A   1      36.516  21.772  25.675  1.00  0.00     0.021 C 
BRANCH   7   8
ATOM      8  C   UNL A   1      37.880  21.738  24.992  1.00  0.00     0.116 C 
BRANCH   8   9
ATOM      9  N   UNL A   1      38.616  20.583  25.436  1.00  0.00    -0.351 N 
ATOM     10  C   UNL A   1      39.910  20.414  25.858  1.00  0.00     0.271 C 
ATOM     11  O   UNL A   1      40.262  19.244  26.034  1.00  0.00    -0.267 OA
ATOM     12  H   UNL A   1      38.088  19.751  25.437  1.00  0.00     0.163 HD
BRANCH  10  13
ATOM     13  C   UNL A   1      40.802  21.559  26.138  1.00  0.00     0.151 A 
ATOM     14  N   UNL A   1      41.263  23.562  26.765  1.00  0.00    -0.232 N 
ATOM     15  N   UNL A   1      40.344  22.583  26.886  1.00  0.00    -0.162 NA
ATOM     16  C   UNL A   1      42.400  23.137  26.110  1.00  0.00     0.075 A 
ATOM     17  C   UNL A   1      42.142  21.828  25.770  1.00  0.00     0.065 A 
BRANCH  14  18
ATOM     18  C   UNL A   1      41.044  24.822  27.358  1.00  0.00     0.065 A 
ATOM     19  C   UNL A   1      40.379  27.105  28.767  1.00  0.00     0.082 A 
ATOM     20  C   UNL A   1      41.546  26.409  29.101  1.00  0.00     0.024 A 
ATOM     21  C   UNL A   1      39.570  26.693  27.701  1.00  0.00     0.024 A 
ATOM     22  C   UNL A   1      41.877  25.257  28.397  1.00  0.00     0.030 A 
ATOM     23  C   UNL A   1      39.920  25.560  26.971  1.00  0.00     0.030 A 
BRANCH  19  24
ATOM     24  S   UNL A   1      39.903  28.473  29.774  1.00  0.00     0.238 S 
ATOM     25  O   UNL A   1      39.771  29.641  28.935  1.00  0.00    -0.207 OA
ATOM     26  O   UNL A   1      40.692  28.462  30.984  1.00  0.00    -0.207 OA
BRANCH  24  27
ATOM     27  N   UNL A   1      38.348  28.076  30.274  1.00  0.00    -0.225 NA
ATOM     28  H   UNL A   1      38.202  28.409  31.228  1.00  0.00     0.137 HD
ATOM     29  H   UNL A   1      38.228  27.064  30.246  1.00  0.00     0.137 HD
ENDBRANCH  24  27
ENDBRANCH  19  24
ENDBRANCH  14  18
BRANCH  16  30
ATOM     30  C   UNL A   1      43.647  23.877  25.949  1.00  0.00     0.000 A 
ATOM     31  C   UNL A   1      44.859  23.344  26.404  1.00  0.00     0.010 A 
ATOM     32  C   UNL A   1      43.643  25.119  25.304  1.00  0.00     0.010 A 
ATOM     33  C   UNL A   1      46.047  24.055  26.242  1.00  0.00     0.001 A 
ATOM     34  C   UNL A   1      44.833  25.830  25.139  1.00  0.00     0.001 A 
ATOM     35  C   UNL A   1      46.033  25.298  25.610  1.00  0.00     0.000 A 
ENDBRANCH  16  30
ENDBRANCH  10  13
ENDBRANCH   8   9
ENDBRANCH   7   8
ENDBRANCH   6   7
ENDBRANCH   5   6
ENDBRANCH   4   5
ENDBRANCH   3   4
ENDBRANCH   2   3
ENDBRANCH   1   2
BRANCH   1  36
ATOM     36  C   UNL A   1      32.671  26.006  25.260  1.00  0.00     0.012 C 
BRANCH  36  37
ATOM     37  C   UNL A   1      32.915  27.018  24.136  1.00  0.00     0.123 C 
BRANCH  37  38
ATOM     38  C   UNL A   1      32.246  28.377  24.239  1.00  0.00     0.305 C 
ATOM     39  O   UNL A   1      31.086  28.572  23.896  1.00  0.00    -0.252 OA
BRANCH  38  40
ATOM     40  O   UNL A   1      33.041  29.314  24.816  1.00  0.00    -0.462 OA
BRANCH  40  41
ATOM     41  C   UNL A   1      32.744  29.705  26.169  1.00  0.00     0.274 C 
BRANCH  41  42
ATOM     42  C   UNL A   1      33.458  30.996  26.550  1.00  0.00     0.275 C 
BRANCH  42  43
ATOM     43  O   UNL A   1      33.779  30.999  27.939  1.00  0.00    -0.458 OA
BRANCH  43  44
ATOM     44  C   UNL A   1      34.003  32.231  28.446  1.00  0.00     0.338 C 
ATOM     45  O   UNL A   1      33.672  33.295  27.955  1.00  0.00    -0.246 OA
BRANCH  44  46
ATOM     46  C   UNL A   1      34.875  32.148  29.612  1.00  0.00     0.060 A 
ATOM     47  C   UNL A   1      34.895  33.233  30.498  1.00  0.00     0.016 A 
ATOM     48  C   UNL A   1      35.877  31.174  29.595  1.00  0.00     0.016 A 
ATOM     49  C   UNL A   1      36.028  33.437  31.255  1.00  0.00     0.010 A 
ATOM     50  C   UNL A   1      37.015  31.398  30.325  1.00  0.00     0.010 A 
ATOM     51  C   UNL A   1      37.105  32.563  31.086  1.00  0.00    -0.014 A 
BRANCH  51  52
ATOM     52  C   UNL A   1      38.341  32.837  31.787  1.00  0.00     0.031 A 
ATOM     53  C   UNL A   1      39.400  33.400  30.920  1.00  0.00     0.074 A 
ATOM     54  C   UNL A   1      38.418  32.776  33.130  1.00  0.00     0.049 A 
ATOM     55  N   UNL A   1      40.564  32.909  30.654  1.00  0.00    -0.248 NA
ATOM     56  C   UNL A   1      39.052  34.599  30.136  1.00  0.00     0.031 C 
ATOM     57  C   UNL A   1      37.324  32.555  34.083  1.00  0.00     0.029 A 
ATOM     58  N   UNL A   1      39.474  33.056  33.935  1.00  0.00    -0.354 N 
ATOM     59  C   UNL A   1      41.177  33.850  29.833  1.00  0.00     0.074 A 
ATOM     60  C   UNL A   1      40.143  34.749  29.388  1.00  0.00     0.031 C 
ATOM     61  C   UNL A   1      37.724  32.952  35.313  1.00  0.00     0.029 A 
ATOM     62  C   UNL A   1      39.127  33.329  35.253  1.00  0.00     0.049 A 
ATOM     63  H   UNL A   1      40.405  33.063  33.614  1.00  0.00     0.167 HD
ATOM     64  C   UNL A   1      42.527  34.005  29.797  1.00  0.00     0.031 A 
ATOM     65  C   UNL A   1      39.919  33.913  36.187  1.00  0.00     0.031 A 
ATOM     66  C   UNL A   1      43.221  32.862  30.323  1.00  0.00     0.049 A 
ATOM     67  C   UNL A   1      41.320  33.817  35.704  1.00  0.00     0.074 A 
ATOM     68  C   UNL A   1      43.242  31.518  30.003  1.00  0.00     0.029 A 
ATOM     69  N   UNL A   1      43.729  32.956  31.597  1.00  0.00    -0.354 N 
ATOM     70  N   UNL A   1      41.971  32.695  35.589  1.00  0.00    -0.248 NA
ATOM     71  C   UNL A   1      41.857  34.929  34.932  1.00  0.00     0.031 C 
ATOM     72  C   UNL A   1      43.304  30.841  31.257  1.00  0.00     0.029 A 
ATOM     73  C   UNL A   1      43.382  31.806  32.263  1.00  0.00     0.049 A 
ATOM     74  H   UNL A   1      44.245  33.710  31.965  1.00  0.00     0.167 HD
ATOM     75  C   UNL A   1      42.722  32.834  34.430  1.00  0.00     0.074 A 
ATOM     76  C   UNL A   1      42.691  34.262  34.129  1.00  0.00     0.031 C 
ATOM     77  C   UNL A   1      43.061  31.747  33.674  1.00  0.00     0.031 A 
BRANCH  64  78
ATOM     78  C   UNL A   1      43.163  35.363  29.647  1.00  0.00    -0.014 A 
ATOM     79  C   UNL A   1      43.631  35.779  28.389  1.00  0.00     0.010 A 
ATOM     80  C   UNL A   1      43.536  36.147  30.763  1.00  0.00     0.010 A 
ATOM     81  C   UNL A   1      44.451  36.912  28.263  1.00  0.00     0.020 A 
ATOM     82  C   UNL A   1      44.306  37.301  30.645  1.00  0.00     0.020 A 
ATOM     83  C   UNL A   1      44.785  37.661  29.394  1.00  0.00     0.054 A 
BRANCH  83  84
ATOM     84  S   UNL A   1      45.897  39.078  29.237  1.00  0.00     0.124 S 
ATOM     85  O   UNL A   1      46.028  39.509  30.625  1.00  0.00    -0.237 OA
ATOM     86  O   UNL A   1      47.088  38.472  28.645  1.00  0.00    -0.237 OA
ATOM     87  O   UNL A   1      45.167  39.990  28.360  1.00  0.00    -0.744 OA
ENDBRANCH  83  84
ENDBRANCH  64  78
BRANCH  65  88
ATOM     88  C   UNL A   1      39.533  34.826  37.290  1.00  0.00    -0.014 A 
ATOM     89  C   UNL A   1      38.963  34.317  38.473  1.00  0.00     0.010 A 
ATOM     90  C   UNL A   1      39.994  36.159  37.307  1.00  0.00     0.010 A 
ATOM     91  C   UNL A   1      38.930  35.083  39.649  1.00  0.00     0.020 A 
ATOM     92  C   UNL A   1      39.955  36.933  38.474  1.00  0.00     0.020 A 
ATOM     93  C   UNL A   1      39.450  36.379  39.648  1.00  0.00     0.054 A 
BRANCH  93  94
ATOM     94  S   UNL A   1      39.593  37.284  41.217  1.00  0.00     0.124 S 
ATOM     95  O   UNL A   1      41.037  37.460  41.345  1.00  0.00    -0.237 OA
ATOM     96  O   UNL A   1      38.829  38.500  40.952  1.00  0.00    -0.237 OA
ATOM     97  O   UNL A   1      38.989  36.378  42.193  1.00  0.00    -0.744 OA
ENDBRANCH  93  94
ENDBRANCH  65  88
BRANCH  77  98
ATOM     98  C   UNL A   1      42.865  30.369  34.273  1.00  0.00    -0.014 A 
ATOM     99  C   UNL A   1      41.617  29.720  34.369  1.00  0.00     0.010 A 
ATOM    100  C   UNL A   1      44.016  29.654  34.651  1.00  0.00     0.010 A 
ATOM    101  C   UNL A   1      41.522  28.413  34.872  1.00  0.00     0.020 A 
ATOM    102  C   UNL A   1      43.930  28.345  35.132  1.00  0.00     0.020 A 
ATOM    103  C   UNL A   1      42.682  27.735  35.256  1.00  0.00     0.054 A 
BRANCH 103 104
ATOM    104  S   UNL A   1      42.556  26.040  35.893  1.00  0.00     0.124 S 
ATOM    105  O   UNL A   1      42.974  25.239  34.747  1.00  0.00    -0.237 OA
ATOM    106  O   UNL A   1      43.479  26.049  37.025  1.00  0.00    -0.237 OA
ATOM    107  O   UNL A   1      41.146  25.909  36.257  1.00  0.00    -0.744 OA
ENDBRANCH 103 104
ENDBRANCH  77  98
ENDBRANCH  51  52
ENDBRANCH  44  46
ENDBRANCH  43  44
ENDBRANCH  42  43
ENDBRANCH  41  42
ENDBRANCH  40  41
ENDBRANCH  38  40
ENDBRANCH  37  38
ENDBRANCH  36  37
ENDBRANCH   1  36
TORSDOF 29
ENDMDL
MODEL 3
REMARK VINA RESULT:      -8.1      4.638     11.345
REMARK SMILES NS(=O)(=O)c1ccc(-n2nc(C(=O)NCCCCCCCCCCC(=O)OCCOC(=O)c3ccc(-c4c5nc(c(-c6ccc(S(=O)(=O)[O-])cc6)c6ccc([nH]6)c(-c6ccc(S(=O)(=O)[O-])cc6)c6nc(c(-c7ccc(S(=O)(=O)[O-])cc7)c7ccc4[nH]7)C=C6)C=C5)cc3)cc2-c2ccccc2)cc1
REMARK SMILES IDX 22 1 21 2 20 3 19 4 18 5 17 6 16 7 15 8 14 9 12 10 13 11
REMARK SMILES IDX 11 13 9 14 10 15 94 16 93 17 8 18 5 19 6 20 102 21 7 22
REMARK SMILES IDX 101 23 2 24 3 25 4 26 1 27 95 30 96 31 100 32 97 33 99 34
REMARK SMILES IDX 98 35 23 36 24 37 25 38 26 39 27 40 28 41 29 42 30 43 31 44
REMARK SMILES IDX 32 45 33 46 34 47 92 48 35 49 91 50 36 51 37 52 38 53 85 54
REMARK SMILES IDX 39 55 90 56 84 57 86 58 40 59 89 60 83 61 82 62 41 64 71 65
REMARK SMILES IDX 52 66 70 67 53 68 56 69 69 70 87 71 54 72 55 73 68 75 88 76
REMARK SMILES IDX 57 77 42 78 43 79 51 80 44 81 50 82 45 83 46 84 47 85 48 86
REMARK SMILES IDX 49 87 72 88 73 89 81 90 74 91 80 92 75 93 76 94 77 95 78 96
REMARK SMILES IDX 79 97 58 98 59 99 67 100 60 101 66 102 61 103 62 104 63 105
REMARK SMILES IDX 64 106 65 107
REMARK H PARENT 14 12 1 28 1 29 86 63 56 74
REMARK Flexibility Score: inf
ROOT
ATOM      1  C   UNL A   1      41.668  27.037  28.541  1.00  0.00     0.001 C 
ENDROOT
BRANCH   1   2
ATOM      2  C   UNL A   1      40.336  27.737  28.273  1.00  0.00     0.000 C 
BRANCH   2   3
ATOM      3  C   UNL A   1      40.312  29.153  28.848  1.00  0.00     0.000 C 
BRANCH   3   4
ATOM      4  C   UNL A   1      39.981  29.166  30.341  1.00  0.00     0.000 C 
BRANCH   4   5
ATOM      5  C   UNL A   1      41.236  29.242  31.217  1.00  0.00     0.000 C 
BRANCH   5   6
ATOM      6  C   UNL A   1      42.233  30.307  30.740  1.00  0.00     0.002 C 
BRANCH   6   7
ATOM      7  C   UNL A   1      42.911  31.047  31.897  1.00  0.00     0.021 C 
BRANCH   7   8
ATOM      8  C   UNL A   1      42.061  32.226  32.360  1.00  0.00     0.116 C 
BRANCH   8   9
ATOM      9  N   UNL A   1      42.100  33.271  31.370  1.00  0.00    -0.351 N 
ATOM     10  C   UNL A   1      41.144  33.797  30.539  1.00  0.00     0.271 C 
ATOM     11  O   UNL A   1      41.557  34.601  29.699  1.00  0.00    -0.267 OA
ATOM     12  H   UNL A   1      42.985  33.691  31.269  1.00  0.00     0.163 HD
BRANCH  10  13
ATOM     13  C   UNL A   1      39.710  33.466  30.680  1.00  0.00     0.151 A 
ATOM     14  N   UNL A   1      37.825  32.661  30.038  1.00  0.00    -0.232 N 
ATOM     15  N   UNL A   1      39.154  32.573  29.836  1.00  0.00    -0.162 NA
ATOM     16  C   UNL A   1      37.508  33.451  31.123  1.00  0.00     0.075 A 
ATOM     17  C   UNL A   1      38.719  33.912  31.588  1.00  0.00     0.065 A 
BRANCH  14  18
ATOM     18  C   UNL A   1      36.932  31.915  29.240  1.00  0.00     0.065 A 
ATOM     19  C   UNL A   1      34.918  30.527  27.954  1.00  0.00     0.082 A 
ATOM     20  C   UNL A   1      35.158  31.861  27.609  1.00  0.00     0.024 A 
ATOM     21  C   UNL A   1      35.710  29.870  28.904  1.00  0.00     0.024 A 
ATOM     22  C   UNL A   1      36.167  32.561  28.260  1.00  0.00     0.030 A 
ATOM     23  C   UNL A   1      36.744  30.559  29.531  1.00  0.00     0.030 A 
BRANCH  19  24
ATOM     24  S   UNL A   1      33.535  29.710  27.224  1.00  0.00     0.238 S 
ATOM     25  O   UNL A   1      32.343  30.472  27.513  1.00  0.00    -0.207 OA
ATOM     26  O   UNL A   1      33.641  28.292  27.476  1.00  0.00    -0.207 OA
BRANCH  24  27
ATOM     27  N   UNL A   1      33.805  29.872  25.572  1.00  0.00    -0.225 NA
ATOM     28  H   UNL A   1      33.065  29.391  25.058  1.00  0.00     0.137 HD
ATOM     29  H   UNL A   1      34.707  29.461  25.332  1.00  0.00     0.137 HD
ENDBRANCH  24  27
ENDBRANCH  19  24
ENDBRANCH  14  18
BRANCH  16  30
ATOM     30  C   UNL A   1      36.190  33.632  31.721  1.00  0.00     0.000 A 
ATOM     31  C   UNL A   1      35.201  34.371  31.061  1.00  0.00     0.010 A 
ATOM     32  C   UNL A   1      35.894  33.037  32.953  1.00  0.00     0.010 A 
ATOM     33  C   UNL A   1      33.942  34.535  31.637  1.00  0.00     0.001 A 
ATOM     34  C   UNL A   1      34.632  33.199  33.527  1.00  0.00     0.001 A 
ATOM     35  C   UNL A   1      33.659  33.950  32.870  1.00  0.00     0.000 A 
ENDBRANCH  16  30
ENDBRANCH  10  13
ENDBRANCH   8   9
ENDBRANCH   7   8
ENDBRANCH   6   7
ENDBRANCH   5   6
ENDBRANCH   4   5
ENDBRANCH   3   4
ENDBRANCH   2   3
ENDBRANCH   1   2
BRANCH   1  36
ATOM     36  C   UNL A   1      41.573  25.520  28.359  1.00  0.00     0.012 C 
BRANCH  36  37
ATOM     37  C   UNL A   1      42.722  24.701  28.954  1.00  0.00     0.123 C 
BRANCH  37  38
ATOM     38  C   UNL A   1      42.611  23.187  28.929  1.00  0.00     0.305 C 
ATOM     39  O   UNL A   1      43.440  22.453  29.454  1.00  0.00    -0.252 OA
BRANCH  38  40
ATOM     40  O   UNL A   1      41.470  22.752  28.337  1.00  0.00    -0.462 OA
BRANCH  40  41
ATOM     41  C   UNL A   1      41.589  21.766  27.295  1.00  0.00     0.274 C 
BRANCH  41  42
ATOM     42  C   UNL A   1      42.123  22.375  26.004  1.00  0.00     0.275 C 
BRANCH  42  43
ATOM     43  O   UNL A   1      43.468  21.961  25.774  1.00  0.00    -0.458 OA
BRANCH  43  44
ATOM     44  C   UNL A   1      44.136  22.737  24.894  1.00  0.00     0.338 C 
ATOM     45  O   UNL A   1      44.039  22.718  23.681  1.00  0.00    -0.246 OA
BRANCH  44  46
ATOM     46  C   UNL A   1      45.161  23.515  25.581  1.00  0.00     0.060 A 
ATOM     47  C   UNL A   1      45.727  22.978  26.744  1.00  0.00     0.016 A 
ATOM     48  C   UNL A   1      45.265  24.870  25.252  1.00  0.00     0.016 A 
ATOM     49  C   UNL A   1      46.252  23.847  27.677  1.00  0.00     0.010 A 
ATOM     50  C   UNL A   1      45.758  25.732  26.195  1.00  0.00     0.010 A 
ATOM     51  C   UNL A   1      46.175  25.219  27.422  1.00  0.00    -0.014 A 
BRANCH  51  52
ATOM     52  C   UNL A   1      46.616  26.142  28.445  1.00  0.00     0.031 A 
ATOM     53  C   UNL A   1      47.960  25.832  28.982  1.00  0.00     0.074 A 
ATOM     54  C   UNL A   1      45.943  27.278  28.707  1.00  0.00     0.049 A 
ATOM     55  N   UNL A   1      48.292  25.539  30.194  1.00  0.00    -0.248 NA
ATOM     56  C   UNL A   1      49.053  25.690  28.002  1.00  0.00     0.031 C 
ATOM     57  C   UNL A   1      44.788  27.824  27.985  1.00  0.00     0.029 A 
ATOM     58  N   UNL A   1      46.251  28.266  29.585  1.00  0.00    -0.354 N 
ATOM     59  C   UNL A   1      49.674  25.386  30.167  1.00  0.00     0.074 A 
ATOM     60  C   UNL A   1      50.053  25.285  28.781  1.00  0.00     0.031 C 
ATOM     61  C   UNL A   1      44.657  29.136  28.290  1.00  0.00     0.029 A 
ATOM     62  C   UNL A   1      45.630  29.480  29.314  1.00  0.00     0.049 A 
ATOM     63  H   UNL A   1      46.859  28.135  30.348  1.00  0.00     0.167 HD
ATOM     64  C   UNL A   1      50.449  25.634  31.256  1.00  0.00     0.031 A 
ATOM     65  C   UNL A   1      45.968  30.688  29.832  1.00  0.00     0.031 A 
ATOM     66  C   UNL A   1      49.690  25.633  32.477  1.00  0.00     0.049 A 
ATOM     67  C   UNL A   1      46.806  30.438  31.031  1.00  0.00     0.074 A 
ATOM     68  C   UNL A   1      48.884  24.706  33.108  1.00  0.00     0.029 A 
ATOM     69  N   UNL A   1      49.368  26.851  33.028  1.00  0.00    -0.354 N 
ATOM     70  N   UNL A   1      46.361  29.890  32.125  1.00  0.00    -0.248 NA
ATOM     71  C   UNL A   1      48.252  30.398  30.861  1.00  0.00     0.031 C 
ATOM     72  C   UNL A   1      47.801  25.462  33.644  1.00  0.00     0.029 A 
ATOM     73  C   UNL A   1      48.039  26.810  33.368  1.00  0.00     0.049 A 
ATOM     74  H   UNL A   1      49.980  27.613  33.154  1.00  0.00     0.167 HD
ATOM     75  C   UNL A   1      47.394  29.075  32.565  1.00  0.00     0.074 A 
ATOM     76  C   UNL A   1      48.565  29.509  31.808  1.00  0.00     0.031 C 
ATOM     77  C   UNL A   1      47.143  27.946  33.293  1.00  0.00     0.031 A 
BRANCH  64  78
ATOM     78  C   UNL A   1      51.812  26.264  31.130  1.00  0.00    -0.014 A 
ATOM     79  C   UNL A   1      51.937  27.554  30.588  1.00  0.00     0.010 A 
ATOM     80  C   UNL A   1      53.003  25.522  31.304  1.00  0.00     0.010 A 
ATOM     81  C   UNL A   1      53.191  28.064  30.220  1.00  0.00     0.020 A 
ATOM     82  C   UNL A   1      54.259  26.036  30.990  1.00  0.00     0.020 A 
ATOM     83  C   UNL A   1      54.343  27.297  30.420  1.00  0.00     0.054 A 
BRANCH  83  84
ATOM     84  S   UNL A   1      55.948  27.929  29.880  1.00  0.00     0.124 S 
ATOM     85  O   UNL A   1      56.542  26.746  29.266  1.00  0.00    -0.237 OA
ATOM     86  O   UNL A   1      55.567  28.998  28.961  1.00  0.00    -0.237 OA
ATOM     87  O   UNL A   1      56.575  28.376  31.121  1.00  0.00    -0.744 OA
ENDBRANCH  83  84
ENDBRANCH  64  78
BRANCH  65  88
ATOM     88  C   UNL A   1      45.899  32.024  29.190  1.00  0.00    -0.014 A 
ATOM     89  C   UNL A   1      47.028  32.563  28.544  1.00  0.00     0.010 A 
ATOM     90  C   UNL A   1      44.652  32.637  28.952  1.00  0.00     0.010 A 
ATOM     91  C   UNL A   1      46.902  33.623  27.633  1.00  0.00     0.020 A 
ATOM     92  C   UNL A   1      44.520  33.702  28.052  1.00  0.00     0.020 A 
ATOM     93  C   UNL A   1      45.643  34.170  27.373  1.00  0.00     0.054 A 
BRANCH  93  94
ATOM     94  S   UNL A   1      45.459  35.396  26.044  1.00  0.00     0.124 S 
ATOM     95  O   UNL A   1      45.687  34.593  24.846  1.00  0.00    -0.237 OA
ATOM     96  O   UNL A   1      44.091  35.869  26.237  1.00  0.00    -0.237 OA
ATOM     97  O   UNL A   1      46.498  36.382  26.339  1.00  0.00    -0.744 OA
ENDBRANCH  93  94
ENDBRANCH  65  88
BRANCH  77  98
ATOM     98  C   UNL A   1      45.752  27.758  33.866  1.00  0.00    -0.014 A 
ATOM     99  C   UNL A   1      45.366  28.183  35.154  1.00  0.00     0.010 A 
ATOM    100  C   UNL A   1      44.764  27.232  33.016  1.00  0.00     0.010 A 
ATOM    101  C   UNL A   1      44.040  28.040  35.591  1.00  0.00     0.020 A 
ATOM    102  C   UNL A   1      43.438  27.106  33.437  1.00  0.00     0.020 A 
ATOM    103  C   UNL A   1      43.084  27.495  34.729  1.00  0.00     0.054 A 
BRANCH 103 104
ATOM    104  S   UNL A   1      41.367  27.325  35.293  1.00  0.00     0.124 S 
ATOM    105  O   UNL A   1      41.350  28.131  36.509  1.00  0.00    -0.237 OA
ATOM    106  O   UNL A   1      40.601  27.862  34.171  1.00  0.00    -0.237 OA
ATOM    107  O   UNL A   1      41.212  25.885  35.503  1.00  0.00    -0.744 OA
ENDBRANCH 103 104
ENDBRANCH  77  98
ENDBRANCH  51  52
ENDBRANCH  44  46
ENDBRANCH  43  44
ENDBRANCH  42  43
ENDBRANCH  41  42
ENDBRANCH  40  41
ENDBRANCH  38  40
ENDBRANCH  37  38
ENDBRANCH  36  37
ENDBRANCH   1  36
TORSDOF 29
ENDMDL
