MODEL 1
REMARK VINA RESULT:     -10.7      0.000      0.000
REMARK SMILES Cc1nccc(CNC(=O)N2CC[C@@H](C(=O)OCCOC(=O)c3ccc(-c4c5nc(c(-c6ccc(S(=O)(=O)[O-])cc6)c6ccc([nH]6)c(-c6ccc(S(=O)(=O)[O-])cc6)c6nc(c(-c7ccc(S(=O)(=O)[O-])cc7)c7ccc4[nH]7)C=C6)C=C5)cc3)[C@H]2C)n1
REMARK SMILES IDX 18 1 17 2 15 3 16 4 14 5 11 6 12 7 83 8 13 9 84 10 9 11 8 12
REMARK SMILES IDX 10 14 7 15 6 16 1 17 2 18 3 19 85 20 4 21 5 22 19 23 20 24
REMARK SMILES IDX 21 25 22 26 23 27 24 28 82 29 25 30 81 31 26 32 27 33 28 34
REMARK SMILES IDX 75 35 29 36 80 37 74 38 76 39 30 40 79 41 73 42 72 43 31 45
REMARK SMILES IDX 61 46 42 47 60 48 43 49 46 50 59 51 77 52 44 53 45 54 58 56
REMARK SMILES IDX 78 57 47 58 32 59 33 60 41 61 34 62 40 63 35 64 36 65 37 66
REMARK SMILES IDX 38 67 39 68 62 69 63 70 71 71 64 72 70 73 65 74 66 75 67 76
REMARK SMILES IDX 68 77 69 78 48 79 49 80 57 81 50 82 56 83 51 84 52 85 53 86
REMARK SMILES IDX 54 87 55 88
REMARK H PARENT 8 13 76 44 46 55
REMARK Flexibility Score: inf
ROOT
ATOM      1  C   UNL A   1      37.304  23.120  25.993  1.00  0.00     0.274 C 
ENDROOT
BRANCH   1   2
ATOM      2  O   UNL A   1      37.229  22.637  24.636  1.00  0.00    -0.462 OA
BRANCH   2   3
ATOM      3  C   UNL A   1      36.086  22.896  23.962  1.00  0.00     0.311 C 
ATOM      4  O   UNL A   1      36.052  23.231  22.784  1.00  0.00    -0.252 OA
BRANCH   3   5
ATOM      5  C   UNL A   1      34.831  22.781  24.803  1.00  0.00     0.123 C 
ATOM      6  N   UNL A   1      32.739  23.523  25.683  1.00  0.00    -0.321 N 
ATOM      7  C   UNL A   1      32.589  22.199  25.081  1.00  0.00     0.122 C 
ATOM      8  C   UNL A   1      34.142  24.010  25.463  1.00  0.00     0.098 C 
ATOM      9  C   UNL A   1      33.701  22.086  24.063  1.00  0.00     0.039 C 
ATOM     10  C   UNL A   1      34.201  25.302  24.656  1.00  0.00     0.032 C 
BRANCH   6  11
ATOM     11  C   UNL A   1      31.942  23.754  26.774  1.00  0.00     0.317 C 
ATOM     12  N   UNL A   1      30.960  24.668  26.769  1.00  0.00    -0.332 N 
ATOM     13  H   UNL A   1      30.609  24.858  27.669  1.00  0.00     0.165 HD
ATOM     14  O   UNL A   1      31.999  23.041  27.779  1.00  0.00    -0.249 OA
BRANCH  12  15
ATOM     15  C   UNL A   1      30.303  25.437  25.738  1.00  0.00     0.174 C 
BRANCH  15  16
ATOM     16  C   UNL A   1      30.824  26.832  25.482  1.00  0.00     0.063 A 
ATOM     17  C   UNL A   1      30.297  29.286  22.796  1.00  0.00     0.089 C 
ATOM     18  C   UNL A   1      30.770  28.667  24.074  1.00  0.00     0.125 A 
ATOM     19  N   UNL A   1      31.467  29.439  24.924  1.00  0.00    -0.242 NA
ATOM     20  N   UNL A   1      30.439  27.385  24.304  1.00  0.00    -0.236 NA
ATOM     21  C   UNL A   1      31.834  28.858  26.082  1.00  0.00     0.115 A 
ATOM     22  C   UNL A   1      31.531  27.557  26.419  1.00  0.00     0.046 A 
ENDBRANCH  15  16
ENDBRANCH  12  15
ENDBRANCH   6  11
ENDBRANCH   3   5
ENDBRANCH   2   3
ENDBRANCH   1   2
BRANCH   1  23
ATOM     23  C   UNL A   1      38.687  23.708  26.316  1.00  0.00     0.275 C 
BRANCH  23  24
ATOM     24  O   UNL A   1      38.588  24.993  26.961  1.00  0.00    -0.458 OA
BRANCH  24  25
ATOM     25  C   UNL A   1      39.741  25.688  27.082  1.00  0.00     0.338 C 
ATOM     26  O   UNL A   1      40.681  25.697  26.294  1.00  0.00    -0.246 OA
BRANCH  25  27
ATOM     27  C   UNL A   1      39.674  26.593  28.234  1.00  0.00     0.060 A 
ATOM     28  C   UNL A   1      40.423  27.773  28.183  1.00  0.00     0.016 A 
ATOM     29  C   UNL A   1      38.953  26.261  29.381  1.00  0.00     0.016 A 
ATOM     30  C   UNL A   1      40.454  28.632  29.274  1.00  0.00     0.010 A 
ATOM     31  C   UNL A   1      38.988  27.122  30.482  1.00  0.00     0.010 A 
ATOM     32  C   UNL A   1      39.746  28.306  30.437  1.00  0.00    -0.014 A 
BRANCH  32  33
ATOM     33  C   UNL A   1      39.863  29.182  31.624  1.00  0.00     0.031 A 
ATOM     34  C   UNL A   1      41.020  29.003  32.565  1.00  0.00     0.074 A 
ATOM     35  C   UNL A   1      38.960  30.158  31.828  1.00  0.00     0.049 A 
ATOM     36  N   UNL A   1      41.276  29.626  33.684  1.00  0.00    -0.248 NA
ATOM     37  C   UNL A   1      42.019  27.989  32.193  1.00  0.00     0.031 C 
ATOM     38  C   UNL A   1      37.834  30.466  30.945  1.00  0.00     0.029 A 
ATOM     39  N   UNL A   1      38.854  31.076  32.841  1.00  0.00    -0.354 N 
ATOM     40  C   UNL A   1      42.456  29.069  34.163  1.00  0.00     0.074 A 
ATOM     41  C   UNL A   1      42.855  28.047  33.220  1.00  0.00     0.031 C 
ATOM     42  C   UNL A   1      37.155  31.508  31.451  1.00  0.00     0.029 A 
ATOM     43  C   UNL A   1      37.770  31.912  32.712  1.00  0.00     0.049 A 
ATOM     44  H   UNL A   1      39.492  31.132  33.588  1.00  0.00     0.167 HD
ATOM     45  C   UNL A   1      43.141  29.381  35.290  1.00  0.00     0.031 A 
ATOM     46  C   UNL A   1      37.314  32.879  33.531  1.00  0.00     0.031 A 
ATOM     47  C   UNL A   1      42.732  30.394  36.226  1.00  0.00     0.049 A 
ATOM     48  C   UNL A   1      38.059  33.167  34.805  1.00  0.00     0.074 A 
ATOM     49  C   UNL A   1      43.342  30.773  37.408  1.00  0.00     0.029 A 
ATOM     50  N   UNL A   1      41.608  31.194  36.080  1.00  0.00    -0.354 N 
ATOM     51  N   UNL A   1      39.155  32.608  35.264  1.00  0.00    -0.248 NA
ATOM     52  C   UNL A   1      37.508  34.216  35.673  1.00  0.00     0.031 C 
ATOM     53  C   UNL A   1      42.565  31.778  37.997  1.00  0.00     0.029 A 
ATOM     54  C   UNL A   1      41.499  32.059  37.156  1.00  0.00     0.049 A 
ATOM     55  H   UNL A   1      40.979  31.153  35.324  1.00  0.00     0.167 HD
ATOM     56  C   UNL A   1      39.437  33.255  36.461  1.00  0.00     0.074 A 
ATOM     57  C   UNL A   1      38.402  34.252  36.651  1.00  0.00     0.031 C 
ATOM     58  C   UNL A   1      40.462  33.044  37.325  1.00  0.00     0.031 A 
BRANCH  45  59
ATOM     59  C   UNL A   1      44.378  28.577  35.586  1.00  0.00    -0.014 A 
ATOM     60  C   UNL A   1      45.642  28.983  35.121  1.00  0.00     0.010 A 
ATOM     61  C   UNL A   1      44.272  27.396  36.342  1.00  0.00     0.010 A 
ATOM     62  C   UNL A   1      46.770  28.195  35.368  1.00  0.00     0.020 A 
ATOM     63  C   UNL A   1      45.402  26.618  36.611  1.00  0.00     0.020 A 
ATOM     64  C   UNL A   1      46.641  27.013  36.103  1.00  0.00     0.054 A 
BRANCH  64  65
ATOM     65  S   UNL A   1      48.118  26.002  36.404  1.00  0.00     0.124 S 
ATOM     66  O   UNL A   1      49.192  26.957  36.141  1.00  0.00    -0.237 OA
ATOM     67  O   UNL A   1      47.959  25.605  37.801  1.00  0.00    -0.237 OA
ATOM     68  O   UNL A   1      47.998  24.917  35.434  1.00  0.00    -0.744 OA
ENDBRANCH  64  65
ENDBRANCH  45  59
BRANCH  46  69
ATOM     69  C   UNL A   1      36.082  33.631  33.174  1.00  0.00    -0.014 A 
ATOM     70  C   UNL A   1      34.812  33.088  33.431  1.00  0.00     0.010 A 
ATOM     71  C   UNL A   1      36.175  34.910  32.593  1.00  0.00     0.010 A 
ATOM     72  C   UNL A   1      33.657  33.806  33.107  1.00  0.00     0.020 A 
ATOM     73  C   UNL A   1      35.023  35.640  32.290  1.00  0.00     0.020 A 
ATOM     74  C   UNL A   1      33.770  35.080  32.541  1.00  0.00     0.054 A 
BRANCH  74  75
ATOM     75  S   UNL A   1      32.260  36.022  32.187  1.00  0.00     0.124 S 
ATOM     76  O   UNL A   1      32.414  37.182  33.059  1.00  0.00    -0.237 OA
ATOM     77  O   UNL A   1      32.377  36.285  30.755  1.00  0.00    -0.237 OA
ATOM     78  O   UNL A   1      31.189  35.098  32.555  1.00  0.00    -0.744 OA
ENDBRANCH  74  75
ENDBRANCH  46  69
BRANCH  58  79
ATOM     79  C   UNL A   1      40.535  33.938  38.532  1.00  0.00    -0.014 A 
ATOM     80  C   UNL A   1      39.836  33.628  39.711  1.00  0.00     0.010 A 
ATOM     81  C   UNL A   1      41.355  35.080  38.497  1.00  0.00     0.010 A 
ATOM     82  C   UNL A   1      39.930  34.467  40.826  1.00  0.00     0.020 A 
ATOM     83  C   UNL A   1      41.471  35.907  39.616  1.00  0.00     0.020 A 
ATOM     84  C   UNL A   1      40.744  35.603  40.769  1.00  0.00     0.054 A 
BRANCH  84  85
ATOM     85  S   UNL A   1      40.883  36.657  42.240  1.00  0.00     0.124 S 
ATOM     86  O   UNL A   1      41.351  37.916  41.667  1.00  0.00    -0.237 OA
ATOM     87  O   UNL A   1      39.516  36.672  42.757  1.00  0.00    -0.237 OA
ATOM     88  O   UNL A   1      41.851  35.955  43.078  1.00  0.00    -0.744 OA
ENDBRANCH  84  85
ENDBRANCH  58  79
ENDBRANCH  32  33
ENDBRANCH  25  27
ENDBRANCH  24  25
ENDBRANCH  23  24
ENDBRANCH   1  23
TORSDOF 17
ENDMDL
MODEL 2
REMARK VINA RESULT:     -10.7      1.544      2.151
REMARK SMILES Cc1nccc(CNC(=O)N2CC[C@@H](C(=O)OCCOC(=O)c3ccc(-c4c5nc(c(-c6ccc(S(=O)(=O)[O-])cc6)c6ccc([nH]6)c(-c6ccc(S(=O)(=O)[O-])cc6)c6nc(c(-c7ccc(S(=O)(=O)[O-])cc7)c7ccc4[nH]7)C=C6)C=C5)cc3)[C@H]2C)n1
REMARK SMILES IDX 18 1 17 2 15 3 16 4 14 5 11 6 12 7 83 8 13 9 84 10 9 11 8 12
REMARK SMILES IDX 10 14 7 15 6 16 1 17 2 18 3 19 85 20 4 21 5 22 19 23 20 24
REMARK SMILES IDX 21 25 22 26 23 27 24 28 82 29 25 30 81 31 26 32 27 33 28 34
REMARK SMILES IDX 75 35 29 36 80 37 74 38 76 39 30 40 79 41 73 42 72 43 31 45
REMARK SMILES IDX 61 46 42 47 60 48 43 49 46 50 59 51 77 52 44 53 45 54 58 56
REMARK SMILES IDX 78 57 47 58 32 59 33 60 41 61 34 62 40 63 35 64 36 65 37 66
REMARK SMILES IDX 38 67 39 68 62 69 63 70 71 71 64 72 70 73 65 74 66 75 67 76
REMARK SMILES IDX 68 77 69 78 48 79 49 80 57 81 50 82 56 83 51 84 52 85 53 86
REMARK SMILES IDX 54 87 55 88
REMARK H PARENT 8 13 76 44 46 55
REMARK Flexibility Score: inf
ROOT
ATOM      1  C   UNL A   1      36.989  23.452  25.823  1.00  0.00     0.274 C 
ENDROOT
BRANCH   1   2
ATOM      2  O   UNL A   1      36.566  22.425  24.902  1.00  0.00    -0.462 OA
BRANCH   2   3
ATOM      3  C   UNL A   1      35.586  21.596  25.327  1.00  0.00     0.311 C 
ATOM      4  O   UNL A   1      35.555  20.397  25.078  1.00  0.00    -0.252 OA
BRANCH   3   5
ATOM      5  C   UNL A   1      34.488  22.284  26.111  1.00  0.00     0.123 C 
ATOM      6  N   UNL A   1      32.225  22.793  26.677  1.00  0.00    -0.321 N 
ATOM      7  C   UNL A   1      32.954  22.358  27.867  1.00  0.00     0.122 C 
ATOM      8  C   UNL A   1      33.125  22.685  25.479  1.00  0.00     0.098 C 
ATOM      9  C   UNL A   1      34.095  21.508  27.357  1.00  0.00     0.039 C 
ATOM     10  C   UNL A   1      32.589  21.728  24.420  1.00  0.00     0.032 C 
BRANCH   6  11
ATOM     11  C   UNL A   1      31.259  23.737  26.905  1.00  0.00     0.317 C 
ATOM     12  N   UNL A   1      31.427  25.032  26.595  1.00  0.00    -0.332 N 
ATOM     13  H   UNL A   1      30.738  25.614  26.991  1.00  0.00     0.165 HD
ATOM     14  O   UNL A   1      30.128  23.428  27.289  1.00  0.00    -0.249 OA
BRANCH  12  15
ATOM     15  C   UNL A   1      32.394  25.763  25.810  1.00  0.00     0.174 C 
BRANCH  15  16
ATOM     16  C   UNL A   1      31.981  27.126  25.303  1.00  0.00     0.063 A 
ATOM     17  C   UNL A   1      29.572  28.271  22.773  1.00  0.00     0.089 C 
ATOM     18  C   UNL A   1      30.594  28.294  23.867  1.00  0.00     0.125 A 
ATOM     19  N   UNL A   1      30.926  29.487  24.390  1.00  0.00    -0.242 NA
ATOM     20  N   UNL A   1      31.090  27.115  24.279  1.00  0.00    -0.236 NA
ATOM     21  C   UNL A   1      31.812  29.460  25.402  1.00  0.00     0.115 A 
ATOM     22  C   UNL A   1      32.367  28.305  25.907  1.00  0.00     0.046 A 
ENDBRANCH  15  16
ENDBRANCH  12  15
ENDBRANCH   6  11
ENDBRANCH   3   5
ENDBRANCH   2   3
ENDBRANCH   1   2
BRANCH   1  23
ATOM     23  C   UNL A   1      38.491  23.358  26.134  1.00  0.00     0.275 C 
BRANCH  23  24
ATOM     24  O   UNL A   1      39.112  24.657  26.184  1.00  0.00    -0.458 OA
BRANCH  24  25
ATOM     25  C   UNL A   1      40.367  24.697  26.684  1.00  0.00     0.338 C 
ATOM     26  O   UNL A   1      41.361  24.144  26.225  1.00  0.00    -0.246 OA
BRANCH  25  27
ATOM     27  C   UNL A   1      40.444  25.647  27.799  1.00  0.00     0.060 A 
ATOM     28  C   UNL A   1      39.380  25.677  28.707  1.00  0.00     0.016 A 
ATOM     29  C   UNL A   1      41.500  26.550  27.916  1.00  0.00     0.016 A 
ATOM     30  C   UNL A   1      39.366  26.605  29.741  1.00  0.00     0.010 A 
ATOM     31  C   UNL A   1      41.483  27.489  28.953  1.00  0.00     0.010 A 
ATOM     32  C   UNL A   1      40.412  27.526  29.863  1.00  0.00    -0.014 A 
BRANCH  32  33
ATOM     33  C   UNL A   1      40.338  28.570  30.911  1.00  0.00     0.031 A 
ATOM     34  C   UNL A   1      41.287  28.519  32.073  1.00  0.00     0.074 A 
ATOM     35  C   UNL A   1      39.454  29.577  30.791  1.00  0.00     0.049 A 
ATOM     36  N   UNL A   1      41.352  29.301  33.118  1.00  0.00    -0.248 NA
ATOM     37  C   UNL A   1      42.296  27.448  32.053  1.00  0.00     0.031 C 
ATOM     38  C   UNL A   1      38.529  29.763  29.672  1.00  0.00     0.029 A 
ATOM     39  N   UNL A   1      39.196  30.638  31.620  1.00  0.00    -0.354 N 
ATOM     40  C   UNL A   1      42.396  28.807  33.892  1.00  0.00     0.074 A 
ATOM     41  C   UNL A   1      42.923  27.649  33.202  1.00  0.00     0.031 C 
ATOM     42  C   UNL A   1      37.811  30.878  29.880  1.00  0.00     0.029 A 
ATOM     43  C   UNL A   1      38.192  31.459  31.164  1.00  0.00     0.049 A 
ATOM     44  H   UNL A   1      39.683  30.797  32.460  1.00  0.00     0.167 HD
ATOM     45  C   UNL A   1      42.868  29.276  35.073  1.00  0.00     0.031 A 
ATOM     46  C   UNL A   1      37.630  32.544  31.730  1.00  0.00     0.031 A 
ATOM     47  C   UNL A   1      42.331  30.424  35.754  1.00  0.00     0.049 A 
ATOM     48  C   UNL A   1      38.131  33.011  33.069  1.00  0.00     0.074 A 
ATOM     49  C   UNL A   1      42.721  30.969  36.965  1.00  0.00     0.029 A 
ATOM     50  N   UNL A   1      41.289  31.207  35.280  1.00  0.00    -0.354 N 
ATOM     51  N   UNL A   1      39.095  32.513  33.807  1.00  0.00    -0.248 NA
ATOM     52  C   UNL A   1      37.469  34.186  33.652  1.00  0.00     0.031 C 
ATOM     53  C   UNL A   1      41.889  32.061  37.240  1.00  0.00     0.029 A 
ATOM     54  C   UNL A   1      41.014  32.225  36.177  1.00  0.00     0.049 A 
ATOM     55  H   UNL A   1      40.814  31.060  34.430  1.00  0.00     0.167 HD
ATOM     56  C   UNL A   1      39.172  33.329  34.929  1.00  0.00     0.074 A 
ATOM     57  C   UNL A   1      38.163  34.357  34.769  1.00  0.00     0.031 C 
ATOM     58  C   UNL A   1      40.005  33.238  35.996  1.00  0.00     0.031 A 
BRANCH  45  59
ATOM     59  C   UNL A   1      43.991  28.510  35.716  1.00  0.00    -0.014 A 
ATOM     60  C   UNL A   1      43.739  27.418  36.566  1.00  0.00     0.010 A 
ATOM     61  C   UNL A   1      45.322  28.890  35.464  1.00  0.00     0.010 A 
ATOM     62  C   UNL A   1      44.796  26.750  37.190  1.00  0.00     0.020 A 
ATOM     63  C   UNL A   1      46.383  28.209  36.068  1.00  0.00     0.020 A 
ATOM     64  C   UNL A   1      46.112  27.157  36.945  1.00  0.00     0.054 A 
BRANCH  64  65
ATOM     65  S   UNL A   1      47.468  26.281  37.773  1.00  0.00     0.124 S 
ATOM     66  O   UNL A   1      48.385  26.032  36.663  1.00  0.00    -0.237 OA
ATOM     67  O   UNL A   1      47.928  27.256  38.759  1.00  0.00    -0.237 OA
ATOM     68  O   UNL A   1      46.825  25.093  38.328  1.00  0.00    -0.744 OA
ENDBRANCH  64  65
ENDBRANCH  45  59
BRANCH  46  69
ATOM     69  C   UNL A   1      36.519  33.249  31.036  1.00  0.00    -0.014 A 
ATOM     70  C   UNL A   1      35.212  33.207  31.549  1.00  0.00     0.010 A 
ATOM     71  C   UNL A   1      36.773  33.989  29.865  1.00  0.00     0.010 A 
ATOM     72  C   UNL A   1      34.176  33.885  30.900  1.00  0.00     0.020 A 
ATOM     73  C   UNL A   1      35.743  34.687  29.228  1.00  0.00     0.020 A 
ATOM     74  C   UNL A   1      34.449  34.623  29.745  1.00  0.00     0.054 A 
BRANCH  74  75
ATOM     75  S   UNL A   1      33.102  35.548  28.954  1.00  0.00     0.124 S 
ATOM     76  O   UNL A   1      33.833  36.548  28.183  1.00  0.00    -0.237 OA
ATOM     77  O   UNL A   1      32.424  34.517  28.173  1.00  0.00    -0.237 OA
ATOM     78  O   UNL A   1      32.334  36.065  30.085  1.00  0.00    -0.744 OA
ENDBRANCH  74  75
ENDBRANCH  46  69
BRANCH  58  79
ATOM     79  C   UNL A   1      39.885  34.302  37.053  1.00  0.00    -0.014 A 
ATOM     80  C   UNL A   1      40.501  35.556  36.897  1.00  0.00     0.010 A 
ATOM     81  C   UNL A   1      39.105  34.054  38.197  1.00  0.00     0.010 A 
ATOM     82  C   UNL A   1      40.364  36.534  37.886  1.00  0.00     0.020 A 
ATOM     83  C   UNL A   1      38.947  35.037  39.176  1.00  0.00     0.020 A 
ATOM     84  C   UNL A   1      39.591  36.267  39.021  1.00  0.00     0.054 A 
BRANCH  84  85
ATOM     85  S   UNL A   1      39.394  37.564  40.274  1.00  0.00     0.124 S 
ATOM     86  O   UNL A   1      38.885  36.808  41.415  1.00  0.00    -0.237 OA
ATOM     87  O   UNL A   1      40.754  38.081  40.420  1.00  0.00    -0.237 OA
ATOM     88  O   UNL A   1      38.445  38.491  39.666  1.00  0.00    -0.744 OA
ENDBRANCH  84  85
ENDBRANCH  58  79
ENDBRANCH  32  33
ENDBRANCH  25  27
ENDBRANCH  24  25
ENDBRANCH  23  24
ENDBRANCH   1  23
TORSDOF 17
ENDMDL
MODEL 3
REMARK VINA RESULT:     -10.6      7.354     12.903
REMARK SMILES Cc1nccc(CNC(=O)N2CC[C@@H](C(=O)OCCOC(=O)c3ccc(-c4c5nc(c(-c6ccc(S(=O)(=O)[O-])cc6)c6ccc([nH]6)c(-c6ccc(S(=O)(=O)[O-])cc6)c6nc(c(-c7ccc(S(=O)(=O)[O-])cc7)c7ccc4[nH]7)C=C6)C=C5)cc3)[C@H]2C)n1
REMARK SMILES IDX 18 1 17 2 15 3 16 4 14 5 11 6 12 7 83 8 13 9 84 10 9 11 8 12
REMARK SMILES IDX 10 14 7 15 6 16 1 17 2 18 3 19 85 20 4 21 5 22 19 23 20 24
REMARK SMILES IDX 21 25 22 26 23 27 24 28 82 29 25 30 81 31 26 32 27 33 28 34
REMARK SMILES IDX 75 35 29 36 80 37 74 38 76 39 30 40 79 41 73 42 72 43 31 45
REMARK SMILES IDX 61 46 42 47 60 48 43 49 46 50 59 51 77 52 44 53 45 54 58 56
REMARK SMILES IDX 78 57 47 58 32 59 33 60 41 61 34 62 40 63 35 64 36 65 37 66
REMARK SMILES IDX 38 67 39 68 62 69 63 70 71 71 64 72 70 73 65 74 66 75 67 76
REMARK SMILES IDX 68 77 69 78 48 79 49 80 57 81 50 82 56 83 51 84 52 85 53 86
REMARK SMILES IDX 54 87 55 88
REMARK H PARENT 8 13 76 44 46 55
REMARK Flexibility Score: inf
ROOT
ATOM      1  C   UNL A   1      34.517  30.988  27.320  1.00  0.00     0.274 C 
ENDROOT
BRANCH   1   2
ATOM      2  O   UNL A   1      33.564  29.907  27.262  1.00  0.00    -0.462 OA
BRANCH   2   3
ATOM      3  C   UNL A   1      32.358  30.191  26.721  1.00  0.00     0.311 C 
ATOM      4  O   UNL A   1      31.854  31.308  26.731  1.00  0.00    -0.252 OA
BRANCH   3   5
ATOM      5  C   UNL A   1      31.646  28.992  26.130  1.00  0.00     0.123 C 
ATOM      6  N   UNL A   1      31.400  27.128  24.658  1.00  0.00    -0.321 N 
ATOM      7  C   UNL A   1      31.199  26.704  26.042  1.00  0.00     0.122 C 
ATOM      8  C   UNL A   1      31.784  28.580  24.636  1.00  0.00     0.098 C 
ATOM      9  C   UNL A   1      31.945  27.710  26.888  1.00  0.00     0.039 C 
ATOM     10  C   UNL A   1      33.157  28.820  24.017  1.00  0.00     0.032 C 
BRANCH   6  11
ATOM     11  C   UNL A   1      30.643  26.457  23.733  1.00  0.00     0.317 C 
ATOM     12  N   UNL A   1      31.180  25.853  22.662  1.00  0.00    -0.332 N 
ATOM     13  H   UNL A   1      30.507  25.586  21.995  1.00  0.00     0.165 HD
ATOM     14  O   UNL A   1      29.437  26.259  23.904  1.00  0.00    -0.249 OA
BRANCH  12  15
ATOM     15  C   UNL A   1      32.526  25.506  22.269  1.00  0.00     0.174 C 
BRANCH  15  16
ATOM     16  C   UNL A   1      33.085  24.206  22.799  1.00  0.00     0.063 A 
ATOM     17  C   UNL A   1      36.493  22.926  23.310  1.00  0.00     0.089 C 
ATOM     18  C   UNL A   1      34.998  23.015  23.319  1.00  0.00     0.125 A 
ATOM     19  N   UNL A   1      34.315  22.026  23.921  1.00  0.00    -0.242 NA
ATOM     20  N   UNL A   1      34.436  24.096  22.752  1.00  0.00    -0.236 NA
ATOM     21  C   UNL A   1      32.977  22.168  23.948  1.00  0.00     0.115 A 
ATOM     22  C   UNL A   1      32.306  23.244  23.410  1.00  0.00     0.046 A 
ENDBRANCH  15  16
ENDBRANCH  12  15
ENDBRANCH   6  11
ENDBRANCH   3   5
ENDBRANCH   2   3
ENDBRANCH   1   2
BRANCH   1  23
ATOM     23  C   UNL A   1      35.513  30.811  28.478  1.00  0.00     0.275 C 
BRANCH  23  24
ATOM     24  O   UNL A   1      36.357  29.659  28.291  1.00  0.00    -0.458 OA
BRANCH  24  25
ATOM     25  C   UNL A   1      37.133  29.314  29.343  1.00  0.00     0.338 C 
ATOM     26  O   UNL A   1      36.766  29.117  30.496  1.00  0.00    -0.246 OA
BRANCH  25  27
ATOM     27  C   UNL A   1      38.503  29.034  28.897  1.00  0.00     0.060 A 
ATOM     28  C   UNL A   1      39.429  28.612  29.856  1.00  0.00     0.016 A 
ATOM     29  C   UNL A   1      38.899  29.254  27.578  1.00  0.00     0.016 A 
ATOM     30  C   UNL A   1      40.756  28.402  29.505  1.00  0.00     0.010 A 
ATOM     31  C   UNL A   1      40.237  29.048  27.225  1.00  0.00     0.010 A 
ATOM     32  C   UNL A   1      41.172  28.631  28.189  1.00  0.00    -0.014 A 
BRANCH  32  33
ATOM     33  C   UNL A   1      42.607  28.494  27.849  1.00  0.00     0.031 A 
ATOM     34  C   UNL A   1      43.538  29.645  28.097  1.00  0.00     0.074 A 
ATOM     35  C   UNL A   1      43.072  27.328  27.365  1.00  0.00     0.049 A 
ATOM     36  N   UNL A   1      44.812  29.748  27.822  1.00  0.00    -0.248 NA
ATOM     37  C   UNL A   1      42.958  30.834  28.741  1.00  0.00     0.031 C 
ATOM     38  C   UNL A   1      42.270  26.123  27.146  1.00  0.00     0.029 A 
ATOM     39  N   UNL A   1      44.336  26.967  26.976  1.00  0.00    -0.354 N 
ATOM     40  C   UNL A   1      45.184  31.020  28.241  1.00  0.00     0.074 A 
ATOM     41  C   UNL A   1      43.998  31.655  28.773  1.00  0.00     0.031 C 
ATOM     42  C   UNL A   1      43.065  25.151  26.670  1.00  0.00     0.029 A 
ATOM     43  C   UNL A   1      44.417  25.676  26.509  1.00  0.00     0.049 A 
ATOM     44  H   UNL A   1      45.110  27.572  27.027  1.00  0.00     0.167 HD
ATOM     45  C   UNL A   1      46.406  31.605  28.183  1.00  0.00     0.031 A 
ATOM     46  C   UNL A   1      45.462  25.002  25.990  1.00  0.00     0.031 A 
ATOM     47  C   UNL A   1      47.578  30.967  27.644  1.00  0.00     0.049 A 
ATOM     48  C   UNL A   1      46.794  25.693  25.881  1.00  0.00     0.074 A 
ATOM     49  C   UNL A   1      48.857  31.479  27.518  1.00  0.00     0.029 A 
ATOM     50  N   UNL A   1      47.613  29.673  27.146  1.00  0.00    -0.354 N 
ATOM     51  N   UNL A   1      47.125  26.909  26.249  1.00  0.00    -0.248 NA
ATOM     52  C   UNL A   1      47.894  24.921  25.289  1.00  0.00     0.031 C 
ATOM     53  C   UNL A   1      49.658  30.506  26.909  1.00  0.00     0.029 A 
ATOM     54  C   UNL A   1      48.889  29.371  26.701  1.00  0.00     0.049 A 
ATOM     55  H   UNL A   1      46.844  29.060  27.113  1.00  0.00     0.167 HD
ATOM     56  C   UNL A   1      48.476  27.038  25.955  1.00  0.00     0.074 A 
ATOM     57  C   UNL A   1      48.904  25.776  25.387  1.00  0.00     0.031 C 
ATOM     58  C   UNL A   1      49.292  28.107  26.140  1.00  0.00     0.031 A 
BRANCH  45  59
ATOM     59  C   UNL A   1      46.512  33.023  28.674  1.00  0.00    -0.014 A 
ATOM     60  C   UNL A   1      46.922  33.312  29.989  1.00  0.00     0.010 A 
ATOM     61  C   UNL A   1      46.197  34.083  27.805  1.00  0.00     0.010 A 
ATOM     62  C   UNL A   1      46.968  34.634  30.438  1.00  0.00     0.020 A 
ATOM     63  C   UNL A   1      46.265  35.408  28.245  1.00  0.00     0.020 A 
ATOM     64  C   UNL A   1      46.630  35.674  29.566  1.00  0.00     0.054 A 
BRANCH  64  65
ATOM     65  S   UNL A   1      46.689  37.382  30.174  1.00  0.00     0.124 S 
ATOM     66  O   UNL A   1      45.719  37.345  31.266  1.00  0.00    -0.237 OA
ATOM     67  O   UNL A   1      48.084  37.534  30.579  1.00  0.00    -0.237 OA
ATOM     68  O   UNL A   1      46.290  38.176  29.014  1.00  0.00    -0.744 OA
ENDBRANCH  64  65
ENDBRANCH  45  59
BRANCH  46  69
ATOM     69  C   UNL A   1      45.281  23.603  25.521  1.00  0.00    -0.014 A 
ATOM     70  C   UNL A   1      45.620  22.520  26.350  1.00  0.00     0.010 A 
ATOM     71  C   UNL A   1      44.744  23.347  24.245  1.00  0.00     0.010 A 
ATOM     72  C   UNL A   1      45.433  21.207  25.909  1.00  0.00     0.020 A 
ATOM     73  C   UNL A   1      44.534  22.036  23.811  1.00  0.00     0.020 A 
ATOM     74  C   UNL A   1      44.888  20.973  24.643  1.00  0.00     0.054 A 
BRANCH  74  75
ATOM     75  S   UNL A   1      44.594  19.262  24.115  1.00  0.00     0.124 S 
ATOM     76  O   UNL A   1      44.527  19.399  22.664  1.00  0.00    -0.237 OA
ATOM     77  O   UNL A   1      45.767  18.562  24.632  1.00  0.00    -0.237 OA
ATOM     78  O   UNL A   1      43.335  18.915  24.772  1.00  0.00    -0.744 OA
ENDBRANCH  74  75
ENDBRANCH  46  69
BRANCH  58  79
ATOM     79  C   UNL A   1      50.738  27.939  25.762  1.00  0.00    -0.014 A 
ATOM     80  C   UNL A   1      51.191  28.233  24.465  1.00  0.00     0.010 A 
ATOM     81  C   UNL A   1      51.663  27.523  26.737  1.00  0.00     0.010 A 
ATOM     82  C   UNL A   1      52.543  28.083  24.140  1.00  0.00     0.020 A 
ATOM     83  C   UNL A   1      53.017  27.394  26.423  1.00  0.00     0.020 A 
ATOM     84  C   UNL A   1      53.446  27.660  25.121  1.00  0.00     0.054 A 
BRANCH  84  85
ATOM     85  S   UNL A   1      55.202  27.508  24.689  1.00  0.00     0.124 S 
ATOM     86  O   UNL A   1      55.176  26.449  23.684  1.00  0.00    -0.237 OA
ATOM     87  O   UNL A   1      55.528  28.842  24.187  1.00  0.00    -0.237 OA
ATOM     88  O   UNL A   1      55.839  27.153  25.954  1.00  0.00    -0.744 OA
ENDBRANCH  84  85
ENDBRANCH  58  79
ENDBRANCH  32  33
ENDBRANCH  25  27
ENDBRANCH  24  25
ENDBRANCH  23  24
ENDBRANCH   1  23
TORSDOF 17
ENDMDL
