MODEL 1
REMARK VINA RESULT:      -9.8      0.000      0.000
REMARK SMILES C[C@@H](SC1CCOCC1)c1ccc(C(=O)OCCOC(=O)c2ccc(-c3c4nc(c(-c5ccc(S(=O)(=O)[O-])cc5)c5ccc([nH]5)c(-c5ccc(S(=O)(=O)[O-])cc5)c5nc(c(-c6ccc(S(=O)(=O)[O-])cc6)c6ccc3[nH]6)C=C5)C=C4)cc2)o1
REMARK SMILES IDX 17 1 16 2 14 3 15 4 13 5 10 6 11 7 82 8 12 9 2 10 1 11 3 12
REMARK SMILES IDX 4 13 5 14 9 15 6 16 8 17 7 18 18 19 19 20 20 21 21 22 22 23
REMARK SMILES IDX 23 24 81 25 24 26 80 27 25 28 26 29 27 30 74 31 28 32 79 33
REMARK SMILES IDX 73 34 75 35 29 36 78 37 72 38 71 39 30 41 60 42 41 43 59 44
REMARK SMILES IDX 42 45 45 46 58 47 76 48 43 49 44 50 57 52 77 53 46 54 31 55
REMARK SMILES IDX 32 56 40 57 33 58 39 59 34 60 35 61 36 62 37 63 38 64 61 65
REMARK SMILES IDX 62 66 70 67 63 68 69 69 64 70 65 71 66 72 67 73 68 74 47 75
REMARK SMILES IDX 48 76 56 77 49 78 55 79 50 80 51 81 52 82 53 83 54 84
REMARK H PARENT 75 40 45 51
REMARK Flexibility Score: inf
ROOT
ATOM      1  C   UNL A   1      33.028  27.490  25.677  1.00  0.00     0.275 C 
ENDROOT
BRANCH   1   2
ATOM      2  O   UNL A   1      33.683  27.063  24.469  1.00  0.00    -0.456 OA
BRANCH   2   3
ATOM      3  C   UNL A   1      32.858  26.685  23.443  1.00  0.00     0.374 C 
ATOM      4  O   UNL A   1      32.006  27.405  22.946  1.00  0.00    -0.242 OA
BRANCH   3   5
ATOM      5  C   UNL A   1      33.216  25.359  22.990  1.00  0.00     0.211 A 
ATOM      6  C   UNL A   1      34.200  23.390  23.216  1.00  0.00     0.117 A 
ATOM      7  C   UNL A   1      33.399  23.305  22.095  1.00  0.00     0.048 A 
ATOM      8  O   UNL A   1      34.124  24.649  23.736  1.00  0.00    -0.453 OA
ATOM      9  C   UNL A   1      32.770  24.565  21.951  1.00  0.00     0.058 A 
BRANCH   6  10
ATOM     10  C   UNL A   1      35.040  22.404  23.977  1.00  0.00     0.110 C 
ATOM     11  C   UNL A   1      36.316  23.090  24.467  1.00  0.00     0.028 C 
BRANCH  10  12
ATOM     12  S   UNL A   1      34.035  21.706  25.353  1.00  0.00    -0.147 SA
BRANCH  12  13
ATOM     13  C   UNL A   1      33.703  19.990  24.785  1.00  0.00     0.052 C 
ATOM     14  C   UNL A   1      32.707  19.904  23.628  1.00  0.00     0.043 C 
ATOM     15  C   UNL A   1      33.176  19.210  25.995  1.00  0.00     0.043 C 
ATOM     16  C   UNL A   1      32.337  18.447  23.359  1.00  0.00     0.161 C 
ATOM     17  C   UNL A   1      32.789  17.796  25.590  1.00  0.00     0.161 C 
ATOM     18  O   UNL A   1      31.829  17.825  24.537  1.00  0.00    -0.381 OA
ENDBRANCH  12  13
ENDBRANCH  10  12
ENDBRANCH   6  10
ENDBRANCH   3   5
ENDBRANCH   2   3
ENDBRANCH   1   2
BRANCH   1  19
ATOM     19  C   UNL A   1      33.391  28.939  26.025  1.00  0.00     0.275 C 
BRANCH  19  20
ATOM     20  O   UNL A   1      33.709  29.094  27.421  1.00  0.00    -0.458 OA
BRANCH  20  21
ATOM     21  C   UNL A   1      34.323  30.257  27.750  1.00  0.00     0.338 C 
ATOM     22  O   UNL A   1      33.813  31.364  27.800  1.00  0.00    -0.246 OA
BRANCH  21  23
ATOM     23  C   UNL A   1      35.703  29.982  28.191  1.00  0.00     0.060 A 
ATOM     24  C   UNL A   1      36.724  30.088  27.243  1.00  0.00     0.016 A 
ATOM     25  C   UNL A   1      35.992  29.577  29.496  1.00  0.00     0.016 A 
ATOM     26  C   UNL A   1      38.039  29.797  27.591  1.00  0.00     0.010 A 
ATOM     27  C   UNL A   1      37.315  29.277  29.845  1.00  0.00     0.010 A 
ATOM     28  C   UNL A   1      38.344  29.378  28.892  1.00  0.00    -0.014 A 
BRANCH  28  29
ATOM     29  C   UNL A   1      39.740  29.008  29.226  1.00  0.00     0.031 A 
ATOM     30  C   UNL A   1      40.613  29.977  29.972  1.00  0.00     0.074 A 
ATOM     31  C   UNL A   1      40.206  27.789  28.900  1.00  0.00     0.049 A 
ATOM     32  N   UNL A   1      41.855  29.837  30.359  1.00  0.00    -0.248 NA
ATOM     33  C   UNL A   1      40.007  31.268  30.333  1.00  0.00     0.031 C 
ATOM     34  C   UNL A   1      39.439  26.747  28.216  1.00  0.00     0.029 A 
ATOM     35  N   UNL A   1      41.437  27.219  29.109  1.00  0.00    -0.354 N 
ATOM     36  C   UNL A   1      42.186  31.025  31.000  1.00  0.00     0.074 A 
ATOM     37  C   UNL A   1      41.019  31.880  30.933  1.00  0.00     0.031 C 
ATOM     38  C   UNL A   1      40.215  25.660  28.070  1.00  0.00     0.029 A 
ATOM     39  C   UNL A   1      41.540  25.940  28.617  1.00  0.00     0.049 A 
ATOM     40  H   UNL A   1      42.175  27.682  29.567  1.00  0.00     0.167 HD
ATOM     41  C   UNL A   1      43.355  31.371  31.589  1.00  0.00     0.031 A 
ATOM     42  C   UNL A   1      42.588  25.094  28.596  1.00  0.00     0.031 A 
ATOM     43  C   UNL A   1      44.518  30.526  31.643  1.00  0.00     0.049 A 
ATOM     44  C   UNL A   1      43.895  25.525  29.202  1.00  0.00     0.074 A 
ATOM     45  C   UNL A   1      45.747  30.788  32.223  1.00  0.00     0.029 A 
ATOM     46  N   UNL A   1      44.601  29.258  31.088  1.00  0.00    -0.354 N 
ATOM     47  N   UNL A   1      44.189  26.650  29.810  1.00  0.00    -0.248 NA
ATOM     48  C   UNL A   1      45.012  24.574  29.115  1.00  0.00     0.031 C 
ATOM     49  C   UNL A   1      46.587  29.693  31.983  1.00  0.00     0.029 A 
ATOM     50  C   UNL A   1      45.866  28.732  31.292  1.00  0.00     0.049 A 
ATOM     51  H   UNL A   1      43.867  28.799  30.618  1.00  0.00     0.167 HD
ATOM     52  C   UNL A   1      45.521  26.536  30.192  1.00  0.00     0.074 A 
ATOM     53  C   UNL A   1      45.971  25.228  29.760  1.00  0.00     0.031 C 
ATOM     54  C   UNL A   1      46.301  27.433  30.845  1.00  0.00     0.031 A 
BRANCH  41  55
ATOM     55  C   UNL A   1      43.438  32.750  32.186  1.00  0.00    -0.014 A 
ATOM     56  C   UNL A   1      43.039  32.994  33.512  1.00  0.00     0.010 A 
ATOM     57  C   UNL A   1      43.929  33.814  31.409  1.00  0.00     0.010 A 
ATOM     58  C   UNL A   1      43.083  34.289  34.035  1.00  0.00     0.020 A 
ATOM     59  C   UNL A   1      43.994  35.107  31.935  1.00  0.00     0.020 A 
ATOM     60  C   UNL A   1      43.549  35.340  33.239  1.00  0.00     0.054 A 
BRANCH  60  61
ATOM     61  S   UNL A   1      43.586  37.015  33.934  1.00  0.00     0.124 S 
ATOM     62  O   UNL A   1      43.458  37.840  32.735  1.00  0.00    -0.237 OA
ATOM     63  O   UNL A   1      42.431  37.022  34.827  1.00  0.00    -0.237 OA
ATOM     64  O   UNL A   1      44.885  37.084  34.601  1.00  0.00    -0.744 OA
ENDBRANCH  60  61
ENDBRANCH  41  55
BRANCH  42  65
ATOM     65  C   UNL A   1      42.442  23.757  27.963  1.00  0.00    -0.014 A 
ATOM     66  C   UNL A   1      42.718  23.577  26.597  1.00  0.00     0.010 A 
ATOM     67  C   UNL A   1      42.050  22.648  28.736  1.00  0.00     0.010 A 
ATOM     68  C   UNL A   1      42.602  22.311  26.015  1.00  0.00     0.020 A 
ATOM     69  C   UNL A   1      41.956  21.379  28.162  1.00  0.00     0.020 A 
ATOM     70  C   UNL A   1      42.225  21.219  26.802  1.00  0.00     0.054 A 
BRANCH  70  71
ATOM     71  S   UNL A   1      42.151  19.572  26.045  1.00  0.00     0.124 S 
ATOM     72  O   UNL A   1      40.732  19.447  25.728  1.00  0.00    -0.237 OA
ATOM     73  O   UNL A   1      43.046  19.708  24.896  1.00  0.00    -0.237 OA
ATOM     74  O   UNL A   1      42.639  18.689  27.102  1.00  0.00    -0.744 OA
ENDBRANCH  70  71
ENDBRANCH  42  65
BRANCH  54  75
ATOM     75  C   UNL A   1      47.716  27.025  31.147  1.00  0.00    -0.014 A 
ATOM     76  C   UNL A   1      48.041  26.369  32.347  1.00  0.00     0.010 A 
ATOM     77  C   UNL A   1      48.726  27.258  30.197  1.00  0.00     0.010 A 
ATOM     78  C   UNL A   1      49.358  25.975  32.603  1.00  0.00     0.020 A 
ATOM     79  C   UNL A   1      50.040  26.847  30.440  1.00  0.00     0.020 A 
ATOM     80  C   UNL A   1      50.349  26.220  31.648  1.00  0.00     0.054 A 
BRANCH  80  81
ATOM     81  S   UNL A   1      52.043  25.661  31.980  1.00  0.00     0.124 S 
ATOM     82  O   UNL A   1      52.344  26.336  33.239  1.00  0.00    -0.237 OA
ATOM     83  O   UNL A   1      51.896  24.210  32.064  1.00  0.00    -0.237 OA
ATOM     84  O   UNL A   1      52.796  26.138  30.821  1.00  0.00    -0.744 OA
ENDBRANCH  80  81
ENDBRANCH  54  75
ENDBRANCH  28  29
ENDBRANCH  21  23
ENDBRANCH  20  21
ENDBRANCH  19  20
ENDBRANCH   1  19
TORSDOF 17
ENDMDL
MODEL 2
REMARK VINA RESULT:      -9.7      4.129     10.348
REMARK SMILES C[C@@H](SC1CCOCC1)c1ccc(C(=O)OCCOC(=O)c2ccc(-c3c4nc(c(-c5ccc(S(=O)(=O)[O-])cc5)c5ccc([nH]5)c(-c5ccc(S(=O)(=O)[O-])cc5)c5nc(c(-c6ccc(S(=O)(=O)[O-])cc6)c6ccc3[nH]6)C=C5)C=C4)cc2)o1
REMARK SMILES IDX 17 1 16 2 14 3 15 4 13 5 10 6 11 7 82 8 12 9 2 10 1 11 3 12
REMARK SMILES IDX 4 13 5 14 9 15 6 16 8 17 7 18 18 19 19 20 20 21 21 22 22 23
REMARK SMILES IDX 23 24 81 25 24 26 80 27 25 28 26 29 27 30 74 31 28 32 79 33
REMARK SMILES IDX 73 34 75 35 29 36 78 37 72 38 71 39 30 41 60 42 41 43 59 44
REMARK SMILES IDX 42 45 45 46 58 47 76 48 43 49 44 50 57 52 77 53 46 54 31 55
REMARK SMILES IDX 32 56 40 57 33 58 39 59 34 60 35 61 36 62 37 63 38 64 61 65
REMARK SMILES IDX 62 66 70 67 63 68 69 69 64 70 65 71 66 72 67 73 68 74 47 75
REMARK SMILES IDX 48 76 56 77 49 78 55 79 50 80 51 81 52 82 53 83 54 84
REMARK H PARENT 75 40 45 51
REMARK Flexibility Score: inf
ROOT
ATOM      1  C   UNL A   1      42.683  21.774  26.271  1.00  0.00     0.275 C 
ENDROOT
BRANCH   1   2
ATOM      2  O   UNL A   1      41.423  21.776  26.964  1.00  0.00    -0.456 OA
BRANCH   2   3
ATOM      3  C   UNL A   1      40.422  21.040  26.389  1.00  0.00     0.374 C 
ATOM      4  O   UNL A   1      40.474  19.832  26.209  1.00  0.00    -0.242 OA
BRANCH   3   5
ATOM      5  C   UNL A   1      39.281  21.887  26.123  1.00  0.00     0.211 A 
ATOM      6  C   UNL A   1      37.218  22.264  25.416  1.00  0.00     0.117 A 
ATOM      7  C   UNL A   1      37.637  23.418  26.047  1.00  0.00     0.048 A 
ATOM      8  O   UNL A   1      38.230  21.349  25.424  1.00  0.00    -0.453 OA
ATOM      9  C   UNL A   1      38.957  23.177  26.498  1.00  0.00     0.058 A 
BRANCH   6  10
ATOM     10  C   UNL A   1      35.916  21.814  24.818  1.00  0.00     0.110 C 
ATOM     11  C   UNL A   1      34.857  21.710  25.917  1.00  0.00     0.028 C 
BRANCH  10  12
ATOM     12  S   UNL A   1      35.441  22.987  23.481  1.00  0.00    -0.147 SA
BRANCH  12  13
ATOM     13  C   UNL A   1      33.731  23.470  23.952  1.00  0.00     0.052 C 
ATOM     14  C   UNL A   1      32.643  22.714  23.188  1.00  0.00     0.043 C 
ATOM     15  C   UNL A   1      33.604  24.977  23.698  1.00  0.00     0.043 C 
ATOM     16  C   UNL A   1      31.273  23.316  23.489  1.00  0.00     0.161 C 
ATOM     17  C   UNL A   1      32.184  25.446  23.978  1.00  0.00     0.161 C 
ATOM     18  O   UNL A   1      31.252  24.710  23.190  1.00  0.00    -0.381 OA
ENDBRANCH  12  13
ENDBRANCH  10  12
ENDBRANCH   6  10
ENDBRANCH   3   5
ENDBRANCH   2   3
ENDBRANCH   1   2
BRANCH   1  19
ATOM     19  C   UNL A   1      42.814  22.992  25.349  1.00  0.00     0.275 C 
BRANCH  19  20
ATOM     20  O   UNL A   1      42.091  24.130  25.853  1.00  0.00    -0.458 OA
BRANCH  20  21
ATOM     21  C   UNL A   1      42.780  25.298  25.862  1.00  0.00     0.338 C 
ATOM     22  O   UNL A   1      43.552  25.696  25.007  1.00  0.00    -0.246 OA
BRANCH  21  23
ATOM     23  C   UNL A   1      42.354  26.117  27.012  1.00  0.00     0.060 A 
ATOM     24  C   UNL A   1      42.936  27.378  27.164  1.00  0.00     0.016 A 
ATOM     25  C   UNL A   1      41.440  25.644  27.956  1.00  0.00     0.016 A 
ATOM     26  C   UNL A   1      42.607  28.177  28.255  1.00  0.00     0.010 A 
ATOM     27  C   UNL A   1      41.114  26.445  29.057  1.00  0.00     0.010 A 
ATOM     28  C   UNL A   1      41.701  27.712  29.216  1.00  0.00    -0.014 A 
BRANCH  28  29
ATOM     29  C   UNL A   1      41.413  28.549  30.405  1.00  0.00     0.031 A 
ATOM     30  C   UNL A   1      42.281  28.440  31.626  1.00  0.00     0.074 A 
ATOM     31  C   UNL A   1      40.402  29.437  30.370  1.00  0.00     0.049 A 
ATOM     32  N   UNL A   1      42.194  29.088  32.759  1.00  0.00    -0.248 NA
ATOM     33  C   UNL A   1      43.393  27.480  31.561  1.00  0.00     0.031 C 
ATOM     34  C   UNL A   1      39.519  29.666  29.225  1.00  0.00     0.029 A 
ATOM     35  N   UNL A   1      39.954  30.317  31.322  1.00  0.00    -0.354 N 
ATOM     36  C   UNL A   1      43.231  28.608  33.549  1.00  0.00     0.074 A 
ATOM     37  C   UNL A   1      43.924  27.602  32.770  1.00  0.00     0.031 C 
ATOM     38  C   UNL A   1      38.640  30.633  29.540  1.00  0.00     0.029 A 
ATOM     39  C   UNL A   1      38.875  31.064  30.915  1.00  0.00     0.049 A 
ATOM     40  H   UNL A   1      40.366  30.406  32.212  1.00  0.00     0.167 HD
ATOM     41  C   UNL A   1      43.576  28.972  34.807  1.00  0.00     0.031 A 
ATOM     42  C   UNL A   1      38.148  31.983  31.580  1.00  0.00     0.031 A 
ATOM     43  C   UNL A   1      42.880  29.962  35.584  1.00  0.00     0.049 A 
ATOM     44  C   UNL A   1      38.511  32.325  32.998  1.00  0.00     0.074 A 
ATOM     45  C   UNL A   1      43.158  30.403  36.867  1.00  0.00     0.029 A 
ATOM     46  N   UNL A   1      41.760  30.660  35.157  1.00  0.00    -0.354 N 
ATOM     47  N   UNL A   1      39.501  31.867  33.727  1.00  0.00    -0.248 NA
ATOM     48  C   UNL A   1      37.659  33.307  33.683  1.00  0.00     0.031 C 
ATOM     49  C   UNL A   1      42.180  31.338  37.230  1.00  0.00     0.029 A 
ATOM     50  C   UNL A   1      41.321  31.512  36.157  1.00  0.00     0.049 A 
ATOM     51  H   UNL A   1      41.339  30.564  34.272  1.00  0.00     0.167 HD
ATOM     52  C   UNL A   1      39.399  32.516  34.953  1.00  0.00     0.074 A 
ATOM     53  C   UNL A   1      38.261  33.408  34.862  1.00  0.00     0.031 C 
ATOM     54  C   UNL A   1      40.180  32.385  36.054  1.00  0.00     0.031 A 
BRANCH  41  55
ATOM     55  C   UNL A   1      44.742  28.255  35.431  1.00  0.00    -0.014 A 
ATOM     56  C   UNL A   1      46.053  28.744  35.300  1.00  0.00     0.010 A 
ATOM     57  C   UNL A   1      44.519  27.076  36.166  1.00  0.00     0.010 A 
ATOM     58  C   UNL A   1      47.128  28.041  35.850  1.00  0.00     0.020 A 
ATOM     59  C   UNL A   1      45.589  26.381  36.736  1.00  0.00     0.020 A 
ATOM     60  C   UNL A   1      46.889  26.857  36.555  1.00  0.00     0.054 A 
BRANCH  60  61
ATOM     61  S   UNL A   1      48.301  25.954  37.251  1.00  0.00     0.124 S 
ATOM     62  O   UNL A   1      49.306  27.008  37.360  1.00  0.00    -0.237 OA
ATOM     63  O   UNL A   1      47.774  25.456  38.519  1.00  0.00    -0.237 OA
ATOM     64  O   UNL A   1      48.581  24.926  36.251  1.00  0.00    -0.744 OA
ENDBRANCH  60  61
ENDBRANCH  41  55
BRANCH  42  65
ATOM     65  C   UNL A   1      36.990  32.631  30.908  1.00  0.00    -0.014 A 
ATOM     66  C   UNL A   1      35.683  32.167  31.128  1.00  0.00     0.010 A 
ATOM     67  C   UNL A   1      37.193  33.739  30.064  1.00  0.00     0.010 A 
ATOM     68  C   UNL A   1      34.597  32.798  30.514  1.00  0.00     0.020 A 
ATOM     69  C   UNL A   1      36.108  34.385  29.466  1.00  0.00     0.020 A 
ATOM     70  C   UNL A   1      34.817  33.906  29.688  1.00  0.00     0.054 A 
BRANCH  70  71
ATOM     71  S   UNL A   1      33.390  34.756  28.958  1.00  0.00     0.124 S 
ATOM     72  O   UNL A   1      34.011  35.941  28.373  1.00  0.00    -0.237 OA
ATOM     73  O   UNL A   1      32.885  33.770  28.003  1.00  0.00    -0.237 OA
ATOM     74  O   UNL A   1      32.518  35.004  30.103  1.00  0.00    -0.744 OA
ENDBRANCH  70  71
ENDBRANCH  42  65
BRANCH  54  75
ATOM     75  C   UNL A   1      39.840  33.239  37.245  1.00  0.00    -0.014 A 
ATOM     76  C   UNL A   1      40.357  34.540  37.374  1.00  0.00     0.010 A 
ATOM     77  C   UNL A   1      38.955  32.751  38.222  1.00  0.00     0.010 A 
ATOM     78  C   UNL A   1      40.014  35.330  38.475  1.00  0.00     0.020 A 
ATOM     79  C   UNL A   1      38.593  33.546  39.313  1.00  0.00     0.020 A 
ATOM     80  C   UNL A   1      39.135  34.826  39.439  1.00  0.00     0.054 A 
BRANCH  80  81
ATOM     81  S   UNL A   1      38.667  35.884  40.837  1.00  0.00     0.124 S 
ATOM     82  O   UNL A   1      39.808  35.723  41.735  1.00  0.00    -0.237 OA
ATOM     83  O   UNL A   1      38.535  37.200  40.217  1.00  0.00    -0.237 OA
ATOM     84  O   UNL A   1      37.415  35.296  41.309  1.00  0.00    -0.744 OA
ENDBRANCH  80  81
ENDBRANCH  54  75
ENDBRANCH  28  29
ENDBRANCH  21  23
ENDBRANCH  20  21
ENDBRANCH  19  20
ENDBRANCH   1  19
TORSDOF 17
ENDMDL
MODEL 3
REMARK VINA RESULT:      -9.6      3.646      9.421
REMARK SMILES C[C@@H](SC1CCOCC1)c1ccc(C(=O)OCCOC(=O)c2ccc(-c3c4nc(c(-c5ccc(S(=O)(=O)[O-])cc5)c5ccc([nH]5)c(-c5ccc(S(=O)(=O)[O-])cc5)c5nc(c(-c6ccc(S(=O)(=O)[O-])cc6)c6ccc3[nH]6)C=C5)C=C4)cc2)o1
REMARK SMILES IDX 17 1 16 2 14 3 15 4 13 5 10 6 11 7 82 8 12 9 2 10 1 11 3 12
REMARK SMILES IDX 4 13 5 14 9 15 6 16 8 17 7 18 18 19 19 20 20 21 21 22 22 23
REMARK SMILES IDX 23 24 81 25 24 26 80 27 25 28 26 29 27 30 74 31 28 32 79 33
REMARK SMILES IDX 73 34 75 35 29 36 78 37 72 38 71 39 30 41 60 42 41 43 59 44
REMARK SMILES IDX 42 45 45 46 58 47 76 48 43 49 44 50 57 52 77 53 46 54 31 55
REMARK SMILES IDX 32 56 40 57 33 58 39 59 34 60 35 61 36 62 37 63 38 64 61 65
REMARK SMILES IDX 62 66 70 67 63 68 69 69 64 70 65 71 66 72 67 73 68 74 47 75
REMARK SMILES IDX 48 76 56 77 49 78 55 79 50 80 51 81 52 82 53 83 54 84
REMARK H PARENT 75 40 45 51
REMARK Flexibility Score: inf
ROOT
ATOM      1  C   UNL A   1      34.429  31.389  27.631  1.00  0.00     0.275 C 
ENDROOT
BRANCH   1   2
ATOM      2  O   UNL A   1      33.689  30.189  27.346  1.00  0.00    -0.456 OA
BRANCH   2   3
ATOM      3  C   UNL A   1      32.399  30.367  26.923  1.00  0.00     0.374 C 
ATOM      4  O   UNL A   1      31.839  31.451  26.868  1.00  0.00    -0.242 OA
BRANCH   3   5
ATOM      5  C   UNL A   1      31.853  29.107  26.471  1.00  0.00     0.211 A 
ATOM      6  C   UNL A   1      31.369  27.603  24.922  1.00  0.00     0.117 A 
ATOM      7  C   UNL A   1      31.127  27.005  26.143  1.00  0.00     0.048 A 
ATOM      8  O   UNL A   1      31.768  28.892  25.118  1.00  0.00    -0.453 OA
ATOM      9  C   UNL A   1      31.436  27.968  27.133  1.00  0.00     0.058 A 
BRANCH   6  10
ATOM     10  C   UNL A   1      31.348  27.119  23.501  1.00  0.00     0.110 C 
ATOM     11  C   UNL A   1      30.267  27.869  22.720  1.00  0.00     0.028 C 
BRANCH  10  12
ATOM     12  S   UNL A   1      33.027  27.337  22.776  1.00  0.00    -0.147 SA
BRANCH  12  13
ATOM     13  C   UNL A   1      33.679  25.619  22.736  1.00  0.00     0.052 C 
ATOM     14  C   UNL A   1      32.678  24.590  22.208  1.00  0.00     0.043 C 
ATOM     15  C   UNL A   1      34.096  25.263  24.167  1.00  0.00     0.043 C 
ATOM     16  C   UNL A   1      33.224  23.177  22.400  1.00  0.00     0.161 C 
ATOM     17  C   UNL A   1      34.567  23.818  24.241  1.00  0.00     0.161 C 
ATOM     18  O   UNL A   1      33.550  22.939  23.767  1.00  0.00    -0.381 OA
ENDBRANCH  12  13
ENDBRANCH  10  12
ENDBRANCH   6  10
ENDBRANCH   3   5
ENDBRANCH   2   3
ENDBRANCH   1   2
BRANCH   1  19
ATOM     19  C   UNL A   1      35.147  31.294  28.983  1.00  0.00     0.275 C 
BRANCH  19  20
ATOM     20  O   UNL A   1      35.911  30.080  29.104  1.00  0.00    -0.458 OA
BRANCH  20  21
ATOM     21  C   UNL A   1      36.670  29.982  30.223  1.00  0.00     0.338 C 
ATOM     22  O   UNL A   1      36.271  29.957  31.375  1.00  0.00    -0.246 OA
BRANCH  21  23
ATOM     23  C   UNL A   1      38.079  29.758  29.850  1.00  0.00     0.060 A 
ATOM     24  C   UNL A   1      38.388  29.682  28.489  1.00  0.00     0.016 A 
ATOM     25  C   UNL A   1      39.075  29.576  30.811  1.00  0.00     0.016 A 
ATOM     26  C   UNL A   1      39.693  29.428  28.078  1.00  0.00     0.010 A 
ATOM     27  C   UNL A   1      40.387  29.313  30.398  1.00  0.00     0.010 A 
ATOM     28  C   UNL A   1      40.701  29.231  29.030  1.00  0.00    -0.014 A 
BRANCH  28  29
ATOM     29  C   UNL A   1      42.071  28.896  28.574  1.00  0.00     0.031 A 
ATOM     30  C   UNL A   1      42.394  27.495  28.139  1.00  0.00     0.074 A 
ATOM     31  C   UNL A   1      43.010  29.858  28.510  1.00  0.00     0.049 A 
ATOM     32  N   UNL A   1      43.528  27.008  27.705  1.00  0.00    -0.248 NA
ATOM     33  C   UNL A   1      41.297  26.518  28.194  1.00  0.00     0.031 C 
ATOM     34  C   UNL A   1      42.803  31.263  28.863  1.00  0.00     0.029 A 
ATOM     35  N   UNL A   1      44.323  29.799  28.117  1.00  0.00    -0.354 N 
ATOM     36  C   UNL A   1      43.287  25.664  27.445  1.00  0.00     0.074 A 
ATOM     37  C   UNL A   1      41.903  25.410  27.788  1.00  0.00     0.031 C 
ATOM     38  C   UNL A   1      43.949  31.936  28.660  1.00  0.00     0.029 A 
ATOM     39  C   UNL A   1      44.975  31.005  28.198  1.00  0.00     0.049 A 
ATOM     40  H   UNL A   1      44.756  28.972  27.805  1.00  0.00     0.167 HD
ATOM     41  C   UNL A   1      44.141  24.728  26.966  1.00  0.00     0.031 A 
ATOM     42  C   UNL A   1      46.260  31.323  27.945  1.00  0.00     0.031 A 
ATOM     43  C   UNL A   1      45.519  24.978  26.639  1.00  0.00     0.049 A 
ATOM     44  C   UNL A   1      47.204  30.253  27.473  1.00  0.00     0.074 A 
ATOM     45  C   UNL A   1      46.461  24.094  26.142  1.00  0.00     0.029 A 
ATOM     46  N   UNL A   1      46.157  26.201  26.785  1.00  0.00    -0.354 N 
ATOM     47  N   UNL A   1      46.958  28.988  27.226  1.00  0.00    -0.248 NA
ATOM     48  C   UNL A   1      48.601  30.652  27.249  1.00  0.00     0.031 C 
ATOM     49  C   UNL A   1      47.680  24.773  26.027  1.00  0.00     0.029 A 
ATOM     50  C   UNL A   1      47.486  26.091  26.409  1.00  0.00     0.049 A 
ATOM     51  H   UNL A   1      45.728  27.026  27.108  1.00  0.00     0.167 HD
ATOM     52  C   UNL A   1      48.165  28.443  26.803  1.00  0.00     0.074 A 
ATOM     53  C   UNL A   1      49.137  29.518  26.813  1.00  0.00     0.031 C 
ATOM     54  C   UNL A   1      48.443  27.168  26.436  1.00  0.00     0.031 A 
BRANCH  41  55
ATOM     55  C   UNL A   1      43.606  23.331  26.811  1.00  0.00    -0.014 A 
ATOM     56  C   UNL A   1      43.298  22.540  27.932  1.00  0.00     0.010 A 
ATOM     57  C   UNL A   1      43.401  22.804  25.522  1.00  0.00     0.010 A 
ATOM     58  C   UNL A   1      42.843  21.229  27.768  1.00  0.00     0.020 A 
ATOM     59  C   UNL A   1      42.926  21.501  25.354  1.00  0.00     0.020 A 
ATOM     60  C   UNL A   1      42.671  20.714  26.480  1.00  0.00     0.054 A 
BRANCH  60  61
ATOM     61  S   UNL A   1      42.091  19.006  26.290  1.00  0.00     0.124 S 
ATOM     62  O   UNL A   1      40.740  19.204  25.769  1.00  0.00    -0.237 OA
ATOM     63  O   UNL A   1      43.050  18.439  25.347  1.00  0.00    -0.237 OA
ATOM     64  O   UNL A   1      42.161  18.464  27.646  1.00  0.00    -0.744 OA
ENDBRANCH  60  61
ENDBRANCH  41  55
BRANCH  42  65
ATOM     65  C   UNL A   1      46.726  32.721  28.149  1.00  0.00    -0.014 A 
ATOM     66  C   UNL A   1      47.243  33.129  29.389  1.00  0.00     0.010 A 
ATOM     67  C   UNL A   1      46.679  33.643  27.087  1.00  0.00     0.010 A 
ATOM     68  C   UNL A   1      47.703  34.437  29.566  1.00  0.00     0.020 A 
ATOM     69  C   UNL A   1      47.158  34.944  27.254  1.00  0.00     0.020 A 
ATOM     70  C   UNL A   1      47.661  35.336  28.495  1.00  0.00     0.054 A 
BRANCH  70  71
ATOM     71  S   UNL A   1      48.330  37.008  28.722  1.00  0.00     0.124 S 
ATOM     72  O   UNL A   1      49.171  37.161  27.539  1.00  0.00    -0.237 OA
ATOM     73  O   UNL A   1      47.124  37.833  28.752  1.00  0.00    -0.237 OA
ATOM     74  O   UNL A   1      49.044  36.918  29.993  1.00  0.00    -0.744 OA
ENDBRANCH  70  71
ENDBRANCH  42  65
BRANCH  54  75
ATOM     75  C   UNL A   1      49.850  26.867  26.000  1.00  0.00    -0.014 A 
ATOM     76  C   UNL A   1      50.267  27.113  24.680  1.00  0.00     0.010 A 
ATOM     77  C   UNL A   1      50.779  26.377  26.934  1.00  0.00     0.010 A 
ATOM     78  C   UNL A   1      51.585  26.850  24.295  1.00  0.00     0.020 A 
ATOM     79  C   UNL A   1      52.103  26.133  26.559  1.00  0.00     0.020 A 
ATOM     80  C   UNL A   1      52.494  26.359  25.238  1.00  0.00     0.054 A 
BRANCH  80  81
ATOM     81  S   UNL A   1      54.211  26.066  24.729  1.00  0.00     0.124 S 
ATOM     82  O   UNL A   1      54.943  27.002  25.577  1.00  0.00    -0.237 OA
ATOM     83  O   UNL A   1      54.404  24.651  25.040  1.00  0.00    -0.237 OA
ATOM     84  O   UNL A   1      54.207  26.388  23.303  1.00  0.00    -0.744 OA
ENDBRANCH  80  81
ENDBRANCH  54  75
ENDBRANCH  28  29
ENDBRANCH  21  23
ENDBRANCH  20  21
ENDBRANCH  19  20
ENDBRANCH   1  19
TORSDOF 17
ENDMDL
