MODEL 1
REMARK VINA RESULT:      -9.9      0.000      0.000
REMARK SMILES O=C(OCCOC(=O)c1ccccc1SCc1ccccc1F)c1ccc(-c2c3nc(c(-c4ccc(S(=O)(=O)[O-])cc4)c4ccc([nH]4)c(-c4ccc(S(=O)(=O)[O-])cc4)c4nc(c(-c5ccc(S(=O)(=O)[O-])cc5)c5ccc2[nH]5)C=C4)C=C3)cc1
REMARK SMILES IDX 4 1 3 2 2 3 1 4 24 5 25 6 83 7 26 8 82 9 27 10 28 11 29 12
REMARK SMILES IDX 76 13 30 14 81 15 75 16 77 17 31 18 80 19 74 20 73 21 32 23
REMARK SMILES IDX 62 24 43 25 61 26 44 27 47 28 60 29 78 30 45 31 46 32 59 34
REMARK SMILES IDX 79 35 48 36 33 37 34 38 42 39 35 40 41 41 36 42 37 43 38 44
REMARK SMILES IDX 39 45 40 46 63 47 64 48 72 49 65 50 71 51 66 52 67 53 68 54
REMARK SMILES IDX 69 55 70 56 49 57 50 58 58 59 51 60 57 61 52 62 53 63 54 64
REMARK SMILES IDX 55 65 56 66 5 67 6 68 7 69 8 70 9 71 10 72 14 73 11 74 13 75
REMARK SMILES IDX 12 76 15 77 16 78 17 79 18 80 22 81 19 82 21 83 23 84 20 85
REMARK H PARENT 77 22 47 33
REMARK Flexibility Score: inf
ROOT
ATOM      1  C   UNL A   1      44.678  24.850  24.819  1.00  0.00     0.275 C 
ENDROOT
BRANCH   1   2
ATOM      2  O   UNL A   1      43.974  26.059  25.176  1.00  0.00    -0.458 OA
BRANCH   2   3
ATOM      3  C   UNL A   1      42.762  25.906  25.774  1.00  0.00     0.338 C 
ATOM      4  O   UNL A   1      41.809  25.375  25.229  1.00  0.00    -0.246 OA
BRANCH   3   5
ATOM      5  C   UNL A   1      42.673  26.628  27.080  1.00  0.00     0.060 A 
ATOM      6  C   UNL A   1      41.672  26.322  27.988  1.00  0.00     0.016 A 
ATOM      7  C   UNL A   1      43.560  27.659  27.415  1.00  0.00     0.016 A 
ATOM      8  C   UNL A   1      41.548  27.020  29.186  1.00  0.00     0.010 A 
ATOM      9  C   UNL A   1      43.423  28.366  28.637  1.00  0.00     0.010 A 
ATOM     10  C   UNL A   1      42.384  28.072  29.534  1.00  0.00    -0.014 A 
BRANCH  10  11
ATOM     11  C   UNL A   1      42.007  28.905  30.731  1.00  0.00     0.031 A 
ATOM     12  C   UNL A   1      40.775  29.756  30.669  1.00  0.00     0.074 A 
ATOM     13  C   UNL A   1      42.587  28.768  31.946  1.00  0.00     0.049 A 
ATOM     14  N   UNL A   1      40.283  30.554  31.581  1.00  0.00    -0.248 NA
ATOM     15  C   UNL A   1      39.968  29.663  29.444  1.00  0.00     0.031 C 
ATOM     16  C   UNL A   1      43.621  27.798  32.245  1.00  0.00     0.029 A 
ATOM     17  N   UNL A   1      42.376  29.374  33.165  1.00  0.00    -0.354 N 
ATOM     18  C   UNL A   1      39.127  31.084  31.029  1.00  0.00     0.074 A 
ATOM     19  C   UNL A   1      38.997  30.524  29.701  1.00  0.00     0.031 C 
ATOM     20  C   UNL A   1      43.946  27.831  33.543  1.00  0.00     0.029 A 
ATOM     21  C   UNL A   1      43.197  28.904  34.173  1.00  0.00     0.049 A 
ATOM     22  H   UNL A   1      41.701  30.077  33.307  1.00  0.00     0.167 HD
ATOM     23  C   UNL A   1      38.254  31.960  31.576  1.00  0.00     0.031 A 
ATOM     24  C   UNL A   1      43.370  29.294  35.453  1.00  0.00     0.031 A 
ATOM     25  C   UNL A   1      38.377  32.525  32.892  1.00  0.00     0.049 A 
ATOM     26  C   UNL A   1      42.523  30.416  35.972  1.00  0.00     0.074 A 
ATOM     27  C   UNL A   1      37.590  33.497  33.485  1.00  0.00     0.029 A 
ATOM     28  N   UNL A   1      39.341  32.170  33.823  1.00  0.00    -0.354 N 
ATOM     29  N   UNL A   1      41.517  31.014  35.381  1.00  0.00    -0.248 NA
ATOM     30  C   UNL A   1      42.832  30.928  37.313  1.00  0.00     0.031 C 
ATOM     31  C   UNL A   1      38.115  33.771  34.753  1.00  0.00     0.029 A 
ATOM     32  C   UNL A   1      39.193  32.928  34.973  1.00  0.00     0.049 A 
ATOM     33  H   UNL A   1      40.031  31.481  33.686  1.00  0.00     0.167 HD
ATOM     34  C   UNL A   1      41.055  31.956  36.288  1.00  0.00     0.074 A 
ATOM     35  C   UNL A   1      41.886  31.846  37.470  1.00  0.00     0.031 C 
ATOM     36  C   UNL A   1      40.028  32.828  36.144  1.00  0.00     0.031 A 
BRANCH  23  37
ATOM     37  C   UNL A   1      37.154  32.436  30.672  1.00  0.00    -0.014 A 
ATOM     38  C   UNL A   1      37.339  33.509  29.784  1.00  0.00     0.010 A 
ATOM     39  C   UNL A   1      35.886  31.838  30.784  1.00  0.00     0.010 A 
ATOM     40  C   UNL A   1      36.252  34.022  29.073  1.00  0.00     0.020 A 
ATOM     41  C   UNL A   1      34.805  32.332  30.056  1.00  0.00     0.020 A 
ATOM     42  C   UNL A   1      34.989  33.441  29.228  1.00  0.00     0.054 A 
BRANCH  42  43
ATOM     43  S   UNL A   1      33.581  34.159  28.341  1.00  0.00     0.124 S 
ATOM     44  O   UNL A   1      32.767  34.670  29.441  1.00  0.00    -0.237 OA
ATOM     45  O   UNL A   1      34.212  35.174  27.502  1.00  0.00    -0.237 OA
ATOM     46  O   UNL A   1      33.011  33.024  27.620  1.00  0.00    -0.744 OA
ENDBRANCH  42  43
ENDBRANCH  23  37
BRANCH  24  47
ATOM     47  C   UNL A   1      44.426  28.668  36.306  1.00  0.00    -0.014 A 
ATOM     48  C   UNL A   1      45.734  29.184  36.347  1.00  0.00     0.010 A 
ATOM     49  C   UNL A   1      44.122  27.537  37.088  1.00  0.00     0.010 A 
ATOM     50  C   UNL A   1      46.713  28.580  37.148  1.00  0.00     0.020 A 
ATOM     51  C   UNL A   1      45.088  26.946  37.910  1.00  0.00     0.020 A 
ATOM     52  C   UNL A   1      46.382  27.467  37.927  1.00  0.00     0.054 A 
BRANCH  52  53
ATOM     53  S   UNL A   1      47.650  26.730  38.998  1.00  0.00     0.124 S 
ATOM     54  O   UNL A   1      46.845  25.979  39.956  1.00  0.00    -0.237 OA
ATOM     55  O   UNL A   1      48.430  25.927  38.060  1.00  0.00    -0.237 OA
ATOM     56  O   UNL A   1      48.353  27.890  39.545  1.00  0.00    -0.744 OA
ENDBRANCH  52  53
ENDBRANCH  24  47
BRANCH  36  57
ATOM     57  C   UNL A   1      39.724  33.725  37.310  1.00  0.00    -0.014 A 
ATOM     58  C   UNL A   1      38.888  33.299  38.357  1.00  0.00     0.010 A 
ATOM     59  C   UNL A   1      40.323  34.995  37.380  1.00  0.00     0.010 A 
ATOM     60  C   UNL A   1      38.639  34.138  39.445  1.00  0.00     0.020 A 
ATOM     61  C   UNL A   1      40.096  35.828  38.478  1.00  0.00     0.020 A 
ATOM     62  C   UNL A   1      39.245  35.398  39.499  1.00  0.00     0.054 A 
BRANCH  62  63
ATOM     63  S   UNL A   1      38.951  36.450  40.947  1.00  0.00     0.124 S 
ATOM     64  O   UNL A   1      38.515  37.699  40.331  1.00  0.00    -0.237 OA
ATOM     65  O   UNL A   1      37.920  35.713  41.675  1.00  0.00    -0.237 OA
ATOM     66  O   UNL A   1      40.253  36.501  41.607  1.00  0.00    -0.744 OA
ENDBRANCH  62  63
ENDBRANCH  36  57
ENDBRANCH  10  11
ENDBRANCH   3   5
ENDBRANCH   2   3
ENDBRANCH   1   2
BRANCH   1  67
ATOM     67  C   UNL A   1      46.155  25.011  25.204  1.00  0.00     0.275 C 
BRANCH  67  68
ATOM     68  O   UNL A   1      46.375  24.319  26.445  1.00  0.00    -0.458 OA
BRANCH  68  69
ATOM     69  C   UNL A   1      45.702  23.148  26.557  1.00  0.00     0.339 C 
ATOM     70  O   UNL A   1      46.057  22.072  26.125  1.00  0.00    -0.246 OA
BRANCH  69  71
ATOM     71  C   UNL A   1      44.636  23.281  27.566  1.00  0.00     0.073 A 
ATOM     72  C   UNL A   1      45.039  24.071  28.681  1.00  0.00     0.017 A 
ATOM     73  C   UNL A   1      43.388  22.656  27.546  1.00  0.00     0.022 A 
ATOM     74  C   UNL A   1      44.241  24.206  29.811  1.00  0.00     0.001 A 
ATOM     75  C   UNL A   1      42.710  22.658  28.791  1.00  0.00     0.016 A 
ATOM     76  C   UNL A   1      43.091  23.451  29.886  1.00  0.00     0.001 A 
BRANCH  73  77
ATOM     77  S   UNL A   1      42.454  21.754  26.304  1.00  0.00    -0.120 SA
BRANCH  77  78
ATOM     78  C   UNL A   1      40.753  21.280  26.785  1.00  0.00     0.113 C 
BRANCH  78  79
ATOM     79  C   UNL A   1      39.530  22.116  26.460  1.00  0.00    -0.002 A 
ATOM     80  C   UNL A   1      39.488  23.457  26.890  1.00  0.00     0.007 A 
ATOM     81  C   UNL A   1      38.479  21.699  25.638  1.00  0.00     0.127 A 
ATOM     82  C   UNL A   1      38.374  24.277  26.666  1.00  0.00     0.001 A 
ATOM     83  C   UNL A   1      37.352  22.506  25.413  1.00  0.00     0.039 A 
ATOM     84  F   UNL A   1      38.488  20.472  25.104  1.00  0.00    -0.207 F 
ATOM     85  C   UNL A   1      37.285  23.787  25.956  1.00  0.00     0.003 A 
ENDBRANCH  78  79
ENDBRANCH  77  78
ENDBRANCH  73  77
ENDBRANCH  69  71
ENDBRANCH  68  69
ENDBRANCH  67  68
ENDBRANCH   1  67
TORSDOF 17
ENDMDL
MODEL 2
REMARK VINA RESULT:      -9.4      4.258      9.477
REMARK SMILES O=C(OCCOC(=O)c1ccccc1SCc1ccccc1F)c1ccc(-c2c3nc(c(-c4ccc(S(=O)(=O)[O-])cc4)c4ccc([nH]4)c(-c4ccc(S(=O)(=O)[O-])cc4)c4nc(c(-c5ccc(S(=O)(=O)[O-])cc5)c5ccc2[nH]5)C=C4)C=C3)cc1
REMARK SMILES IDX 4 1 3 2 2 3 1 4 24 5 25 6 83 7 26 8 82 9 27 10 28 11 29 12
REMARK SMILES IDX 76 13 30 14 81 15 75 16 77 17 31 18 80 19 74 20 73 21 32 23
REMARK SMILES IDX 62 24 43 25 61 26 44 27 47 28 60 29 78 30 45 31 46 32 59 34
REMARK SMILES IDX 79 35 48 36 33 37 34 38 42 39 35 40 41 41 36 42 37 43 38 44
REMARK SMILES IDX 39 45 40 46 63 47 64 48 72 49 65 50 71 51 66 52 67 53 68 54
REMARK SMILES IDX 69 55 70 56 49 57 50 58 58 59 51 60 57 61 52 62 53 63 54 64
REMARK SMILES IDX 55 65 56 66 5 67 6 68 7 69 8 70 9 71 10 72 14 73 11 74 13 75
REMARK SMILES IDX 12 76 15 77 16 78 17 79 18 80 22 81 19 82 21 83 23 84 20 85
REMARK H PARENT 77 22 47 33
REMARK Flexibility Score: inf
ROOT
ATOM      1  C   UNL A   1      38.909  21.044  25.479  1.00  0.00     0.275 C 
ENDROOT
BRANCH   1   2
ATOM      2  O   UNL A   1      38.899  22.052  26.514  1.00  0.00    -0.458 OA
BRANCH   2   3
ATOM      3  C   UNL A   1      38.393  23.268  26.176  1.00  0.00     0.338 C 
ATOM      4  O   UNL A   1      37.546  23.425  25.313  1.00  0.00    -0.246 OA
BRANCH   3   5
ATOM      5  C   UNL A   1      39.126  24.394  26.832  1.00  0.00     0.060 A 
ATOM      6  C   UNL A   1      38.944  24.665  28.178  1.00  0.00     0.016 A 
ATOM      7  C   UNL A   1      39.981  25.237  26.111  1.00  0.00     0.016 A 
ATOM      8  C   UNL A   1      39.582  25.740  28.790  1.00  0.00     0.010 A 
ATOM      9  C   UNL A   1      40.625  26.332  26.743  1.00  0.00     0.010 A 
ATOM     10  C   UNL A   1      40.406  26.618  28.099  1.00  0.00    -0.014 A 
BRANCH  10  11
ATOM     11  C   UNL A   1      40.842  27.876  28.804  1.00  0.00     0.031 A 
ATOM     12  C   UNL A   1      42.292  28.062  29.134  1.00  0.00     0.074 A 
ATOM     13  C   UNL A   1      40.042  28.956  28.962  1.00  0.00     0.049 A 
ATOM     14  N   UNL A   1      42.872  29.062  29.747  1.00  0.00    -0.248 NA
ATOM     15  C   UNL A   1      43.214  27.013  28.677  1.00  0.00     0.031 C 
ATOM     16  C   UNL A   1      38.685  29.039  28.462  1.00  0.00     0.029 A 
ATOM     17  N   UNL A   1      40.239  30.201  29.519  1.00  0.00    -0.354 N 
ATOM     18  C   UNL A   1      44.222  28.748  29.778  1.00  0.00     0.074 A 
ATOM     19  C   UNL A   1      44.373  27.462  29.132  1.00  0.00     0.031 C 
ATOM     20  C   UNL A   1      38.165  30.251  28.690  1.00  0.00     0.029 A 
ATOM     21  C   UNL A   1      39.133  31.027  29.446  1.00  0.00     0.049 A 
ATOM     22  H   UNL A   1      41.090  30.479  29.930  1.00  0.00     0.167 HD
ATOM     23  C   UNL A   1      45.244  29.464  30.301  1.00  0.00     0.031 A 
ATOM     24  C   UNL A   1      38.888  32.256  29.947  1.00  0.00     0.031 A 
ATOM     25  C   UNL A   1      45.103  30.740  30.948  1.00  0.00     0.049 A 
ATOM     26  C   UNL A   1      39.983  32.942  30.705  1.00  0.00     0.074 A 
ATOM     27  C   UNL A   1      46.074  31.485  31.594  1.00  0.00     0.029 A 
ATOM     28  N   UNL A   1      43.923  31.464  31.030  1.00  0.00    -0.354 N 
ATOM     29  N   UNL A   1      41.229  32.562  30.853  1.00  0.00    -0.248 NA
ATOM     30  C   UNL A   1      39.649  34.206  31.374  1.00  0.00     0.031 C 
ATOM     31  C   UNL A   1      45.468  32.633  32.117  1.00  0.00     0.029 A 
ATOM     32  C   UNL A   1      44.132  32.632  31.747  1.00  0.00     0.049 A 
ATOM     33  H   UNL A   1      43.064  31.189  30.637  1.00  0.00     0.167 HD
ATOM     34  C   UNL A   1      41.837  33.553  31.611  1.00  0.00     0.074 A 
ATOM     35  C   UNL A   1      40.824  34.554  31.885  1.00  0.00     0.031 C 
ATOM     36  C   UNL A   1      43.123  33.620  32.031  1.00  0.00     0.031 A 
BRANCH  23  37
ATOM     37  C   UNL A   1      46.586  28.793  30.282  1.00  0.00    -0.014 A 
ATOM     38  C   UNL A   1      47.000  27.939  31.318  1.00  0.00     0.010 A 
ATOM     39  C   UNL A   1      47.476  29.100  29.238  1.00  0.00     0.010 A 
ATOM     40  C   UNL A   1      48.311  27.457  31.345  1.00  0.00     0.020 A 
ATOM     41  C   UNL A   1      48.778  28.599  29.248  1.00  0.00     0.020 A 
ATOM     42  C   UNL A   1      49.196  27.805  30.318  1.00  0.00     0.054 A 
BRANCH  42  43
ATOM     43  S   UNL A   1      50.908  27.218  30.401  1.00  0.00     0.124 S 
ATOM     44  O   UNL A   1      51.607  28.409  30.879  1.00  0.00    -0.237 OA
ATOM     45  O   UNL A   1      50.824  26.115  31.354  1.00  0.00    -0.237 OA
ATOM     46  O   UNL A   1      51.207  26.829  29.026  1.00  0.00    -0.744 OA
ENDBRANCH  42  43
ENDBRANCH  23  37
BRANCH  24  47
ATOM     47  C   UNL A   1      37.538  32.882  29.807  1.00  0.00    -0.014 A 
ATOM     48  C   UNL A   1      37.243  33.755  28.744  1.00  0.00     0.010 A 
ATOM     49  C   UNL A   1      36.531  32.605  30.752  1.00  0.00     0.010 A 
ATOM     50  C   UNL A   1      35.974  34.337  28.632  1.00  0.00     0.020 A 
ATOM     51  C   UNL A   1      35.253  33.163  30.629  1.00  0.00     0.020 A 
ATOM     52  C   UNL A   1      34.985  34.034  29.574  1.00  0.00     0.054 A 
BRANCH  52  53
ATOM     53  S   UNL A   1      33.331  34.758  29.382  1.00  0.00     0.124 S 
ATOM     54  O   UNL A   1      32.848  34.788  30.759  1.00  0.00    -0.237 OA
ATOM     55  O   UNL A   1      33.621  36.059  28.786  1.00  0.00    -0.237 OA
ATOM     56  O   UNL A   1      32.645  33.817  28.499  1.00  0.00    -0.744 OA
ENDBRANCH  52  53
ENDBRANCH  24  47
BRANCH  36  57
ATOM     57  C   UNL A   1      43.522  34.835  32.820  1.00  0.00    -0.014 A 
ATOM     58  C   UNL A   1      44.135  35.937  32.198  1.00  0.00     0.010 A 
ATOM     59  C   UNL A   1      43.236  34.890  34.196  1.00  0.00     0.010 A 
ATOM     60  C   UNL A   1      44.474  37.067  32.945  1.00  0.00     0.020 A 
ATOM     61  C   UNL A   1      43.552  36.029  34.941  1.00  0.00     0.020 A 
ATOM     62  C   UNL A   1      44.180  37.106  34.312  1.00  0.00     0.054 A 
BRANCH  62  63
ATOM     63  S   UNL A   1      44.581  38.605  35.251  1.00  0.00     0.124 S 
ATOM     64  O   UNL A   1      44.392  38.161  36.628  1.00  0.00    -0.237 OA
ATOM     65  O   UNL A   1      45.964  38.870  34.859  1.00  0.00    -0.237 OA
ATOM     66  O   UNL A   1      43.607  39.583  34.771  1.00  0.00    -0.744 OA
ENDBRANCH  62  63
ENDBRANCH  36  57
ENDBRANCH  10  11
ENDBRANCH   3   5
ENDBRANCH   2   3
ENDBRANCH   1   2
BRANCH   1  67
ATOM     67  C   UNL A   1      39.975  19.995  25.827  1.00  0.00     0.275 C 
BRANCH  67  68
ATOM     68  O   UNL A   1      41.269  20.559  25.551  1.00  0.00    -0.458 OA
BRANCH  68  69
ATOM     69  C   UNL A   1      42.240  20.171  26.412  1.00  0.00     0.339 C 
ATOM     70  O   UNL A   1      42.075  19.719  27.524  1.00  0.00    -0.246 OA
BRANCH  69  71
ATOM     71  C   UNL A   1      43.523  20.054  25.695  1.00  0.00     0.073 A 
ATOM     72  C   UNL A   1      44.083  18.747  25.794  1.00  0.00     0.017 A 
ATOM     73  C   UNL A   1      44.216  21.082  25.053  1.00  0.00     0.022 A 
ATOM     74  C   UNL A   1      45.354  18.455  25.314  1.00  0.00     0.001 A 
ATOM     75  C   UNL A   1      45.573  20.786  24.767  1.00  0.00     0.016 A 
ATOM     76  C   UNL A   1      46.124  19.497  24.844  1.00  0.00     0.001 A 
BRANCH  73  77
ATOM     77  S   UNL A   1      43.804  22.762  24.568  1.00  0.00    -0.120 SA
BRANCH  77  78
ATOM     78  C   UNL A   1      44.110  24.047  25.835  1.00  0.00     0.113 C 
BRANCH  78  79
ATOM     79  C   UNL A   1      43.922  23.814  27.322  1.00  0.00    -0.002 A 
ATOM     80  C   UNL A   1      42.657  23.406  27.793  1.00  0.00     0.007 A 
ATOM     81  C   UNL A   1      44.952  23.841  28.267  1.00  0.00     0.127 A 
ATOM     82  C   UNL A   1      42.396  23.215  29.156  1.00  0.00     0.001 A 
ATOM     83  C   UNL A   1      44.703  23.660  29.637  1.00  0.00     0.039 A 
ATOM     84  F   UNL A   1      46.204  24.122  27.889  1.00  0.00    -0.207 F 
ATOM     85  C   UNL A   1      43.414  23.379  30.087  1.00  0.00     0.003 A 
ENDBRANCH  78  79
ENDBRANCH  77  78
ENDBRANCH  73  77
ENDBRANCH  69  71
ENDBRANCH  68  69
ENDBRANCH  67  68
ENDBRANCH   1  67
TORSDOF 17
ENDMDL
MODEL 3
REMARK VINA RESULT:      -9.4      4.141     10.560
REMARK SMILES O=C(OCCOC(=O)c1ccccc1SCc1ccccc1F)c1ccc(-c2c3nc(c(-c4ccc(S(=O)(=O)[O-])cc4)c4ccc([nH]4)c(-c4ccc(S(=O)(=O)[O-])cc4)c4nc(c(-c5ccc(S(=O)(=O)[O-])cc5)c5ccc2[nH]5)C=C4)C=C3)cc1
REMARK SMILES IDX 4 1 3 2 2 3 1 4 24 5 25 6 83 7 26 8 82 9 27 10 28 11 29 12
REMARK SMILES IDX 76 13 30 14 81 15 75 16 77 17 31 18 80 19 74 20 73 21 32 23
REMARK SMILES IDX 62 24 43 25 61 26 44 27 47 28 60 29 78 30 45 31 46 32 59 34
REMARK SMILES IDX 79 35 48 36 33 37 34 38 42 39 35 40 41 41 36 42 37 43 38 44
REMARK SMILES IDX 39 45 40 46 63 47 64 48 72 49 65 50 71 51 66 52 67 53 68 54
REMARK SMILES IDX 69 55 70 56 49 57 50 58 58 59 51 60 57 61 52 62 53 63 54 64
REMARK SMILES IDX 55 65 56 66 5 67 6 68 7 69 8 70 9 71 10 72 14 73 11 74 13 75
REMARK SMILES IDX 12 76 15 77 16 78 17 79 18 80 22 81 19 82 21 83 23 84 20 85
REMARK H PARENT 77 22 47 33
REMARK Flexibility Score: inf
ROOT
ATOM      1  C   UNL A   1      32.284  29.930  27.065  1.00  0.00     0.275 C 
ENDROOT
BRANCH   1   2
ATOM      2  O   UNL A   1      33.579  30.483  26.747  1.00  0.00    -0.458 OA
BRANCH   2   3
ATOM      3  C   UNL A   1      34.100  31.368  27.638  1.00  0.00     0.338 C 
ATOM      4  O   UNL A   1      33.620  32.469  27.848  1.00  0.00    -0.246 OA
BRANCH   3   5
ATOM      5  C   UNL A   1      35.424  30.926  28.177  1.00  0.00     0.060 A 
ATOM      6  C   UNL A   1      35.553  29.698  28.805  1.00  0.00     0.016 A 
ATOM      7  C   UNL A   1      36.559  31.743  28.108  1.00  0.00     0.016 A 
ATOM      8  C   UNL A   1      36.767  29.295  29.355  1.00  0.00     0.010 A 
ATOM      9  C   UNL A   1      37.790  31.325  28.674  1.00  0.00     0.010 A 
ATOM     10  C   UNL A   1      37.902  30.094  29.339  1.00  0.00    -0.014 A 
BRANCH  10  11
ATOM     11  C   UNL A   1      39.080  29.660  30.172  1.00  0.00     0.031 A 
ATOM     12  C   UNL A   1      39.991  28.591  29.648  1.00  0.00     0.074 A 
ATOM     13  C   UNL A   1      39.501  30.329  31.271  1.00  0.00     0.049 A 
ATOM     14  N   UNL A   1      41.049  28.067  30.211  1.00  0.00    -0.248 NA
ATOM     15  C   UNL A   1      39.704  28.080  28.300  1.00  0.00     0.031 C 
ATOM     16  C   UNL A   1      38.886  31.544  31.764  1.00  0.00     0.029 A 
ATOM     17  N   UNL A   1      40.556  30.146  32.139  1.00  0.00    -0.354 N 
ATOM     18  C   UNL A   1      41.535  27.141  29.301  1.00  0.00     0.074 A 
ATOM     19  C   UNL A   1      40.652  27.169  28.155  1.00  0.00     0.031 C 
ATOM     20  C   UNL A   1      39.562  32.029  32.813  1.00  0.00     0.029 A 
ATOM     21  C   UNL A   1      40.630  31.101  33.136  1.00  0.00     0.049 A 
ATOM     22  H   UNL A   1      41.199  29.405  32.056  1.00  0.00     0.167 HD
ATOM     23  C   UNL A   1      42.617  26.336  29.411  1.00  0.00     0.031 A 
ATOM     24  C   UNL A   1      41.435  31.221  34.212  1.00  0.00     0.031 A 
ATOM     25  C   UNL A   1      43.498  26.298  30.547  1.00  0.00     0.049 A 
ATOM     26  C   UNL A   1      42.501  30.189  34.419  1.00  0.00     0.074 A 
ATOM     27  C   UNL A   1      44.559  25.441  30.781  1.00  0.00     0.029 A 
ATOM     28  N   UNL A   1      43.427  27.153  31.637  1.00  0.00    -0.354 N 
ATOM     29  N   UNL A   1      42.860  29.220  33.612  1.00  0.00    -0.248 NA
ATOM     30  C   UNL A   1      43.262  30.249  35.674  1.00  0.00     0.031 C 
ATOM     31  C   UNL A   1      45.093  25.740  32.039  1.00  0.00     0.029 A 
ATOM     32  C   UNL A   1      44.403  26.822  32.564  1.00  0.00     0.049 A 
ATOM     33  H   UNL A   1      42.778  27.887  31.737  1.00  0.00     0.167 HD
ATOM     34  C   UNL A   1      43.906  28.568  34.249  1.00  0.00     0.074 A 
ATOM     35  C   UNL A   1      44.128  29.257  35.505  1.00  0.00     0.031 C 
ATOM     36  C   UNL A   1      44.615  27.498  33.819  1.00  0.00     0.031 A 
BRANCH  23  37
ATOM     37  C   UNL A   1      42.814  25.351  28.296  1.00  0.00    -0.014 A 
ATOM     38  C   UNL A   1      42.192  24.091  28.305  1.00  0.00     0.010 A 
ATOM     39  C   UNL A   1      43.709  25.676  27.262  1.00  0.00     0.010 A 
ATOM     40  C   UNL A   1      42.518  23.144  27.332  1.00  0.00     0.020 A 
ATOM     41  C   UNL A   1      44.018  24.741  26.275  1.00  0.00     0.020 A 
ATOM     42  C   UNL A   1      43.443  23.471  26.333  1.00  0.00     0.054 A 
BRANCH  42  43
ATOM     43  S   UNL A   1      43.898  22.208  25.115  1.00  0.00     0.124 S 
ATOM     44  O   UNL A   1      43.657  22.910  23.856  1.00  0.00    -0.237 OA
ATOM     45  O   UNL A   1      45.299  21.947  25.430  1.00  0.00    -0.237 OA
ATOM     46  O   UNL A   1      42.982  21.107  25.400  1.00  0.00    -0.744 OA
ENDBRANCH  42  43
ENDBRANCH  23  37
BRANCH  24  47
ATOM     47  C   UNL A   1      41.220  32.317  35.207  1.00  0.00    -0.014 A 
ATOM     48  C   UNL A   1      41.859  33.563  35.072  1.00  0.00     0.010 A 
ATOM     49  C   UNL A   1      40.366  32.113  36.307  1.00  0.00     0.010 A 
ATOM     50  C   UNL A   1      41.650  34.576  36.017  1.00  0.00     0.020 A 
ATOM     51  C   UNL A   1      40.132  33.130  37.239  1.00  0.00     0.020 A 
ATOM     52  C   UNL A   1      40.785  34.355  37.093  1.00  0.00     0.054 A 
BRANCH  52  53
ATOM     53  S   UNL A   1      40.486  35.698  38.278  1.00  0.00     0.124 S 
ATOM     54  O   UNL A   1      39.405  35.153  39.093  1.00  0.00    -0.237 OA
ATOM     55  O   UNL A   1      41.780  35.825  38.946  1.00  0.00    -0.237 OA
ATOM     56  O   UNL A   1      40.120  36.830  37.429  1.00  0.00    -0.744 OA
ENDBRANCH  52  53
ENDBRANCH  24  47
BRANCH  36  57
ATOM     57  C   UNL A   1      45.725  27.011  34.707  1.00  0.00    -0.014 A 
ATOM     58  C   UNL A   1      47.027  27.531  34.595  1.00  0.00     0.010 A 
ATOM     59  C   UNL A   1      45.448  26.053  35.698  1.00  0.00     0.010 A 
ATOM     60  C   UNL A   1      48.038  27.085  35.448  1.00  0.00     0.020 A 
ATOM     61  C   UNL A   1      46.452  25.622  36.568  1.00  0.00     0.020 A 
ATOM     62  C   UNL A   1      47.744  26.132  36.430  1.00  0.00     0.054 A 
BRANCH  62  63
ATOM     63  S   UNL A   1      49.061  25.607  37.562  1.00  0.00     0.124 S 
ATOM     64  O   UNL A   1      48.730  24.202  37.779  1.00  0.00    -0.237 OA
ATOM     65  O   UNL A   1      50.272  25.855  36.782  1.00  0.00    -0.237 OA
ATOM     66  O   UNL A   1      48.886  26.477  38.722  1.00  0.00    -0.744 OA
ENDBRANCH  62  63
ENDBRANCH  36  57
ENDBRANCH  10  11
ENDBRANCH   3   5
ENDBRANCH   2   3
ENDBRANCH   1   2
BRANCH   1  67
ATOM     67  C   UNL A   1      32.446  28.429  27.341  1.00  0.00     0.275 C 
BRANCH  67  68
ATOM     68  O   UNL A   1      31.836  27.703  26.259  1.00  0.00    -0.458 OA
BRANCH  68  69
ATOM     69  C   UNL A   1      32.705  26.980  25.514  1.00  0.00     0.339 C 
ATOM     70  O   UNL A   1      33.817  27.322  25.174  1.00  0.00    -0.246 OA
BRANCH  69  71
ATOM     71  C   UNL A   1      32.257  25.577  25.447  1.00  0.00     0.073 A 
ATOM     72  C   UNL A   1      33.170  24.685  26.079  1.00  0.00     0.017 A 
ATOM     73  C   UNL A   1      31.131  25.094  24.778  1.00  0.00     0.022 A 
ATOM     74  C   UNL A   1      33.015  23.305  26.010  1.00  0.00     0.001 A 
ATOM     75  C   UNL A   1      31.132  23.692  24.565  1.00  0.00     0.016 A 
ATOM     76  C   UNL A   1      32.016  22.806  25.201  1.00  0.00     0.001 A 
BRANCH  73  77
ATOM     77  S   UNL A   1      29.688  25.860  24.032  1.00  0.00    -0.120 SA
BRANCH  77  78
ATOM     78  C   UNL A   1      30.026  27.308  22.963  1.00  0.00     0.113 C 
BRANCH  78  79
ATOM     79  C   UNL A   1      29.378  28.664  23.167  1.00  0.00    -0.002 A 
ATOM     80  C   UNL A   1      27.993  28.798  22.942  1.00  0.00     0.007 A 
ATOM     81  C   UNL A   1      30.027  29.783  23.698  1.00  0.00     0.127 A 
ATOM     82  C   UNL A   1      27.333  30.028  23.067  1.00  0.00     0.001 A 
ATOM     83  C   UNL A   1      29.381  31.024  23.819  1.00  0.00     0.039 A 
ATOM     84  F   UNL A   1      31.321  29.713  24.033  1.00  0.00    -0.207 F 
ATOM     85  C   UNL A   1      28.039  31.155  23.471  1.00  0.00     0.003 A 
ENDBRANCH  78  79
ENDBRANCH  77  78
ENDBRANCH  73  77
ENDBRANCH  69  71
ENDBRANCH  68  69
ENDBRANCH  67  68
ENDBRANCH   1  67
TORSDOF 17
ENDMDL
