MODEL 1
REMARK VINA RESULT:      -9.8      0.000      0.000
REMARK SMILES Cc1cccc(Nc2ccccc2C(=O)OCCOC(=O)c2ccc(-c3c4nc(c(-c5ccc(S(=O)(=O)[O-])cc5)c5ccc([nH]5)c(-c5ccc(S(=O)(=O)[O-])cc5)c5nc(c(-c6ccc(S(=O)(=O)[O-])cc6)c6ccc3[nH]6)C=C5)C=C4)cc2)c1C
REMARK SMILES IDX 18 1 17 2 16 3 14 4 15 5 13 6 8 7 9 8 10 9 12 10 11 11 7 12
REMARK SMILES IDX 6 14 1 15 2 16 3 17 82 18 4 19 83 20 5 21 19 22 20 23 21 24
REMARK SMILES IDX 22 25 23 26 81 27 24 28 80 29 25 30 26 31 27 32 74 33 28 34
REMARK SMILES IDX 79 35 73 36 75 37 29 38 78 39 72 40 71 41 30 43 60 44 41 45
REMARK SMILES IDX 59 46 42 47 45 48 58 49 76 50 43 51 44 52 57 54 77 55 46 56
REMARK SMILES IDX 31 57 32 58 40 59 33 60 39 61 34 62 35 63 36 64 37 65 38 66
REMARK SMILES IDX 61 67 62 68 70 69 63 70 69 71 64 72 65 73 66 74 67 75 68 76
REMARK SMILES IDX 47 77 48 78 56 79 49 80 55 81 50 82 51 83 52 84 53 85 54 86
REMARK H PARENT 7 13 75 42 45 53
REMARK Flexibility Score: inf
ROOT
ATOM      1  C   UNL A   1      39.249  21.116  26.106  1.00  0.00     0.275 C 
ENDROOT
BRANCH   1   2
ATOM      2  C   UNL A   1      40.623  21.175  26.767  1.00  0.00     0.275 C 
BRANCH   2   3
ATOM      3  O   UNL A   1      41.700  21.132  25.810  1.00  0.00    -0.458 OA
BRANCH   3   4
ATOM      4  C   UNL A   1      42.361  19.948  25.765  1.00  0.00     0.340 C 
ATOM      5  O   UNL A   1      41.886  18.847  26.005  1.00  0.00    -0.246 OA
BRANCH   4   6
ATOM      6  C   UNL A   1      43.763  20.113  25.325  1.00  0.00     0.083 A 
ATOM      7  C   UNL A   1      44.557  21.213  25.694  1.00  0.00     0.053 A 
ATOM      8  C   UNL A   1      45.903  21.220  25.267  1.00  0.00     0.027 A 
ATOM      9  C   UNL A   1      46.449  20.166  24.530  1.00  0.00     0.002 A 
ATOM     10  C   UNL A   1      44.320  19.062  24.574  1.00  0.00     0.018 A 
ATOM     11  C   UNL A   1      45.656  19.083  24.183  1.00  0.00     0.001 A 
BRANCH   7  12
ATOM     12  N   UNL A   1      44.165  22.260  26.552  1.00  0.00    -0.355 N 
ATOM     13  H   UNL A   1      43.336  22.085  27.053  1.00  0.00     0.167 HD
BRANCH  12  14
ATOM     14  C   UNL A   1      44.749  23.514  26.821  1.00  0.00     0.042 A 
ATOM     15  C   UNL A   1      45.202  27.038  25.379  1.00  0.00     0.044 C 
ATOM     16  C   UNL A   1      45.306  25.829  26.272  1.00  0.00    -0.046 A 
ATOM     17  C   UNL A   1      46.258  25.834  27.302  1.00  0.00     0.004 A 
ATOM     18  C   UNL A   1      44.500  24.682  26.063  1.00  0.00    -0.025 A 
ATOM     19  C   UNL A   1      46.441  24.714  28.103  1.00  0.00     0.002 A 
ATOM     20  C   UNL A   1      43.384  24.740  25.045  1.00  0.00     0.047 C 
ATOM     21  C   UNL A   1      45.706  23.561  27.851  1.00  0.00     0.026 A 
ENDBRANCH  12  14
ENDBRANCH   7  12
ENDBRANCH   4   6
ENDBRANCH   3   4
ENDBRANCH   2   3
ENDBRANCH   1   2
BRANCH   1  22
ATOM     22  O   UNL A   1      38.964  22.340  25.409  1.00  0.00    -0.458 OA
BRANCH  22  23
ATOM     23  C   UNL A   1      38.150  23.194  26.067  1.00  0.00     0.338 C 
ATOM     24  O   UNL A   1      36.932  23.167  26.119  1.00  0.00    -0.246 OA
BRANCH  23  25
ATOM     25  C   UNL A   1      38.943  24.209  26.776  1.00  0.00     0.060 A 
ATOM     26  C   UNL A   1      38.716  24.425  28.131  1.00  0.00     0.016 A 
ATOM     27  C   UNL A   1      39.769  25.072  26.061  1.00  0.00     0.016 A 
ATOM     28  C   UNL A   1      39.181  25.582  28.742  1.00  0.00     0.010 A 
ATOM     29  C   UNL A   1      40.350  26.163  26.713  1.00  0.00     0.010 A 
ATOM     30  C   UNL A   1      40.019  26.463  28.048  1.00  0.00    -0.014 A 
BRANCH  30  31
ATOM     31  C   UNL A   1      40.510  27.709  28.698  1.00  0.00     0.031 A 
ATOM     32  C   UNL A   1      41.916  27.772  29.238  1.00  0.00     0.074 A 
ATOM     33  C   UNL A   1      39.704  28.785  28.806  1.00  0.00     0.049 A 
ATOM     34  N   UNL A   1      42.460  28.667  30.023  1.00  0.00    -0.248 NA
ATOM     35  C   UNL A   1      42.822  26.675  28.863  1.00  0.00     0.031 C 
ATOM     36  C   UNL A   1      38.339  28.884  28.280  1.00  0.00     0.029 A 
ATOM     37  N   UNL A   1      39.916  30.007  29.396  1.00  0.00    -0.354 N 
ATOM     38  C   UNL A   1      43.740  28.198  30.302  1.00  0.00     0.074 A 
ATOM     39  C   UNL A   1      43.895  26.947  29.593  1.00  0.00     0.031 C 
ATOM     40  C   UNL A   1      37.851  30.105  28.540  1.00  0.00     0.029 A 
ATOM     41  C   UNL A   1      38.822  30.838  29.343  1.00  0.00     0.049 A 
ATOM     42  H   UNL A   1      40.768  30.262  29.817  1.00  0.00     0.167 HD
ATOM     43  C   UNL A   1      44.690  28.757  31.091  1.00  0.00     0.031 A 
ATOM     44  C   UNL A   1      38.591  32.031  29.922  1.00  0.00     0.031 A 
ATOM     45  C   UNL A   1      44.540  30.028  31.749  1.00  0.00     0.049 A 
ATOM     46  C   UNL A   1      39.651  32.628  30.799  1.00  0.00     0.074 A 
ATOM     47  C   UNL A   1      45.450  30.698  32.547  1.00  0.00     0.029 A 
ATOM     48  N   UNL A   1      43.408  30.828  31.673  1.00  0.00    -0.354 N 
ATOM     49  N   UNL A   1      40.835  32.148  31.098  1.00  0.00    -0.248 NA
ATOM     50  C   UNL A   1      39.341  33.917  31.429  1.00  0.00     0.031 C 
ATOM     51  C   UNL A   1      44.852  31.884  32.989  1.00  0.00     0.029 A 
ATOM     52  C   UNL A   1      43.590  31.977  32.424  1.00  0.00     0.049 A 
ATOM     53  H   UNL A   1      42.596  30.611  31.161  1.00  0.00     0.167 HD
ATOM     54  C   UNL A   1      41.414  33.078  31.952  1.00  0.00     0.074 A 
ATOM     55  C   UNL A   1      40.460  34.160  32.099  1.00  0.00     0.031 C 
ATOM     56  C   UNL A   1      42.623  33.037  32.565  1.00  0.00     0.031 A 
BRANCH  43  57
ATOM     57  C   UNL A   1      45.948  27.963  31.336  1.00  0.00    -0.014 A 
ATOM     58  C   UNL A   1      46.099  27.132  32.460  1.00  0.00     0.010 A 
ATOM     59  C   UNL A   1      46.999  28.044  30.401  1.00  0.00     0.010 A 
ATOM     60  C   UNL A   1      47.295  26.436  32.669  1.00  0.00     0.020 A 
ATOM     61  C   UNL A   1      48.184  27.328  30.593  1.00  0.00     0.020 A 
ATOM     62  C   UNL A   1      48.333  26.545  31.738  1.00  0.00     0.054 A 
BRANCH  62  63
ATOM     63  S   UNL A   1      49.873  25.629  32.030  1.00  0.00     0.124 S 
ATOM     64  O   UNL A   1      50.722  26.654  32.633  1.00  0.00    -0.237 OA
ATOM     65  O   UNL A   1      49.446  24.559  32.928  1.00  0.00    -0.237 OA
ATOM     66  O   UNL A   1      50.276  25.193  30.695  1.00  0.00    -0.744 OA
ENDBRANCH  62  63
ENDBRANCH  43  57
BRANCH  44  67
ATOM     67  C   UNL A   1      37.268  32.689  29.738  1.00  0.00    -0.014 A 
ATOM     68  C   UNL A   1      36.253  32.545  30.698  1.00  0.00     0.010 A 
ATOM     69  C   UNL A   1      37.043  33.521  28.624  1.00  0.00     0.010 A 
ATOM     70  C   UNL A   1      35.040  33.227  30.551  1.00  0.00     0.020 A 
ATOM     71  C   UNL A   1      35.846  34.226  28.490  1.00  0.00     0.020 A 
ATOM     72  C   UNL A   1      34.848  34.070  29.452  1.00  0.00     0.054 A 
BRANCH  72  73
ATOM     73  S   UNL A   1      33.306  35.020  29.331  1.00  0.00     0.124 S 
ATOM     74  O   UNL A   1      32.563  34.263  28.330  1.00  0.00    -0.237 OA
ATOM     75  O   UNL A   1      32.783  34.953  30.693  1.00  0.00    -0.237 OA
ATOM     76  O   UNL A   1      33.754  36.346  28.910  1.00  0.00    -0.744 OA
ENDBRANCH  72  73
ENDBRANCH  44  67
BRANCH  56  77
ATOM     77  C   UNL A   1      42.988  34.209  33.431  1.00  0.00    -0.014 A 
ATOM     78  C   UNL A   1      42.590  34.266  34.779  1.00  0.00     0.010 A 
ATOM     79  C   UNL A   1      43.775  35.247  32.899  1.00  0.00     0.010 A 
ATOM     80  C   UNL A   1      42.947  35.360  35.572  1.00  0.00     0.020 A 
ATOM     81  C   UNL A   1      44.153  36.329  33.696  1.00  0.00     0.020 A 
ATOM     82  C   UNL A   1      43.725  36.386  35.023  1.00  0.00     0.054 A 
BRANCH  82  83
ATOM     83  S   UNL A   1      44.205  37.777  36.082  1.00  0.00     0.124 S 
ATOM     84  O   UNL A   1      43.411  37.534  37.283  1.00  0.00    -0.237 OA
ATOM     85  O   UNL A   1      45.645  37.588  36.231  1.00  0.00    -0.237 OA
ATOM     86  O   UNL A   1      43.816  38.952  35.305  1.00  0.00    -0.744 OA
ENDBRANCH  82  83
ENDBRANCH  56  77
ENDBRANCH  30  31
ENDBRANCH  23  25
ENDBRANCH  22  23
ENDBRANCH   1  22
TORSDOF 16
ENDMDL
MODEL 2
REMARK VINA RESULT:      -9.7      4.795      9.678
REMARK SMILES Cc1cccc(Nc2ccccc2C(=O)OCCOC(=O)c2ccc(-c3c4nc(c(-c5ccc(S(=O)(=O)[O-])cc5)c5ccc([nH]5)c(-c5ccc(S(=O)(=O)[O-])cc5)c5nc(c(-c6ccc(S(=O)(=O)[O-])cc6)c6ccc3[nH]6)C=C5)C=C4)cc2)c1C
REMARK SMILES IDX 18 1 17 2 16 3 14 4 15 5 13 6 8 7 9 8 10 9 12 10 11 11 7 12
REMARK SMILES IDX 6 14 1 15 2 16 3 17 82 18 4 19 83 20 5 21 19 22 20 23 21 24
REMARK SMILES IDX 22 25 23 26 81 27 24 28 80 29 25 30 26 31 27 32 74 33 28 34
REMARK SMILES IDX 79 35 73 36 75 37 29 38 78 39 72 40 71 41 30 43 60 44 41 45
REMARK SMILES IDX 59 46 42 47 45 48 58 49 76 50 43 51 44 52 57 54 77 55 46 56
REMARK SMILES IDX 31 57 32 58 40 59 33 60 39 61 34 62 35 63 36 64 37 65 38 66
REMARK SMILES IDX 61 67 62 68 70 69 63 70 69 71 64 72 65 73 66 74 67 75 68 76
REMARK SMILES IDX 47 77 48 78 56 79 49 80 55 81 50 82 51 83 52 84 53 85 54 86
REMARK H PARENT 7 13 75 42 45 53
REMARK Flexibility Score: inf
ROOT
ATOM      1  C   UNL A   1      32.113  30.072  26.891  1.00  0.00     0.275 C 
ENDROOT
BRANCH   1   2
ATOM      2  C   UNL A   1      31.861  28.605  27.230  1.00  0.00     0.275 C 
BRANCH   2   3
ATOM      3  O   UNL A   1      32.617  27.707  26.393  1.00  0.00    -0.458 OA
BRANCH   3   4
ATOM      4  C   UNL A   1      32.028  26.502  26.192  1.00  0.00     0.340 C 
ATOM      5  O   UNL A   1      30.957  26.135  26.655  1.00  0.00    -0.246 OA
BRANCH   4   6
ATOM      6  C   UNL A   1      32.812  25.649  25.273  1.00  0.00     0.083 A 
ATOM      7  C   UNL A   1      32.366  25.294  23.988  1.00  0.00     0.053 A 
ATOM      8  C   UNL A   1      33.237  24.533  23.180  1.00  0.00     0.027 A 
ATOM      9  C   UNL A   1      34.513  24.163  23.615  1.00  0.00     0.002 A 
ATOM     10  C   UNL A   1      34.094  25.263  25.705  1.00  0.00     0.018 A 
ATOM     11  C   UNL A   1      34.943  24.530  24.881  1.00  0.00     0.001 A 
BRANCH   7  12
ATOM     12  N   UNL A   1      31.168  25.728  23.385  1.00  0.00    -0.355 N 
ATOM     13  H   UNL A   1      30.604  25.001  23.035  1.00  0.00     0.167 HD
BRANCH  12  14
ATOM     14  C   UNL A   1      30.633  27.017  23.194  1.00  0.00     0.042 A 
ATOM     15  C   UNL A   1      27.325  28.948  23.009  1.00  0.00     0.044 C 
ATOM     16  C   UNL A   1      28.793  28.609  22.968  1.00  0.00    -0.046 A 
ATOM     17  C   UNL A   1      29.687  29.553  22.442  1.00  0.00     0.004 A 
ATOM     18  C   UNL A   1      29.273  27.350  23.405  1.00  0.00    -0.025 A 
ATOM     19  C   UNL A   1      31.038  29.256  22.317  1.00  0.00     0.002 A 
ATOM     20  C   UNL A   1      28.326  26.397  24.099  1.00  0.00     0.047 C 
ATOM     21  C   UNL A   1      31.500  27.993  22.673  1.00  0.00     0.026 A 
ENDBRANCH  12  14
ENDBRANCH   7  12
ENDBRANCH   4   6
ENDBRANCH   3   4
ENDBRANCH   2   3
ENDBRANCH   1   2
BRANCH   1  22
ATOM     22  O   UNL A   1      33.518  30.325  26.727  1.00  0.00    -0.458 OA
BRANCH  22  23
ATOM     23  C   UNL A   1      34.023  31.284  27.534  1.00  0.00     0.338 C 
ATOM     24  O   UNL A   1      33.465  32.295  27.924  1.00  0.00    -0.246 OA
BRANCH  23  25
ATOM     25  C   UNL A   1      35.395  30.940  27.935  1.00  0.00     0.060 A 
ATOM     26  C   UNL A   1      35.682  29.639  28.333  1.00  0.00     0.016 A 
ATOM     27  C   UNL A   1      36.344  31.946  28.099  1.00  0.00     0.016 A 
ATOM     28  C   UNL A   1      36.849  29.364  29.034  1.00  0.00     0.010 A 
ATOM     29  C   UNL A   1      37.576  31.637  28.683  1.00  0.00     0.010 A 
ATOM     30  C   UNL A   1      37.822  30.354  29.207  1.00  0.00    -0.014 A 
BRANCH  30  31
ATOM     31  C   UNL A   1      39.069  30.063  29.968  1.00  0.00     0.031 A 
ATOM     32  C   UNL A   1      40.014  28.993  29.484  1.00  0.00     0.074 A 
ATOM     33  C   UNL A   1      39.360  30.754  31.090  1.00  0.00     0.049 A 
ATOM     34  N   UNL A   1      41.023  28.439  30.106  1.00  0.00    -0.248 NA
ATOM     35  C   UNL A   1      39.780  28.461  28.132  1.00  0.00     0.031 C 
ATOM     36  C   UNL A   1      38.564  31.853  31.644  1.00  0.00     0.029 A 
ATOM     37  N   UNL A   1      40.408  30.633  31.969  1.00  0.00    -0.354 N 
ATOM     38  C   UNL A   1      41.489  27.440  29.257  1.00  0.00     0.074 A 
ATOM     39  C   UNL A   1      40.660  27.473  28.072  1.00  0.00     0.031 C 
ATOM     40  C   UNL A   1      39.167  32.326  32.744  1.00  0.00     0.029 A 
ATOM     41  C   UNL A   1      40.330  31.498  33.035  1.00  0.00     0.049 A 
ATOM     42  H   UNL A   1      41.143  29.990  31.847  1.00  0.00     0.167 HD
ATOM     43  C   UNL A   1      42.507  26.568  29.459  1.00  0.00     0.031 A 
ATOM     44  C   UNL A   1      41.070  31.584  34.157  1.00  0.00     0.031 A 
ATOM     45  C   UNL A   1      43.356  26.582  30.622  1.00  0.00     0.049 A 
ATOM     46  C   UNL A   1      42.185  30.603  34.367  1.00  0.00     0.074 A 
ATOM     47  C   UNL A   1      44.432  25.763  30.913  1.00  0.00     0.029 A 
ATOM     48  N   UNL A   1      43.231  27.471  31.680  1.00  0.00    -0.354 N 
ATOM     49  N   UNL A   1      42.581  29.630  33.580  1.00  0.00    -0.248 NA
ATOM     50  C   UNL A   1      42.945  30.722  35.616  1.00  0.00     0.031 C 
ATOM     51  C   UNL A   1      44.931  26.129  32.168  1.00  0.00     0.029 A 
ATOM     52  C   UNL A   1      44.200  27.209  32.634  1.00  0.00     0.049 A 
ATOM     53  H   UNL A   1      42.554  28.182  31.744  1.00  0.00     0.167 HD
ATOM     54  C   UNL A   1      43.637  29.017  34.242  1.00  0.00     0.074 A 
ATOM     55  C   UNL A   1      43.836  29.748  35.478  1.00  0.00     0.031 C 
ATOM     56  C   UNL A   1      44.373  27.943  33.863  1.00  0.00     0.031 A 
BRANCH  43  57
ATOM     57  C   UNL A   1      42.715  25.487  28.429  1.00  0.00    -0.014 A 
ATOM     58  C   UNL A   1      42.056  24.247  28.507  1.00  0.00     0.010 A 
ATOM     59  C   UNL A   1      43.581  25.733  27.346  1.00  0.00     0.010 A 
ATOM     60  C   UNL A   1      42.298  23.256  27.549  1.00  0.00     0.020 A 
ATOM     61  C   UNL A   1      43.804  24.755  26.372  1.00  0.00     0.020 A 
ATOM     62  C   UNL A   1      43.177  23.515  26.492  1.00  0.00     0.054 A 
BRANCH  62  63
ATOM     63  S   UNL A   1      43.473  22.215  25.260  1.00  0.00     0.124 S 
ATOM     64  O   UNL A   1      44.777  21.701  25.672  1.00  0.00    -0.237 OA
ATOM     65  O   UNL A   1      42.346  21.310  25.469  1.00  0.00    -0.237 OA
ATOM     66  O   UNL A   1      43.462  22.934  23.987  1.00  0.00    -0.744 OA
ENDBRANCH  62  63
ENDBRANCH  43  57
BRANCH  44  67
ATOM     67  C   UNL A   1      40.716  32.596  35.189  1.00  0.00    -0.014 A 
ATOM     68  C   UNL A   1      39.831  32.281  36.233  1.00  0.00     0.010 A 
ATOM     69  C   UNL A   1      41.321  33.869  35.165  1.00  0.00     0.010 A 
ATOM     70  C   UNL A   1      39.564  33.217  37.239  1.00  0.00     0.020 A 
ATOM     71  C   UNL A   1      41.079  34.793  36.184  1.00  0.00     0.020 A 
ATOM     72  C   UNL A   1      40.196  34.463  37.212  1.00  0.00     0.054 A 
BRANCH  72  73
ATOM     73  S   UNL A   1      39.909  35.625  38.577  1.00  0.00     0.124 S 
ATOM     74  O   UNL A   1      39.625  36.865  37.863  1.00  0.00    -0.237 OA
ATOM     75  O   UNL A   1      38.777  35.022  39.275  1.00  0.00    -0.237 OA
ATOM     76  O   UNL A   1      41.170  35.600  39.316  1.00  0.00    -0.744 OA
ENDBRANCH  72  73
ENDBRANCH  44  67
BRANCH  56  77
ATOM     77  C   UNL A   1      45.475  27.511  34.789  1.00  0.00    -0.014 A 
ATOM     78  C   UNL A   1      46.770  28.047  34.675  1.00  0.00     0.010 A 
ATOM     79  C   UNL A   1      45.198  26.586  35.812  1.00  0.00     0.010 A 
ATOM     80  C   UNL A   1      47.779  27.639  35.551  1.00  0.00     0.020 A 
ATOM     81  C   UNL A   1      46.199  26.195  36.704  1.00  0.00     0.020 A 
ATOM     82  C   UNL A   1      47.487  26.714  36.559  1.00  0.00     0.054 A 
BRANCH  82  83
ATOM     83  S   UNL A   1      48.804  26.228  37.706  1.00  0.00     0.124 S 
ATOM     84  O   UNL A   1      48.043  25.718  38.844  1.00  0.00    -0.237 OA
ATOM     85  O   UNL A   1      49.543  25.224  36.944  1.00  0.00    -0.237 OA
ATOM     86  O   UNL A   1      49.528  27.474  37.949  1.00  0.00    -0.744 OA
ENDBRANCH  82  83
ENDBRANCH  56  77
ENDBRANCH  30  31
ENDBRANCH  23  25
ENDBRANCH  22  23
ENDBRANCH   1  22
TORSDOF 16
ENDMDL
MODEL 3
REMARK VINA RESULT:      -9.7      4.655     11.331
REMARK SMILES Cc1cccc(Nc2ccccc2C(=O)OCCOC(=O)c2ccc(-c3c4nc(c(-c5ccc(S(=O)(=O)[O-])cc5)c5ccc([nH]5)c(-c5ccc(S(=O)(=O)[O-])cc5)c5nc(c(-c6ccc(S(=O)(=O)[O-])cc6)c6ccc3[nH]6)C=C5)C=C4)cc2)c1C
REMARK SMILES IDX 18 1 17 2 16 3 14 4 15 5 13 6 8 7 9 8 10 9 12 10 11 11 7 12
REMARK SMILES IDX 6 14 1 15 2 16 3 17 82 18 4 19 83 20 5 21 19 22 20 23 21 24
REMARK SMILES IDX 22 25 23 26 81 27 24 28 80 29 25 30 26 31 27 32 74 33 28 34
REMARK SMILES IDX 79 35 73 36 75 37 29 38 78 39 72 40 71 41 30 43 60 44 41 45
REMARK SMILES IDX 59 46 42 47 45 48 58 49 76 50 43 51 44 52 57 54 77 55 46 56
REMARK SMILES IDX 31 57 32 58 40 59 33 60 39 61 34 62 35 63 36 64 37 65 38 66
REMARK SMILES IDX 61 67 62 68 70 69 63 70 69 71 64 72 65 73 66 74 67 75 68 76
REMARK SMILES IDX 47 77 48 78 56 79 49 80 55 81 50 82 51 83 52 84 53 85 54 86
REMARK H PARENT 7 13 75 42 45 53
REMARK Flexibility Score: inf
ROOT
ATOM      1  C   UNL A   1      32.552  30.304  27.142  1.00  0.00     0.275 C 
ENDROOT
BRANCH   1   2
ATOM      2  C   UNL A   1      31.958  28.903  27.250  1.00  0.00     0.275 C 
BRANCH   2   3
ATOM      3  O   UNL A   1      32.142  28.130  26.047  1.00  0.00    -0.458 OA
BRANCH   3   4
ATOM      4  C   UNL A   1      31.783  26.827  26.160  1.00  0.00     0.340 C 
ATOM      5  O   UNL A   1      30.843  26.390  26.809  1.00  0.00    -0.246 OA
BRANCH   4   6
ATOM      6  C   UNL A   1      32.641  25.943  25.341  1.00  0.00     0.083 A 
ATOM      7  C   UNL A   1      32.302  25.537  24.039  1.00  0.00     0.053 A 
ATOM      8  C   UNL A   1      33.238  24.750  23.335  1.00  0.00     0.027 A 
ATOM      9  C   UNL A   1      34.474  24.403  23.887  1.00  0.00     0.002 A 
ATOM     10  C   UNL A   1      33.884  25.580  25.892  1.00  0.00     0.018 A 
ATOM     11  C   UNL A   1      34.799  24.820  25.168  1.00  0.00     0.001 A 
BRANCH   7  12
ATOM     12  N   UNL A   1      31.156  25.941  23.324  1.00  0.00    -0.355 N 
ATOM     13  H   UNL A   1      30.666  25.204  22.894  1.00  0.00     0.167 HD
BRANCH  12  14
ATOM     14  C   UNL A   1      30.587  27.213  23.115  1.00  0.00     0.042 A 
ATOM     15  C   UNL A   1      27.231  29.060  22.946  1.00  0.00     0.044 C 
ATOM     16  C   UNL A   1      28.705  28.755  22.887  1.00  0.00    -0.046 A 
ATOM     17  C   UNL A   1      29.568  29.709  22.326  1.00  0.00     0.004 A 
ATOM     18  C   UNL A   1      29.224  27.517  23.342  1.00  0.00    -0.025 A 
ATOM     19  C   UNL A   1      30.924  29.441  22.184  1.00  0.00     0.002 A 
ATOM     20  C   UNL A   1      28.311  26.558  24.072  1.00  0.00     0.047 C 
ATOM     21  C   UNL A   1      31.422  28.198  22.559  1.00  0.00     0.026 A 
ENDBRANCH  12  14
ENDBRANCH   7  12
ENDBRANCH   4   6
ENDBRANCH   3   4
ENDBRANCH   2   3
ENDBRANCH   1   2
BRANCH   1  22
ATOM     22  O   UNL A   1      33.986  30.246  27.056  1.00  0.00    -0.458 OA
BRANCH  22  23
ATOM     23  C   UNL A   1      34.642  30.760  28.119  1.00  0.00     0.338 C 
ATOM     24  O   UNL A   1      34.255  31.630  28.881  1.00  0.00    -0.246 OA
BRANCH  23  25
ATOM     25  C   UNL A   1      35.944  30.098  28.281  1.00  0.00     0.060 A 
ATOM     26  C   UNL A   1      36.344  29.683  29.547  1.00  0.00     0.016 A 
ATOM     27  C   UNL A   1      36.845  30.062  27.220  1.00  0.00     0.016 A 
ATOM     28  C   UNL A   1      37.676  29.380  29.796  1.00  0.00     0.010 A 
ATOM     29  C   UNL A   1      38.153  29.625  27.444  1.00  0.00     0.010 A 
ATOM     30  C   UNL A   1      38.600  29.330  28.746  1.00  0.00    -0.014 A 
BRANCH  30  31
ATOM     31  C   UNL A   1      40.031  29.016  29.013  1.00  0.00     0.031 A 
ATOM     32  C   UNL A   1      40.946  30.081  29.561  1.00  0.00     0.074 A 
ATOM     33  C   UNL A   1      40.514  27.781  28.767  1.00  0.00     0.049 A 
ATOM     34  N   UNL A   1      42.251  30.081  29.654  1.00  0.00    -0.248 NA
ATOM     35  C   UNL A   1      40.311  31.317  30.049  1.00  0.00     0.031 C 
ATOM     36  C   UNL A   1      39.731  26.639  28.288  1.00  0.00     0.029 A 
ATOM     37  N   UNL A   1      41.787  27.278  28.888  1.00  0.00    -0.354 N 
ATOM     38  C   UNL A   1      42.597  31.342  30.130  1.00  0.00     0.074 A 
ATOM     39  C   UNL A   1      41.364  32.075  30.319  1.00  0.00     0.031 C 
ATOM     40  C   UNL A   1      40.529  25.566  28.188  1.00  0.00     0.029 A 
ATOM     41  C   UNL A   1      41.896  25.966  28.490  1.00  0.00     0.049 A 
ATOM     42  H   UNL A   1      42.546  27.805  29.225  1.00  0.00     0.167 HD
ATOM     43  C   UNL A   1      43.833  31.843  30.373  1.00  0.00     0.031 A 
ATOM     44  C   UNL A   1      42.978  25.182  28.325  1.00  0.00     0.031 A 
ATOM     45  C   UNL A   1      45.048  31.083  30.230  1.00  0.00     0.049 A 
ATOM     46  C   UNL A   1      44.338  25.757  28.589  1.00  0.00     0.074 A 
ATOM     47  C   UNL A   1      46.349  31.484  30.476  1.00  0.00     0.029 A 
ATOM     48  N   UNL A   1      45.108  29.761  29.814  1.00  0.00    -0.354 N 
ATOM     49  N   UNL A   1      44.654  26.967  28.987  1.00  0.00    -0.248 NA
ATOM     50  C   UNL A   1      45.486  24.871  28.369  1.00  0.00     0.031 C 
ATOM     51  C   UNL A   1      47.200  30.417  30.168  1.00  0.00     0.029 A 
ATOM     52  C   UNL A   1      46.426  29.336  29.780  1.00  0.00     0.049 A 
ATOM     53  H   UNL A   1      44.330  29.207  29.578  1.00  0.00     0.167 HD
ATOM     54  C   UNL A   1      46.040  26.988  29.065  1.00  0.00     0.074 A 
ATOM     55  C   UNL A   1      46.499  25.662  28.700  1.00  0.00     0.031 C 
ATOM     56  C   UNL A   1      46.860  28.014  29.403  1.00  0.00     0.031 A 
BRANCH  43  57
ATOM     57  C   UNL A   1      43.934  33.297  30.755  1.00  0.00    -0.014 A 
ATOM     58  C   UNL A   1      43.881  33.723  32.094  1.00  0.00     0.010 A 
ATOM     59  C   UNL A   1      44.105  34.259  29.740  1.00  0.00     0.010 A 
ATOM     60  C   UNL A   1      43.947  35.085  32.406  1.00  0.00     0.020 A 
ATOM     61  C   UNL A   1      44.199  35.619  30.050  1.00  0.00     0.020 A 
ATOM     62  C   UNL A   1      44.097  36.025  31.381  1.00  0.00     0.054 A 
BRANCH  62  63
ATOM     63  S   UNL A   1      44.184  37.786  31.812  1.00  0.00     0.124 S 
ATOM     64  O   UNL A   1      45.618  37.976  32.013  1.00  0.00    -0.237 OA
ATOM     65  O   UNL A   1      43.624  38.435  30.629  1.00  0.00    -0.237 OA
ATOM     66  O   UNL A   1      43.367  37.889  33.020  1.00  0.00    -0.744 OA
ENDBRANCH  62  63
ENDBRANCH  43  57
BRANCH  44  67
ATOM     67  C   UNL A   1      42.803  23.794  27.816  1.00  0.00    -0.014 A 
ATOM     68  C   UNL A   1      42.559  22.729  28.698  1.00  0.00     0.010 A 
ATOM     69  C   UNL A   1      42.815  23.545  26.429  1.00  0.00     0.010 A 
ATOM     70  C   UNL A   1      42.323  21.442  28.203  1.00  0.00     0.020 A 
ATOM     71  C   UNL A   1      42.550  22.268  25.931  1.00  0.00     0.020 A 
ATOM     72  C   UNL A   1      42.311  21.222  26.823  1.00  0.00     0.054 A 
BRANCH  72  73
ATOM     73  S   UNL A   1      41.906  19.565  26.199  1.00  0.00     0.124 S 
ATOM     74  O   UNL A   1      42.702  19.499  24.979  1.00  0.00    -0.237 OA
ATOM     75  O   UNL A   1      42.346  18.699  27.290  1.00  0.00    -0.237 OA
ATOM     76  O   UNL A   1      40.459  19.619  26.003  1.00  0.00    -0.744 OA
ENDBRANCH  72  73
ENDBRANCH  44  67
BRANCH  56  77
ATOM     77  C   UNL A   1      48.336  27.731  29.414  1.00  0.00    -0.014 A 
ATOM     78  C   UNL A   1      48.949  27.117  30.521  1.00  0.00     0.010 A 
ATOM     79  C   UNL A   1      49.111  28.048  28.284  1.00  0.00     0.010 A 
ATOM     80  C   UNL A   1      50.321  26.854  30.509  1.00  0.00     0.020 A 
ATOM     81  C   UNL A   1      50.478  27.764  28.260  1.00  0.00     0.020 A 
ATOM     82  C   UNL A   1      51.077  27.182  29.378  1.00  0.00     0.054 A 
BRANCH  82  83
ATOM     83  S   UNL A   1      52.849  26.798  29.372  1.00  0.00     0.124 S 
ATOM     84  O   UNL A   1      52.981  25.992  28.162  1.00  0.00    -0.237 OA
ATOM     85  O   UNL A   1      53.466  28.120  29.317  1.00  0.00    -0.237 OA
ATOM     86  O   UNL A   1      53.050  26.075  30.627  1.00  0.00    -0.744 OA
ENDBRANCH  82  83
ENDBRANCH  56  77
ENDBRANCH  30  31
ENDBRANCH  23  25
ENDBRANCH  22  23
ENDBRANCH   1  22
TORSDOF 16
ENDMDL
