MODEL 1
REMARK VINA RESULT:      -9.8      0.000      0.000
REMARK SMILES Cc1c(Cl)ccc2c1C=C(C(=O)OCCOC(=O)c1ccc(-c3c4nc(c(-c5ccc(S(=O)(=O)[O-])cc5)c5ccc([nH]5)c(-c5ccc(S(=O)(=O)[O-])cc5)c5nc(c(-c6ccc(S(=O)(=O)[O-])cc6)c6ccc3[nH]6)C=C5)C=C4)cc1)[C@@H](C(F)(F)F)O2
REMARK SMILES IDX 15 1 14 2 13 3 11 4 12 5 10 6 1 7 2 8 3 9 8 10 4 11 5 12
REMARK SMILES IDX 7 13 9 14 6 15 84 16 79 17 80 18 81 19 82 20 83 21 16 22
REMARK SMILES IDX 17 23 18 24 19 25 20 26 78 27 21 28 77 29 22 30 23 31 24 32
REMARK SMILES IDX 71 33 25 34 76 35 70 36 72 37 26 38 75 39 69 40 68 41 27 43
REMARK SMILES IDX 57 44 38 45 56 46 39 47 42 48 55 49 73 50 40 51 41 52 54 54
REMARK SMILES IDX 74 55 43 56 28 57 29 58 37 59 30 60 36 61 31 62 32 63 33 64
REMARK SMILES IDX 34 65 35 66 58 67 59 68 67 69 60 70 66 71 61 72 62 73 63 74
REMARK SMILES IDX 64 75 65 76 44 77 45 78 53 79 46 80 52 81 47 82 48 83 49 84
REMARK SMILES IDX 50 85 51 86
REMARK H PARENT 72 42 42 53
REMARK Flexibility Score: inf
ROOT
ATOM      1  C   UNL A   1      40.446  20.307  26.074  1.00  0.00     0.275 C 
ENDROOT
BRANCH   1   2
ATOM      2  C   UNL A   1      41.952  20.229  26.320  1.00  0.00     0.275 C 
BRANCH   2   3
ATOM      3  O   UNL A   1      42.573  21.520  26.151  1.00  0.00    -0.459 OA
BRANCH   3   4
ATOM      4  C   UNL A   1      43.849  21.503  25.693  1.00  0.00     0.338 C 
ATOM      5  O   UNL A   1      44.270  20.880  24.736  1.00  0.00    -0.246 OA
BRANCH   4   6
ATOM      6  C   UNL A   1      44.697  22.378  26.527  1.00  0.00     0.087 C 
ATOM      7  C   UNL A   1      43.522  23.336  30.640  1.00  0.00     0.047 C 
ATOM      8  C   UNL A   1      44.675  23.974  29.904  1.00  0.00    -0.021 A 
ATOM      9  C   UNL A   1      45.409  24.991  30.549  1.00  0.00     0.044 A 
ATOM     10  C   UNL A   1      45.047  23.607  28.583  1.00  0.00     0.022 A 
ATOM     11  Cl  UNL A   1      44.976  25.582  32.118  1.00  0.00    -0.084 Cl
ATOM     12  C   UNL A   1      46.517  25.579  29.939  1.00  0.00     0.024 A 
ATOM     13  C   UNL A   1      46.188  24.181  28.000  1.00  0.00     0.128 A 
ATOM     14  C   UNL A   1      44.275  22.678  27.762  1.00  0.00     0.027 C 
ATOM     15  C   UNL A   1      46.919  25.158  28.676  1.00  0.00     0.048 A 
ATOM     16  O   UNL A   1      46.686  23.847  26.773  1.00  0.00    -0.475 OA
ATOM     17  C   UNL A   1      45.927  22.966  25.909  1.00  0.00     0.316 C 
BRANCH  17  18
ATOM     18  C   UNL A   1      45.601  23.732  24.615  1.00  0.00     0.430 C 
ATOM     19  F   UNL A   1      44.318  24.171  24.613  1.00  0.00    -0.167 F 
ATOM     20  F   UNL A   1      46.378  24.832  24.467  1.00  0.00    -0.167 F 
ATOM     21  F   UNL A   1      45.768  22.968  23.511  1.00  0.00    -0.167 F 
ENDBRANCH  17  18
ENDBRANCH   4   6
ENDBRANCH   3   4
ENDBRANCH   2   3
ENDBRANCH   1   2
BRANCH   1  22
ATOM     22  O   UNL A   1      39.833  21.211  27.009  1.00  0.00    -0.458 OA
BRANCH  22  23
ATOM     23  C   UNL A   1      39.148  22.234  26.451  1.00  0.00     0.338 C 
ATOM     24  O   UNL A   1      38.273  22.163  25.603  1.00  0.00    -0.246 OA
BRANCH  23  25
ATOM     25  C   UNL A   1      39.562  23.509  27.055  1.00  0.00     0.060 A 
ATOM     26  C   UNL A   1      39.058  24.700  26.542  1.00  0.00     0.016 A 
ATOM     27  C   UNL A   1      40.585  23.528  28.000  1.00  0.00     0.016 A 
ATOM     28  C   UNL A   1      39.676  25.905  26.861  1.00  0.00     0.010 A 
ATOM     29  C   UNL A   1      41.121  24.755  28.410  1.00  0.00     0.010 A 
ATOM     30  C   UNL A   1      40.716  25.954  27.801  1.00  0.00    -0.014 A 
BRANCH  30  31
ATOM     31  C   UNL A   1      41.402  27.242  28.109  1.00  0.00     0.031 A 
ATOM     32  C   UNL A   1      40.683  28.325  28.880  1.00  0.00     0.074 A 
ATOM     33  C   UNL A   1      42.678  27.443  27.722  1.00  0.00     0.049 A 
ATOM     34  N   UNL A   1      41.045  29.566  29.089  1.00  0.00    -0.248 NA
ATOM     35  C   UNL A   1      39.386  27.975  29.488  1.00  0.00     0.031 C 
ATOM     36  C   UNL A   1      43.521  26.466  27.026  1.00  0.00     0.029 A 
ATOM     37  N   UNL A   1      43.500  28.535  27.869  1.00  0.00    -0.354 N 
ATOM     38  C   UNL A   1      40.003  30.155  29.798  1.00  0.00     0.074 A 
ATOM     39  C   UNL A   1      38.991  29.140  29.985  1.00  0.00     0.031 C 
ATOM     40  C   UNL A   1      44.748  26.980  26.856  1.00  0.00     0.029 A 
ATOM     41  C   UNL A   1      44.753  28.358  27.330  1.00  0.00     0.049 A 
ATOM     42  H   UNL A   1      43.218  29.365  28.319  1.00  0.00     0.167 HD
ATOM     43  C   UNL A   1      39.900  31.429  30.248  1.00  0.00     0.031 A 
ATOM     44  C   UNL A   1      45.782  29.214  27.180  1.00  0.00     0.031 A 
ATOM     45  C   UNL A   1      40.932  32.421  30.104  1.00  0.00     0.049 A 
ATOM     46  C   UNL A   1      45.626  30.634  27.636  1.00  0.00     0.074 A 
ATOM     47  C   UNL A   1      40.922  33.735  30.539  1.00  0.00     0.029 A 
ATOM     48  N   UNL A   1      42.160  32.208  29.500  1.00  0.00    -0.354 N 
ATOM     49  N   UNL A   1      44.601  31.193  28.233  1.00  0.00    -0.248 NA
ATOM     50  C   UNL A   1      46.749  31.546  27.379  1.00  0.00     0.031 C 
ATOM     51  C   UNL A   1      42.127  34.330  30.157  1.00  0.00     0.029 A 
ATOM     52  C   UNL A   1      42.908  33.371  29.533  1.00  0.00     0.049 A 
ATOM     53  H   UNL A   1      42.456  31.356  29.104  1.00  0.00     0.167 HD
ATOM     54  C   UNL A   1      44.960  32.520  28.432  1.00  0.00     0.074 A 
ATOM     55  C   UNL A   1      46.298  32.679  27.902  1.00  0.00     0.031 C 
ATOM     56  C   UNL A   1      44.239  33.516  29.001  1.00  0.00     0.031 A 
BRANCH  43  57
ATOM     57  C   UNL A   1      38.620  31.851  30.919  1.00  0.00    -0.014 A 
ATOM     58  C   UNL A   1      38.464  31.775  32.314  1.00  0.00     0.010 A 
ATOM     59  C   UNL A   1      37.600  32.437  30.146  1.00  0.00     0.010 A 
ATOM     60  C   UNL A   1      37.306  32.272  32.921  1.00  0.00     0.020 A 
ATOM     61  C   UNL A   1      36.452  32.955  30.751  1.00  0.00     0.020 A 
ATOM     62  C   UNL A   1      36.312  32.868  32.137  1.00  0.00     0.054 A 
BRANCH  62  63
ATOM     63  S   UNL A   1      34.844  33.546  32.962  1.00  0.00     0.124 S 
ATOM     64  O   UNL A   1      33.777  32.703  32.428  1.00  0.00    -0.237 OA
ATOM     65  O   UNL A   1      35.157  33.344  34.374  1.00  0.00    -0.237 OA
ATOM     66  O   UNL A   1      34.809  34.939  32.523  1.00  0.00    -0.744 OA
ENDBRANCH  62  63
ENDBRANCH  43  57
BRANCH  44  67
ATOM     67  C   UNL A   1      47.029  28.744  26.517  1.00  0.00    -0.014 A 
ATOM     68  C   UNL A   1      48.214  28.588  27.255  1.00  0.00     0.010 A 
ATOM     69  C   UNL A   1      47.012  28.380  25.158  1.00  0.00     0.010 A 
ATOM     70  C   UNL A   1      49.358  28.061  26.647  1.00  0.00     0.020 A 
ATOM     71  C   UNL A   1      48.146  27.828  24.554  1.00  0.00     0.020 A 
ATOM     72  C   UNL A   1      49.311  27.671  25.304  1.00  0.00     0.054 A 
BRANCH  72  73
ATOM     73  S   UNL A   1      50.788  26.921  24.564  1.00  0.00     0.124 S 
ATOM     74  O   UNL A   1      51.817  27.914  24.856  1.00  0.00    -0.237 OA
ATOM     75  O   UNL A   1      50.894  25.663  25.298  1.00  0.00    -0.237 OA
ATOM     76  O   UNL A   1      50.436  26.786  23.152  1.00  0.00    -0.744 OA
ENDBRANCH  72  73
ENDBRANCH  44  67
BRANCH  56  77
ATOM     77  C   UNL A   1      44.880  34.870  29.113  1.00  0.00    -0.014 A 
ATOM     78  C   UNL A   1      45.775  35.160  30.156  1.00  0.00     0.010 A 
ATOM     79  C   UNL A   1      44.667  35.821  28.099  1.00  0.00     0.010 A 
ATOM     80  C   UNL A   1      46.446  36.384  30.186  1.00  0.00     0.020 A 
ATOM     81  C   UNL A   1      45.351  37.039  28.115  1.00  0.00     0.020 A 
ATOM     82  C   UNL A   1      46.237  37.312  29.159  1.00  0.00     0.054 A 
BRANCH  82  83
ATOM     83  S   UNL A   1      47.167  38.868  29.196  1.00  0.00     0.124 S 
ATOM     84  O   UNL A   1      46.114  39.861  28.999  1.00  0.00    -0.237 OA
ATOM     85  O   UNL A   1      47.766  38.843  30.527  1.00  0.00    -0.237 OA
ATOM     86  O   UNL A   1      48.110  38.739  28.086  1.00  0.00    -0.744 OA
ENDBRANCH  82  83
ENDBRANCH  56  77
ENDBRANCH  30  31
ENDBRANCH  23  25
ENDBRANCH  22  23
ENDBRANCH   1  22
TORSDOF 15
ENDMDL
MODEL 2
REMARK VINA RESULT:      -9.6      0.671      8.314
REMARK SMILES Cc1c(Cl)ccc2c1C=C(C(=O)OCCOC(=O)c1ccc(-c3c4nc(c(-c5ccc(S(=O)(=O)[O-])cc5)c5ccc([nH]5)c(-c5ccc(S(=O)(=O)[O-])cc5)c5nc(c(-c6ccc(S(=O)(=O)[O-])cc6)c6ccc3[nH]6)C=C5)C=C4)cc1)[C@@H](C(F)(F)F)O2
REMARK SMILES IDX 15 1 14 2 13 3 11 4 12 5 10 6 1 7 2 8 3 9 8 10 4 11 5 12
REMARK SMILES IDX 7 13 9 14 6 15 84 16 79 17 80 18 81 19 82 20 83 21 16 22
REMARK SMILES IDX 17 23 18 24 19 25 20 26 78 27 21 28 77 29 22 30 23 31 24 32
REMARK SMILES IDX 71 33 25 34 76 35 70 36 72 37 26 38 75 39 69 40 68 41 27 43
REMARK SMILES IDX 57 44 38 45 56 46 39 47 42 48 55 49 73 50 40 51 41 52 54 54
REMARK SMILES IDX 74 55 43 56 28 57 29 58 37 59 30 60 36 61 31 62 32 63 33 64
REMARK SMILES IDX 34 65 35 66 58 67 59 68 67 69 60 70 66 71 61 72 62 73 63 74
REMARK SMILES IDX 64 75 65 76 44 77 45 78 53 79 46 80 52 81 47 82 48 83 49 84
REMARK SMILES IDX 50 85 51 86
REMARK H PARENT 72 42 42 53
REMARK Flexibility Score: inf
ROOT
ATOM      1  C   UNL A   1      40.737  20.233  26.154  1.00  0.00     0.275 C 
ENDROOT
BRANCH   1   2
ATOM      2  C   UNL A   1      42.259  20.182  26.275  1.00  0.00     0.275 C 
BRANCH   2   3
ATOM      3  O   UNL A   1      42.844  21.474  26.009  1.00  0.00    -0.459 OA
BRANCH   3   4
ATOM      4  C   UNL A   1      44.155  21.466  25.664  1.00  0.00     0.338 C 
ATOM      5  O   UNL A   1      44.670  20.803  24.784  1.00  0.00    -0.246 OA
BRANCH   4   6
ATOM      6  C   UNL A   1      44.908  22.408  26.517  1.00  0.00     0.087 C 
ATOM      7  C   UNL A   1      43.524  23.313  30.576  1.00  0.00     0.047 C 
ATOM      8  C   UNL A   1      44.653  24.027  29.872  1.00  0.00    -0.021 A 
ATOM      9  C   UNL A   1      45.289  25.100  30.531  1.00  0.00     0.044 A 
ATOM     10  C   UNL A   1      45.096  23.676  28.569  1.00  0.00     0.022 A 
ATOM     11  Cl  UNL A   1      44.760  25.672  32.077  1.00  0.00    -0.084 Cl
ATOM     12  C   UNL A   1      46.372  25.761  29.952  1.00  0.00     0.024 A 
ATOM     13  C   UNL A   1      46.213  24.327  28.019  1.00  0.00     0.128 A 
ATOM     14  C   UNL A   1      44.423  22.686  27.733  1.00  0.00     0.027 C 
ATOM     15  C   UNL A   1      46.847  25.359  28.709  1.00  0.00     0.048 A 
ATOM     16  O   UNL A   1      46.776  24.018  26.814  1.00  0.00    -0.475 OA
ATOM     17  C   UNL A   1      46.113  23.078  25.934  1.00  0.00     0.316 C 
BRANCH  17  18
ATOM     18  C   UNL A   1      45.777  23.806  24.622  1.00  0.00     0.430 C 
ATOM     19  F   UNL A   1      45.999  23.011  23.547  1.00  0.00    -0.167 F 
ATOM     20  F   UNL A   1      44.473  24.168  24.562  1.00  0.00    -0.167 F 
ATOM     21  F   UNL A   1      46.516  24.927  24.454  1.00  0.00    -0.167 F 
ENDBRANCH  17  18
ENDBRANCH   4   6
ENDBRANCH   3   4
ENDBRANCH   2   3
ENDBRANCH   1   2
BRANCH   1  22
ATOM     22  O   UNL A   1      40.194  21.192  27.078  1.00  0.00    -0.458 OA
BRANCH  22  23
ATOM     23  C   UNL A   1      39.428  22.155  26.518  1.00  0.00     0.338 C 
ATOM     24  O   UNL A   1      38.552  22.010  25.681  1.00  0.00    -0.246 OA
BRANCH  23  25
ATOM     25  C   UNL A   1      39.751  23.464  27.106  1.00  0.00     0.060 A 
ATOM     26  C   UNL A   1      39.130  24.605  26.607  1.00  0.00     0.016 A 
ATOM     27  C   UNL A   1      40.799  23.574  28.017  1.00  0.00     0.016 A 
ATOM     28  C   UNL A   1      39.653  25.859  26.904  1.00  0.00     0.010 A 
ATOM     29  C   UNL A   1      41.241  24.844  28.406  1.00  0.00     0.010 A 
ATOM     30  C   UNL A   1      40.715  26.001  27.809  1.00  0.00    -0.014 A 
BRANCH  30  31
ATOM     31  C   UNL A   1      41.298  27.345  28.093  1.00  0.00     0.031 A 
ATOM     32  C   UNL A   1      42.708  27.672  27.662  1.00  0.00     0.074 A 
ATOM     33  C   UNL A   1      40.562  28.288  28.717  1.00  0.00     0.049 A 
ATOM     34  N   UNL A   1      43.444  28.711  27.971  1.00  0.00    -0.248 NA
ATOM     35  C   UNL A   1      43.387  26.707  26.778  1.00  0.00     0.031 C 
ATOM     36  C   UNL A   1      39.165  28.138  29.136  1.00  0.00     0.029 A 
ATOM     37  N   UNL A   1      40.881  29.569  29.100  1.00  0.00    -0.354 N 
ATOM     38  C   UNL A   1      44.681  28.497  27.371  1.00  0.00     0.074 A 
ATOM     39  C   UNL A   1      44.602  27.230  26.679  1.00  0.00     0.031 C 
ATOM     40  C   UNL A   1      38.735  29.293  29.665  1.00  0.00     0.029 A 
ATOM     41  C   UNL A   1      39.849  30.231  29.724  1.00  0.00     0.049 A 
ATOM     42  H   UNL A   1      41.764  29.974  28.941  1.00  0.00     0.167 HD
ATOM     43  C   UNL A   1      45.781  29.286  27.398  1.00  0.00     0.031 A 
ATOM     44  C   UNL A   1      39.805  31.434  30.327  1.00  0.00     0.031 A 
ATOM     45  C   UNL A   1      45.838  30.570  28.045  1.00  0.00     0.049 A 
ATOM     46  C   UNL A   1      41.051  32.266  30.394  1.00  0.00     0.074 A 
ATOM     47  C   UNL A   1      46.908  31.446  28.115  1.00  0.00     0.029 A 
ATOM     48  N   UNL A   1      44.784  31.170  28.713  1.00  0.00    -0.354 N 
ATOM     49  N   UNL A   1      42.233  32.010  29.888  1.00  0.00    -0.248 NA
ATOM     50  C   UNL A   1      40.968  33.535  31.130  1.00  0.00     0.031 C 
ATOM     51  C   UNL A   1      46.513  32.556  28.866  1.00  0.00     0.029 A 
ATOM     52  C   UNL A   1      45.182  32.396  29.215  1.00  0.00     0.049 A 
ATOM     53  H   UNL A   1      43.885  30.781  28.816  1.00  0.00     0.167 HD
ATOM     54  C   UNL A   1      43.033  33.091  30.237  1.00  0.00     0.074 A 
ATOM     55  C   UNL A   1      42.200  34.007  30.986  1.00  0.00     0.031 C 
ATOM     56  C   UNL A   1      44.343  33.298  29.960  1.00  0.00     0.031 A 
BRANCH  43  57
ATOM     57  C   UNL A   1      47.038  28.786  26.737  1.00  0.00    -0.014 A 
ATOM     58  C   UNL A   1      48.202  28.520  27.480  1.00  0.00     0.010 A 
ATOM     59  C   UNL A   1      47.015  28.473  25.364  1.00  0.00     0.010 A 
ATOM     60  C   UNL A   1      49.321  27.956  26.859  1.00  0.00     0.020 A 
ATOM     61  C   UNL A   1      48.123  27.890  24.745  1.00  0.00     0.020 A 
ATOM     62  C   UNL A   1      49.272  27.636  25.497  1.00  0.00     0.054 A 
BRANCH  62  63
ATOM     63  S   UNL A   1      50.724  26.861  24.733  1.00  0.00     0.124 S 
ATOM     64  O   UNL A   1      50.805  25.591  25.450  1.00  0.00    -0.237 OA
ATOM     65  O   UNL A   1      50.328  26.767  23.331  1.00  0.00    -0.237 OA
ATOM     66  O   UNL A   1      51.809  27.799  25.014  1.00  0.00    -0.744 OA
ENDBRANCH  62  63
ENDBRANCH  43  57
BRANCH  44  67
ATOM     67  C   UNL A   1      38.535  31.884  30.959  1.00  0.00    -0.014 A 
ATOM     68  C   UNL A   1      38.255  31.570  32.299  1.00  0.00     0.010 A 
ATOM     69  C   UNL A   1      37.636  32.694  30.241  1.00  0.00     0.010 A 
ATOM     70  C   UNL A   1      37.103  32.071  32.914  1.00  0.00     0.020 A 
ATOM     71  C   UNL A   1      36.498  33.218  30.860  1.00  0.00     0.020 A 
ATOM     72  C   UNL A   1      36.240  32.904  32.194  1.00  0.00     0.054 A 
BRANCH  72  73
ATOM     73  S   UNL A   1      34.795  33.600  33.042  1.00  0.00     0.124 S 
ATOM     74  O   UNL A   1      33.700  32.817  32.477  1.00  0.00    -0.237 OA
ATOM     75  O   UNL A   1      35.105  33.337  34.444  1.00  0.00    -0.237 OA
ATOM     76  O   UNL A   1      34.816  35.010  32.657  1.00  0.00    -0.744 OA
ENDBRANCH  72  73
ENDBRANCH  44  67
BRANCH  56  77
ATOM     77  C   UNL A   1      44.966  34.577  30.442  1.00  0.00    -0.014 A 
ATOM     78  C   UNL A   1      45.641  34.631  31.674  1.00  0.00     0.010 A 
ATOM     79  C   UNL A   1      44.970  35.705  29.601  1.00  0.00     0.010 A 
ATOM     80  C   UNL A   1      46.307  35.796  32.058  1.00  0.00     0.020 A 
ATOM     81  C   UNL A   1      45.652  36.865  29.974  1.00  0.00     0.020 A 
ATOM     82  C   UNL A   1      46.318  36.902  31.201  1.00  0.00     0.054 A 
BRANCH  82  83
ATOM     83  S   UNL A   1      47.242  38.379  31.705  1.00  0.00     0.124 S 
ATOM     84  O   UNL A   1      48.524  37.815  32.117  1.00  0.00    -0.237 OA
ATOM     85  O   UNL A   1      47.268  39.166  30.476  1.00  0.00    -0.237 OA
ATOM     86  O   UNL A   1      46.438  38.942  32.788  1.00  0.00    -0.744 OA
ENDBRANCH  82  83
ENDBRANCH  56  77
ENDBRANCH  30  31
ENDBRANCH  23  25
ENDBRANCH  22  23
ENDBRANCH   1  22
TORSDOF 15
ENDMDL
MODEL 3
REMARK VINA RESULT:      -9.4      4.991     10.184
REMARK SMILES Cc1c(Cl)ccc2c1C=C(C(=O)OCCOC(=O)c1ccc(-c3c4nc(c(-c5ccc(S(=O)(=O)[O-])cc5)c5ccc([nH]5)c(-c5ccc(S(=O)(=O)[O-])cc5)c5nc(c(-c6ccc(S(=O)(=O)[O-])cc6)c6ccc3[nH]6)C=C5)C=C4)cc1)[C@@H](C(F)(F)F)O2
REMARK SMILES IDX 15 1 14 2 13 3 11 4 12 5 10 6 1 7 2 8 3 9 8 10 4 11 5 12
REMARK SMILES IDX 7 13 9 14 6 15 84 16 79 17 80 18 81 19 82 20 83 21 16 22
REMARK SMILES IDX 17 23 18 24 19 25 20 26 78 27 21 28 77 29 22 30 23 31 24 32
REMARK SMILES IDX 71 33 25 34 76 35 70 36 72 37 26 38 75 39 69 40 68 41 27 43
REMARK SMILES IDX 57 44 38 45 56 46 39 47 42 48 55 49 73 50 40 51 41 52 54 54
REMARK SMILES IDX 74 55 43 56 28 57 29 58 37 59 30 60 36 61 31 62 32 63 33 64
REMARK SMILES IDX 34 65 35 66 58 67 59 68 67 69 60 70 66 71 61 72 62 73 63 74
REMARK SMILES IDX 64 75 65 76 44 77 45 78 53 79 46 80 52 81 47 82 48 83 49 84
REMARK SMILES IDX 50 85 51 86
REMARK H PARENT 72 42 42 53
REMARK Flexibility Score: inf
ROOT
ATOM      1  C   UNL A   1      34.689  30.167  27.627  1.00  0.00     0.275 C 
ENDROOT
BRANCH   1   2
ATOM      2  C   UNL A   1      33.476  29.374  27.143  1.00  0.00     0.275 C 
BRANCH   2   3
ATOM      3  O   UNL A   1      33.226  29.612  25.742  1.00  0.00    -0.459 OA
BRANCH   3   4
ATOM      4  C   UNL A   1      33.503  28.576  24.912  1.00  0.00     0.338 C 
ATOM      5  O   UNL A   1      34.219  28.604  23.929  1.00  0.00    -0.246 OA
BRANCH   4   6
ATOM      6  C   UNL A   1      32.806  27.358  25.373  1.00  0.00     0.087 C 
ATOM      7  C   UNL A   1      35.065  23.690  26.186  1.00  0.00     0.047 C 
ATOM      8  C   UNL A   1      33.559  23.788  26.171  1.00  0.00    -0.021 A 
ATOM      9  C   UNL A   1      32.803  22.616  26.381  1.00  0.00     0.044 A 
ATOM     10  C   UNL A   1      32.865  25.006  25.940  1.00  0.00     0.022 A 
ATOM     11  Cl  UNL A   1      33.548  21.064  26.570  1.00  0.00    -0.084 Cl
ATOM     12  C   UNL A   1      31.410  22.655  26.431  1.00  0.00     0.024 A 
ATOM     13  C   UNL A   1      31.464  25.033  26.034  1.00  0.00     0.128 A 
ATOM     14  C   UNL A   1      33.533  26.250  25.566  1.00  0.00     0.027 C 
ATOM     15  C   UNL A   1      30.743  23.865  26.281  1.00  0.00     0.048 A 
ATOM     16  O   UNL A   1      30.699  26.159  25.913  1.00  0.00    -0.475 OA
ATOM     17  C   UNL A   1      31.315  27.401  25.496  1.00  0.00     0.316 C 
BRANCH  17  18
ATOM     18  C   UNL A   1      30.651  27.847  24.183  1.00  0.00     0.430 C 
ATOM     19  F   UNL A   1      29.403  27.330  24.062  1.00  0.00    -0.167 F 
ATOM     20  F   UNL A   1      30.511  29.193  24.117  1.00  0.00    -0.167 F 
ATOM     21  F   UNL A   1      31.355  27.460  23.094  1.00  0.00    -0.167 F 
ENDBRANCH  17  18
ENDBRANCH   4   6
ENDBRANCH   3   4
ENDBRANCH   2   3
ENDBRANCH   1   2
BRANCH   1  22
ATOM     22  O   UNL A   1      35.853  29.324  27.666  1.00  0.00    -0.458 OA
BRANCH  22  23
ATOM     23  C   UNL A   1      36.695  29.558  28.698  1.00  0.00     0.338 C 
ATOM     24  O   UNL A   1      36.423  30.068  29.773  1.00  0.00    -0.246 OA
BRANCH  23  25
ATOM     25  C   UNL A   1      38.038  29.052  28.380  1.00  0.00     0.060 A 
ATOM     26  C   UNL A   1      38.783  28.429  29.376  1.00  0.00     0.016 A 
ATOM     27  C   UNL A   1      38.622  29.361  27.154  1.00  0.00     0.016 A 
ATOM     28  C   UNL A   1      40.151  28.249  29.203  1.00  0.00     0.010 A 
ATOM     29  C   UNL A   1      39.974  29.064  26.941  1.00  0.00     0.010 A 
ATOM     30  C   UNL A   1      40.770  28.561  27.984  1.00  0.00    -0.014 A 
BRANCH  30  31
ATOM     31  C   UNL A   1      42.244  28.403  27.816  1.00  0.00     0.031 A 
ATOM     32  C   UNL A   1      43.181  29.524  28.200  1.00  0.00     0.074 A 
ATOM     33  C   UNL A   1      42.755  27.249  27.341  1.00  0.00     0.049 A 
ATOM     34  N   UNL A   1      44.464  29.643  27.966  1.00  0.00    -0.248 NA
ATOM     35  C   UNL A   1      42.604  30.666  28.934  1.00  0.00     0.031 C 
ATOM     36  C   UNL A   1      41.980  26.056  26.988  1.00  0.00     0.029 A 
ATOM     37  N   UNL A   1      44.054  26.880  27.084  1.00  0.00    -0.354 N 
ATOM     38  C   UNL A   1      44.833  30.886  28.468  1.00  0.00     0.074 A 
ATOM     39  C   UNL A   1      43.641  31.490  29.021  1.00  0.00     0.031 C 
ATOM     40  C   UNL A   1      42.817  25.077  26.613  1.00  0.00     0.029 A 
ATOM     41  C   UNL A   1      44.177  25.600  26.594  1.00  0.00     0.049 A 
ATOM     42  H   UNL A   1      44.824  27.476  27.236  1.00  0.00     0.167 HD
ATOM     43  C   UNL A   1      46.055  31.471  28.466  1.00  0.00     0.031 A 
ATOM     44  C   UNL A   1      45.248  24.928  26.130  1.00  0.00     0.031 A 
ATOM     45  C   UNL A   1      47.247  30.845  27.962  1.00  0.00     0.049 A 
ATOM     46  C   UNL A   1      46.580  25.615  26.085  1.00  0.00     0.074 A 
ATOM     47  C   UNL A   1      48.533  31.356  27.928  1.00  0.00     0.029 A 
ATOM     48  N   UNL A   1      47.309  29.570  27.423  1.00  0.00    -0.354 N 
ATOM     49  N   UNL A   1      46.892  26.822  26.492  1.00  0.00    -0.248 NA
ATOM     50  C   UNL A   1      47.699  24.865  25.498  1.00  0.00     0.031 C 
ATOM     51  C   UNL A   1      49.364  30.407  27.327  1.00  0.00     0.029 A 
ATOM     52  C   UNL A   1      48.607  29.285  27.037  1.00  0.00     0.049 A 
ATOM     53  H   UNL A   1      46.543  28.958  27.329  1.00  0.00     0.167 HD
ATOM     54  C   UNL A   1      48.246  26.972  26.220  1.00  0.00     0.074 A 
ATOM     55  C   UNL A   1      48.696  25.732  25.623  1.00  0.00     0.031 C 
ATOM     56  C   UNL A   1      49.041  28.046  26.444  1.00  0.00     0.031 A 
BRANCH  43  57
ATOM     57  C   UNL A   1      46.179  32.874  28.997  1.00  0.00    -0.014 A 
ATOM     58  C   UNL A   1      46.539  33.123  30.333  1.00  0.00     0.010 A 
ATOM     59  C   UNL A   1      46.040  33.959  28.112  1.00  0.00     0.010 A 
ATOM     60  C   UNL A   1      46.752  34.433  30.774  1.00  0.00     0.020 A 
ATOM     61  C   UNL A   1      46.273  35.268  28.542  1.00  0.00     0.020 A 
ATOM     62  C   UNL A   1      46.626  35.497  29.873  1.00  0.00     0.054 A 
BRANCH  62  63
ATOM     63  S   UNL A   1      46.956  37.181  30.465  1.00  0.00     0.124 S 
ATOM     64  O   UNL A   1      48.202  37.509  29.776  1.00  0.00    -0.237 OA
ATOM     65  O   UNL A   1      45.775  37.910  30.009  1.00  0.00    -0.237 OA
ATOM     66  O   UNL A   1      47.073  37.026  31.913  1.00  0.00    -0.744 OA
ENDBRANCH  62  63
ENDBRANCH  43  57
BRANCH  44  67
ATOM     67  C   UNL A   1      45.072  23.540  25.623  1.00  0.00    -0.014 A 
ATOM     68  C   UNL A   1      44.780  23.307  24.270  1.00  0.00     0.010 A 
ATOM     69  C   UNL A   1      45.271  22.443  26.483  1.00  0.00     0.010 A 
ATOM     70  C   UNL A   1      44.704  21.999  23.781  1.00  0.00     0.020 A 
ATOM     71  C   UNL A   1      45.223  21.136  25.991  1.00  0.00     0.020 A 
ATOM     72  C   UNL A   1      44.941  20.922  24.642  1.00  0.00     0.054 A 
BRANCH  72  73
ATOM     73  S   UNL A   1      44.911  19.241  23.962  1.00  0.00     0.124 S 
ATOM     74  O   UNL A   1      46.297  18.815  24.132  1.00  0.00    -0.237 OA
ATOM     75  O   UNL A   1      43.935  18.578  24.822  1.00  0.00    -0.237 OA
ATOM     76  O   UNL A   1      44.484  19.436  22.578  1.00  0.00    -0.744 OA
ENDBRANCH  72  73
ENDBRANCH  44  67
BRANCH  56  77
ATOM     77  C   UNL A   1      50.491  27.935  26.070  1.00  0.00    -0.014 A 
ATOM     78  C   UNL A   1      51.433  27.427  26.981  1.00  0.00     0.010 A 
ATOM     79  C   UNL A   1      50.893  28.239  24.757  1.00  0.00     0.010 A 
ATOM     80  C   UNL A   1      52.757  27.229  26.584  1.00  0.00     0.020 A 
ATOM     81  C   UNL A   1      52.211  28.023  24.351  1.00  0.00     0.020 A 
ATOM     82  C   UNL A   1      53.135  27.517  25.268  1.00  0.00     0.054 A 
BRANCH  82  83
ATOM     83  S   UNL A   1      54.848  27.193  24.768  1.00  0.00     0.124 S 
ATOM     84  O   UNL A   1      55.532  27.101  26.055  1.00  0.00    -0.237 OA
ATOM     85  O   UNL A   1      54.727  25.940  24.029  1.00  0.00    -0.237 OA
ATOM     86  O   UNL A   1      55.203  28.359  23.961  1.00  0.00    -0.744 OA
ENDBRANCH  82  83
ENDBRANCH  56  77
ENDBRANCH  30  31
ENDBRANCH  23  25
ENDBRANCH  22  23
ENDBRANCH   1  22
TORSDOF 15
ENDMDL
