MODEL 1
REMARK VINA RESULT:     -10.4      0.000      0.000
REMARK SMILES Cc1ccc([C@@H](C)Nc2ccc(N)cc2C(=O)OCCOC(=O)c2ccc(-c3c4nc(c(-c5ccc(S(=O)(=O)[O-])cc5)c5ccc([nH]5)c(-c5ccc(S(=O)(=O)[O-])cc5)c5nc(c(-c6ccc(S(=O)(=O)[O-])cc6)c6ccc3[nH]6)C=C5)C=C4)cc2)cc1F
REMARK SMILES IDX 19 1 18 2 16 3 17 4 15 5 9 6 10 7 11 8 14 9 12 10 8 11 6 13
REMARK SMILES IDX 7 14 5 15 1 16 2 17 3 18 85 19 4 20 84 21 86 22 13 23 20 26
REMARK SMILES IDX 21 27 22 28 23 29 24 30 25 31 83 32 26 33 82 34 27 35 28 36
REMARK SMILES IDX 29 37 76 38 30 39 81 40 75 41 77 42 31 43 80 44 74 45 73 46
REMARK SMILES IDX 32 48 62 49 43 50 61 51 44 52 47 53 60 54 78 55 45 56 46 57
REMARK SMILES IDX 59 59 79 60 48 61 33 62 34 63 42 64 35 65 41 66 36 67 37 68
REMARK SMILES IDX 38 69 39 70 40 71 63 72 64 73 72 74 65 75 71 76 66 77 67 78
REMARK SMILES IDX 68 79 69 80 70 81 49 82 50 83 58 84 51 85 57 86 52 87 53 88
REMARK SMILES IDX 54 89 55 90 56 91
REMARK H PARENT 8 12 13 24 13 25 77 47 47 58
REMARK Flexibility Score: inf
ROOT
ATOM      1  C   UNL A   1      39.989  20.222  26.258  1.00  0.00     0.275 C 
ENDROOT
BRANCH   1   2
ATOM      2  O   UNL A   1      41.361  20.480  25.880  1.00  0.00    -0.458 OA
BRANCH   2   3
ATOM      3  C   UNL A   1      42.162  19.392  25.762  1.00  0.00     0.340 C 
ATOM      4  O   UNL A   1      41.806  18.224  25.753  1.00  0.00    -0.246 OA
BRANCH   3   5
ATOM      5  C   UNL A   1      43.561  19.796  25.525  1.00  0.00     0.085 A 
ATOM      6  C   UNL A   1      43.985  21.071  25.124  1.00  0.00     0.049 A 
ATOM      7  C   UNL A   1      45.380  21.210  24.923  1.00  0.00     0.029 A 
ATOM      8  C   UNL A   1      46.293  20.162  25.097  1.00  0.00     0.027 A 
ATOM      9  C   UNL A   1      44.498  18.757  25.757  1.00  0.00     0.043 A 
ATOM     10  C   UNL A   1      45.856  18.913  25.497  1.00  0.00     0.032 A 
BRANCH   6  11
ATOM     11  N   UNL A   1      43.277  22.244  24.985  1.00  0.00    -0.378 N 
ATOM     12  H   UNL A   1      42.519  22.136  24.365  1.00  0.00     0.161 HD
BRANCH  11  13
ATOM     13  C   UNL A   1      43.348  23.602  25.511  1.00  0.00     0.106 C 
ATOM     14  C   UNL A   1      44.181  24.591  24.705  1.00  0.00     0.036 C 
BRANCH  13  15
ATOM     15  C   UNL A   1      43.493  23.642  27.027  1.00  0.00    -0.023 A 
ATOM     16  C   UNL A   1      44.088  23.187  31.294  1.00  0.00     0.047 C 
ATOM     17  C   UNL A   1      43.841  23.382  29.830  1.00  0.00    -0.015 A 
ATOM     18  C   UNL A   1      42.663  22.943  29.219  1.00  0.00     0.007 A 
ATOM     19  C   UNL A   1      44.813  23.991  29.039  1.00  0.00     0.126 A 
ATOM     20  C   UNL A   1      42.492  23.073  27.835  1.00  0.00     0.006 A 
ATOM     21  C   UNL A   1      44.648  24.125  27.662  1.00  0.00     0.045 A 
ATOM     22  F   UNL A   1      45.949  24.425  29.602  1.00  0.00    -0.207 F 
ENDBRANCH  13  15
ENDBRANCH  11  13
ENDBRANCH   6  11
BRANCH  10  23
ATOM     23  N   UNL A   1      46.756  17.897  25.755  1.00  0.00    -0.399 N 
ATOM     24  H   UNL A   1      47.644  17.906  25.327  1.00  0.00     0.156 HD
ATOM     25  H   UNL A   1      46.511  17.164  26.364  1.00  0.00     0.156 HD
ENDBRANCH  10  23
ENDBRANCH   3   5
ENDBRANCH   2   3
ENDBRANCH   1   2
BRANCH   1  26
ATOM     26  C   UNL A   1      39.073  21.316  25.721  1.00  0.00     0.275 C 
BRANCH  26  27
ATOM     27  O   UNL A   1      39.642  22.575  26.101  1.00  0.00    -0.458 OA
BRANCH  27  28
ATOM     28  C   UNL A   1      38.811  23.637  26.039  1.00  0.00     0.338 C 
ATOM     29  O   UNL A   1      37.736  23.726  25.478  1.00  0.00    -0.246 OA
BRANCH  28  30
ATOM     30  C   UNL A   1      39.390  24.682  26.888  1.00  0.00     0.060 A 
ATOM     31  C   UNL A   1      39.004  24.728  28.228  1.00  0.00     0.016 A 
ATOM     32  C   UNL A   1      40.244  25.640  26.353  1.00  0.00     0.016 A 
ATOM     33  C   UNL A   1      39.425  25.775  29.041  1.00  0.00     0.010 A 
ATOM     34  C   UNL A   1      40.704  26.665  27.181  1.00  0.00     0.010 A 
ATOM     35  C   UNL A   1      40.271  26.761  28.519  1.00  0.00    -0.014 A 
BRANCH  35  36
ATOM     36  C   UNL A   1      40.618  27.966  29.313  1.00  0.00     0.031 A 
ATOM     37  C   UNL A   1      41.909  27.970  30.085  1.00  0.00     0.074 A 
ATOM     38  C   UNL A   1      39.803  29.036  29.359  1.00  0.00     0.049 A 
ATOM     39  N   UNL A   1      42.293  28.761  31.052  1.00  0.00    -0.248 NA
ATOM     40  C   UNL A   1      42.889  26.931  29.728  1.00  0.00     0.031 C 
ATOM     41  C   UNL A   1      38.570  29.203  28.589  1.00  0.00     0.029 A 
ATOM     42  N   UNL A   1      39.892  30.187  30.101  1.00  0.00    -0.354 N 
ATOM     43  C   UNL A   1      43.524  28.268  31.470  1.00  0.00     0.074 A 
ATOM     44  C   UNL A   1      43.831  27.125  30.639  1.00  0.00     0.031 C 
ATOM     45  C   UNL A   1      38.020  30.390  28.896  1.00  0.00     0.029 A 
ATOM     46  C   UNL A   1      38.817  31.027  29.940  1.00  0.00     0.049 A 
ATOM     47  H   UNL A   1      40.653  30.390  30.693  1.00  0.00     0.167 HD
ATOM     48  C   UNL A   1      44.314  28.719  32.473  1.00  0.00     0.031 A 
ATOM     49  C   UNL A   1      38.483  32.155  30.598  1.00  0.00     0.031 A 
ATOM     50  C   UNL A   1      44.012  29.879  33.267  1.00  0.00     0.049 A 
ATOM     51  C   UNL A   1      39.360  32.630  31.724  1.00  0.00     0.074 A 
ATOM     52  C   UNL A   1      44.727  30.415  34.323  1.00  0.00     0.029 A 
ATOM     53  N   UNL A   1      42.910  30.699  33.071  1.00  0.00    -0.354 N 
ATOM     54  N   UNL A   1      40.469  32.100  32.184  1.00  0.00    -0.248 NA
ATOM     55  C   UNL A   1      38.930  33.842  32.434  1.00  0.00     0.031 C 
ATOM     56  C   UNL A   1      44.044  31.548  34.781  1.00  0.00     0.029 A 
ATOM     57  C   UNL A   1      42.925  31.738  33.984  1.00  0.00     0.049 A 
ATOM     58  H   UNL A   1      42.218  30.561  32.384  1.00  0.00     0.167 HD
ATOM     59  C   UNL A   1      40.872  32.918  33.234  1.00  0.00     0.074 A 
ATOM     60  C   UNL A   1      39.899  33.987  33.329  1.00  0.00     0.031 C 
ATOM     61  C   UNL A   1      41.946  32.791  34.053  1.00  0.00     0.031 A 
BRANCH  48  62
ATOM     62  C   UNL A   1      45.541  27.915  32.800  1.00  0.00    -0.014 A 
ATOM     63  C   UNL A   1      46.800  28.241  32.267  1.00  0.00     0.010 A 
ATOM     64  C   UNL A   1      45.427  26.810  33.663  1.00  0.00     0.010 A 
ATOM     65  C   UNL A   1      47.915  27.450  32.558  1.00  0.00     0.020 A 
ATOM     66  C   UNL A   1      46.544  26.029  33.974  1.00  0.00     0.020 A 
ATOM     67  C   UNL A   1      47.778  26.343  33.403  1.00  0.00     0.054 A 
BRANCH  67  68
ATOM     68  S   UNL A   1      49.239  25.333  33.772  1.00  0.00     0.124 S 
ATOM     69  O   UNL A   1      49.994  26.210  34.663  1.00  0.00    -0.237 OA
ATOM     70  O   UNL A   1      48.663  24.146  34.400  1.00  0.00    -0.237 OA
ATOM     71  O   UNL A   1      49.842  25.108  32.460  1.00  0.00    -0.744 OA
ENDBRANCH  67  68
ENDBRANCH  48  62
BRANCH  49  72
ATOM     72  C   UNL A   1      37.229  32.874  30.248  1.00  0.00    -0.014 A 
ATOM     73  C   UNL A   1      37.122  33.576  29.036  1.00  0.00     0.010 A 
ATOM     74  C   UNL A   1      36.122  32.836  31.116  1.00  0.00     0.010 A 
ATOM     75  C   UNL A   1      35.932  34.230  28.698  1.00  0.00     0.020 A 
ATOM     76  C   UNL A   1      34.924  33.466  30.772  1.00  0.00     0.020 A 
ATOM     77  C   UNL A   1      34.839  34.167  29.567  1.00  0.00     0.054 A 
BRANCH  77  78
ATOM     78  S   UNL A   1      33.278  34.956  29.081  1.00  0.00     0.124 S 
ATOM     79  O   UNL A   1      32.534  34.955  30.336  1.00  0.00    -0.237 OA
ATOM     80  O   UNL A   1      33.716  36.267  28.606  1.00  0.00    -0.237 OA
ATOM     81  O   UNL A   1      32.760  34.069  28.042  1.00  0.00    -0.744 OA
ENDBRANCH  77  78
ENDBRANCH  49  72
BRANCH  61  82
ATOM     82  C   UNL A   1      42.140  33.853  35.096  1.00  0.00    -0.014 A 
ATOM     83  C   UNL A   1      41.606  33.704  36.387  1.00  0.00     0.010 A 
ATOM     84  C   UNL A   1      42.915  34.987  34.794  1.00  0.00     0.010 A 
ATOM     85  C   UNL A   1      41.825  34.688  37.355  1.00  0.00     0.020 A 
ATOM     86  C   UNL A   1      43.151  35.963  35.765  1.00  0.00     0.020 A 
ATOM     87  C   UNL A   1      42.593  35.813  37.037  1.00  0.00     0.054 A 
BRANCH  87  88
ATOM     88  S   UNL A   1      42.904  37.056  38.320  1.00  0.00     0.124 S 
ATOM     89  O   UNL A   1      43.631  36.282  39.322  1.00  0.00    -0.237 OA
ATOM     90  O   UNL A   1      43.688  38.065  37.613  1.00  0.00    -0.237 OA
ATOM     91  O   UNL A   1      41.563  37.485  38.716  1.00  0.00    -0.744 OA
ENDBRANCH  87  88
ENDBRANCH  61  82
ENDBRANCH  35  36
ENDBRANCH  28  30
ENDBRANCH  27  28
ENDBRANCH  26  27
ENDBRANCH   1  26
TORSDOF 18
ENDMDL
MODEL 2
REMARK VINA RESULT:      -9.9      5.522     11.534
REMARK SMILES Cc1ccc([C@@H](C)Nc2ccc(N)cc2C(=O)OCCOC(=O)c2ccc(-c3c4nc(c(-c5ccc(S(=O)(=O)[O-])cc5)c5ccc([nH]5)c(-c5ccc(S(=O)(=O)[O-])cc5)c5nc(c(-c6ccc(S(=O)(=O)[O-])cc6)c6ccc3[nH]6)C=C5)C=C4)cc2)cc1F
REMARK SMILES IDX 19 1 18 2 16 3 17 4 15 5 9 6 10 7 11 8 14 9 12 10 8 11 6 13
REMARK SMILES IDX 7 14 5 15 1 16 2 17 3 18 85 19 4 20 84 21 86 22 13 23 20 26
REMARK SMILES IDX 21 27 22 28 23 29 24 30 25 31 83 32 26 33 82 34 27 35 28 36
REMARK SMILES IDX 29 37 76 38 30 39 81 40 75 41 77 42 31 43 80 44 74 45 73 46
REMARK SMILES IDX 32 48 62 49 43 50 61 51 44 52 47 53 60 54 78 55 45 56 46 57
REMARK SMILES IDX 59 59 79 60 48 61 33 62 34 63 42 64 35 65 41 66 36 67 37 68
REMARK SMILES IDX 38 69 39 70 40 71 63 72 64 73 72 74 65 75 71 76 66 77 67 78
REMARK SMILES IDX 68 79 69 80 70 81 49 82 50 83 58 84 51 85 57 86 52 87 53 88
REMARK SMILES IDX 54 89 55 90 56 91
REMARK H PARENT 8 12 13 24 13 25 77 47 47 58
REMARK Flexibility Score: inf
ROOT
ATOM      1  C   UNL A   1      32.034  27.732  26.636  1.00  0.00     0.275 C 
ENDROOT
BRANCH   1   2
ATOM      2  O   UNL A   1      32.066  26.343  27.042  1.00  0.00    -0.458 OA
BRANCH   2   3
ATOM      3  C   UNL A   1      31.713  25.437  26.096  1.00  0.00     0.340 C 
ATOM      4  O   UNL A   1      30.578  25.134  25.767  1.00  0.00    -0.246 OA
BRANCH   3   5
ATOM      5  C   UNL A   1      32.906  24.914  25.404  1.00  0.00     0.085 A 
ATOM      6  C   UNL A   1      33.169  25.027  24.031  1.00  0.00     0.049 A 
ATOM      7  C   UNL A   1      34.365  24.411  23.591  1.00  0.00     0.029 A 
ATOM      8  C   UNL A   1      35.239  23.723  24.442  1.00  0.00     0.027 A 
ATOM      9  C   UNL A   1      33.825  24.268  26.270  1.00  0.00     0.043 A 
ATOM     10  C   UNL A   1      34.964  23.625  25.794  1.00  0.00     0.032 A 
BRANCH   6  11
ATOM     11  N   UNL A   1      32.501  25.726  23.051  1.00  0.00    -0.378 N 
ATOM     12  H   UNL A   1      31.843  25.158  22.587  1.00  0.00     0.161 HD
BRANCH  11  13
ATOM     13  C   UNL A   1      32.507  27.082  22.515  1.00  0.00     0.106 C 
ATOM     14  C   UNL A   1      33.792  27.876  22.711  1.00  0.00     0.036 C 
BRANCH  13  15
ATOM     15  C   UNL A   1      31.192  27.815  22.747  1.00  0.00    -0.023 A 
ATOM     16  C   UNL A   1      27.330  29.778  22.835  1.00  0.00     0.047 C 
ATOM     17  C   UNL A   1      28.683  29.136  22.844  1.00  0.00    -0.015 A 
ATOM     18  C   UNL A   1      29.815  29.800  22.362  1.00  0.00     0.007 A 
ATOM     19  C   UNL A   1      28.829  27.834  23.320  1.00  0.00     0.126 A 
ATOM     20  C   UNL A   1      31.053  29.146  22.315  1.00  0.00     0.006 A 
ATOM     21  C   UNL A   1      30.058  27.180  23.278  1.00  0.00     0.045 A 
ATOM     22  F   UNL A   1      27.760  27.178  23.792  1.00  0.00    -0.207 F 
ENDBRANCH  13  15
ENDBRANCH  11  13
ENDBRANCH   6  11
BRANCH  10  23
ATOM     23  N   UNL A   1      35.861  23.023  26.656  1.00  0.00    -0.399 N 
ATOM     24  H   UNL A   1      36.438  22.293  26.335  1.00  0.00     0.156 HD
ATOM     25  H   UNL A   1      35.922  23.323  27.592  1.00  0.00     0.156 HD
ENDBRANCH  10  23
ENDBRANCH   3   5
ENDBRANCH   2   3
ENDBRANCH   1   2
BRANCH   1  26
ATOM     26  C   UNL A   1      33.449  28.286  26.520  1.00  0.00     0.275 C 
BRANCH  26  27
ATOM     27  O   UNL A   1      33.846  28.723  27.826  1.00  0.00    -0.458 OA
BRANCH  27  28
ATOM     28  C   UNL A   1      34.340  29.977  27.900  1.00  0.00     0.338 C 
ATOM     29  O   UNL A   1      33.746  31.033  27.800  1.00  0.00    -0.246 OA
BRANCH  28  30
ATOM     30  C   UNL A   1      35.760  29.856  28.242  1.00  0.00     0.060 A 
ATOM     31  C   UNL A   1      36.700  30.120  27.245  1.00  0.00     0.016 A 
ATOM     32  C   UNL A   1      36.153  29.424  29.504  1.00  0.00     0.016 A 
ATOM     33  C   UNL A   1      38.052  29.896  27.483  1.00  0.00     0.010 A 
ATOM     34  C   UNL A   1      37.513  29.244  29.757  1.00  0.00     0.010 A 
ATOM     35  C   UNL A   1      38.470  29.443  28.740  1.00  0.00    -0.014 A 
BRANCH  35  36
ATOM     36  C   UNL A   1      39.881  29.054  28.981  1.00  0.00     0.031 A 
ATOM     37  C   UNL A   1      40.828  30.088  29.526  1.00  0.00     0.074 A 
ATOM     38  C   UNL A   1      40.322  27.811  28.714  1.00  0.00     0.049 A 
ATOM     39  N   UNL A   1      42.134  30.081  29.552  1.00  0.00    -0.248 NA
ATOM     40  C   UNL A   1      40.217  31.298  30.100  1.00  0.00     0.031 C 
ATOM     41  C   UNL A   1      39.495  26.688  28.271  1.00  0.00     0.029 A 
ATOM     42  N   UNL A   1      41.591  27.290  28.770  1.00  0.00    -0.354 N 
ATOM     43  C   UNL A   1      42.503  31.317  30.075  1.00  0.00     0.074 A 
ATOM     44  C   UNL A   1      41.283  32.036  30.370  1.00  0.00     0.031 C 
ATOM     45  C   UNL A   1      40.277  25.609  28.100  1.00  0.00     0.029 A 
ATOM     46  C   UNL A   1      41.666  25.986  28.343  1.00  0.00     0.049 A 
ATOM     47  H   UNL A   1      42.371  27.801  29.085  1.00  0.00     0.167 HD
ATOM     48  C   UNL A   1      43.749  31.809  30.270  1.00  0.00     0.031 A 
ATOM     49  C   UNL A   1      42.739  25.201  28.118  1.00  0.00     0.031 A 
ATOM     50  C   UNL A   1      44.952  31.067  30.005  1.00  0.00     0.049 A 
ATOM     51  C   UNL A   1      44.117  25.772  28.319  1.00  0.00     0.074 A 
ATOM     52  C   UNL A   1      46.267  31.474  30.143  1.00  0.00     0.029 A 
ATOM     53  N   UNL A   1      44.981  29.750  29.569  1.00  0.00    -0.354 N 
ATOM     54  N   UNL A   1      44.459  26.975  28.713  1.00  0.00    -0.248 NA
ATOM     55  C   UNL A   1      45.251  24.887  28.022  1.00  0.00     0.031 C 
ATOM     56  C   UNL A   1      47.093  30.407  29.768  1.00  0.00     0.029 A 
ATOM     57  C   UNL A   1      46.291  29.326  29.435  1.00  0.00     0.049 A 
ATOM     58  H   UNL A   1      44.187  29.199  29.383  1.00  0.00     0.167 HD
ATOM     59  C   UNL A   1      45.850  26.990  28.717  1.00  0.00     0.074 A 
ATOM     60  C   UNL A   1      46.283  25.671  28.304  1.00  0.00     0.031 C 
ATOM     61  C   UNL A   1      46.693  28.006  29.026  1.00  0.00     0.031 A 
BRANCH  48  62
ATOM     62  C   UNL A   1      43.862  33.235  30.732  1.00  0.00    -0.014 A 
ATOM     63  C   UNL A   1      44.000  33.561  32.092  1.00  0.00     0.010 A 
ATOM     64  C   UNL A   1      43.832  34.270  29.778  1.00  0.00     0.010 A 
ATOM     65  C   UNL A   1      44.062  34.898  32.494  1.00  0.00     0.020 A 
ATOM     66  C   UNL A   1      43.916  35.608  30.175  1.00  0.00     0.020 A 
ATOM     67  C   UNL A   1      44.012  35.914  31.533  1.00  0.00     0.054 A 
BRANCH  67  68
ATOM     68  S   UNL A   1      44.100  37.643  32.076  1.00  0.00     0.124 S 
ATOM     69  O   UNL A   1      43.080  37.682  33.120  1.00  0.00    -0.237 OA
ATOM     70  O   UNL A   1      45.479  37.767  32.542  1.00  0.00    -0.237 OA
ATOM     71  O   UNL A   1      43.785  38.400  30.867  1.00  0.00    -0.744 OA
ENDBRANCH  67  68
ENDBRANCH  48  62
BRANCH  49  72
ATOM     72  C   UNL A   1      42.550  23.813  27.619  1.00  0.00    -0.014 A 
ATOM     73  C   UNL A   1      42.407  23.561  26.244  1.00  0.00     0.010 A 
ATOM     74  C   UNL A   1      42.537  22.730  28.518  1.00  0.00     0.010 A 
ATOM     75  C   UNL A   1      42.252  22.251  25.777  1.00  0.00     0.020 A 
ATOM     76  C   UNL A   1      42.409  21.419  28.054  1.00  0.00     0.020 A 
ATOM     77  C   UNL A   1      42.259  21.188  26.685  1.00  0.00     0.054 A 
BRANCH  77  78
ATOM     78  S   UNL A   1      42.136  19.489  26.056  1.00  0.00     0.124 S 
ATOM     79  O   UNL A   1      43.059  19.516  24.927  1.00  0.00    -0.237 OA
ATOM     80  O   UNL A   1      42.562  18.692  27.204  1.00  0.00    -0.237 OA
ATOM     81  O   UNL A   1      40.722  19.358  25.710  1.00  0.00    -0.744 OA
ENDBRANCH  77  78
ENDBRANCH  49  72
BRANCH  61  82
ATOM     82  C   UNL A   1      48.166  27.717  28.963  1.00  0.00    -0.014 A 
ATOM     83  C   UNL A   1      48.861  27.259  30.095  1.00  0.00     0.010 A 
ATOM     84  C   UNL A   1      48.847  27.854  27.741  1.00  0.00     0.010 A 
ATOM     85  C   UNL A   1      50.224  26.964  30.010  1.00  0.00     0.020 A 
ATOM     86  C   UNL A   1      50.205  27.542  27.648  1.00  0.00     0.020 A 
ATOM     87  C   UNL A   1      50.888  27.111  28.787  1.00  0.00     0.054 A 
BRANCH  87  88
ATOM     88  S   UNL A   1      52.647  26.680  28.686  1.00  0.00     0.124 S 
ATOM     89  O   UNL A   1      52.897  26.113  30.008  1.00  0.00    -0.237 OA
ATOM     90  O   UNL A   1      52.686  25.729  27.577  1.00  0.00    -0.237 OA
ATOM     91  O   UNL A   1      53.301  27.961  28.423  1.00  0.00    -0.744 OA
ENDBRANCH  87  88
ENDBRANCH  61  82
ENDBRANCH  35  36
ENDBRANCH  28  30
ENDBRANCH  27  28
ENDBRANCH  26  27
ENDBRANCH   1  26
TORSDOF 18
ENDMDL
MODEL 3
REMARK VINA RESULT:      -9.7      3.225     10.889
REMARK SMILES Cc1ccc([C@@H](C)Nc2ccc(N)cc2C(=O)OCCOC(=O)c2ccc(-c3c4nc(c(-c5ccc(S(=O)(=O)[O-])cc5)c5ccc([nH]5)c(-c5ccc(S(=O)(=O)[O-])cc5)c5nc(c(-c6ccc(S(=O)(=O)[O-])cc6)c6ccc3[nH]6)C=C5)C=C4)cc2)cc1F
REMARK SMILES IDX 19 1 18 2 16 3 17 4 15 5 9 6 10 7 11 8 14 9 12 10 8 11 6 13
REMARK SMILES IDX 7 14 5 15 1 16 2 17 3 18 85 19 4 20 84 21 86 22 13 23 20 26
REMARK SMILES IDX 21 27 22 28 23 29 24 30 25 31 83 32 26 33 82 34 27 35 28 36
REMARK SMILES IDX 29 37 76 38 30 39 81 40 75 41 77 42 31 43 80 44 74 45 73 46
REMARK SMILES IDX 32 48 62 49 43 50 61 51 44 52 47 53 60 54 78 55 45 56 46 57
REMARK SMILES IDX 59 59 79 60 48 61 33 62 34 63 42 64 35 65 41 66 36 67 37 68
REMARK SMILES IDX 38 69 39 70 40 71 63 72 64 73 72 74 65 75 71 76 66 77 67 78
REMARK SMILES IDX 68 79 69 80 70 81 49 82 50 83 58 84 51 85 57 86 52 87 53 88
REMARK SMILES IDX 54 89 55 90 56 91
REMARK H PARENT 8 12 13 24 13 25 77 47 47 58
REMARK Flexibility Score: inf
ROOT
ATOM      1  C   UNL A   1      33.538  34.416  28.551  1.00  0.00     0.275 C 
ENDROOT
BRANCH   1   2
ATOM      2  O   UNL A   1      34.619  34.385  29.513  1.00  0.00    -0.458 OA
BRANCH   2   3
ATOM      3  C   UNL A   1      34.344  33.794  30.702  1.00  0.00     0.340 C 
ATOM      4  O   UNL A   1      34.245  32.596  30.913  1.00  0.00    -0.246 OA
BRANCH   3   5
ATOM      5  C   UNL A   1      34.280  34.798  31.781  1.00  0.00     0.085 A 
ATOM      6  C   UNL A   1      34.582  34.566  33.130  1.00  0.00     0.049 A 
ATOM      7  C   UNL A   1      34.410  35.679  33.989  1.00  0.00     0.029 A 
ATOM      8  C   UNL A   1      33.964  36.932  33.550  1.00  0.00     0.027 A 
ATOM      9  C   UNL A   1      33.886  36.085  31.334  1.00  0.00     0.043 A 
ATOM     10  C   UNL A   1      33.675  37.142  32.214  1.00  0.00     0.032 A 
BRANCH   6  11
ATOM     11  N   UNL A   1      35.113  33.455  33.747  1.00  0.00    -0.378 N 
ATOM     12  H   UNL A   1      34.446  32.735  33.829  1.00  0.00     0.161 HD
BRANCH  11  13
ATOM     13  C   UNL A   1      36.399  33.060  34.310  1.00  0.00     0.106 C 
ATOM     14  C   UNL A   1      37.389  34.186  34.578  1.00  0.00     0.036 C 
BRANCH  13  15
ATOM     15  C   UNL A   1      36.948  31.782  33.689  1.00  0.00    -0.023 A 
ATOM     16  C   UNL A   1      38.158  27.857  32.310  1.00  0.00     0.047 C 
ATOM     17  C   UNL A   1      37.792  29.233  32.772  1.00  0.00    -0.015 A 
ATOM     18  C   UNL A   1      38.384  29.813  33.898  1.00  0.00     0.007 A 
ATOM     19  C   UNL A   1      36.817  29.957  32.088  1.00  0.00     0.126 A 
ATOM     20  C   UNL A   1      37.967  31.072  34.349  1.00  0.00     0.006 A 
ATOM     21  C   UNL A   1      36.400  31.210  32.530  1.00  0.00     0.045 A 
ATOM     22  F   UNL A   1      36.237  29.425  31.003  1.00  0.00    -0.207 F 
ENDBRANCH  13  15
ENDBRANCH  11  13
ENDBRANCH   6  11
BRANCH  10  23
ATOM     23  N   UNL A   1      33.316  38.395  31.757  1.00  0.00    -0.399 N 
ATOM     24  H   UNL A   1      33.876  39.177  31.974  1.00  0.00     0.156 HD
ATOM     25  H   UNL A   1      32.502  38.509  31.215  1.00  0.00     0.156 HD
ENDBRANCH  10  23
ENDBRANCH   3   5
ENDBRANCH   2   3
ENDBRANCH   1   2
BRANCH   1  26
ATOM     26  C   UNL A   1      33.397  33.064  27.863  1.00  0.00     0.275 C 
BRANCH  26  27
ATOM     27  O   UNL A   1      34.714  32.629  27.498  1.00  0.00    -0.458 OA
BRANCH  27  28
ATOM     28  C   UNL A   1      34.914  31.295  27.504  1.00  0.00     0.338 C 
ATOM     29  O   UNL A   1      34.174  30.416  27.106  1.00  0.00    -0.246 OA
BRANCH  28  30
ATOM     30  C   UNL A   1      36.277  31.070  27.993  1.00  0.00     0.060 A 
ATOM     31  C   UNL A   1      36.804  29.781  27.899  1.00  0.00     0.016 A 
ATOM     32  C   UNL A   1      36.994  32.097  28.597  1.00  0.00     0.016 A 
ATOM     33  C   UNL A   1      38.041  29.489  28.464  1.00  0.00     0.010 A 
ATOM     34  C   UNL A   1      38.256  31.815  29.122  1.00  0.00     0.010 A 
ATOM     35  C   UNL A   1      38.773  30.504  29.092  1.00  0.00    -0.014 A 
BRANCH  35  36
ATOM     36  C   UNL A   1      40.022  30.196  29.832  1.00  0.00     0.031 A 
ATOM     37  C   UNL A   1      40.863  29.036  29.371  1.00  0.00     0.074 A 
ATOM     38  C   UNL A   1      40.405  30.923  30.898  1.00  0.00     0.049 A 
ATOM     39  N   UNL A   1      41.818  28.405  30.001  1.00  0.00    -0.248 NA
ATOM     40  C   UNL A   1      40.571  28.509  28.028  1.00  0.00     0.031 C 
ATOM     41  C   UNL A   1      39.736  32.125  31.396  1.00  0.00     0.029 A 
ATOM     42  N   UNL A   1      41.454  30.741  31.764  1.00  0.00    -0.354 N 
ATOM     43  C   UNL A   1      42.189  27.359  29.162  1.00  0.00     0.074 A 
ATOM     44  C   UNL A   1      41.371  27.455  27.974  1.00  0.00     0.031 C 
ATOM     45  C   UNL A   1      40.394  32.577  32.477  1.00  0.00     0.029 A 
ATOM     46  C   UNL A   1      41.478  31.652  32.793  1.00  0.00     0.049 A 
ATOM     47  H   UNL A   1      42.123  30.027  31.660  1.00  0.00     0.167 HD
ATOM     48  C   UNL A   1      43.116  26.396  29.379  1.00  0.00     0.031 A 
ATOM     49  C   UNL A   1      42.251  31.703  33.897  1.00  0.00     0.031 A 
ATOM     50  C   UNL A   1      43.947  26.336  30.551  1.00  0.00     0.049 A 
ATOM     51  C   UNL A   1      43.260  30.612  34.133  1.00  0.00     0.074 A 
ATOM     52  C   UNL A   1      44.902  25.393  30.887  1.00  0.00     0.029 A 
ATOM     53  N   UNL A   1      43.935  27.278  31.570  1.00  0.00    -0.354 N 
ATOM     54  N   UNL A   1      43.533  29.569  33.387  1.00  0.00    -0.248 NA
ATOM     55  C   UNL A   1      44.048  30.695  35.369  1.00  0.00     0.031 C 
ATOM     56  C   UNL A   1      45.453  25.754  32.123  1.00  0.00     0.029 A 
ATOM     57  C   UNL A   1      44.867  26.942  32.535  1.00  0.00     0.049 A 
ATOM     58  H   UNL A   1      43.349  28.069  31.602  1.00  0.00     0.167 HD
ATOM     59  C   UNL A   1      44.530  28.872  34.061  1.00  0.00     0.074 A 
ATOM     60  C   UNL A   1      44.823  29.623  35.265  1.00  0.00     0.031 C 
ATOM     61  C   UNL A   1      45.141  27.711  33.721  1.00  0.00     0.031 A 
BRANCH  48  62
ATOM     62  C   UNL A   1      43.226  25.302  28.355  1.00  0.00    -0.014 A 
ATOM     63  C   UNL A   1      42.348  24.205  28.350  1.00  0.00     0.010 A 
ATOM     64  C   UNL A   1      44.233  25.379  27.374  1.00  0.00     0.010 A 
ATOM     65  C   UNL A   1      42.502  23.182  27.409  1.00  0.00     0.020 A 
ATOM     66  C   UNL A   1      44.376  24.369  26.418  1.00  0.00     0.020 A 
ATOM     67  C   UNL A   1      43.520  23.267  26.454  1.00  0.00     0.054 A 
BRANCH  67  68
ATOM     68  S   UNL A   1      43.698  21.932  25.238  1.00  0.00     0.124 S 
ATOM     69  O   UNL A   1      43.435  22.631  23.984  1.00  0.00    -0.237 OA
ATOM     70  O   UNL A   1      45.079  21.496  25.435  1.00  0.00    -0.237 OA
ATOM     71  O   UNL A   1      42.680  20.964  25.639  1.00  0.00    -0.744 OA
ENDBRANCH  67  68
ENDBRANCH  48  62
BRANCH  49  72
ATOM     72  C   UNL A   1      42.054  32.793  34.889  1.00  0.00    -0.014 A 
ATOM     73  C   UNL A   1      42.719  34.022  34.743  1.00  0.00     0.010 A 
ATOM     74  C   UNL A   1      41.175  32.616  35.974  1.00  0.00     0.010 A 
ATOM     75  C   UNL A   1      42.512  35.054  35.666  1.00  0.00     0.020 A 
ATOM     76  C   UNL A   1      40.945  33.651  36.883  1.00  0.00     0.020 A 
ATOM     77  C   UNL A   1      41.623  34.863  36.727  1.00  0.00     0.054 A 
BRANCH  77  78
ATOM     78  S   UNL A   1      41.306  36.236  37.871  1.00  0.00     0.124 S 
ATOM     79  O   UNL A   1      41.147  35.540  39.143  1.00  0.00    -0.237 OA
ATOM     80  O   UNL A   1      42.514  37.048  37.740  1.00  0.00    -0.237 OA
ATOM     81  O   UNL A   1      40.093  36.851  37.335  1.00  0.00    -0.744 OA
ENDBRANCH  77  78
ENDBRANCH  49  72
BRANCH  61  82
ATOM     82  C   UNL A   1      46.211  27.204  34.645  1.00  0.00    -0.014 A 
ATOM     83  C   UNL A   1      45.903  26.313  35.687  1.00  0.00     0.010 A 
ATOM     84  C   UNL A   1      47.549  27.581  34.431  1.00  0.00     0.010 A 
ATOM     85  C   UNL A   1      46.916  25.826  36.517  1.00  0.00     0.020 A 
ATOM     86  C   UNL A   1      48.565  27.082  35.246  1.00  0.00     0.020 A 
ATOM     87  C   UNL A   1      48.241  26.217  36.294  1.00  0.00     0.054 A 
BRANCH  87  88
ATOM     88  S   UNL A   1      49.547  25.538  37.353  1.00  0.00     0.124 S 
ATOM     89  O   UNL A   1      50.170  24.554  36.473  1.00  0.00    -0.237 OA
ATOM     90  O   UNL A   1      50.361  26.711  37.659  1.00  0.00    -0.237 OA
ATOM     91  O   UNL A   1      48.814  24.983  38.490  1.00  0.00    -0.744 OA
ENDBRANCH  87  88
ENDBRANCH  61  82
ENDBRANCH  35  36
ENDBRANCH  28  30
ENDBRANCH  27  28
ENDBRANCH  26  27
ENDBRANCH   1  26
TORSDOF 18
ENDMDL
