MODEL 1
REMARK VINA RESULT:     -11.5      0.000      0.000
REMARK SMILES O=C(NCc1ccc(C(=O)OCCOC(=O)c2ccc(-c3c4nc(c(-c5ccc(S(=O)(=O)[O-])cc5)c5ccc([nH]5)c(-c5ccc(S(=O)(=O)[O-])cc5)c5nc(c(-c6ccc(S(=O)(=O)[O-])cc6)c6ccc3[nH]6)C=C5)C=C4)cc2)o1)Nc1ccc(F)c(Cl)c1
REMARK SMILES IDX 12 1 11 2 9 3 10 4 8 5 5 6 6 7 77 8 7 9 4 10 3 11 1 12 2 13
REMARK SMILES IDX 78 14 79 17 80 18 86 19 81 20 84 21 82 22 85 23 83 24 13 25
REMARK SMILES IDX 14 26 15 27 16 28 17 29 18 30 76 31 19 32 75 33 20 34 21 35
REMARK SMILES IDX 22 36 69 37 23 38 74 39 68 40 70 41 24 42 73 43 67 44 66 45
REMARK SMILES IDX 25 47 55 48 36 49 54 50 37 51 40 52 53 53 71 54 38 55 39 56
REMARK SMILES IDX 52 58 72 59 41 60 26 61 27 62 35 63 28 64 34 65 29 66 30 67
REMARK SMILES IDX 31 68 32 69 33 70 56 71 57 72 65 73 58 74 64 75 59 76 60 77
REMARK SMILES IDX 61 78 62 79 63 80 42 81 43 82 51 83 44 84 50 85 45 86 46 87
REMARK SMILES IDX 47 88 48 89 49 90
REMARK H PARENT 3 15 78 16 70 46 40 57
REMARK Flexibility Score: inf
ROOT
ATOM      1  C   UNL A   1      44.252  24.249  24.887  1.00  0.00     0.275 C 
ENDROOT
BRANCH   1   2
ATOM      2  O   UNL A   1      45.118  23.215  24.384  1.00  0.00    -0.456 OA
BRANCH   2   3
ATOM      3  C   UNL A   1      45.765  22.481  25.340  1.00  0.00     0.374 C 
ATOM      4  O   UNL A   1      46.517  22.957  26.179  1.00  0.00    -0.242 OA
BRANCH   3   5
ATOM      5  C   UNL A   1      45.336  21.103  25.279  1.00  0.00     0.211 A 
ATOM      6  C   UNL A   1      43.802  19.525  25.481  1.00  0.00     0.124 A 
ATOM      7  C   UNL A   1      44.882  18.937  24.859  1.00  0.00     0.048 A 
ATOM      8  O   UNL A   1      44.107  20.812  25.804  1.00  0.00    -0.452 OA
ATOM      9  C   UNL A   1      45.863  19.955  24.718  1.00  0.00     0.058 A 
BRANCH   6  10
ATOM     10  C   UNL A   1      42.423  19.086  25.813  1.00  0.00     0.193 C 
BRANCH  10  11
ATOM     11  N   UNL A   1      41.954  19.851  26.940  1.00  0.00    -0.331 N 
ATOM     12  O   UNL A   1      40.816  21.283  28.153  1.00  0.00    -0.248 OA
ATOM     13  C   UNL A   1      40.904  20.694  27.079  1.00  0.00     0.319 C 
ATOM     14  N   UNL A   1      40.030  20.789  26.029  1.00  0.00    -0.308 N 
ATOM     15  H   UNL A   1      42.495  19.741  27.756  1.00  0.00     0.165 HD
ATOM     16  H   UNL A   1      40.173  20.178  25.271  1.00  0.00     0.171 HD
BRANCH  14  17
ATOM     17  C   UNL A   1      38.940  21.686  25.937  1.00  0.00     0.044 A 
ATOM     18  C   UNL A   1      39.123  23.001  26.390  1.00  0.00     0.029 A 
ATOM     19  C   UNL A   1      37.704  21.324  25.396  1.00  0.00     0.049 A 
ATOM     20  C   UNL A   1      38.106  23.951  26.240  1.00  0.00     0.043 A 
ATOM     21  C   UNL A   1      36.699  22.276  25.226  1.00  0.00     0.078 A 
ATOM     22  C   UNL A   1      36.906  23.587  25.637  1.00  0.00     0.141 A 
ATOM     23  Cl  UNL A   1      35.244  21.797  24.445  1.00  0.00    -0.081 Cl
ATOM     24  F   UNL A   1      35.969  24.526  25.443  1.00  0.00    -0.205 F 
ENDBRANCH  14  17
ENDBRANCH  10  11
ENDBRANCH   6  10
ENDBRANCH   3   5
ENDBRANCH   2   3
ENDBRANCH   1   2
BRANCH   1  25
ATOM     25  C   UNL A   1      42.856  23.705  25.220  1.00  0.00     0.275 C 
BRANCH  25  26
ATOM     26  O   UNL A   1      42.251  24.383  26.339  1.00  0.00    -0.458 OA
BRANCH  26  27
ATOM     27  C   UNL A   1      41.772  25.623  26.078  1.00  0.00     0.338 C 
ATOM     28  O   UNL A   1      41.353  26.028  25.005  1.00  0.00    -0.246 OA
BRANCH  27  29
ATOM     29  C   UNL A   1      41.713  26.425  27.314  1.00  0.00     0.060 A 
ATOM     30  C   UNL A   1      40.763  26.070  28.275  1.00  0.00     0.016 A 
ATOM     31  C   UNL A   1      42.505  27.559  27.499  1.00  0.00     0.016 A 
ATOM     32  C   UNL A   1      40.582  26.851  29.413  1.00  0.00     0.010 A 
ATOM     33  C   UNL A   1      42.324  28.347  28.646  1.00  0.00     0.010 A 
ATOM     34  C   UNL A   1      41.344  28.009  29.598  1.00  0.00    -0.014 A 
BRANCH  34  35
ATOM     35  C   UNL A   1      41.053  28.884  30.761  1.00  0.00     0.031 A 
ATOM     36  C   UNL A   1      41.955  28.845  31.964  1.00  0.00     0.074 A 
ATOM     37  C   UNL A   1      40.023  29.751  30.709  1.00  0.00     0.049 A 
ATOM     38  N   UNL A   1      41.929  29.590  33.038  1.00  0.00    -0.248 NA
ATOM     39  C   UNL A   1      43.035  27.846  31.952  1.00  0.00     0.031 C 
ATOM     40  C   UNL A   1      39.118  29.911  29.571  1.00  0.00     0.029 A 
ATOM     41  N   UNL A   1      39.576  30.673  31.623  1.00  0.00    -0.354 N 
ATOM     42  C   UNL A   1      42.963  29.130  33.844  1.00  0.00     0.074 A 
ATOM     43  C   UNL A   1      43.603  28.044  33.134  1.00  0.00     0.031 C 
ATOM     44  C   UNL A   1      38.240  30.891  29.844  1.00  0.00     0.029 A 
ATOM     45  C   UNL A   1      38.494  31.406  31.188  1.00  0.00     0.049 A 
ATOM     46  H   UNL A   1      39.990  30.798  32.508  1.00  0.00     0.167 HD
ATOM     47  C   UNL A   1      43.342  29.569  35.069  1.00  0.00     0.031 A 
ATOM     48  C   UNL A   1      37.800  32.391  31.796  1.00  0.00     0.031 A 
ATOM     49  C   UNL A   1      42.705  30.649  35.771  1.00  0.00     0.049 A 
ATOM     50  C   UNL A   1      38.254  32.856  33.158  1.00  0.00     0.074 A 
ATOM     51  C   UNL A   1      43.028  31.182  37.008  1.00  0.00     0.029 A 
ATOM     52  N   UNL A   1      41.607  31.356  35.304  1.00  0.00    -0.354 N 
ATOM     53  N   UNL A   1      39.286  32.457  33.867  1.00  0.00    -0.248 NA
ATOM     54  C   UNL A   1      37.462  33.917  33.794  1.00  0.00     0.031 C 
ATOM     55  C   UNL A   1      42.101  32.190  37.304  1.00  0.00     0.029 A 
ATOM     56  C   UNL A   1      41.229  32.308  36.235  1.00  0.00     0.049 A 
ATOM     57  H   UNL A   1      41.162  31.203  34.440  1.00  0.00     0.167 HD
ATOM     58  C   UNL A   1      39.283  33.246  35.014  1.00  0.00     0.074 A 
ATOM     59  C   UNL A   1      38.163  34.156  34.893  1.00  0.00     0.031 C 
ATOM     60  C   UNL A   1      40.122  33.217  36.079  1.00  0.00     0.031 A 
BRANCH  47  61
ATOM     61  C   UNL A   1      44.475  28.845  35.745  1.00  0.00    -0.014 A 
ATOM     62  C   UNL A   1      44.235  27.793  36.646  1.00  0.00     0.010 A 
ATOM     63  C   UNL A   1      45.802  29.209  35.453  1.00  0.00     0.010 A 
ATOM     64  C   UNL A   1      45.303  27.143  37.273  1.00  0.00     0.020 A 
ATOM     65  C   UNL A   1      46.872  28.550  36.063  1.00  0.00     0.020 A 
ATOM     66  C   UNL A   1      46.615  27.532  36.983  1.00  0.00     0.054 A 
BRANCH  66  67
ATOM     67  S   UNL A   1      47.984  26.672  37.806  1.00  0.00     0.124 S 
ATOM     68  O   UNL A   1      47.981  25.381  37.121  1.00  0.00    -0.237 OA
ATOM     69  O   UNL A   1      49.128  27.533  37.515  1.00  0.00    -0.237 OA
ATOM     70  O   UNL A   1      47.576  26.635  39.208  1.00  0.00    -0.744 OA
ENDBRANCH  66  67
ENDBRANCH  47  61
BRANCH  48  71
ATOM     71  C   UNL A   1      36.651  33.046  31.100  1.00  0.00    -0.014 A 
ATOM     72  C   UNL A   1      35.372  33.048  31.683  1.00  0.00     0.010 A 
ATOM     73  C   UNL A   1      36.823  33.699  29.867  1.00  0.00     0.010 A 
ATOM     74  C   UNL A   1      34.301  33.707  31.072  1.00  0.00     0.020 A 
ATOM     75  C   UNL A   1      35.760  34.380  29.260  1.00  0.00     0.020 A 
ATOM     76  C   UNL A   1      34.504  34.381  29.870  1.00  0.00     0.054 A 
BRANCH  76  77
ATOM     77  S   UNL A   1      33.118  35.295  29.136  1.00  0.00     0.124 S 
ATOM     78  O   UNL A   1      32.250  35.513  30.289  1.00  0.00    -0.237 OA
ATOM     79  O   UNL A   1      33.771  36.488  28.602  1.00  0.00    -0.237 OA
ATOM     80  O   UNL A   1      32.597  34.376  28.127  1.00  0.00    -0.744 OA
ENDBRANCH  76  77
ENDBRANCH  48  71
BRANCH  60  81
ATOM     81  C   UNL A   1      39.874  34.216  37.178  1.00  0.00    -0.014 A 
ATOM     82  C   UNL A   1      39.105  33.875  38.304  1.00  0.00     0.010 A 
ATOM     83  C   UNL A   1      40.453  35.496  37.102  1.00  0.00     0.010 A 
ATOM     84  C   UNL A   1      38.885  34.810  39.318  1.00  0.00     0.020 A 
ATOM     85  C   UNL A   1      40.255  36.426  38.128  1.00  0.00     0.020 A 
ATOM     86  C   UNL A   1      39.457  36.083  39.221  1.00  0.00     0.054 A 
BRANCH  86  87
ATOM     87  S   UNL A   1      39.192  37.271  40.566  1.00  0.00     0.124 S 
ATOM     88  O   UNL A   1      40.535  37.810  40.764  1.00  0.00    -0.237 OA
ATOM     89  O   UNL A   1      38.221  38.200  39.993  1.00  0.00    -0.237 OA
ATOM     90  O   UNL A   1      38.682  36.445  41.658  1.00  0.00    -0.744 OA
ENDBRANCH  86  87
ENDBRANCH  60  81
ENDBRANCH  34  35
ENDBRANCH  27  29
ENDBRANCH  26  27
ENDBRANCH  25  26
ENDBRANCH   1  25
TORSDOF 17
ENDMDL
MODEL 2
REMARK VINA RESULT:     -11.3      4.741     11.123
REMARK SMILES O=C(NCc1ccc(C(=O)OCCOC(=O)c2ccc(-c3c4nc(c(-c5ccc(S(=O)(=O)[O-])cc5)c5ccc([nH]5)c(-c5ccc(S(=O)(=O)[O-])cc5)c5nc(c(-c6ccc(S(=O)(=O)[O-])cc6)c6ccc3[nH]6)C=C5)C=C4)cc2)o1)Nc1ccc(F)c(Cl)c1
REMARK SMILES IDX 12 1 11 2 9 3 10 4 8 5 5 6 6 7 77 8 7 9 4 10 3 11 1 12 2 13
REMARK SMILES IDX 78 14 79 17 80 18 86 19 81 20 84 21 82 22 85 23 83 24 13 25
REMARK SMILES IDX 14 26 15 27 16 28 17 29 18 30 76 31 19 32 75 33 20 34 21 35
REMARK SMILES IDX 22 36 69 37 23 38 74 39 68 40 70 41 24 42 73 43 67 44 66 45
REMARK SMILES IDX 25 47 55 48 36 49 54 50 37 51 40 52 53 53 71 54 38 55 39 56
REMARK SMILES IDX 52 58 72 59 41 60 26 61 27 62 35 63 28 64 34 65 29 66 30 67
REMARK SMILES IDX 31 68 32 69 33 70 56 71 57 72 65 73 58 74 64 75 59 76 60 77
REMARK SMILES IDX 61 78 62 79 63 80 42 81 43 82 51 83 44 84 50 85 45 86 46 87
REMARK SMILES IDX 47 88 48 89 49 90
REMARK H PARENT 3 15 78 16 70 46 40 57
REMARK Flexibility Score: inf
ROOT
ATOM      1  C   UNL A   1      33.321  28.713  25.488  1.00  0.00     0.275 C 
ENDROOT
BRANCH   1   2
ATOM      2  O   UNL A   1      31.967  29.188  25.373  1.00  0.00    -0.456 OA
BRANCH   2   3
ATOM      3  C   UNL A   1      31.208  28.561  24.424  1.00  0.00     0.374 C 
ATOM      4  O   UNL A   1      30.920  29.052  23.342  1.00  0.00    -0.242 OA
BRANCH   3   5
ATOM      5  C   UNL A   1      30.908  27.211  24.843  1.00  0.00     0.211 A 
ATOM      6  C   UNL A   1      30.725  25.043  24.458  1.00  0.00     0.124 A 
ATOM      7  C   UNL A   1      30.630  25.203  25.823  1.00  0.00     0.048 A 
ATOM      8  O   UNL A   1      30.816  26.263  23.862  1.00  0.00    -0.452 OA
ATOM      9  C   UNL A   1      30.761  26.596  26.072  1.00  0.00     0.058 A 
BRANCH   6  10
ATOM     10  C   UNL A   1      30.797  23.872  23.549  1.00  0.00     0.193 C 
BRANCH  10  11
ATOM     11  N   UNL A   1      31.953  24.019  22.700  1.00  0.00    -0.331 N 
ATOM     12  O   UNL A   1      34.039  24.113  22.025  1.00  0.00    -0.248 OA
ATOM     13  C   UNL A   1      33.270  23.800  22.929  1.00  0.00     0.319 C 
ATOM     14  N   UNL A   1      33.614  23.229  24.125  1.00  0.00    -0.308 N 
ATOM     15  H   UNL A   1      31.749  24.335  21.790  1.00  0.00     0.165 HD
ATOM     16  H   UNL A   1      32.878  22.938  24.710  1.00  0.00     0.171 HD
BRANCH  14  17
ATOM     17  C   UNL A   1      34.932  23.021  24.595  1.00  0.00     0.044 A 
ATOM     18  C   UNL A   1      35.562  24.065  25.288  1.00  0.00     0.029 A 
ATOM     19  C   UNL A   1      35.618  21.817  24.416  1.00  0.00     0.049 A 
ATOM     20  C   UNL A   1      36.831  23.879  25.849  1.00  0.00     0.043 A 
ATOM     21  C   UNL A   1      36.872  21.625  24.995  1.00  0.00     0.078 A 
ATOM     22  C   UNL A   1      37.470  22.650  25.718  1.00  0.00     0.141 A 
ATOM     23  Cl  UNL A   1      37.615  20.081  24.841  1.00  0.00    -0.081 Cl
ATOM     24  F   UNL A   1      38.655  22.471  26.318  1.00  0.00    -0.205 F 
ENDBRANCH  14  17
ENDBRANCH  10  11
ENDBRANCH   6  10
ENDBRANCH   3   5
ENDBRANCH   2   3
ENDBRANCH   1   2
BRANCH   1  25
ATOM     25  C   UNL A   1      33.750  28.574  26.955  1.00  0.00     0.275 C 
BRANCH  25  26
ATOM     26  O   UNL A   1      33.403  29.729  27.744  1.00  0.00    -0.458 OA
BRANCH  26  27
ATOM     27  C   UNL A   1      34.344  30.702  27.796  1.00  0.00     0.338 C 
ATOM     28  O   UNL A   1      34.147  31.907  27.758  1.00  0.00    -0.246 OA
BRANCH  27  29
ATOM     29  C   UNL A   1      35.680  30.117  28.018  1.00  0.00     0.060 A 
ATOM     30  C   UNL A   1      35.968  29.622  29.292  1.00  0.00     0.016 A 
ATOM     31  C   UNL A   1      36.668  30.131  27.033  1.00  0.00     0.016 A 
ATOM     32  C   UNL A   1      37.244  29.158  29.598  1.00  0.00     0.010 A 
ATOM     33  C   UNL A   1      37.954  29.663  27.340  1.00  0.00     0.010 A 
ATOM     34  C   UNL A   1      38.255  29.196  28.633  1.00  0.00    -0.014 A 
BRANCH  34  35
ATOM     35  C   UNL A   1      39.633  28.802  29.018  1.00  0.00     0.031 A 
ATOM     36  C   UNL A   1      40.464  29.733  29.858  1.00  0.00     0.074 A 
ATOM     37  C   UNL A   1      40.111  27.592  28.668  1.00  0.00     0.049 A 
ATOM     38  N   UNL A   1      41.649  29.541  30.376  1.00  0.00    -0.248 NA
ATOM     39  C   UNL A   1      39.879  31.048  30.167  1.00  0.00     0.031 C 
ATOM     40  C   UNL A   1      39.371  26.589  27.901  1.00  0.00     0.029 A 
ATOM     41  N   UNL A   1      41.318  26.991  28.927  1.00  0.00    -0.354 N 
ATOM     42  C   UNL A   1      41.968  30.718  31.042  1.00  0.00     0.074 A 
ATOM     43  C   UNL A   1      40.849  31.619  30.868  1.00  0.00     0.031 C 
ATOM     44  C   UNL A   1      40.132  25.488  27.774  1.00  0.00     0.029 A 
ATOM     45  C   UNL A   1      41.423  25.716  28.417  1.00  0.00     0.049 A 
ATOM     46  H   UNL A   1      42.041  27.431  29.429  1.00  0.00     0.167 HD
ATOM     47  C   UNL A   1      43.094  31.023  31.731  1.00  0.00     0.031 A 
ATOM     48  C   UNL A   1      42.438  24.828  28.478  1.00  0.00     0.031 A 
ATOM     49  C   UNL A   1      44.203  30.125  31.903  1.00  0.00     0.049 A 
ATOM     50  C   UNL A   1      43.675  25.202  29.258  1.00  0.00     0.074 A 
ATOM     51  C   UNL A   1      45.380  30.333  32.601  1.00  0.00     0.029 A 
ATOM     52  N   UNL A   1      44.277  28.850  31.362  1.00  0.00    -0.354 N 
ATOM     53  N   UNL A   1      43.921  26.293  29.947  1.00  0.00    -0.248 NA
ATOM     54  C   UNL A   1      44.764  24.216  29.285  1.00  0.00     0.031 C 
ATOM     55  C   UNL A   1      46.183  29.195  32.452  1.00  0.00     0.029 A 
ATOM     56  C   UNL A   1      45.487  28.266  31.696  1.00  0.00     0.049 A 
ATOM     57  H   UNL A   1      43.575  28.424  30.821  1.00  0.00     0.167 HD
ATOM     58  C   UNL A   1      45.178  26.105  30.515  1.00  0.00     0.074 A 
ATOM     59  C   UNL A   1      45.628  24.791  30.109  1.00  0.00     0.031 C 
ATOM     60  C   UNL A   1      45.901  26.946  31.296  1.00  0.00     0.031 A 
BRANCH  47  61
ATOM     61  C   UNL A   1      43.198  32.407  32.313  1.00  0.00    -0.014 A 
ATOM     62  C   UNL A   1      42.775  32.681  33.626  1.00  0.00     0.010 A 
ATOM     63  C   UNL A   1      43.751  33.443  31.540  1.00  0.00     0.010 A 
ATOM     64  C   UNL A   1      42.869  33.977  34.142  1.00  0.00     0.020 A 
ATOM     65  C   UNL A   1      43.864  34.737  32.058  1.00  0.00     0.020 A 
ATOM     66  C   UNL A   1      43.405  34.999  33.351  1.00  0.00     0.054 A 
BRANCH  66  67
ATOM     67  S   UNL A   1      43.520  36.672  34.042  1.00  0.00     0.124 S 
ATOM     68  O   UNL A   1      42.184  36.855  34.606  1.00  0.00    -0.237 OA
ATOM     69  O   UNL A   1      44.600  36.546  35.016  1.00  0.00    -0.237 OA
ATOM     70  O   UNL A   1      43.824  37.505  32.881  1.00  0.00    -0.744 OA
ENDBRANCH  66  67
ENDBRANCH  47  61
BRANCH  48  71
ATOM     71  C   UNL A   1      42.304  23.483  27.842  1.00  0.00    -0.014 A 
ATOM     72  C   UNL A   1      42.877  23.228  26.584  1.00  0.00     0.010 A 
ATOM     73  C   UNL A   1      41.631  22.433  28.492  1.00  0.00     0.010 A 
ATOM     74  C   UNL A   1      42.811  21.959  26.003  1.00  0.00     0.020 A 
ATOM     75  C   UNL A   1      41.578  21.153  27.926  1.00  0.00     0.020 A 
ATOM     76  C   UNL A   1      42.172  20.923  26.684  1.00  0.00     0.054 A 
BRANCH  76  77
ATOM     77  S   UNL A   1      42.167  19.266  25.946  1.00  0.00     0.124 S 
ATOM     78  O   UNL A   1      43.032  19.444  24.784  1.00  0.00    -0.237 OA
ATOM     79  O   UNL A   1      42.711  18.438  27.019  1.00  0.00    -0.237 OA
ATOM     80  O   UNL A   1      40.757  19.030  25.643  1.00  0.00    -0.744 OA
ENDBRANCH  76  77
ENDBRANCH  48  71
BRANCH  60  81
ATOM     81  C   UNL A   1      47.240  26.454  31.780  1.00  0.00    -0.014 A 
ATOM     82  C   UNL A   1      48.410  26.697  31.041  1.00  0.00     0.010 A 
ATOM     83  C   UNL A   1      47.332  25.777  33.010  1.00  0.00     0.010 A 
ATOM     84  C   UNL A   1      49.646  26.237  31.502  1.00  0.00     0.020 A 
ATOM     85  C   UNL A   1      48.570  25.338  33.487  1.00  0.00     0.020 A 
ATOM     86  C   UNL A   1      49.717  25.555  32.722  1.00  0.00     0.054 A 
BRANCH  86  87
ATOM     87  S   UNL A   1      51.335  25.000  33.324  1.00  0.00     0.124 S 
ATOM     88  O   UNL A   1      51.910  26.239  33.839  1.00  0.00    -0.237 OA
ATOM     89  O   UNL A   1      50.984  24.004  34.334  1.00  0.00    -0.237 OA
ATOM     90  O   UNL A   1      51.980  24.461  32.129  1.00  0.00    -0.744 OA
ENDBRANCH  86  87
ENDBRANCH  60  81
ENDBRANCH  34  35
ENDBRANCH  27  29
ENDBRANCH  26  27
ENDBRANCH  25  26
ENDBRANCH   1  25
TORSDOF 17
ENDMDL
MODEL 3
REMARK VINA RESULT:     -11.2      5.979     14.063
REMARK SMILES O=C(NCc1ccc(C(=O)OCCOC(=O)c2ccc(-c3c4nc(c(-c5ccc(S(=O)(=O)[O-])cc5)c5ccc([nH]5)c(-c5ccc(S(=O)(=O)[O-])cc5)c5nc(c(-c6ccc(S(=O)(=O)[O-])cc6)c6ccc3[nH]6)C=C5)C=C4)cc2)o1)Nc1ccc(F)c(Cl)c1
REMARK SMILES IDX 12 1 11 2 9 3 10 4 8 5 5 6 6 7 77 8 7 9 4 10 3 11 1 12 2 13
REMARK SMILES IDX 78 14 79 17 80 18 86 19 81 20 84 21 82 22 85 23 83 24 13 25
REMARK SMILES IDX 14 26 15 27 16 28 17 29 18 30 76 31 19 32 75 33 20 34 21 35
REMARK SMILES IDX 22 36 69 37 23 38 74 39 68 40 70 41 24 42 73 43 67 44 66 45
REMARK SMILES IDX 25 47 55 48 36 49 54 50 37 51 40 52 53 53 71 54 38 55 39 56
REMARK SMILES IDX 52 58 72 59 41 60 26 61 27 62 35 63 28 64 34 65 29 66 30 67
REMARK SMILES IDX 31 68 32 69 33 70 56 71 57 72 65 73 58 74 64 75 59 76 60 77
REMARK SMILES IDX 61 78 62 79 63 80 42 81 43 82 51 83 44 84 50 85 45 86 46 87
REMARK SMILES IDX 47 88 48 89 49 90
REMARK H PARENT 3 15 78 16 70 46 40 57
REMARK Flexibility Score: inf
ROOT
ATOM      1  C   UNL A   1      34.419  32.145  28.765  1.00  0.00     0.275 C 
ENDROOT
BRANCH   1   2
ATOM      2  O   UNL A   1      34.393  33.472  28.208  1.00  0.00    -0.456 OA
BRANCH   2   3
ATOM      3  C   UNL A   1      33.155  34.047  28.132  1.00  0.00     0.374 C 
ATOM      4  O   UNL A   1      32.223  33.588  27.486  1.00  0.00    -0.242 OA
BRANCH   3   5
ATOM      5  C   UNL A   1      33.087  35.193  29.010  1.00  0.00     0.211 A 
ATOM      6  C   UNL A   1      32.903  36.109  31.013  1.00  0.00     0.124 A 
ATOM      7  C   UNL A   1      33.264  37.124  30.155  1.00  0.00     0.048 A 
ATOM      8  O   UNL A   1      32.721  34.959  30.307  1.00  0.00    -0.452 OA
ATOM      9  C   UNL A   1      33.395  36.533  28.869  1.00  0.00     0.058 A 
BRANCH   6  10
ATOM     10  C   UNL A   1      32.728  35.999  32.483  1.00  0.00     0.193 C 
BRANCH  10  11
ATOM     11  N   UNL A   1      33.107  34.670  32.894  1.00  0.00    -0.331 N 
ATOM     12  O   UNL A   1      34.321  32.894  33.327  1.00  0.00    -0.248 OA
ATOM     13  C   UNL A   1      34.321  34.092  33.056  1.00  0.00     0.319 C 
ATOM     14  N   UNL A   1      35.422  34.896  32.933  1.00  0.00    -0.308 N 
ATOM     15  H   UNL A   1      32.347  34.077  33.092  1.00  0.00     0.165 HD
ATOM     16  H   UNL A   1      35.262  35.859  32.815  1.00  0.00     0.171 HD
BRANCH  14  17
ATOM     17  C   UNL A   1      36.769  34.464  32.959  1.00  0.00     0.044 A 
ATOM     18  C   UNL A   1      37.319  34.079  34.191  1.00  0.00     0.029 A 
ATOM     19  C   UNL A   1      37.563  34.387  31.812  1.00  0.00     0.049 A 
ATOM     20  C   UNL A   1      38.617  33.561  34.257  1.00  0.00     0.043 A 
ATOM     21  C   UNL A   1      38.848  33.850  31.875  1.00  0.00     0.078 A 
ATOM     22  C   UNL A   1      39.367  33.429  33.094  1.00  0.00     0.141 A 
ATOM     23  Cl  UNL A   1      39.731  33.670  30.410  1.00  0.00    -0.081 Cl
ATOM     24  F   UNL A   1      40.584  32.871  33.168  1.00  0.00    -0.205 F 
ENDBRANCH  14  17
ENDBRANCH  10  11
ENDBRANCH   6  10
ENDBRANCH   3   5
ENDBRANCH   2   3
ENDBRANCH   1   2
BRANCH   1  25
ATOM     25  C   UNL A   1      35.290  32.077  30.027  1.00  0.00     0.275 C 
BRANCH  25  26
ATOM     26  O   UNL A   1      35.884  30.777  30.220  1.00  0.00    -0.458 OA
BRANCH  26  27
ATOM     27  C   UNL A   1      36.863  30.719  31.153  1.00  0.00     0.338 C 
ATOM     28  O   UNL A   1      36.750  30.971  32.343  1.00  0.00    -0.246 OA
BRANCH  27  29
ATOM     29  C   UNL A   1      38.108  30.192  30.563  1.00  0.00     0.060 A 
ATOM     30  C   UNL A   1      39.114  29.771  31.435  1.00  0.00     0.016 A 
ATOM     31  C   UNL A   1      38.332  30.191  29.185  1.00  0.00     0.016 A 
ATOM     32  C   UNL A   1      40.352  29.367  30.945  1.00  0.00     0.010 A 
ATOM     33  C   UNL A   1      39.579  29.783  28.689  1.00  0.00     0.010 A 
ATOM     34  C   UNL A   1      40.604  29.391  29.570  1.00  0.00    -0.014 A 
BRANCH  34  35
ATOM     35  C   UNL A   1      41.968  29.065  29.081  1.00  0.00     0.031 A 
ATOM     36  C   UNL A   1      42.251  27.695  28.529  1.00  0.00     0.074 A 
ATOM     37  C   UNL A   1      42.926  30.012  29.078  1.00  0.00     0.049 A 
ATOM     38  N   UNL A   1      43.342  27.240  27.970  1.00  0.00    -0.248 NA
ATOM     39  C   UNL A   1      41.158  26.711  28.602  1.00  0.00     0.031 C 
ATOM     40  C   UNL A   1      42.746  31.389  29.540  1.00  0.00     0.029 A 
ATOM     41  N   UNL A   1      44.232  29.971  28.655  1.00  0.00    -0.354 N 
ATOM     42  C   UNL A   1      43.083  25.912  27.656  1.00  0.00     0.074 A 
ATOM     43  C   UNL A   1      41.729  25.633  28.082  1.00  0.00     0.031 C 
ATOM     44  C   UNL A   1      43.890  32.067  29.351  1.00  0.00     0.029 A 
ATOM     45  C   UNL A   1      44.896  31.169  28.788  1.00  0.00     0.049 A 
ATOM     46  H   UNL A   1      44.653  29.159  28.290  1.00  0.00     0.167 HD
ATOM     47  C   UNL A   1      43.903  25.004  27.073  1.00  0.00     0.031 A 
ATOM     48  C   UNL A   1      46.165  31.507  28.477  1.00  0.00     0.031 A 
ATOM     49  C   UNL A   1      45.248  25.285  26.651  1.00  0.00     0.049 A 
ATOM     50  C   UNL A   1      47.046  30.471  27.824  1.00  0.00     0.074 A 
ATOM     51  C   UNL A   1      46.151  24.438  26.031  1.00  0.00     0.029 A 
ATOM     52  N   UNL A   1      45.888  26.504  26.815  1.00  0.00    -0.354 N 
ATOM     53  N   UNL A   1      46.753  29.242  27.465  1.00  0.00    -0.248 NA
ATOM     54  C   UNL A   1      48.426  30.873  27.517  1.00  0.00     0.031 C 
ATOM     55  C   UNL A   1      47.351  25.137  25.852  1.00  0.00     0.029 A 
ATOM     56  C   UNL A   1      47.180  26.428  26.325  1.00  0.00     0.049 A 
ATOM     57  H   UNL A   1      45.485  27.304  27.221  1.00  0.00     0.167 HD
ATOM     58  C   UNL A   1      47.901  28.741  26.859  1.00  0.00     0.074 A 
ATOM     59  C   UNL A   1      48.883  29.805  26.880  1.00  0.00     0.031 C 
ATOM     60  C   UNL A   1      48.131  27.510  26.339  1.00  0.00     0.031 A 
BRANCH  47  61
ATOM     61  C   UNL A   1      43.376  23.605  26.899  1.00  0.00    -0.014 A 
ATOM     62  C   UNL A   1      43.037  23.105  25.628  1.00  0.00     0.010 A 
ATOM     63  C   UNL A   1      43.243  22.770  28.022  1.00  0.00     0.010 A 
ATOM     64  C   UNL A   1      42.536  21.807  25.492  1.00  0.00     0.020 A 
ATOM     65  C   UNL A   1      42.761  21.465  27.888  1.00  0.00     0.020 A 
ATOM     66  C   UNL A   1      42.393  20.998  26.624  1.00  0.00     0.054 A 
BRANCH  66  67
ATOM     67  S   UNL A   1      41.746  19.316  26.423  1.00  0.00     0.124 S 
ATOM     68  O   UNL A   1      42.655  18.763  25.420  1.00  0.00    -0.237 OA
ATOM     69  O   UNL A   1      41.877  18.755  27.765  1.00  0.00    -0.237 OA
ATOM     70  O   UNL A   1      40.373  19.526  25.969  1.00  0.00    -0.744 OA
ENDBRANCH  66  67
ENDBRANCH  47  61
BRANCH  48  71
ATOM     71  C   UNL A   1      46.656  32.899  28.714  1.00  0.00    -0.014 A 
ATOM     72  C   UNL A   1      46.712  33.825  27.658  1.00  0.00     0.010 A 
ATOM     73  C   UNL A   1      47.044  33.326  29.996  1.00  0.00     0.010 A 
ATOM     74  C   UNL A   1      47.113  35.146  27.875  1.00  0.00     0.020 A 
ATOM     75  C   UNL A   1      47.427  34.654  30.226  1.00  0.00     0.020 A 
ATOM     76  C   UNL A   1      47.455  35.558  29.162  1.00  0.00     0.054 A 
BRANCH  76  77
ATOM     77  S   UNL A   1      47.896  37.297  29.434  1.00  0.00     0.124 S 
ATOM     78  O   UNL A   1      49.025  37.188  30.353  1.00  0.00    -0.237 OA
ATOM     79  O   UNL A   1      48.220  37.758  28.087  1.00  0.00    -0.237 OA
ATOM     80  O   UNL A   1      46.681  37.874  30.005  1.00  0.00    -0.744 OA
ENDBRANCH  76  77
ENDBRANCH  48  71
BRANCH  60  81
ATOM     81  C   UNL A   1      49.485  27.262  25.728  1.00  0.00    -0.014 A 
ATOM     82  C   UNL A   1      50.545  26.759  26.502  1.00  0.00     0.010 A 
ATOM     83  C   UNL A   1      49.686  27.496  24.356  1.00  0.00     0.010 A 
ATOM     84  C   UNL A   1      51.796  26.531  25.923  1.00  0.00     0.020 A 
ATOM     85  C   UNL A   1      50.929  27.245  23.768  1.00  0.00     0.020 A 
ATOM     86  C   UNL A   1      51.981  26.780  24.559  1.00  0.00     0.054 A 
BRANCH  86  87
ATOM     87  S   UNL A   1      53.601  26.442  23.816  1.00  0.00     0.124 S 
ATOM     88  O   UNL A   1      54.292  27.715  24.000  1.00  0.00    -0.237 OA
ATOM     89  O   UNL A   1      54.105  25.333  24.624  1.00  0.00    -0.237 OA
ATOM     90  O   UNL A   1      53.280  26.098  22.433  1.00  0.00    -0.744 OA
ENDBRANCH  86  87
ENDBRANCH  60  81
ENDBRANCH  34  35
ENDBRANCH  27  29
ENDBRANCH  26  27
ENDBRANCH  25  26
ENDBRANCH   1  25
TORSDOF 17
ENDMDL
