MODEL 1
REMARK VINA RESULT:     -11.3      0.000      0.000
REMARK SMILES O=C(Cc1ccccc1-c1ccn(C(F)F)c(=O)c1)OCCOC(=O)c1ccc(-c2c3nc(c(-c4ccc(S(=O)(=O)[O-])cc4)c4ccc([nH]4)c(-c4ccc(S(=O)(=O)[O-])cc4)c4nc(c(-c5ccc(S(=O)(=O)[O-])cc5)c5ccc2[nH]5)C=C4)C=C3)cc1
REMARK SMILES IDX 21 1 20 2 2 3 1 4 3 5 4 6 5 7 9 8 6 9 8 10 7 11 10 12 11 13
REMARK SMILES IDX 19 14 12 15 17 16 13 17 18 18 14 19 15 20 16 21 22 22 23 23
REMARK SMILES IDX 24 24 25 25 26 26 27 27 85 28 28 29 84 30 29 31 30 32 31 33
REMARK SMILES IDX 78 34 32 35 83 36 77 37 79 38 33 39 82 40 76 41 75 42 34 44
REMARK SMILES IDX 64 45 45 46 63 47 46 48 49 49 62 50 80 51 47 52 48 53 61 55
REMARK SMILES IDX 81 56 50 57 35 58 36 59 44 60 37 61 43 62 38 63 39 64 40 65
REMARK SMILES IDX 41 66 42 67 65 68 66 69 74 70 67 71 73 72 68 73 69 74 70 75
REMARK SMILES IDX 71 76 72 77 51 78 52 79 60 80 53 81 59 82 54 83 55 84 56 85
REMARK SMILES IDX 57 86 58 87
REMARK H PARENT 79 43 49 54
REMARK Flexibility Score: inf
ROOT
ATOM      1  C   UNL A   1      38.352  22.237  25.635  1.00  0.00     0.274 C 
ENDROOT
BRANCH   1   2
ATOM      2  O   UNL A   1      37.493  23.218  25.029  1.00  0.00    -0.462 OA
BRANCH   2   3
ATOM      3  C   UNL A   1      36.365  22.989  24.317  1.00  0.00     0.310 C 
ATOM      4  O   UNL A   1      36.443  23.015  23.089  1.00  0.00    -0.252 OA
BRANCH   3   5
ATOM      5  C   UNL A   1      35.046  22.745  25.029  1.00  0.00     0.158 C 
BRANCH   5   6
ATOM      6  C   UNL A   1      34.385  21.405  24.773  1.00  0.00    -0.029 A 
ATOM      7  C   UNL A   1      35.204  20.257  24.801  1.00  0.00     0.005 A 
ATOM      8  C   UNL A   1      32.989  21.237  24.603  1.00  0.00    -0.014 A 
ATOM      9  C   UNL A   1      34.676  18.979  24.640  1.00  0.00     0.000 A 
ATOM     10  C   UNL A   1      32.479  19.938  24.413  1.00  0.00     0.009 A 
ATOM     11  C   UNL A   1      33.314  18.820  24.434  1.00  0.00     0.001 A 
BRANCH   8  12
ATOM     12  C   UNL A   1      32.014  22.349  24.735  1.00  0.00    -0.011 A 
ATOM     13  C   UNL A   1      31.660  23.251  23.657  1.00  0.00     0.027 A 
ATOM     14  C   UNL A   1      31.474  22.571  25.948  1.00  0.00     0.080 A 
ATOM     15  C   UNL A   1      31.026  24.402  23.907  1.00  0.00     0.095 A 
ATOM     16  C   UNL A   1      30.606  23.757  26.197  1.00  0.00     0.255 A 
ATOM     17  N   UNL A   1      30.561  24.688  25.174  1.00  0.00    -0.258 N 
ATOM     18  O   UNL A   1      30.029  23.854  27.273  1.00  0.00    -0.269 OA
BRANCH  17  19
ATOM     19  C   UNL A   1      29.960  25.959  25.477  1.00  0.00     0.451 C 
ATOM     20  F   UNL A   1      30.616  26.603  26.469  1.00  0.00    -0.185 F 
ATOM     21  F   UNL A   1      29.946  26.755  24.380  1.00  0.00    -0.185 F 
ENDBRANCH  17  19
ENDBRANCH   8  12
ENDBRANCH   5   6
ENDBRANCH   3   5
ENDBRANCH   2   3
ENDBRANCH   1   2
BRANCH   1  22
ATOM     22  C   UNL A   1      39.381  22.871  26.570  1.00  0.00     0.275 C 
BRANCH  22  23
ATOM     23  O   UNL A   1      39.320  24.306  26.487  1.00  0.00    -0.458 OA
BRANCH  23  24
ATOM     24  C   UNL A   1      40.500  24.957  26.642  1.00  0.00     0.338 C 
ATOM     25  O   UNL A   1      41.466  24.893  25.900  1.00  0.00    -0.246 OA
BRANCH  24  26
ATOM     26  C   UNL A   1      40.378  25.928  27.756  1.00  0.00     0.060 A 
ATOM     27  C   UNL A   1      41.270  27.010  27.788  1.00  0.00     0.016 A 
ATOM     28  C   UNL A   1      39.384  25.813  28.733  1.00  0.00     0.016 A 
ATOM     29  C   UNL A   1      41.172  27.970  28.797  1.00  0.00     0.010 A 
ATOM     30  C   UNL A   1      39.299  26.766  29.753  1.00  0.00     0.010 A 
ATOM     31  C   UNL A   1      40.200  27.841  29.800  1.00  0.00    -0.014 A 
BRANCH  31  32
ATOM     32  C   UNL A   1      40.209  28.758  30.966  1.00  0.00     0.031 A 
ATOM     33  C   UNL A   1      39.205  29.873  31.020  1.00  0.00     0.074 A 
ATOM     34  C   UNL A   1      41.102  28.614  31.961  1.00  0.00     0.049 A 
ATOM     35  N   UNL A   1      39.032  30.786  31.941  1.00  0.00    -0.248 NA
ATOM     36  C   UNL A   1      38.286  29.985  29.876  1.00  0.00     0.031 C 
ATOM     37  C   UNL A   1      42.119  27.569  32.031  1.00  0.00     0.029 A 
ATOM     38  N   UNL A   1      41.283  29.337  33.115  1.00  0.00    -0.354 N 
ATOM     39  C   UNL A   1      38.004  31.595  31.479  1.00  0.00     0.074 A 
ATOM     40  C   UNL A   1      37.588  31.065  30.198  1.00  0.00     0.031 C 
ATOM     41  C   UNL A   1      42.791  27.693  33.189  1.00  0.00     0.029 A 
ATOM     42  C   UNL A   1      42.275  28.841  33.929  1.00  0.00     0.049 A 
ATOM     43  H   UNL A   1      40.753  30.136  33.337  1.00  0.00     0.167 HD
ATOM     44  C   UNL A   1      37.467  32.694  32.059  1.00  0.00     0.031 A 
ATOM     45  C   UNL A   1      42.715  29.262  35.133  1.00  0.00     0.031 A 
ATOM     46  C   UNL A   1      37.893  33.239  33.319  1.00  0.00     0.049 A 
ATOM     47  C   UNL A   1      42.102  30.492  35.755  1.00  0.00     0.074 A 
ATOM     48  C   UNL A   1      37.403  34.352  33.982  1.00  0.00     0.029 A 
ATOM     49  N   UNL A   1      38.916  32.727  34.101  1.00  0.00    -0.354 N 
ATOM     50  N   UNL A   1      41.107  31.229  35.321  1.00  0.00    -0.248 NA
ATOM     51  C   UNL A   1      42.689  30.964  37.019  1.00  0.00     0.031 C 
ATOM     52  C   UNL A   1      38.168  34.546  35.134  1.00  0.00     0.029 A 
ATOM     53  C   UNL A   1      39.097  33.521  35.221  1.00  0.00     0.049 A 
ATOM     54  H   UNL A   1      39.437  31.918  33.892  1.00  0.00     0.167 HD
ATOM     55  C   UNL A   1      40.951  32.248  36.256  1.00  0.00     0.074 A 
ATOM     56  C   UNL A   1      41.931  32.017  37.296  1.00  0.00     0.031 C 
ATOM     57  C   UNL A   1      40.084  33.290  36.245  1.00  0.00     0.031 A 
BRANCH  44  58
ATOM     58  C   UNL A   1      36.400  33.422  31.293  1.00  0.00    -0.014 A 
ATOM     59  C   UNL A   1      36.575  33.771  29.943  1.00  0.00     0.010 A 
ATOM     60  C   UNL A   1      35.189  33.739  31.935  1.00  0.00     0.010 A 
ATOM     61  C   UNL A   1      35.570  34.456  29.257  1.00  0.00     0.020 A 
ATOM     62  C   UNL A   1      34.172  34.403  31.246  1.00  0.00     0.020 A 
ATOM     63  C   UNL A   1      34.377  34.773  29.915  1.00  0.00     0.054 A 
BRANCH  63  64
ATOM     64  S   UNL A   1      33.082  35.651  28.999  1.00  0.00     0.124 S 
ATOM     65  O   UNL A   1      32.480  34.571  28.220  1.00  0.00    -0.237 OA
ATOM     66  O   UNL A   1      32.245  36.196  30.066  1.00  0.00    -0.237 OA
ATOM     67  O   UNL A   1      33.819  36.644  28.221  1.00  0.00    -0.744 OA
ENDBRANCH  63  64
ENDBRANCH  44  58
BRANCH  45  68
ATOM     68  C   UNL A   1      43.818  28.540  35.832  1.00  0.00    -0.014 A 
ATOM     69  C   UNL A   1      45.162  28.874  35.588  1.00  0.00     0.010 A 
ATOM     70  C   UNL A   1      43.532  27.492  36.725  1.00  0.00     0.010 A 
ATOM     71  C   UNL A   1      46.199  28.156  36.197  1.00  0.00     0.020 A 
ATOM     72  C   UNL A   1      44.562  26.791  37.360  1.00  0.00     0.020 A 
ATOM     73  C   UNL A   1      45.891  27.116  37.078  1.00  0.00     0.054 A 
BRANCH  73  74
ATOM     74  S   UNL A   1      47.239  26.209  37.888  1.00  0.00     0.124 S 
ATOM     75  O   UNL A   1      46.522  25.431  38.893  1.00  0.00    -0.237 OA
ATOM     76  O   UNL A   1      47.821  25.440  36.790  1.00  0.00    -0.237 OA
ATOM     77  O   UNL A   1      48.096  27.272  38.413  1.00  0.00    -0.744 OA
ENDBRANCH  73  74
ENDBRANCH  45  68
BRANCH  57  78
ATOM     78  C   UNL A   1      40.154  34.277  37.381  1.00  0.00    -0.014 A 
ATOM     79  C   UNL A   1      40.987  35.408  37.303  1.00  0.00     0.010 A 
ATOM     80  C   UNL A   1      39.306  34.127  38.494  1.00  0.00     0.010 A 
ATOM     81  C   UNL A   1      40.979  36.364  38.322  1.00  0.00     0.020 A 
ATOM     82  C   UNL A   1      39.279  35.094  39.505  1.00  0.00     0.020 A 
ATOM     83  C   UNL A   1      40.121  36.203  39.415  1.00  0.00     0.054 A 
BRANCH  83  84
ATOM     84  S   UNL A   1      40.073  37.499  40.685  1.00  0.00     0.124 S 
ATOM     85  O   UNL A   1      41.458  37.527  41.146  1.00  0.00    -0.237 OA
ATOM     86  O   UNL A   1      39.637  38.672  39.932  1.00  0.00    -0.237 OA
ATOM     87  O   UNL A   1      39.104  36.997  41.656  1.00  0.00    -0.744 OA
ENDBRANCH  83  84
ENDBRANCH  57  78
ENDBRANCH  31  32
ENDBRANCH  24  26
ENDBRANCH  23  24
ENDBRANCH  22  23
ENDBRANCH   1  22
TORSDOF 17
ENDMDL
MODEL 2
REMARK VINA RESULT:     -11.1      6.821     11.743
REMARK SMILES O=C(Cc1ccccc1-c1ccn(C(F)F)c(=O)c1)OCCOC(=O)c1ccc(-c2c3nc(c(-c4ccc(S(=O)(=O)[O-])cc4)c4ccc([nH]4)c(-c4ccc(S(=O)(=O)[O-])cc4)c4nc(c(-c5ccc(S(=O)(=O)[O-])cc5)c5ccc2[nH]5)C=C4)C=C3)cc1
REMARK SMILES IDX 21 1 20 2 2 3 1 4 3 5 4 6 5 7 9 8 6 9 8 10 7 11 10 12 11 13
REMARK SMILES IDX 19 14 12 15 17 16 13 17 18 18 14 19 15 20 16 21 22 22 23 23
REMARK SMILES IDX 24 24 25 25 26 26 27 27 85 28 28 29 84 30 29 31 30 32 31 33
REMARK SMILES IDX 78 34 32 35 83 36 77 37 79 38 33 39 82 40 76 41 75 42 34 44
REMARK SMILES IDX 64 45 45 46 63 47 46 48 49 49 62 50 80 51 47 52 48 53 61 55
REMARK SMILES IDX 81 56 50 57 35 58 36 59 44 60 37 61 43 62 38 63 39 64 40 65
REMARK SMILES IDX 41 66 42 67 65 68 66 69 74 70 67 71 73 72 68 73 69 74 70 75
REMARK SMILES IDX 71 76 72 77 51 78 52 79 60 80 53 81 59 82 54 83 55 84 56 85
REMARK SMILES IDX 57 86 58 87
REMARK H PARENT 79 43 49 54
REMARK Flexibility Score: inf
ROOT
ATOM      1  C   UNL A   1      34.827  31.438  27.953  1.00  0.00     0.274 C 
ENDROOT
BRANCH   1   2
ATOM      2  O   UNL A   1      33.620  30.708  27.671  1.00  0.00    -0.462 OA
BRANCH   2   3
ATOM      3  C   UNL A   1      33.522  29.464  27.148  1.00  0.00     0.310 C 
ATOM      4  O   UNL A   1      34.542  28.945  26.696  1.00  0.00    -0.252 OA
BRANCH   3   5
ATOM      5  C   UNL A   1      32.178  28.759  27.096  1.00  0.00     0.158 C 
BRANCH   5   6
ATOM      6  C   UNL A   1      31.619  28.484  25.713  1.00  0.00    -0.029 A 
ATOM      7  C   UNL A   1      31.193  29.590  24.950  1.00  0.00     0.005 A 
ATOM      8  C   UNL A   1      31.590  27.199  25.119  1.00  0.00    -0.014 A 
ATOM      9  C   UNL A   1      30.726  29.442  23.647  1.00  0.00     0.000 A 
ATOM     10  C   UNL A   1      31.086  27.067  23.810  1.00  0.00     0.009 A 
ATOM     11  C   UNL A   1      30.661  28.178  23.081  1.00  0.00     0.001 A 
BRANCH   8  12
ATOM     12  C   UNL A   1      32.177  25.994  25.758  1.00  0.00    -0.011 A 
ATOM     13  C   UNL A   1      33.581  25.643  25.694  1.00  0.00     0.027 A 
ATOM     14  C   UNL A   1      31.340  25.143  26.381  1.00  0.00     0.080 A 
ATOM     15  C   UNL A   1      33.995  24.412  26.015  1.00  0.00     0.095 A 
ATOM     16  C   UNL A   1      31.828  23.839  26.914  1.00  0.00     0.255 A 
ATOM     17  N   UNL A   1      33.119  23.495  26.558  1.00  0.00    -0.258 N 
ATOM     18  O   UNL A   1      31.069  23.154  27.588  1.00  0.00    -0.269 OA
BRANCH  17  19
ATOM     19  C   UNL A   1      33.528  22.141  26.822  1.00  0.00     0.451 C 
ATOM     20  F   UNL A   1      33.057  21.281  25.890  1.00  0.00    -0.185 F 
ATOM     21  F   UNL A   1      34.879  22.047  26.852  1.00  0.00    -0.185 F 
ENDBRANCH  17  19
ENDBRANCH   8  12
ENDBRANCH   5   6
ENDBRANCH   3   5
ENDBRANCH   2   3
ENDBRANCH   1   2
BRANCH   1  22
ATOM     22  C   UNL A   1      34.884  31.919  29.403  1.00  0.00     0.275 C 
BRANCH  22  23
ATOM     23  O   UNL A   1      36.243  31.946  29.871  1.00  0.00    -0.458 OA
BRANCH  23  24
ATOM     24  C   UNL A   1      36.646  30.860  30.579  1.00  0.00     0.338 C 
ATOM     25  O   UNL A   1      35.954  30.177  31.313  1.00  0.00    -0.246 OA
BRANCH  24  26
ATOM     26  C   UNL A   1      38.025  30.498  30.172  1.00  0.00     0.060 A 
ATOM     27  C   UNL A   1      38.303  30.395  28.802  1.00  0.00     0.016 A 
ATOM     28  C   UNL A   1      39.046  30.302  31.109  1.00  0.00     0.016 A 
ATOM     29  C   UNL A   1      39.595  30.091  28.369  1.00  0.00     0.010 A 
ATOM     30  C   UNL A   1      40.336  29.980  30.673  1.00  0.00     0.010 A 
ATOM     31  C   UNL A   1      40.615  29.859  29.303  1.00  0.00    -0.014 A 
BRANCH  31  32
ATOM     32  C   UNL A   1      41.938  29.363  28.852  1.00  0.00     0.031 A 
ATOM     33  C   UNL A   1      43.106  30.307  28.856  1.00  0.00     0.074 A 
ATOM     34  C   UNL A   1      42.103  28.096  28.432  1.00  0.00     0.049 A 
ATOM     35  N   UNL A   1      44.347  30.088  28.506  1.00  0.00    -0.248 NA
ATOM     36  C   UNL A   1      42.836  31.685  29.296  1.00  0.00     0.031 C 
ATOM     37  C   UNL A   1      41.054  27.083  28.389  1.00  0.00     0.029 A 
ATOM     38  N   UNL A   1      43.224  27.440  27.981  1.00  0.00    -0.354 N 
ATOM     39  C   UNL A   1      45.001  31.302  28.659  1.00  0.00     0.074 A 
ATOM     40  C   UNL A   1      44.021  32.255  29.136  1.00  0.00     0.031 C 
ATOM     41  C   UNL A   1      41.589  25.920  27.976  1.00  0.00     0.029 A 
ATOM     42  C   UNL A   1      43.010  26.111  27.696  1.00  0.00     0.049 A 
ATOM     43  H   UNL A   1      44.097  27.881  27.871  1.00  0.00     0.167 HD
ATOM     44  C   UNL A   1      46.296  31.603  28.405  1.00  0.00     0.031 A 
ATOM     45  C   UNL A   1      43.860  25.158  27.263  1.00  0.00     0.031 A 
ATOM     46  C   UNL A   1      47.266  30.667  27.908  1.00  0.00     0.049 A 
ATOM     47  C   UNL A   1      45.298  25.523  26.984  1.00  0.00     0.074 A 
ATOM     48  C   UNL A   1      48.603  30.888  27.622  1.00  0.00     0.029 A 
ATOM     49  N   UNL A   1      47.008  29.339  27.606  1.00  0.00    -0.354 N 
ATOM     50  N   UNL A   1      45.910  26.669  27.164  1.00  0.00    -0.248 NA
ATOM     51  C   UNL A   1      46.154  24.470  26.417  1.00  0.00     0.031 C 
ATOM     52  C   UNL A   1      49.137  29.710  27.093  1.00  0.00     0.029 A 
ATOM     53  C   UNL A   1      48.149  28.738  27.103  1.00  0.00     0.049 A 
ATOM     54  H   UNL A   1      46.140  28.889  27.732  1.00  0.00     0.167 HD
ATOM     55  C   UNL A   1      47.218  26.474  26.733  1.00  0.00     0.074 A 
ATOM     56  C   UNL A   1      47.321  25.093  26.313  1.00  0.00     0.031 C 
ATOM     57  C   UNL A   1      48.239  27.365  26.677  1.00  0.00     0.031 A 
BRANCH  44  58
ATOM     58  C   UNL A   1      46.718  33.032  28.597  1.00  0.00    -0.014 A 
ATOM     59  C   UNL A   1      47.243  33.482  29.820  1.00  0.00     0.010 A 
ATOM     60  C   UNL A   1      46.608  33.931  27.520  1.00  0.00     0.010 A 
ATOM     61  C   UNL A   1      47.619  34.819  29.974  1.00  0.00     0.020 A 
ATOM     62  C   UNL A   1      47.005  35.262  27.663  1.00  0.00     0.020 A 
ATOM     63  C   UNL A   1      47.492  35.701  28.896  1.00  0.00     0.054 A 
BRANCH  63  64
ATOM     64  S   UNL A   1      48.000  37.428  29.117  1.00  0.00     0.124 S 
ATOM     65  O   UNL A   1      47.050  37.893  30.126  1.00  0.00    -0.237 OA
ATOM     66  O   UNL A   1      49.383  37.301  29.570  1.00  0.00    -0.237 OA
ATOM     67  O   UNL A   1      47.833  38.012  27.789  1.00  0.00    -0.744 OA
ENDBRANCH  63  64
ENDBRANCH  44  58
BRANCH  45  68
ATOM     68  C   UNL A   1      43.383  23.764  27.030  1.00  0.00    -0.014 A 
ATOM     69  C   UNL A   1      42.988  23.345  25.747  1.00  0.00     0.010 A 
ATOM     70  C   UNL A   1      43.290  22.854  28.099  1.00  0.00     0.010 A 
ATOM     71  C   UNL A   1      42.481  22.056  25.541  1.00  0.00     0.020 A 
ATOM     72  C   UNL A   1      42.814  21.555  27.893  1.00  0.00     0.020 A 
ATOM     73  C   UNL A   1      42.395  21.169  26.618  1.00  0.00     0.054 A 
BRANCH  73  74
ATOM     74  S   UNL A   1      41.767  19.490  26.337  1.00  0.00     0.124 S 
ATOM     75  O   UNL A   1      40.336  19.725  26.165  1.00  0.00    -0.237 OA
ATOM     76  O   UNL A   1      42.486  19.068  25.137  1.00  0.00    -0.237 OA
ATOM     77  O   UNL A   1      42.142  18.778  27.558  1.00  0.00    -0.744 OA
ENDBRANCH  73  74
ENDBRANCH  45  68
BRANCH  57  78
ATOM     78  C   UNL A   1      49.560  26.890  26.129  1.00  0.00    -0.014 A 
ATOM     79  C   UNL A   1      49.920  27.144  24.794  1.00  0.00     0.010 A 
ATOM     80  C   UNL A   1      50.491  26.271  26.984  1.00  0.00     0.010 A 
ATOM     81  C   UNL A   1      51.182  26.778  24.319  1.00  0.00     0.020 A 
ATOM     82  C   UNL A   1      51.764  25.925  26.518  1.00  0.00     0.020 A 
ATOM     83  C   UNL A   1      52.099  26.175  25.187  1.00  0.00     0.054 A 
BRANCH  83  84
ATOM     84  S   UNL A   1      53.759  25.782  24.567  1.00  0.00     0.124 S 
ATOM     85  O   UNL A   1      53.638  26.098  23.147  1.00  0.00    -0.237 OA
ATOM     86  O   UNL A   1      54.612  26.681  25.340  1.00  0.00    -0.237 OA
ATOM     87  O   UNL A   1      53.919  24.363  24.878  1.00  0.00    -0.744 OA
ENDBRANCH  83  84
ENDBRANCH  57  78
ENDBRANCH  31  32
ENDBRANCH  24  26
ENDBRANCH  23  24
ENDBRANCH  22  23
ENDBRANCH   1  22
TORSDOF 17
ENDMDL
MODEL 3
REMARK VINA RESULT:     -10.9      6.483      8.566
REMARK SMILES O=C(Cc1ccccc1-c1ccn(C(F)F)c(=O)c1)OCCOC(=O)c1ccc(-c2c3nc(c(-c4ccc(S(=O)(=O)[O-])cc4)c4ccc([nH]4)c(-c4ccc(S(=O)(=O)[O-])cc4)c4nc(c(-c5ccc(S(=O)(=O)[O-])cc5)c5ccc2[nH]5)C=C4)C=C3)cc1
REMARK SMILES IDX 21 1 20 2 2 3 1 4 3 5 4 6 5 7 9 8 6 9 8 10 7 11 10 12 11 13
REMARK SMILES IDX 19 14 12 15 17 16 13 17 18 18 14 19 15 20 16 21 22 22 23 23
REMARK SMILES IDX 24 24 25 25 26 26 27 27 85 28 28 29 84 30 29 31 30 32 31 33
REMARK SMILES IDX 78 34 32 35 83 36 77 37 79 38 33 39 82 40 76 41 75 42 34 44
REMARK SMILES IDX 64 45 45 46 63 47 46 48 49 49 62 50 80 51 47 52 48 53 61 55
REMARK SMILES IDX 81 56 50 57 35 58 36 59 44 60 37 61 43 62 38 63 39 64 40 65
REMARK SMILES IDX 41 66 42 67 65 68 66 69 74 70 67 71 73 72 68 73 69 74 70 75
REMARK SMILES IDX 71 76 72 77 51 78 52 79 60 80 53 81 59 82 54 83 55 84 56 85
REMARK SMILES IDX 57 86 58 87
REMARK H PARENT 79 43 49 54
REMARK Flexibility Score: inf
ROOT
ATOM      1  C   UNL A   1      38.533  20.206  25.147  1.00  0.00     0.274 C 
ENDROOT
BRANCH   1   2
ATOM      2  O   UNL A   1      37.943  21.516  25.218  1.00  0.00    -0.462 OA
BRANCH   2   3
ATOM      3  C   UNL A   1      36.718  21.886  24.774  1.00  0.00     0.310 C 
ATOM      4  O   UNL A   1      36.656  22.544  23.736  1.00  0.00    -0.252 OA
BRANCH   3   5
ATOM      5  C   UNL A   1      35.475  21.521  25.566  1.00  0.00     0.158 C 
BRANCH   5   6
ATOM      6  C   UNL A   1      34.547  20.507  24.926  1.00  0.00    -0.029 A 
ATOM      7  C   UNL A   1      34.992  19.171  24.852  1.00  0.00     0.005 A 
ATOM      8  C   UNL A   1      33.234  20.809  24.489  1.00  0.00    -0.014 A 
ATOM      9  C   UNL A   1      34.184  18.160  24.339  1.00  0.00     0.000 A 
ATOM     10  C   UNL A   1      32.444  19.777  23.947  1.00  0.00     0.009 A 
ATOM     11  C   UNL A   1      32.913  18.465  23.875  1.00  0.00     0.001 A 
BRANCH   8  12
ATOM     12  C   UNL A   1      32.598  22.137  24.683  1.00  0.00    -0.011 A 
ATOM     13  C   UNL A   1      32.722  23.240  23.752  1.00  0.00     0.027 A 
ATOM     14  C   UNL A   1      31.915  22.346  25.824  1.00  0.00     0.080 A 
ATOM     15  C   UNL A   1      32.395  24.485  24.117  1.00  0.00     0.095 A 
ATOM     16  C   UNL A   1      31.378  23.695  26.161  1.00  0.00     0.255 A 
ATOM     17  N   UNL A   1      31.790  24.725  25.334  1.00  0.00    -0.258 N 
ATOM     18  O   UNL A   1      30.652  23.816  27.140  1.00  0.00    -0.269 OA
BRANCH  17  19
ATOM     19  C   UNL A   1      31.516  26.066  25.778  1.00  0.00     0.451 C 
ATOM     20  F   UNL A   1      30.190  26.334  25.783  1.00  0.00    -0.185 F 
ATOM     21  F   UNL A   1      32.003  26.264  27.027  1.00  0.00    -0.185 F 
ENDBRANCH  17  19
ENDBRANCH   8  12
ENDBRANCH   5   6
ENDBRANCH   3   5
ENDBRANCH   2   3
ENDBRANCH   1   2
BRANCH   1  22
ATOM     22  C   UNL A   1      39.670  20.032  26.153  1.00  0.00     0.275 C 
BRANCH  22  23
ATOM     23  O   UNL A   1      40.813  19.429  25.522  1.00  0.00    -0.458 OA
BRANCH  23  24
ATOM     24  C   UNL A   1      41.943  19.379  26.271  1.00  0.00     0.338 C 
ATOM     25  O   UNL A   1      42.578  18.379  26.557  1.00  0.00    -0.246 OA
BRANCH  24  26
ATOM     26  C   UNL A   1      42.416  20.760  26.534  1.00  0.00     0.060 A 
ATOM     27  C   UNL A   1      42.673  21.589  25.433  1.00  0.00     0.016 A 
ATOM     28  C   UNL A   1      42.566  21.257  27.833  1.00  0.00     0.016 A 
ATOM     29  C   UNL A   1      43.086  22.908  25.630  1.00  0.00     0.010 A 
ATOM     30  C   UNL A   1      42.997  22.573  28.028  1.00  0.00     0.010 A 
ATOM     31  C   UNL A   1      43.273  23.402  26.929  1.00  0.00    -0.014 A 
BRANCH  31  32
ATOM     32  C   UNL A   1      43.879  24.739  27.137  1.00  0.00     0.031 A 
ATOM     33  C   UNL A   1      43.018  25.853  27.659  1.00  0.00     0.074 A 
ATOM     34  C   UNL A   1      45.174  24.970  26.856  1.00  0.00     0.049 A 
ATOM     35  N   UNL A   1      43.338  27.095  27.916  1.00  0.00    -0.248 NA
ATOM     36  C   UNL A   1      41.604  25.529  27.908  1.00  0.00     0.031 C 
ATOM     37  C   UNL A   1      46.114  23.973  26.354  1.00  0.00     0.029 A 
ATOM     38  N   UNL A   1      45.926  26.114  26.974  1.00  0.00    -0.354 N 
ATOM     39  C   UNL A   1      42.165  27.708  28.333  1.00  0.00     0.074 A 
ATOM     40  C   UNL A   1      41.125  26.702  28.298  1.00  0.00     0.031 C 
ATOM     41  C   UNL A   1      47.330  24.538  26.246  1.00  0.00     0.029 A 
ATOM     42  C   UNL A   1      47.250  25.943  26.641  1.00  0.00     0.049 A 
ATOM     43  H   UNL A   1      45.552  26.976  27.267  1.00  0.00     0.167 HD
ATOM     44  C   UNL A   1      41.966  28.997  28.692  1.00  0.00     0.031 A 
ATOM     45  C   UNL A   1      48.280  26.814  26.656  1.00  0.00     0.031 A 
ATOM     46  C   UNL A   1      42.990  30.006  28.704  1.00  0.00     0.049 A 
ATOM     47  C   UNL A   1      48.028  28.247  27.057  1.00  0.00     0.074 A 
ATOM     48  C   UNL A   1      42.875  31.340  29.055  1.00  0.00     0.029 A 
ATOM     49  N   UNL A   1      44.311  29.802  28.336  1.00  0.00    -0.354 N 
ATOM     50  N   UNL A   1      46.918  28.804  27.480  1.00  0.00    -0.248 NA
ATOM     51  C   UNL A   1      49.164  29.176  26.957  1.00  0.00     0.031 C 
ATOM     52  C   UNL A   1      44.111  31.956  28.843  1.00  0.00     0.029 A 
ATOM     53  C   UNL A   1      45.012  30.993  28.417  1.00  0.00     0.049 A 
ATOM     54  H   UNL A   1      44.693  28.937  28.060  1.00  0.00     0.167 HD
ATOM     55  C   UNL A   1      47.223  30.145  27.695  1.00  0.00     0.074 A 
ATOM     56  C   UNL A   1      48.628  30.311  27.386  1.00  0.00     0.031 C 
ATOM     57  C   UNL A   1      46.408  31.151  28.096  1.00  0.00     0.031 A 
BRANCH  44  58
ATOM     58  C   UNL A   1      40.562  29.404  29.035  1.00  0.00    -0.014 A 
ATOM     59  C   UNL A   1      39.613  29.678  28.036  1.00  0.00     0.010 A 
ATOM     60  C   UNL A   1      40.183  29.487  30.388  1.00  0.00     0.010 A 
ATOM     61  C   UNL A   1      38.316  30.064  28.384  1.00  0.00     0.020 A 
ATOM     62  C   UNL A   1      38.881  29.849  30.740  1.00  0.00     0.020 A 
ATOM     63  C   UNL A   1      37.960  30.152  29.734  1.00  0.00     0.054 A 
BRANCH  63  64
ATOM     64  S   UNL A   1      36.267  30.642  30.160  1.00  0.00     0.124 S 
ATOM     65  O   UNL A   1      36.052  29.922  31.413  1.00  0.00    -0.237 OA
ATOM     66  O   UNL A   1      36.373  32.094  30.281  1.00  0.00    -0.237 OA
ATOM     67  O   UNL A   1      35.474  30.171  29.027  1.00  0.00    -0.744 OA
ENDBRANCH  63  64
ENDBRANCH  44  58
BRANCH  45  68
ATOM     68  C   UNL A   1      49.648  26.379  26.251  1.00  0.00    -0.014 A 
ATOM     69  C   UNL A   1      50.508  25.760  27.176  1.00  0.00     0.010 A 
ATOM     70  C   UNL A   1      50.112  26.610  24.943  1.00  0.00     0.010 A 
ATOM     71  C   UNL A   1      51.814  25.409  26.812  1.00  0.00     0.020 A 
ATOM     72  C   UNL A   1      51.405  26.233  24.566  1.00  0.00     0.020 A 
ATOM     73  C   UNL A   1      52.255  25.651  25.508  1.00  0.00     0.054 A 
BRANCH  73  74
ATOM     74  S   UNL A   1      53.939  25.164  25.036  1.00  0.00     0.124 S 
ATOM     75  O   UNL A   1      54.722  25.633  26.175  1.00  0.00    -0.237 OA
ATOM     76  O   UNL A   1      53.833  23.713  24.896  1.00  0.00    -0.237 OA
ATOM     77  O   UNL A   1      54.162  25.885  23.784  1.00  0.00    -0.744 OA
ENDBRANCH  73  74
ENDBRANCH  45  68
BRANCH  57  78
ATOM     78  C   UNL A   1      46.999  32.532  28.217  1.00  0.00    -0.014 A 
ATOM     79  C   UNL A   1      46.986  33.419  27.126  1.00  0.00     0.010 A 
ATOM     80  C   UNL A   1      47.483  32.981  29.460  1.00  0.00     0.010 A 
ATOM     81  C   UNL A   1      47.455  34.727  27.273  1.00  0.00     0.020 A 
ATOM     82  C   UNL A   1      47.932  34.297  29.616  1.00  0.00     0.020 A 
ATOM     83  C   UNL A   1      47.921  35.160  28.518  1.00  0.00     0.054 A 
BRANCH  83  84
ATOM     84  S   UNL A   1      48.451  36.886  28.701  1.00  0.00     0.124 S 
ATOM     85  O   UNL A   1      48.389  37.073  30.148  1.00  0.00    -0.237 OA
ATOM     86  O   UNL A   1      49.793  36.873  28.126  1.00  0.00    -0.237 OA
ATOM     87  O   UNL A   1      47.459  37.636  27.934  1.00  0.00    -0.744 OA
ENDBRANCH  83  84
ENDBRANCH  57  78
ENDBRANCH  31  32
ENDBRANCH  24  26
ENDBRANCH  23  24
ENDBRANCH  22  23
ENDBRANCH   1  22
TORSDOF 17
ENDMDL
