MODEL 1
REMARK VINA RESULT:     -12.5      0.000      0.000
REMARK SMILES Cc1ccnc(C(=O)c2[nH]c3cc(Cl)c(F)cc3c2CC(=O)OCCOC(=O)c2ccc(-c3c4nc(c(-c5ccc(S(=O)(=O)[O-])cc5)c5ccc([nH]5)c(-c5ccc(S(=O)(=O)[O-])cc5)c5nc(c(-c6ccc(S(=O)(=O)[O-])cc6)c6ccc3[nH]6)C=C5)C=C4)cc2)c1
REMARK SMILES IDX 24 1 23 2 21 3 22 4 20 5 19 6 9 7 10 8 11 9 18 11 12 12
REMARK SMILES IDX 17 13 13 14 15 15 14 16 16 17 7 18 8 19 6 20 1 21 2 22 3 23
REMARK SMILES IDX 89 24 4 25 5 26 25 27 26 28 27 29 28 30 29 31 30 32 88 33
REMARK SMILES IDX 31 34 87 35 32 36 33 37 34 38 81 39 35 40 86 41 80 42 82 43
REMARK SMILES IDX 36 44 85 45 79 46 78 47 37 49 67 50 48 51 66 52 49 53 52 54
REMARK SMILES IDX 65 55 83 56 50 57 51 58 64 60 84 61 53 62 38 63 39 64 47 65
REMARK SMILES IDX 40 66 46 67 41 68 42 69 43 70 44 71 45 72 68 73 69 74 77 75
REMARK SMILES IDX 70 76 76 77 71 78 72 79 73 80 74 81 75 82 54 83 55 84 63 85
REMARK SMILES IDX 56 86 62 87 57 88 58 89 59 90 60 91 61 92
REMARK H PARENT 10 10 82 48 52 59
REMARK Flexibility Score: inf
ROOT
ATOM      1  C   UNL A   1      38.711  21.239  25.523  1.00  0.00     0.274 C 
ENDROOT
BRANCH   1   2
ATOM      2  O   UNL A   1      37.980  22.498  25.484  1.00  0.00    -0.462 OA
BRANCH   2   3
ATOM      3  C   UNL A   1      36.825  22.429  24.783  1.00  0.00     0.310 C 
ATOM      4  O   UNL A   1      36.255  23.432  24.353  1.00  0.00    -0.252 OA
BRANCH   3   5
ATOM      5  C   UNL A   1      36.147  21.099  24.631  1.00  0.00     0.161 C 
BRANCH   5   6
ATOM      6  C   UNL A   1      34.725  20.713  24.971  1.00  0.00     0.000 A 
ATOM      7  C   UNL A   1      33.668  21.367  25.624  1.00  0.00     0.093 A 
ATOM      8  N   UNL A   1      32.744  20.407  25.974  1.00  0.00    -0.351 N 
ATOM      9  C   UNL A   1      33.108  19.168  25.540  1.00  0.00     0.048 A 
ATOM     10  H   UNL A   1      31.920  20.593  26.479  1.00  0.00     0.167 HD
ATOM     11  C   UNL A   1      34.346  19.309  24.925  1.00  0.00     0.007 A 
ATOM     12  C   UNL A   1      32.459  17.938  25.697  1.00  0.00     0.050 A 
ATOM     13  C   UNL A   1      34.999  18.135  24.484  1.00  0.00     0.051 A 
ATOM     14  C   UNL A   1      33.111  16.801  25.217  1.00  0.00     0.078 A 
ATOM     15  C   UNL A   1      34.368  16.900  24.632  1.00  0.00     0.142 A 
ATOM     16  Cl  UNL A   1      32.334  15.272  25.369  1.00  0.00    -0.081 Cl
ATOM     17  F   UNL A   1      35.005  15.804  24.195  1.00  0.00    -0.205 F 
BRANCH   7  18
ATOM     18  C   UNL A   1      33.387  22.718  26.099  1.00  0.00     0.227 C 
ATOM     19  O   UNL A   1      33.655  23.032  27.257  1.00  0.00    -0.285 OA
BRANCH  18  20
ATOM     20  C   UNL A   1      32.571  23.642  25.230  1.00  0.00     0.113 A 
ATOM     21  C   UNL A   1      30.954  27.027  25.575  1.00  0.00     0.044 C 
ATOM     22  C   UNL A   1      31.325  25.682  25.033  1.00  0.00    -0.047 A 
ATOM     23  C   UNL A   1      30.550  25.055  24.054  1.00  0.00     0.023 A 
ATOM     24  C   UNL A   1      32.369  24.964  25.616  1.00  0.00     0.036 A 
ATOM     25  C   UNL A   1      30.893  23.769  23.655  1.00  0.00     0.112 A 
ATOM     26  N   UNL A   1      31.921  23.066  24.178  1.00  0.00    -0.253 NA
ENDBRANCH  18  20
ENDBRANCH   7  18
ENDBRANCH   5   6
ENDBRANCH   3   5
ENDBRANCH   2   3
ENDBRANCH   1   2
BRANCH   1  27
ATOM     27  C   UNL A   1      39.878  21.209  26.527  1.00  0.00     0.275 C 
BRANCH  27  28
ATOM     28  O   UNL A   1      39.934  22.366  27.370  1.00  0.00    -0.458 OA
BRANCH  28  29
ATOM     29  C   UNL A   1      41.176  22.693  27.797  1.00  0.00     0.338 C 
ATOM     30  O   UNL A   1      42.013  21.900  28.172  1.00  0.00    -0.246 OA
BRANCH  29  31
ATOM     31  C   UNL A   1      41.538  24.047  27.372  1.00  0.00     0.060 A 
ATOM     32  C   UNL A   1      42.498  24.706  28.119  1.00  0.00     0.016 A 
ATOM     33  C   UNL A   1      40.547  24.741  26.659  1.00  0.00     0.016 A 
ATOM     34  C   UNL A   1      42.214  26.000  28.479  1.00  0.00     0.010 A 
ATOM     35  C   UNL A   1      40.291  26.057  26.991  1.00  0.00     0.010 A 
ATOM     36  C   UNL A   1      41.043  26.628  28.006  1.00  0.00    -0.014 A 
BRANCH  36  37
ATOM     37  C   UNL A   1      40.864  28.019  28.366  1.00  0.00     0.031 A 
ATOM     38  C   UNL A   1      42.062  28.762  27.958  1.00  0.00     0.074 A 
ATOM     39  C   UNL A   1      39.897  28.627  29.074  1.00  0.00     0.049 A 
ATOM     40  N   UNL A   1      43.072  28.962  28.729  1.00  0.00    -0.248 NA
ATOM     41  C   UNL A   1      42.288  29.024  26.536  1.00  0.00     0.031 C 
ATOM     42  C   UNL A   1      38.572  28.188  29.503  1.00  0.00     0.029 A 
ATOM     43  N   UNL A   1      39.985  29.887  29.586  1.00  0.00    -0.354 N 
ATOM     44  C   UNL A   1      44.056  29.483  27.922  1.00  0.00     0.074 A 
ATOM     45  C   UNL A   1      43.575  29.373  26.564  1.00  0.00     0.031 C 
ATOM     46  C   UNL A   1      37.917  29.231  30.078  1.00  0.00     0.029 A 
ATOM     47  C   UNL A   1      38.837  30.355  30.193  1.00  0.00     0.049 A 
ATOM     48  H   UNL A   1      40.808  30.424  29.528  1.00  0.00     0.167 HD
ATOM     49  C   UNL A   1      45.132  30.106  28.462  1.00  0.00     0.031 A 
ATOM     50  C   UNL A   1      38.686  31.535  30.851  1.00  0.00     0.031 A 
ATOM     51  C   UNL A   1      45.288  29.800  29.863  1.00  0.00     0.049 A 
ATOM     52  C   UNL A   1      40.039  31.912  31.344  1.00  0.00     0.074 A 
ATOM     53  C   UNL A   1      45.585  28.645  30.561  1.00  0.00     0.029 A 
ATOM     54  N   UNL A   1      44.699  30.654  30.768  1.00  0.00    -0.354 N 
ATOM     55  N   UNL A   1      40.644  31.285  32.314  1.00  0.00    -0.248 NA
ATOM     56  C   UNL A   1      40.903  32.711  30.485  1.00  0.00     0.031 C 
ATOM     57  C   UNL A   1      44.765  28.689  31.726  1.00  0.00     0.029 A 
ATOM     58  C   UNL A   1      44.051  29.891  31.710  1.00  0.00     0.049 A 
ATOM     59  H   UNL A   1      44.736  31.638  30.745  1.00  0.00     0.167 HD
ATOM     60  C   UNL A   1      41.980  31.256  31.942  1.00  0.00     0.074 A 
ATOM     61  C   UNL A   1      42.091  32.220  30.850  1.00  0.00     0.031 C 
ATOM     62  C   UNL A   1      42.824  30.278  32.385  1.00  0.00     0.031 A 
BRANCH  49  63
ATOM     63  C   UNL A   1      45.820  31.232  27.763  1.00  0.00    -0.014 A 
ATOM     64  C   UNL A   1      45.195  32.480  27.554  1.00  0.00     0.010 A 
ATOM     65  C   UNL A   1      47.196  31.143  27.499  1.00  0.00     0.010 A 
ATOM     66  C   UNL A   1      45.887  33.579  27.062  1.00  0.00     0.020 A 
ATOM     67  C   UNL A   1      47.913  32.257  27.048  1.00  0.00     0.020 A 
ATOM     68  C   UNL A   1      47.248  33.462  26.820  1.00  0.00     0.054 A 
BRANCH  68  69
ATOM     69  S   UNL A   1      48.125  34.937  26.260  1.00  0.00     0.124 S 
ATOM     70  O   UNL A   1      48.119  34.754  24.811  1.00  0.00    -0.237 OA
ATOM     71  O   UNL A   1      47.278  36.014  26.765  1.00  0.00    -0.237 OA
ATOM     72  O   UNL A   1      49.432  34.819  26.899  1.00  0.00    -0.744 OA
ENDBRANCH  68  69
ENDBRANCH  49  63
BRANCH  50  73
ATOM     73  C   UNL A   1      37.691  32.586  30.497  1.00  0.00    -0.014 A 
ATOM     74  C   UNL A   1      36.731  33.015  31.432  1.00  0.00     0.010 A 
ATOM     75  C   UNL A   1      37.501  32.945  29.145  1.00  0.00     0.010 A 
ATOM     76  C   UNL A   1      35.574  33.691  31.024  1.00  0.00     0.020 A 
ATOM     77  C   UNL A   1      36.343  33.622  28.729  1.00  0.00     0.020 A 
ATOM     78  C   UNL A   1      35.368  33.955  29.669  1.00  0.00     0.054 A 
BRANCH  78  79
ATOM     79  S   UNL A   1      33.771  34.654  29.158  1.00  0.00     0.124 S 
ATOM     80  O   UNL A   1      33.055  34.735  30.428  1.00  0.00    -0.237 OA
ATOM     81  O   UNL A   1      34.159  35.936  28.574  1.00  0.00    -0.237 OA
ATOM     82  O   UNL A   1      33.250  33.674  28.209  1.00  0.00    -0.744 OA
ENDBRANCH  78  79
ENDBRANCH  50  73
BRANCH  62  83
ATOM     83  C   UNL A   1      42.361  29.370  33.509  1.00  0.00    -0.014 A 
ATOM     84  C   UNL A   1      42.890  29.613  34.792  1.00  0.00     0.010 A 
ATOM     85  C   UNL A   1      41.587  28.208  33.319  1.00  0.00     0.010 A 
ATOM     86  C   UNL A   1      42.694  28.709  35.838  1.00  0.00     0.020 A 
ATOM     87  C   UNL A   1      41.362  27.308  34.375  1.00  0.00     0.020 A 
ATOM     88  C   UNL A   1      41.943  27.553  35.621  1.00  0.00     0.054 A 
BRANCH  88  89
ATOM     89  S   UNL A   1      41.776  26.376  36.993  1.00  0.00     0.124 S 
ATOM     90  O   UNL A   1      40.484  26.747  37.565  1.00  0.00    -0.237 OA
ATOM     91  O   UNL A   1      41.806  25.081  36.314  1.00  0.00    -0.237 OA
ATOM     92  O   UNL A   1      42.932  26.653  37.842  1.00  0.00    -0.744 OA
ENDBRANCH  88  89
ENDBRANCH  62  83
ENDBRANCH  36  37
ENDBRANCH  29  31
ENDBRANCH  28  29
ENDBRANCH  27  28
ENDBRANCH   1  27
TORSDOF 17
ENDMDL
MODEL 2
REMARK VINA RESULT:     -12.2      2.365      3.743
REMARK SMILES Cc1ccnc(C(=O)c2[nH]c3cc(Cl)c(F)cc3c2CC(=O)OCCOC(=O)c2ccc(-c3c4nc(c(-c5ccc(S(=O)(=O)[O-])cc5)c5ccc([nH]5)c(-c5ccc(S(=O)(=O)[O-])cc5)c5nc(c(-c6ccc(S(=O)(=O)[O-])cc6)c6ccc3[nH]6)C=C5)C=C4)cc2)c1
REMARK SMILES IDX 24 1 23 2 21 3 22 4 20 5 19 6 9 7 10 8 11 9 18 11 12 12
REMARK SMILES IDX 17 13 13 14 15 15 14 16 16 17 7 18 8 19 6 20 1 21 2 22 3 23
REMARK SMILES IDX 89 24 4 25 5 26 25 27 26 28 27 29 28 30 29 31 30 32 88 33
REMARK SMILES IDX 31 34 87 35 32 36 33 37 34 38 81 39 35 40 86 41 80 42 82 43
REMARK SMILES IDX 36 44 85 45 79 46 78 47 37 49 67 50 48 51 66 52 49 53 52 54
REMARK SMILES IDX 65 55 83 56 50 57 51 58 64 60 84 61 53 62 38 63 39 64 47 65
REMARK SMILES IDX 40 66 46 67 41 68 42 69 43 70 44 71 45 72 68 73 69 74 77 75
REMARK SMILES IDX 70 76 76 77 71 78 72 79 73 80 74 81 75 82 54 83 55 84 63 85
REMARK SMILES IDX 56 86 62 87 57 88 58 89 59 90 60 91 61 92
REMARK H PARENT 10 10 82 48 52 59
REMARK Flexibility Score: inf
ROOT
ATOM      1  C   UNL A   1      37.606  21.765  25.430  1.00  0.00     0.274 C 
ENDROOT
BRANCH   1   2
ATOM      2  O   UNL A   1      37.343  23.149  25.064  1.00  0.00    -0.462 OA
BRANCH   2   3
ATOM      3  C   UNL A   1      36.372  23.727  25.808  1.00  0.00     0.310 C 
ATOM      4  O   UNL A   1      36.296  23.569  27.027  1.00  0.00    -0.252 OA
BRANCH   3   5
ATOM      5  C   UNL A   1      35.277  24.482  25.113  1.00  0.00     0.161 C 
BRANCH   5   6
ATOM      6  C   UNL A   1      33.911  24.867  25.633  1.00  0.00     0.000 A 
ATOM      7  C   UNL A   1      32.835  24.144  26.174  1.00  0.00     0.093 A 
ATOM      8  N   UNL A   1      31.725  24.958  26.122  1.00  0.00    -0.351 N 
ATOM      9  C   UNL A   1      32.023  26.194  25.630  1.00  0.00     0.048 A 
ATOM     10  H   UNL A   1      30.823  24.681  26.405  1.00  0.00     0.167 HD
ATOM     11  C   UNL A   1      33.370  26.175  25.295  1.00  0.00     0.007 A 
ATOM     12  C   UNL A   1      31.186  27.294  25.409  1.00  0.00     0.050 A 
ATOM     13  C   UNL A   1      33.905  27.315  24.652  1.00  0.00     0.051 A 
ATOM     14  C   UNL A   1      31.751  28.419  24.806  1.00  0.00     0.078 A 
ATOM     15  C   UNL A   1      33.087  28.422  24.423  1.00  0.00     0.142 A 
ATOM     16  Cl  UNL A   1      30.761  29.804  24.541  1.00  0.00    -0.081 Cl
ATOM     17  F   UNL A   1      33.622  29.494  23.820  1.00  0.00    -0.205 F 
BRANCH   7  18
ATOM     18  C   UNL A   1      32.598  22.780  26.636  1.00  0.00     0.227 C 
ATOM     19  O   UNL A   1      32.374  22.563  27.824  1.00  0.00    -0.285 OA
BRANCH  18  20
ATOM     20  C   UNL A   1      32.850  21.635  25.687  1.00  0.00     0.113 A 
ATOM     21  C   UNL A   1      31.929  20.748  22.143  1.00  0.00     0.044 C 
ATOM     22  C   UNL A   1      32.434  20.633  23.547  1.00  0.00    -0.047 A 
ATOM     23  C   UNL A   1      32.630  19.387  24.149  1.00  0.00     0.023 A 
ATOM     24  C   UNL A   1      32.568  21.779  24.331  1.00  0.00     0.036 A 
ATOM     25  C   UNL A   1      33.014  19.344  25.483  1.00  0.00     0.112 A 
ATOM     26  N   UNL A   1      33.185  20.441  26.254  1.00  0.00    -0.253 NA
ENDBRANCH  18  20
ENDBRANCH   7  18
ENDBRANCH   5   6
ENDBRANCH   3   5
ENDBRANCH   2   3
ENDBRANCH   1   2
BRANCH   1  27
ATOM     27  C   UNL A   1      39.064  21.476  25.834  1.00  0.00     0.275 C 
BRANCH  27  28
ATOM     28  O   UNL A   1      39.874  22.654  25.920  1.00  0.00    -0.458 OA
BRANCH  28  29
ATOM     29  C   UNL A   1      40.442  22.862  27.131  1.00  0.00     0.338 C 
ATOM     30  O   UNL A   1      40.637  22.001  27.963  1.00  0.00    -0.246 OA
BRANCH  29  31
ATOM     31  C   UNL A   1      41.161  24.136  27.163  1.00  0.00     0.060 A 
ATOM     32  C   UNL A   1      41.621  24.569  28.394  1.00  0.00     0.016 A 
ATOM     33  C   UNL A   1      40.843  25.036  26.133  1.00  0.00     0.016 A 
ATOM     34  C   UNL A   1      41.365  25.879  28.720  1.00  0.00     0.010 A 
ATOM     35  C   UNL A   1      40.630  26.361  26.452  1.00  0.00     0.010 A 
ATOM     36  C   UNL A   1      40.757  26.737  27.781  1.00  0.00    -0.014 A 
BRANCH  36  37
ATOM     37  C   UNL A   1      40.601  28.122  28.176  1.00  0.00     0.031 A 
ATOM     38  C   UNL A   1      41.802  28.859  27.767  1.00  0.00     0.074 A 
ATOM     39  C   UNL A   1      39.652  28.725  28.912  1.00  0.00     0.049 A 
ATOM     40  N   UNL A   1      42.826  29.029  28.527  1.00  0.00    -0.248 NA
ATOM     41  C   UNL A   1      42.010  29.152  26.349  1.00  0.00     0.031 C 
ATOM     42  C   UNL A   1      38.328  28.292  29.350  1.00  0.00     0.029 A 
ATOM     43  N   UNL A   1      39.764  29.971  29.452  1.00  0.00    -0.354 N 
ATOM     44  C   UNL A   1      43.805  29.556  27.717  1.00  0.00     0.074 A 
ATOM     45  C   UNL A   1      43.302  29.484  26.365  1.00  0.00     0.031 C 
ATOM     46  C   UNL A   1      37.695  29.330  29.960  1.00  0.00     0.029 A 
ATOM     47  C   UNL A   1      38.630  30.439  30.087  1.00  0.00     0.049 A 
ATOM     48  H   UNL A   1      40.593  30.499  29.394  1.00  0.00     0.167 HD
ATOM     49  C   UNL A   1      44.896  30.154  28.256  1.00  0.00     0.031 A 
ATOM     50  C   UNL A   1      38.504  31.604  30.775  1.00  0.00     0.031 A 
ATOM     51  C   UNL A   1      45.069  29.813  29.647  1.00  0.00     0.049 A 
ATOM     52  C   UNL A   1      39.870  31.953  31.255  1.00  0.00     0.074 A 
ATOM     53  C   UNL A   1      45.361  28.638  30.314  1.00  0.00     0.029 A 
ATOM     54  N   UNL A   1      44.504  30.652  30.581  1.00  0.00    -0.354 N 
ATOM     55  N   UNL A   1      40.481  31.297  32.201  1.00  0.00    -0.248 NA
ATOM     56  C   UNL A   1      40.730  32.762  30.403  1.00  0.00     0.031 C 
ATOM     57  C   UNL A   1      44.559  28.665  31.491  1.00  0.00     0.029 A 
ATOM     58  C   UNL A   1      43.860  29.875  31.514  1.00  0.00     0.049 A 
ATOM     59  H   UNL A   1      44.553  31.635  30.580  1.00  0.00     0.167 HD
ATOM     60  C   UNL A   1      41.811  31.260  31.809  1.00  0.00     0.074 A 
ATOM     61  C   UNL A   1      41.917  32.248  30.738  1.00  0.00     0.031 C 
ATOM     62  C   UNL A   1      42.648  30.261  32.216  1.00  0.00     0.031 A 
BRANCH  49  63
ATOM     63  C   UNL A   1      45.587  31.286  27.573  1.00  0.00    -0.014 A 
ATOM     64  C   UNL A   1      44.901  32.454  27.173  1.00  0.00     0.010 A 
ATOM     65  C   UNL A   1      46.990  31.308  27.520  1.00  0.00     0.010 A 
ATOM     66  C   UNL A   1      45.568  33.575  26.697  1.00  0.00     0.020 A 
ATOM     67  C   UNL A   1      47.674  32.450  27.087  1.00  0.00     0.020 A 
ATOM     68  C   UNL A   1      46.955  33.569  26.666  1.00  0.00     0.054 A 
BRANCH  68  69
ATOM     69  S   UNL A   1      47.783  35.076  26.118  1.00  0.00     0.124 S 
ATOM     70  O   UNL A   1      46.726  36.071  26.274  1.00  0.00    -0.237 OA
ATOM     71  O   UNL A   1      48.893  35.181  27.062  1.00  0.00    -0.237 OA
ATOM     72  O   UNL A   1      48.162  34.776  24.741  1.00  0.00    -0.744 OA
ENDBRANCH  68  69
ENDBRANCH  49  63
BRANCH  50  73
ATOM     73  C   UNL A   1      37.518  32.676  30.460  1.00  0.00    -0.014 A 
ATOM     74  C   UNL A   1      36.597  33.115  31.429  1.00  0.00     0.010 A 
ATOM     75  C   UNL A   1      37.291  33.048  29.118  1.00  0.00     0.010 A 
ATOM     76  C   UNL A   1      35.440  33.815  31.063  1.00  0.00     0.020 A 
ATOM     77  C   UNL A   1      36.132  33.749  28.744  1.00  0.00     0.020 A 
ATOM     78  C   UNL A   1      35.195  34.092  29.718  1.00  0.00     0.054 A 
BRANCH  78  79
ATOM     79  S   UNL A   1      33.595  34.824  29.263  1.00  0.00     0.124 S 
ATOM     80  O   UNL A   1      33.998  36.107  28.696  1.00  0.00    -0.237 OA
ATOM     81  O   UNL A   1      33.064  33.855  28.307  1.00  0.00    -0.237 OA
ATOM     82  O   UNL A   1      32.874  34.900  30.531  1.00  0.00    -0.744 OA
ENDBRANCH  78  79
ENDBRANCH  50  73
BRANCH  62  83
ATOM     83  C   UNL A   1      42.191  29.333  33.326  1.00  0.00    -0.014 A 
ATOM     84  C   UNL A   1      42.544  29.682  34.643  1.00  0.00     0.010 A 
ATOM     85  C   UNL A   1      41.599  28.072  33.108  1.00  0.00     0.010 A 
ATOM     86  C   UNL A   1      42.358  28.790  35.702  1.00  0.00     0.020 A 
ATOM     87  C   UNL A   1      41.382  27.182  34.174  1.00  0.00     0.020 A 
ATOM     88  C   UNL A   1      41.790  27.538  35.461  1.00  0.00     0.054 A 
BRANCH  88  89
ATOM     89  S   UNL A   1      41.634  26.390  36.857  1.00  0.00     0.124 S 
ATOM     90  O   UNL A   1      40.429  26.877  37.526  1.00  0.00    -0.237 OA
ATOM     91  O   UNL A   1      41.496  25.093  36.197  1.00  0.00    -0.237 OA
ATOM     92  O   UNL A   1      42.874  26.571  37.608  1.00  0.00    -0.744 OA
ENDBRANCH  88  89
ENDBRANCH  62  83
ENDBRANCH  36  37
ENDBRANCH  29  31
ENDBRANCH  28  29
ENDBRANCH  27  28
ENDBRANCH   1  27
TORSDOF 17
ENDMDL
MODEL 3
REMARK VINA RESULT:     -11.9      2.569      3.881
REMARK SMILES Cc1ccnc(C(=O)c2[nH]c3cc(Cl)c(F)cc3c2CC(=O)OCCOC(=O)c2ccc(-c3c4nc(c(-c5ccc(S(=O)(=O)[O-])cc5)c5ccc([nH]5)c(-c5ccc(S(=O)(=O)[O-])cc5)c5nc(c(-c6ccc(S(=O)(=O)[O-])cc6)c6ccc3[nH]6)C=C5)C=C4)cc2)c1
REMARK SMILES IDX 24 1 23 2 21 3 22 4 20 5 19 6 9 7 10 8 11 9 18 11 12 12
REMARK SMILES IDX 17 13 13 14 15 15 14 16 16 17 7 18 8 19 6 20 1 21 2 22 3 23
REMARK SMILES IDX 89 24 4 25 5 26 25 27 26 28 27 29 28 30 29 31 30 32 88 33
REMARK SMILES IDX 31 34 87 35 32 36 33 37 34 38 81 39 35 40 86 41 80 42 82 43
REMARK SMILES IDX 36 44 85 45 79 46 78 47 37 49 67 50 48 51 66 52 49 53 52 54
REMARK SMILES IDX 65 55 83 56 50 57 51 58 64 60 84 61 53 62 38 63 39 64 47 65
REMARK SMILES IDX 40 66 46 67 41 68 42 69 43 70 44 71 45 72 68 73 69 74 77 75
REMARK SMILES IDX 70 76 76 77 71 78 72 79 73 80 74 81 75 82 54 83 55 84 63 85
REMARK SMILES IDX 56 86 62 87 57 88 58 89 59 90 60 91 61 92
REMARK H PARENT 10 10 82 48 52 59
REMARK Flexibility Score: inf
ROOT
ATOM      1  C   UNL A   1      36.452  22.222  25.876  1.00  0.00     0.274 C 
ENDROOT
BRANCH   1   2
ATOM      2  O   UNL A   1      35.198  22.858  25.495  1.00  0.00    -0.462 OA
BRANCH   2   3
ATOM      3  C   UNL A   1      34.456  23.259  26.552  1.00  0.00     0.310 C 
ATOM      4  O   UNL A   1      34.646  22.828  27.691  1.00  0.00    -0.252 OA
BRANCH   3   5
ATOM      5  C   UNL A   1      33.280  24.160  26.314  1.00  0.00     0.161 C 
BRANCH   5   6
ATOM      6  C   UNL A   1      33.175  25.366  25.409  1.00  0.00     0.000 A 
ATOM      7  C   UNL A   1      32.832  26.712  25.616  1.00  0.00     0.093 A 
ATOM      8  N   UNL A   1      32.545  27.257  24.383  1.00  0.00    -0.351 N 
ATOM      9  C   UNL A   1      32.734  26.361  23.374  1.00  0.00     0.048 A 
ATOM     10  H   UNL A   1      32.239  28.183  24.247  1.00  0.00     0.167 HD
ATOM     11  C   UNL A   1      33.109  25.163  23.970  1.00  0.00     0.007 A 
ATOM     12  C   UNL A   1      32.546  26.514  21.996  1.00  0.00     0.050 A 
ATOM     13  C   UNL A   1      33.257  24.032  23.136  1.00  0.00     0.051 A 
ATOM     14  C   UNL A   1      32.737  25.387  21.194  1.00  0.00     0.078 A 
ATOM     15  C   UNL A   1      33.074  24.164  21.759  1.00  0.00     0.142 A 
ATOM     16  Cl  UNL A   1      32.540  25.539  19.489  1.00  0.00    -0.081 Cl
ATOM     17  F   UNL A   1      33.231  23.076  20.990  1.00  0.00    -0.205 F 
BRANCH   7  18
ATOM     18  C   UNL A   1      32.601  27.585  26.763  1.00  0.00     0.227 C 
ATOM     19  O   UNL A   1      31.675  27.354  27.536  1.00  0.00    -0.285 OA
BRANCH  18  20
ATOM     20  C   UNL A   1      33.365  28.882  26.856  1.00  0.00     0.113 A 
ATOM     21  C   UNL A   1      36.841  29.961  27.831  1.00  0.00     0.044 C 
ATOM     22  C   UNL A   1      35.390  30.014  27.468  1.00  0.00    -0.047 A 
ATOM     23  C   UNL A   1      34.617  31.149  27.730  1.00  0.00     0.023 A 
ATOM     24  C   UNL A   1      34.750  28.866  27.001  1.00  0.00     0.036 A 
ATOM     25  C   UNL A   1      33.257  31.106  27.452  1.00  0.00     0.112 A 
ATOM     26  N   UNL A   1      32.619  30.018  26.967  1.00  0.00    -0.253 NA
ENDBRANCH  18  20
ENDBRANCH   7  18
ENDBRANCH   5   6
ENDBRANCH   3   5
ENDBRANCH   2   3
ENDBRANCH   1   2
BRANCH   1  27
ATOM     27  C   UNL A   1      37.709  23.062  25.587  1.00  0.00     0.275 C 
BRANCH  27  28
ATOM     28  O   UNL A   1      38.381  23.507  26.772  1.00  0.00    -0.458 OA
BRANCH  28  29
ATOM     29  C   UNL A   1      39.675  23.121  26.864  1.00  0.00     0.338 C 
ATOM     30  O   UNL A   1      40.107  22.047  26.503  1.00  0.00    -0.246 OA
BRANCH  29  31
ATOM     31  C   UNL A   1      40.555  24.275  27.059  1.00  0.00     0.060 A 
ATOM     32  C   UNL A   1      41.091  24.452  28.322  1.00  0.00     0.016 A 
ATOM     33  C   UNL A   1      40.336  25.355  26.188  1.00  0.00     0.016 A 
ATOM     34  C   UNL A   1      41.014  25.718  28.850  1.00  0.00     0.010 A 
ATOM     35  C   UNL A   1      40.303  26.632  26.711  1.00  0.00     0.010 A 
ATOM     36  C   UNL A   1      40.504  26.781  28.074  1.00  0.00    -0.014 A 
BRANCH  36  37
ATOM     37  C   UNL A   1      40.537  28.096  28.678  1.00  0.00     0.031 A 
ATOM     38  C   UNL A   1      41.673  28.836  28.116  1.00  0.00     0.074 A 
ATOM     39  C   UNL A   1      39.814  28.622  29.681  1.00  0.00     0.049 A 
ATOM     40  N   UNL A   1      42.846  28.849  28.645  1.00  0.00    -0.248 NA
ATOM     41  C   UNL A   1      41.593  29.327  26.740  1.00  0.00     0.031 C 
ATOM     42  C   UNL A   1      38.588  28.184  30.341  1.00  0.00     0.029 A 
ATOM     43  N   UNL A   1      40.130  29.769  30.347  1.00  0.00    -0.354 N 
ATOM     44  C   UNL A   1      43.664  29.451  27.717  1.00  0.00     0.074 A 
ATOM     45  C   UNL A   1      42.879  29.600  26.514  1.00  0.00     0.031 C 
ATOM     46  C   UNL A   1      38.177  29.145  31.211  1.00  0.00     0.029 A 
ATOM     47  C   UNL A   1      39.196  30.183  31.276  1.00  0.00     0.049 A 
ATOM     48  H   UNL A   1      40.963  30.266  30.178  1.00  0.00     0.167 HD
ATOM     49  C   UNL A   1      44.885  29.916  28.075  1.00  0.00     0.031 A 
ATOM     50  C   UNL A   1      39.305  31.238  32.126  1.00  0.00     0.031 A 
ATOM     51  C   UNL A   1      45.327  29.366  29.333  1.00  0.00     0.049 A 
ATOM     52  C   UNL A   1      40.763  31.456  32.333  1.00  0.00     0.074 A 
ATOM     53  C   UNL A   1      45.670  28.095  29.753  1.00  0.00     0.029 A 
ATOM     54  N   UNL A   1      45.038  30.080  30.474  1.00  0.00    -0.354 N 
ATOM     55  N   UNL A   1      41.513  30.642  33.022  1.00  0.00    -0.248 NA
ATOM     56  C   UNL A   1      41.477  32.346  31.428  1.00  0.00     0.031 C 
ATOM     57  C   UNL A   1      45.143  27.980  31.072  1.00  0.00     0.029 A 
ATOM     58  C   UNL A   1      44.555  29.200  31.413  1.00  0.00     0.049 A 
ATOM     59  H   UNL A   1      45.157  31.050  30.596  1.00  0.00     0.167 HD
ATOM     60  C   UNL A   1      42.722  30.610  32.342  1.00  0.00     0.074 A 
ATOM     61  C   UNL A   1      42.668  31.740  31.418  1.00  0.00     0.031 C 
ATOM     62  C   UNL A   1      43.553  29.528  32.413  1.00  0.00     0.031 A 
BRANCH  49  63
ATOM     63  C   UNL A   1      45.495  31.109  27.415  1.00  0.00    -0.014 A 
ATOM     64  C   UNL A   1      44.745  32.268  27.119  1.00  0.00     0.010 A 
ATOM     65  C   UNL A   1      46.890  31.187  27.283  1.00  0.00     0.010 A 
ATOM     66  C   UNL A   1      45.343  33.437  26.666  1.00  0.00     0.020 A 
ATOM     67  C   UNL A   1      47.507  32.375  26.873  1.00  0.00     0.020 A 
ATOM     68  C   UNL A   1      46.724  33.486  26.555  1.00  0.00     0.054 A 
BRANCH  68  69
ATOM     69  S   UNL A   1      47.465  35.050  26.042  1.00  0.00     0.124 S 
ATOM     70  O   UNL A   1      48.305  35.372  27.193  1.00  0.00    -0.237 OA
ATOM     71  O   UNL A   1      48.180  34.672  24.826  1.00  0.00    -0.237 OA
ATOM     72  O   UNL A   1      46.314  35.924  25.843  1.00  0.00    -0.744 OA
ENDBRANCH  68  69
ENDBRANCH  49  63
BRANCH  50  73
ATOM     73  C   UNL A   1      38.354  32.384  32.187  1.00  0.00    -0.014 A 
ATOM     74  C   UNL A   1      37.842  32.832  33.419  1.00  0.00     0.010 A 
ATOM     75  C   UNL A   1      37.724  32.837  31.007  1.00  0.00     0.010 A 
ATOM     76  C   UNL A   1      36.686  33.620  33.479  1.00  0.00     0.020 A 
ATOM     77  C   UNL A   1      36.564  33.626  31.061  1.00  0.00     0.020 A 
ATOM     78  C   UNL A   1      36.031  33.979  32.300  1.00  0.00     0.054 A 
BRANCH  78  79
ATOM     79  S   UNL A   1      34.431  34.831  32.426  1.00  0.00     0.124 S 
ATOM     80  O   UNL A   1      34.108  35.079  31.023  1.00  0.00    -0.237 OA
ATOM     81  O   UNL A   1      33.595  33.838  33.095  1.00  0.00    -0.237 OA
ATOM     82  O   UNL A   1      34.732  36.021  33.217  1.00  0.00    -0.744 OA
ENDBRANCH  78  79
ENDBRANCH  50  73
BRANCH  62  83
ATOM     83  C   UNL A   1      43.278  28.465  33.460  1.00  0.00    -0.014 A 
ATOM     84  C   UNL A   1      42.114  27.690  33.300  1.00  0.00     0.010 A 
ATOM     85  C   UNL A   1      44.009  28.328  34.658  1.00  0.00     0.010 A 
ATOM     86  C   UNL A   1      41.665  26.841  34.314  1.00  0.00     0.020 A 
ATOM     87  C   UNL A   1      43.578  27.454  35.671  1.00  0.00     0.020 A 
ATOM     88  C   UNL A   1      42.391  26.737  35.502  1.00  0.00     0.054 A 
BRANCH  88  89
ATOM     89  S   UNL A   1      41.729  25.675  36.816  1.00  0.00     0.124 S 
ATOM     90  O   UNL A   1      40.683  26.514  37.396  1.00  0.00    -0.237 OA
ATOM     91  O   UNL A   1      41.252  24.507  36.078  1.00  0.00    -0.237 OA
ATOM     92  O   UNL A   1      42.877  25.427  37.686  1.00  0.00    -0.744 OA
ENDBRANCH  88  89
ENDBRANCH  62  83
ENDBRANCH  36  37
ENDBRANCH  29  31
ENDBRANCH  28  29
ENDBRANCH  27  28
ENDBRANCH   1  27
TORSDOF 17
ENDMDL
