MODEL 1
REMARK VINA RESULT:      -9.6      0.000      0.000
REMARK SMILES O=C(N[C@@H](Cc1ccc(O)cc1)C(=O)N[C@@H](Cc1c[nH]c2ccccc12)C(=O)N[C@@H](CO)C(=O)OCCOC(=O)c1ccc(-c2c3nc(c(-c4ccc(S(=O)(=O)[O-])cc4)c4ccc([nH]4)c(-c4ccc(S(=O)(=O)[O-])cc4)c4nc(c(-c5ccc(S(=O)(=O)[O-])cc5)c5ccc2[nH]5)C=C4)C=C3)cc1)c1ccc(F)cc1
REMARK SMILES IDX 33 1 34 2 30 3 29 4 27 5 28 6 16 8 15 9 13 10 14 11 4 13
REMARK SMILES IDX 3 14 1 15 2 16 101 18 102 19 107 20 103 21 106 22 104 23
REMARK SMILES IDX 105 24 5 25 6 26 7 27 12 28 8 29 11 30 9 31 10 32 17 34
REMARK SMILES IDX 18 35 19 36 26 37 20 38 21 39 25 40 22 42 24 43 23 44 31 45
REMARK SMILES IDX 32 46 35 48 36 49 37 50 38 51 39 52 40 53 41 54 42 55 100 56
REMARK SMILES IDX 43 57 99 58 44 59 45 60 46 61 93 62 47 63 98 64 92 65 94 66
REMARK SMILES IDX 48 67 97 68 91 69 90 70 49 72 79 73 60 74 78 75 61 76 64 77
REMARK SMILES IDX 77 78 95 79 62 80 63 81 76 83 96 84 65 85 50 86 51 87 59 88
REMARK SMILES IDX 52 89 58 90 53 91 54 92 55 93 56 94 57 95 80 96 81 97 89 98
REMARK SMILES IDX 82 99 88 100 83 101 84 102 85 103 86 104 87 105 66 106
REMARK SMILES IDX 67 107 75 108 68 109 74 110 69 111 70 112 71 113 72 114
REMARK SMILES IDX 73 115
REMARK H PARENT 29 7 15 12 3 17 10 33 20 41 32 47 94 71 64 82
REMARK Flexibility Score: inf
ROOT
ATOM      1  C   UNL A   1      42.275  42.065  24.023  1.00  0.00     0.331 C 
ATOM      2  O   UNL A   1      41.549  41.152  23.637  1.00  0.00    -0.250 OA
ENDROOT
BRANCH   1   3
ATOM      3  C   UNL A   1      42.386  43.443  23.293  1.00  0.00     0.218 C 
BRANCH   3   4
ATOM      4  N   UNL A   1      43.547  44.267  23.682  1.00  0.00    -0.339 N 
ATOM      5  C   UNL A   1      44.632  44.416  22.851  1.00  0.00     0.243 C 
ATOM      6  O   UNL A   1      44.669  45.408  22.116  1.00  0.00    -0.273 OA
ATOM      7  H   UNL A   1      43.545  44.718  24.556  1.00  0.00     0.164 HD
BRANCH   5   8
ATOM      8  C   UNL A   1      45.819  43.411  22.877  1.00  0.00     0.175 C 
BRANCH   8   9
ATOM      9  N   UNL A   1      46.207  42.744  21.637  1.00  0.00    -0.342 N 
ATOM     10  C   UNL A   1      46.497  43.282  20.412  1.00  0.00     0.243 C 
ATOM     11  O   UNL A   1      46.803  42.476  19.521  1.00  0.00    -0.273 OA
ATOM     12  H   UNL A   1      46.270  41.763  21.689  1.00  0.00     0.164 HD
BRANCH  10  13
ATOM     13  C   UNL A   1      46.647  44.814  20.129  1.00  0.00     0.176 C 
BRANCH  13  14
ATOM     14  N   UNL A   1      47.700  45.550  20.845  1.00  0.00    -0.340 N 
ATOM     15  O   UNL A   1      48.999  47.252  21.475  1.00  0.00    -0.269 OA
ATOM     16  C   UNL A   1      47.943  46.893  20.963  1.00  0.00     0.251 C 
ATOM     17  H   UNL A   1      48.342  44.978  21.321  1.00  0.00     0.164 HD
BRANCH  16  18
ATOM     18  C   UNL A   1      47.012  47.898  20.410  1.00  0.00     0.040 A 
ATOM     19  C   UNL A   1      45.675  47.967  20.815  1.00  0.00     0.017 A 
ATOM     20  C   UNL A   1      47.515  48.814  19.477  1.00  0.00     0.017 A 
ATOM     21  C   UNL A   1      44.823  48.902  20.222  1.00  0.00     0.040 A 
ATOM     22  C   UNL A   1      46.662  49.751  18.892  1.00  0.00     0.040 A 
ATOM     23  C   UNL A   1      45.321  49.775  19.258  1.00  0.00     0.123 A 
ATOM     24  F   UNL A   1      44.492  50.651  18.675  1.00  0.00    -0.207 F 
ENDBRANCH  16  18
ENDBRANCH  13  14
BRANCH  13  25
ATOM     25  C   UNL A   1      46.656  45.118  18.612  1.00  0.00     0.070 C 
BRANCH  25  26
ATOM     26  C   UNL A   1      45.434  45.826  18.076  1.00  0.00    -0.045 A 
ATOM     27  C   UNL A   1      45.553  46.842  17.116  1.00  0.00     0.007 A 
ATOM     28  C   UNL A   1      44.155  45.440  18.505  1.00  0.00     0.007 A 
ATOM     29  C   UNL A   1      44.413  47.402  16.538  1.00  0.00     0.046 A 
ATOM     30  C   UNL A   1      43.016  46.021  17.949  1.00  0.00     0.046 A 
ATOM     31  C   UNL A   1      43.155  46.965  16.941  1.00  0.00     0.115 A 
BRANCH  31  32
ATOM     32  O   UNL A   1      42.025  47.398  16.315  1.00  0.00    -0.508 OA
ATOM     33  H   UNL A   1      42.054  47.645  15.411  1.00  0.00     0.293 HD
ENDBRANCH  31  32
ENDBRANCH  25  26
ENDBRANCH  13  25
ENDBRANCH  10  13
ENDBRANCH   8   9
BRANCH   8  34
ATOM     34  C   UNL A   1      47.039  43.862  23.705  1.00  0.00     0.072 C 
BRANCH  34  35
ATOM     35  C   UNL A   1      47.105  43.327  25.104  1.00  0.00    -0.020 A 
ATOM     36  C   UNL A   1      47.288  44.041  26.273  1.00  0.00     0.087 A 
ATOM     37  C   UNL A   1      47.036  41.955  25.483  1.00  0.00     0.003 A 
ATOM     38  N   UNL A   1      47.301  43.160  27.325  1.00  0.00    -0.361 N 
ATOM     39  C   UNL A   1      47.072  41.884  26.873  1.00  0.00     0.046 A 
ATOM     40  C   UNL A   1      46.889  40.764  24.762  1.00  0.00     0.010 A 
ATOM     41  H   UNL A   1      47.454  43.407  28.265  1.00  0.00     0.166 HD
ATOM     42  C   UNL A   1      46.910  40.683  27.578  1.00  0.00     0.026 A 
ATOM     43  C   UNL A   1      46.722  39.564  25.456  1.00  0.00     0.001 A 
ATOM     44  C   UNL A   1      46.711  39.521  26.838  1.00  0.00     0.002 A 
ENDBRANCH  34  35
ENDBRANCH   8  34
ENDBRANCH   5   8
ENDBRANCH   3   4
BRANCH   3  45
ATOM     45  C   UNL A   1      42.274  43.263  21.777  1.00  0.00     0.193 C 
BRANCH  45  46
ATOM     46  O   UNL A   1      41.187  43.999  21.224  1.00  0.00    -0.394 OA
ATOM     47  H   UNL A   1      40.400  43.881  21.779  1.00  0.00     0.210 HD
ENDBRANCH  45  46
ENDBRANCH   3  45
ENDBRANCH   1   3
BRANCH   1  48
ATOM     48  O   UNL A   1      42.963  42.024  25.216  1.00  0.00    -0.460 OA
BRANCH  48  49
ATOM     49  C   UNL A   1      43.102  40.703  25.790  1.00  0.00     0.274 C 
BRANCH  49  50
ATOM     50  C   UNL A   1      42.115  40.402  26.948  1.00  0.00     0.275 C 
BRANCH  50  51
ATOM     51  O   UNL A   1      42.210  39.055  27.481  1.00  0.00    -0.458 OA
BRANCH  51  52
ATOM     52  C   UNL A   1      43.118  38.806  28.468  1.00  0.00     0.338 C 
ATOM     53  O   UNL A   1      43.820  39.633  29.030  1.00  0.00    -0.246 OA
BRANCH  52  54
ATOM     54  C   UNL A   1      43.297  37.336  28.619  1.00  0.00     0.060 A 
ATOM     55  C   UNL A   1      42.388  36.507  27.985  1.00  0.00     0.016 A 
ATOM     56  C   UNL A   1      44.299  36.729  29.365  1.00  0.00     0.016 A 
ATOM     57  C   UNL A   1      42.339  35.130  28.279  1.00  0.00     0.010 A 
ATOM     58  C   UNL A   1      44.279  35.317  29.577  1.00  0.00     0.010 A 
ATOM     59  C   UNL A   1      43.219  34.476  29.160  1.00  0.00    -0.014 A 
BRANCH  59  60
ATOM     60  C   UNL A   1      43.097  32.969  29.526  1.00  0.00     0.031 A 
ATOM     61  C   UNL A   1      42.347  32.483  30.777  1.00  0.00     0.074 A 
ATOM     62  C   UNL A   1      43.542  31.920  28.776  1.00  0.00     0.049 A 
ATOM     63  N   UNL A   1      42.556  31.417  31.523  1.00  0.00    -0.248 NA
ATOM     64  C   UNL A   1      41.177  33.264  31.203  1.00  0.00     0.031 C 
ATOM     65  C   UNL A   1      43.955  31.921  27.373  1.00  0.00     0.029 A 
ATOM     66  N   UNL A   1      43.754  30.593  29.144  1.00  0.00    -0.354 N 
ATOM     67  C   UNL A   1      41.621  31.469  32.560  1.00  0.00     0.074 A 
ATOM     68  C   UNL A   1      40.836  32.666  32.337  1.00  0.00     0.031 C 
ATOM     69  C   UNL A   1      44.497  30.739  27.052  1.00  0.00     0.029 A 
ATOM     70  C   UNL A   1      44.465  29.863  28.212  1.00  0.00     0.049 A 
ATOM     71  H   UNL A   1      43.426  30.210  29.990  1.00  0.00     0.167 HD
ATOM     72  C   UNL A   1      41.414  30.612  33.595  1.00  0.00     0.031 A 
ATOM     73  C   UNL A   1      45.077  28.658  28.242  1.00  0.00     0.031 A 
ATOM     74  C   UNL A   1      42.055  29.329  33.768  1.00  0.00     0.049 A 
ATOM     75  C   UNL A   1      45.046  27.797  29.466  1.00  0.00     0.074 A 
ATOM     76  C   UNL A   1      41.901  28.420  34.807  1.00  0.00     0.029 A 
ATOM     77  N   UNL A   1      42.921  28.742  32.866  1.00  0.00    -0.354 N 
ATOM     78  N   UNL A   1      44.377  27.980  30.573  1.00  0.00    -0.248 NA
ATOM     79  C   UNL A   1      45.868  26.575  29.448  1.00  0.00     0.031 C 
ATOM     80  C   UNL A   1      42.720  27.311  34.558  1.00  0.00     0.029 A 
ATOM     81  C   UNL A   1      43.343  27.507  33.341  1.00  0.00     0.049 A 
ATOM     82  H   UNL A   1      43.199  29.142  32.011  1.00  0.00     0.167 HD
ATOM     83  C   UNL A   1      44.698  26.900  31.387  1.00  0.00     0.074 A 
ATOM     84  C   UNL A   1      45.603  26.055  30.641  1.00  0.00     0.031 C 
ATOM     85  C   UNL A   1      44.269  26.652  32.647  1.00  0.00     0.031 A 
BRANCH  72  86
ATOM     86  C   UNL A   1      40.506  31.071  34.714  1.00  0.00    -0.014 A 
ATOM     87  C   UNL A   1      40.933  31.922  35.746  1.00  0.00     0.010 A 
ATOM     88  C   UNL A   1      39.155  30.667  34.677  1.00  0.00     0.010 A 
ATOM     89  C   UNL A   1      40.039  32.314  36.751  1.00  0.00     0.020 A 
ATOM     90  C   UNL A   1      38.254  31.077  35.661  1.00  0.00     0.020 A 
ATOM     91  C   UNL A   1      38.708  31.878  36.709  1.00  0.00     0.054 A 
BRANCH  91  92
ATOM     92  S   UNL A   1      37.571  32.376  38.032  1.00  0.00     0.124 S 
ATOM     93  O   UNL A   1      36.586  33.168  37.299  1.00  0.00    -0.237 OA
ATOM     94  O   UNL A   1      37.088  31.097  38.546  1.00  0.00    -0.237 OA
ATOM     95  O   UNL A   1      38.416  33.134  38.952  1.00  0.00    -0.744 OA
ENDBRANCH  91  92
ENDBRANCH  72  86
BRANCH  73  96
ATOM     96  C   UNL A   1      45.883  28.234  27.060  1.00  0.00    -0.014 A 
ATOM     97  C   UNL A   1      47.221  28.633  26.912  1.00  0.00     0.010 A 
ATOM     98  C   UNL A   1      45.310  27.373  26.105  1.00  0.00     0.010 A 
ATOM     99  C   UNL A   1      47.985  28.145  25.847  1.00  0.00     0.020 A 
ATOM    100  C   UNL A   1      46.077  26.865  25.056  1.00  0.00     0.020 A 
ATOM    101  C   UNL A   1      47.412  27.250  24.936  1.00  0.00     0.054 A 
BRANCH 101 102
ATOM    102  S   UNL A   1      48.456  26.515  23.647  1.00  0.00     0.124 S 
ATOM    103  O   UNL A   1      49.783  26.594  24.247  1.00  0.00    -0.237 OA
ATOM    104  O   UNL A   1      47.897  25.170  23.517  1.00  0.00    -0.237 OA
ATOM    105  O   UNL A   1      48.233  27.383  22.492  1.00  0.00    -0.744 OA
ENDBRANCH 101 102
ENDBRANCH  73  96
BRANCH  85 106
ATOM    106  C   UNL A   1      44.779  25.410  33.324  1.00  0.00    -0.014 A 
ATOM    107  C   UNL A   1      45.951  25.449  34.103  1.00  0.00     0.010 A 
ATOM    108  C   UNL A   1      44.084  24.194  33.196  1.00  0.00     0.010 A 
ATOM    109  C   UNL A   1      46.429  24.291  34.722  1.00  0.00     0.020 A 
ATOM    110  C   UNL A   1      44.551  23.037  33.830  1.00  0.00     0.020 A 
ATOM    111  C   UNL A   1      45.729  23.090  34.579  1.00  0.00     0.054 A 
BRANCH 111 112
ATOM    112  S   UNL A   1      46.353  21.607  35.421  1.00  0.00     0.124 S 
ATOM    113  O   UNL A   1      47.799  21.777  35.304  1.00  0.00    -0.237 OA
ATOM    114  O   UNL A   1      45.812  21.752  36.771  1.00  0.00    -0.237 OA
ATOM    115  O   UNL A   1      45.790  20.505  34.645  1.00  0.00    -0.744 OA
ENDBRANCH 111 112
ENDBRANCH  85 106
ENDBRANCH  59  60
ENDBRANCH  52  54
ENDBRANCH  51  52
ENDBRANCH  50  51
ENDBRANCH  49  50
ENDBRANCH  48  49
ENDBRANCH   1  48
TORSDOF 27
ENDMDL
MODEL 2
REMARK VINA RESULT:      -9.6      8.765     14.756
REMARK SMILES O=C(N[C@@H](Cc1ccc(O)cc1)C(=O)N[C@@H](Cc1c[nH]c2ccccc12)C(=O)N[C@@H](CO)C(=O)OCCOC(=O)c1ccc(-c2c3nc(c(-c4ccc(S(=O)(=O)[O-])cc4)c4ccc([nH]4)c(-c4ccc(S(=O)(=O)[O-])cc4)c4nc(c(-c5ccc(S(=O)(=O)[O-])cc5)c5ccc2[nH]5)C=C4)C=C3)cc1)c1ccc(F)cc1
REMARK SMILES IDX 33 1 34 2 30 3 29 4 27 5 28 6 16 8 15 9 13 10 14 11 4 13
REMARK SMILES IDX 3 14 1 15 2 16 101 18 102 19 107 20 103 21 106 22 104 23
REMARK SMILES IDX 105 24 5 25 6 26 7 27 12 28 8 29 11 30 9 31 10 32 17 34
REMARK SMILES IDX 18 35 19 36 26 37 20 38 21 39 25 40 22 42 24 43 23 44 31 45
REMARK SMILES IDX 32 46 35 48 36 49 37 50 38 51 39 52 40 53 41 54 42 55 100 56
REMARK SMILES IDX 43 57 99 58 44 59 45 60 46 61 93 62 47 63 98 64 92 65 94 66
REMARK SMILES IDX 48 67 97 68 91 69 90 70 49 72 79 73 60 74 78 75 61 76 64 77
REMARK SMILES IDX 77 78 95 79 62 80 63 81 76 83 96 84 65 85 50 86 51 87 59 88
REMARK SMILES IDX 52 89 58 90 53 91 54 92 55 93 56 94 57 95 80 96 81 97 89 98
REMARK SMILES IDX 82 99 88 100 83 101 84 102 85 103 86 104 87 105 66 106
REMARK SMILES IDX 67 107 75 108 68 109 74 110 69 111 70 112 71 113 72 114
REMARK SMILES IDX 73 115
REMARK H PARENT 29 7 15 12 3 17 10 33 20 41 32 47 94 71 64 82
REMARK Flexibility Score: inf
ROOT
ATOM      1  C   UNL A   1      35.459  33.907  29.456  1.00  0.00     0.331 C 
ATOM      2  O   UNL A   1      34.593  34.630  29.944  1.00  0.00    -0.250 OA
ENDROOT
BRANCH   1   3
ATOM      3  C   UNL A   1      35.297  32.361  29.293  1.00  0.00     0.218 C 
BRANCH   3   4
ATOM      4  N   UNL A   1      34.892  31.640  30.516  1.00  0.00    -0.339 N 
ATOM      5  C   UNL A   1      35.686  31.625  31.637  1.00  0.00     0.243 C 
ATOM      6  O   UNL A   1      35.459  32.456  32.522  1.00  0.00    -0.273 OA
ATOM      7  H   UNL A   1      34.033  31.159  30.527  1.00  0.00     0.164 HD
BRANCH   5   8
ATOM      8  C   UNL A   1      36.796  30.552  31.831  1.00  0.00     0.175 C 
BRANCH   8   9
ATOM      9  N   UNL A   1      37.204  30.194  33.187  1.00  0.00    -0.342 N 
ATOM     10  C   UNL A   1      38.256  30.657  33.931  1.00  0.00     0.243 C 
ATOM     11  O   UNL A   1      38.371  30.178  35.068  1.00  0.00    -0.273 OA
ATOM     12  H   UNL A   1      36.640  29.521  33.632  1.00  0.00     0.164 HD
BRANCH  10  13
ATOM     13  C   UNL A   1      39.176  31.854  33.517  1.00  0.00     0.176 C 
BRANCH  13  14
ATOM     14  N   UNL A   1      38.538  33.143  33.212  1.00  0.00    -0.340 N 
ATOM     15  O   UNL A   1      37.379  35.026  33.521  1.00  0.00    -0.269 OA
ATOM     16  C   UNL A   1      38.022  34.113  34.031  1.00  0.00     0.251 C 
ATOM     17  H   UNL A   1      38.470  33.345  32.251  1.00  0.00     0.164 HD
BRANCH  16  18
ATOM     18  C   UNL A   1      38.146  34.028  35.500  1.00  0.00     0.040 A 
ATOM     19  C   UNL A   1      37.273  33.252  36.271  1.00  0.00     0.017 A 
ATOM     20  C   UNL A   1      39.192  34.733  36.112  1.00  0.00     0.017 A 
ATOM     21  C   UNL A   1      37.401  33.249  37.662  1.00  0.00     0.040 A 
ATOM     22  C   UNL A   1      39.319  34.721  37.501  1.00  0.00     0.040 A 
ATOM     23  C   UNL A   1      38.413  33.992  38.264  1.00  0.00     0.123 A 
ATOM     24  F   UNL A   1      38.513  34.005  39.600  1.00  0.00    -0.207 F 
ENDBRANCH  16  18
ENDBRANCH  13  14
BRANCH  13  25
ATOM     25  C   UNL A   1      40.375  32.014  34.482  1.00  0.00     0.070 C 
BRANCH  25  26
ATOM     26  C   UNL A   1      41.635  31.278  34.093  1.00  0.00    -0.045 A 
ATOM     27  C   UNL A   1      41.585  30.162  33.245  1.00  0.00     0.007 A 
ATOM     28  C   UNL A   1      42.883  31.736  34.547  1.00  0.00     0.007 A 
ATOM     29  C   UNL A   1      42.764  29.567  32.794  1.00  0.00     0.046 A 
ATOM     30  C   UNL A   1      44.059  31.122  34.119  1.00  0.00     0.046 A 
ATOM     31  C   UNL A   1      43.991  30.072  33.214  1.00  0.00     0.115 A 
BRANCH  31  32
ATOM     32  O   UNL A   1      45.161  29.597  32.701  1.00  0.00    -0.508 OA
ATOM     33  H   UNL A   1      45.951  29.658  33.201  1.00  0.00     0.293 HD
ENDBRANCH  31  32
ENDBRANCH  25  26
ENDBRANCH  13  25
ENDBRANCH  10  13
ENDBRANCH   8   9
BRANCH   8  34
ATOM     34  C   UNL A   1      36.682  29.320  30.910  1.00  0.00     0.072 C 
BRANCH  34  35
ATOM     35  C   UNL A   1      37.574  29.328  29.705  1.00  0.00    -0.020 A 
ATOM     36  C   UNL A   1      37.268  29.764  28.430  1.00  0.00     0.087 A 
ATOM     37  C   UNL A   1      38.909  28.833  29.646  1.00  0.00     0.003 A 
ATOM     38  N   UNL A   1      38.366  29.578  27.630  1.00  0.00    -0.361 N 
ATOM     39  C   UNL A   1      39.410  29.080  28.370  1.00  0.00     0.046 A 
ATOM     40  C   UNL A   1      39.760  28.243  30.588  1.00  0.00     0.010 A 
ATOM     41  H   UNL A   1      38.400  29.772  26.665  1.00  0.00     0.166 HD
ATOM     42  C   UNL A   1      40.738  28.817  28.010  1.00  0.00     0.026 A 
ATOM     43  C   UNL A   1      41.087  27.983  30.239  1.00  0.00     0.001 A 
ATOM     44  C   UNL A   1      41.578  28.281  28.982  1.00  0.00     0.002 A 
ENDBRANCH  34  35
ENDBRANCH   8  34
ENDBRANCH   5   8
ENDBRANCH   3   4
BRANCH   3  45
ATOM     45  C   UNL A   1      34.403  32.034  28.094  1.00  0.00     0.193 C 
BRANCH  45  46
ATOM     46  O   UNL A   1      33.477  33.078  27.809  1.00  0.00    -0.394 OA
ATOM     47  H   UNL A   1      33.852  33.670  27.140  1.00  0.00     0.210 HD
ENDBRANCH  45  46
ENDBRANCH   3  45
ENDBRANCH   1   3
BRANCH   1  48
ATOM     48  O   UNL A   1      36.607  34.399  28.875  1.00  0.00    -0.460 OA
BRANCH  48  49
ATOM     49  C   UNL A   1      37.791  33.597  29.099  1.00  0.00     0.274 C 
BRANCH  49  50
ATOM     50  C   UNL A   1      38.768  34.181  30.152  1.00  0.00     0.275 C 
BRANCH  50  51
ATOM     51  O   UNL A   1      40.169  34.102  29.779  1.00  0.00    -0.458 OA
BRANCH  51  52
ATOM     52  C   UNL A   1      41.107  34.058  30.769  1.00  0.00     0.338 C 
ATOM     53  O   UNL A   1      40.989  34.513  31.896  1.00  0.00    -0.246 OA
BRANCH  52  54
ATOM     54  C   UNL A   1      42.395  33.563  30.211  1.00  0.00     0.060 A 
ATOM     55  C   UNL A   1      42.942  34.251  29.142  1.00  0.00     0.016 A 
ATOM     56  C   UNL A   1      43.086  32.449  30.670  1.00  0.00     0.016 A 
ATOM     57  C   UNL A   1      44.013  33.709  28.405  1.00  0.00     0.010 A 
ATOM     58  C   UNL A   1      44.224  31.967  29.956  1.00  0.00     0.010 A 
ATOM     59  C   UNL A   1      44.652  32.494  28.713  1.00  0.00    -0.014 A 
BRANCH  59  60
ATOM     60  C   UNL A   1      45.783  31.879  27.841  1.00  0.00     0.031 A 
ATOM     61  C   UNL A   1      45.772  30.408  27.393  1.00  0.00     0.074 A 
ATOM     62  C   UNL A   1      46.843  32.552  27.306  1.00  0.00     0.049 A 
ATOM     63  N   UNL A   1      46.779  29.595  27.148  1.00  0.00    -0.248 NA
ATOM     64  C   UNL A   1      44.461  29.798  27.131  1.00  0.00     0.031 C 
ATOM     65  C   UNL A   1      47.022  33.997  27.167  1.00  0.00     0.029 A 
ATOM     66  N   UNL A   1      48.038  32.056  26.787  1.00  0.00    -0.354 N 
ATOM     67  C   UNL A   1      46.219  28.358  26.818  1.00  0.00     0.074 A 
ATOM     68  C   UNL A   1      44.783  28.535  26.882  1.00  0.00     0.031 C 
ATOM     69  C   UNL A   1      48.268  34.270  26.760  1.00  0.00     0.029 A 
ATOM     70  C   UNL A   1      49.000  33.025  26.582  1.00  0.00     0.049 A 
ATOM     71  H   UNL A   1      48.183  31.104  26.585  1.00  0.00     0.167 HD
ATOM     72  C   UNL A   1      46.821  27.186  26.482  1.00  0.00     0.031 A 
ATOM     73  C   UNL A   1      50.326  32.981  26.323  1.00  0.00     0.031 A 
ATOM     74  C   UNL A   1      48.235  27.003  26.244  1.00  0.00     0.049 A 
ATOM     75  C   UNL A   1      51.050  31.680  26.175  1.00  0.00     0.074 A 
ATOM     76  C   UNL A   1      48.911  25.835  25.917  1.00  0.00     0.029 A 
ATOM     77  N   UNL A   1      49.180  28.010  26.248  1.00  0.00    -0.354 N 
ATOM     78  N   UNL A   1      50.554  30.472  26.141  1.00  0.00    -0.248 NA
ATOM     79  C   UNL A   1      52.516  31.738  26.046  1.00  0.00     0.031 C 
ATOM     80  C   UNL A   1      50.274  26.128  25.781  1.00  0.00     0.029 A 
ATOM     81  C   UNL A   1      50.437  27.486  25.973  1.00  0.00     0.049 A 
ATOM     82  H   UNL A   1      48.992  28.960  26.421  1.00  0.00     0.167 HD
ATOM     83  C   UNL A   1      51.645  29.624  25.992  1.00  0.00     0.074 A 
ATOM     84  C   UNL A   1      52.827  30.453  25.919  1.00  0.00     0.031 C 
ATOM     85  C   UNL A   1      51.643  28.271  25.927  1.00  0.00     0.031 A 
BRANCH  72  86
ATOM     86  C   UNL A   1      45.962  25.943  26.440  1.00  0.00    -0.014 A 
ATOM     87  C   UNL A   1      45.744  25.125  27.561  1.00  0.00     0.010 A 
ATOM     88  C   UNL A   1      45.307  25.632  25.231  1.00  0.00     0.010 A 
ATOM     89  C   UNL A   1      44.931  23.988  27.456  1.00  0.00     0.020 A 
ATOM     90  C   UNL A   1      44.475  24.517  25.129  1.00  0.00     0.020 A 
ATOM     91  C   UNL A   1      44.313  23.685  26.236  1.00  0.00     0.054 A 
BRANCH  91  92
ATOM     92  S   UNL A   1      43.283  22.195  26.113  1.00  0.00     0.124 S 
ATOM     93  O   UNL A   1      42.318  22.582  25.086  1.00  0.00    -0.237 OA
ATOM     94  O   UNL A   1      44.242  21.168  25.714  1.00  0.00    -0.237 OA
ATOM     95  O   UNL A   1      42.732  22.040  27.457  1.00  0.00    -0.744 OA
ENDBRANCH  91  92
ENDBRANCH  72  86
BRANCH  73  96
ATOM     96  C   UNL A   1      51.092  34.262  26.292  1.00  0.00    -0.014 A 
ATOM     97  C   UNL A   1      51.627  34.818  27.464  1.00  0.00     0.010 A 
ATOM     98  C   UNL A   1      51.332  34.893  25.056  1.00  0.00     0.010 A 
ATOM     99  C   UNL A   1      52.423  35.967  27.396  1.00  0.00     0.020 A 
ATOM    100  C   UNL A   1      52.146  36.024  24.982  1.00  0.00     0.020 A 
ATOM    101  C   UNL A   1      52.691  36.551  26.153  1.00  0.00     0.054 A 
BRANCH 101 102
ATOM    102  S   UNL A   1      53.842  37.952  26.067  1.00  0.00     0.124 S 
ATOM    103  O   UNL A   1      54.993  37.359  25.394  1.00  0.00    -0.237 OA
ATOM    104  O   UNL A   1      53.088  38.932  25.288  1.00  0.00    -0.237 OA
ATOM    105  O   UNL A   1      54.047  38.310  27.468  1.00  0.00    -0.744 OA
ENDBRANCH 101 102
ENDBRANCH  73  96
BRANCH  85 106
ATOM    106  C   UNL A   1      52.970  27.581  25.776  1.00  0.00    -0.014 A 
ATOM    107  C   UNL A   1      53.664  27.110  26.907  1.00  0.00     0.010 A 
ATOM    108  C   UNL A   1      53.530  27.385  24.501  1.00  0.00     0.010 A 
ATOM    109  C   UNL A   1      54.903  26.478  26.766  1.00  0.00     0.020 A 
ATOM    110  C   UNL A   1      54.762  26.737  24.356  1.00  0.00     0.020 A 
ATOM    111  C   UNL A   1      55.447  26.298  25.491  1.00  0.00     0.054 A 
BRANCH 111 112
ATOM    112  S   UNL A   1      57.042  25.444  25.333  1.00  0.00     0.124 S 
ATOM    113  O   UNL A   1      56.627  24.085  24.998  1.00  0.00    -0.237 OA
ATOM    114  O   UNL A   1      57.697  26.183  24.256  1.00  0.00    -0.237 OA
ATOM    115  O   UNL A   1      57.652  25.603  26.651  1.00  0.00    -0.744 OA
ENDBRANCH 111 112
ENDBRANCH  85 106
ENDBRANCH  59  60
ENDBRANCH  52  54
ENDBRANCH  51  52
ENDBRANCH  50  51
ENDBRANCH  49  50
ENDBRANCH  48  49
ENDBRANCH   1  48
TORSDOF 27
ENDMDL
MODEL 3
REMARK VINA RESULT:      -9.1      1.541      2.328
REMARK SMILES O=C(N[C@@H](Cc1ccc(O)cc1)C(=O)N[C@@H](Cc1c[nH]c2ccccc12)C(=O)N[C@@H](CO)C(=O)OCCOC(=O)c1ccc(-c2c3nc(c(-c4ccc(S(=O)(=O)[O-])cc4)c4ccc([nH]4)c(-c4ccc(S(=O)(=O)[O-])cc4)c4nc(c(-c5ccc(S(=O)(=O)[O-])cc5)c5ccc2[nH]5)C=C4)C=C3)cc1)c1ccc(F)cc1
REMARK SMILES IDX 33 1 34 2 30 3 29 4 27 5 28 6 16 8 15 9 13 10 14 11 4 13
REMARK SMILES IDX 3 14 1 15 2 16 101 18 102 19 107 20 103 21 106 22 104 23
REMARK SMILES IDX 105 24 5 25 6 26 7 27 12 28 8 29 11 30 9 31 10 32 17 34
REMARK SMILES IDX 18 35 19 36 26 37 20 38 21 39 25 40 22 42 24 43 23 44 31 45
REMARK SMILES IDX 32 46 35 48 36 49 37 50 38 51 39 52 40 53 41 54 42 55 100 56
REMARK SMILES IDX 43 57 99 58 44 59 45 60 46 61 93 62 47 63 98 64 92 65 94 66
REMARK SMILES IDX 48 67 97 68 91 69 90 70 49 72 79 73 60 74 78 75 61 76 64 77
REMARK SMILES IDX 77 78 95 79 62 80 63 81 76 83 96 84 65 85 50 86 51 87 59 88
REMARK SMILES IDX 52 89 58 90 53 91 54 92 55 93 56 94 57 95 80 96 81 97 89 98
REMARK SMILES IDX 82 99 88 100 83 101 84 102 85 103 86 104 87 105 66 106
REMARK SMILES IDX 67 107 75 108 68 109 74 110 69 111 70 112 71 113 72 114
REMARK SMILES IDX 73 115
REMARK H PARENT 29 7 15 12 3 17 10 33 20 41 32 47 94 71 64 82
REMARK Flexibility Score: inf
ROOT
ATOM      1  C   UNL A   1      42.578  42.169  24.097  1.00  0.00     0.331 C 
ATOM      2  O   UNL A   1      41.818  41.364  23.565  1.00  0.00    -0.250 OA
ENDROOT
BRANCH   1   3
ATOM      3  C   UNL A   1      42.826  43.610  23.545  1.00  0.00     0.218 C 
BRANCH   3   4
ATOM      4  N   UNL A   1      43.836  44.398  24.279  1.00  0.00    -0.339 N 
ATOM      5  C   UNL A   1      45.045  44.722  23.713  1.00  0.00     0.243 C 
ATOM      6  O   UNL A   1      45.154  45.824  23.165  1.00  0.00    -0.273 OA
ATOM      7  H   UNL A   1      43.638  44.697  25.196  1.00  0.00     0.164 HD
BRANCH   5   8
ATOM      8  C   UNL A   1      46.271  43.769  23.815  1.00  0.00     0.175 C 
BRANCH   8   9
ATOM      9  N   UNL A   1      46.186  42.441  23.211  1.00  0.00    -0.342 N 
ATOM     10  C   UNL A   1      46.464  42.047  21.930  1.00  0.00     0.243 C 
ATOM     11  O   UNL A   1      46.305  40.843  21.684  1.00  0.00    -0.273 OA
ATOM     12  H   UNL A   1      45.883  41.724  23.814  1.00  0.00     0.164 HD
BRANCH  10  13
ATOM     13  C   UNL A   1      47.131  42.959  20.847  1.00  0.00     0.176 C 
BRANCH  13  14
ATOM     14  N   UNL A   1      48.552  42.738  20.536  1.00  0.00    -0.340 N 
ATOM     15  O   UNL A   1      50.573  43.073  19.650  1.00  0.00    -0.269 OA
ATOM     16  C   UNL A   1      49.490  43.557  19.966  1.00  0.00     0.251 C 
ATOM     17  H   UNL A   1      48.886  41.846  20.781  1.00  0.00     0.164 HD
BRANCH  16  18
ATOM     18  C   UNL A   1      49.191  44.968  19.645  1.00  0.00     0.040 A 
ATOM     19  C   UNL A   1      48.826  45.370  18.355  1.00  0.00     0.017 A 
ATOM     20  C   UNL A   1      49.255  45.904  20.685  1.00  0.00     0.017 A 
ATOM     21  C   UNL A   1      48.606  46.724  18.093  1.00  0.00     0.040 A 
ATOM     22  C   UNL A   1      49.027  47.255  20.420  1.00  0.00     0.040 A 
ATOM     23  C   UNL A   1      48.721  47.654  19.124  1.00  0.00     0.123 A 
ATOM     24  F   UNL A   1      48.533  48.954  18.859  1.00  0.00    -0.207 F 
ENDBRANCH  16  18
ENDBRANCH  13  14
BRANCH  13  25
ATOM     25  C   UNL A   1      46.266  43.054  19.567  1.00  0.00     0.070 C 
BRANCH  25  26
ATOM     26  C   UNL A   1      45.564  44.373  19.345  1.00  0.00    -0.045 A 
ATOM     27  C   UNL A   1      45.758  45.449  20.223  1.00  0.00     0.007 A 
ATOM     28  C   UNL A   1      44.739  44.548  18.223  1.00  0.00     0.007 A 
ATOM     29  C   UNL A   1      45.204  46.699  19.940  1.00  0.00     0.046 A 
ATOM     30  C   UNL A   1      44.160  45.788  17.956  1.00  0.00     0.046 A 
ATOM     31  C   UNL A   1      44.433  46.862  18.793  1.00  0.00     0.115 A 
BRANCH  31  32
ATOM     32  O   UNL A   1      43.977  48.091  18.419  1.00  0.00    -0.508 OA
ATOM     33  H   UNL A   1      44.449  48.861  18.668  1.00  0.00     0.293 HD
ENDBRANCH  31  32
ENDBRANCH  25  26
ENDBRANCH  13  25
ENDBRANCH  10  13
ENDBRANCH   8   9
BRANCH   8  34
ATOM     34  C   UNL A   1      47.639  44.435  23.570  1.00  0.00     0.072 C 
BRANCH  34  35
ATOM     35  C   UNL A   1      48.477  44.661  24.793  1.00  0.00    -0.020 A 
ATOM     36  C   UNL A   1      48.073  44.617  26.113  1.00  0.00     0.087 A 
ATOM     37  C   UNL A   1      49.858  45.014  24.811  1.00  0.00     0.003 A 
ATOM     38  N   UNL A   1      49.154  44.899  26.910  1.00  0.00    -0.361 N 
ATOM     39  C   UNL A   1      50.276  45.069  26.138  1.00  0.00     0.046 A 
ATOM     40  C   UNL A   1      50.807  45.237  23.807  1.00  0.00     0.010 A 
ATOM     41  H   UNL A   1      49.128  44.969  27.891  1.00  0.00     0.166 HD
ATOM     42  C   UNL A   1      51.612  45.282  26.506  1.00  0.00     0.026 A 
ATOM     43  C   UNL A   1      52.141  45.444  24.165  1.00  0.00     0.001 A 
ATOM     44  C   UNL A   1      52.546  45.447  25.488  1.00  0.00     0.002 A 
ENDBRANCH  34  35
ENDBRANCH   8  34
ENDBRANCH   5   8
ENDBRANCH   3   4
BRANCH   3  45
ATOM     45  C   UNL A   1      43.092  43.575  22.037  1.00  0.00     0.193 C 
BRANCH  45  46
ATOM     46  O   UNL A   1      43.457  42.275  21.583  1.00  0.00    -0.394 OA
ATOM     47  H   UNL A   1      44.054  41.863  22.227  1.00  0.00     0.210 HD
ENDBRANCH  45  46
ENDBRANCH   3  45
ENDBRANCH   1   3
BRANCH   1  48
ATOM     48  O   UNL A   1      43.187  41.939  25.311  1.00  0.00    -0.460 OA
BRANCH  48  49
ATOM     49  C   UNL A   1      43.001  40.604  25.839  1.00  0.00     0.274 C 
BRANCH  49  50
ATOM     50  C   UNL A   1      42.017  40.522  27.035  1.00  0.00     0.275 C 
BRANCH  50  51
ATOM     51  O   UNL A   1      42.063  39.267  27.763  1.00  0.00    -0.458 OA
BRANCH  51  52
ATOM     52  C   UNL A   1      43.116  39.037  28.601  1.00  0.00     0.338 C 
ATOM     53  O   UNL A   1      43.907  39.871  29.013  1.00  0.00    -0.246 OA
BRANCH  52  54
ATOM     54  C   UNL A   1      43.302  37.570  28.774  1.00  0.00     0.060 A 
ATOM     55  C   UNL A   1      42.488  36.726  28.040  1.00  0.00     0.016 A 
ATOM     56  C   UNL A   1      44.221  36.980  29.632  1.00  0.00     0.016 A 
ATOM     57  C   UNL A   1      42.428  35.348  28.327  1.00  0.00     0.010 A 
ATOM     58  C   UNL A   1      44.201  35.568  29.842  1.00  0.00     0.010 A 
ATOM     59  C   UNL A   1      43.211  34.709  29.306  1.00  0.00    -0.014 A 
BRANCH  59  60
ATOM     60  C   UNL A   1      43.074  33.200  29.657  1.00  0.00     0.031 A 
ATOM     61  C   UNL A   1      42.323  32.709  30.906  1.00  0.00     0.074 A 
ATOM     62  C   UNL A   1      43.506  32.154  28.895  1.00  0.00     0.049 A 
ATOM     63  N   UNL A   1      42.522  31.634  31.640  1.00  0.00    -0.248 NA
ATOM     64  C   UNL A   1      41.163  33.499  31.343  1.00  0.00     0.031 C 
ATOM     65  C   UNL A   1      43.914  32.164  27.491  1.00  0.00     0.029 A 
ATOM     66  N   UNL A   1      43.704  30.821  29.250  1.00  0.00    -0.354 N 
ATOM     67  C   UNL A   1      41.592  31.686  32.681  1.00  0.00     0.074 A 
ATOM     68  C   UNL A   1      40.819  32.893  32.473  1.00  0.00     0.031 C 
ATOM     69  C   UNL A   1      44.442  30.980  27.156  1.00  0.00     0.029 A 
ATOM     70  C   UNL A   1      44.404  30.093  28.308  1.00  0.00     0.049 A 
ATOM     71  H   UNL A   1      43.375  30.433  30.093  1.00  0.00     0.167 HD
ATOM     72  C   UNL A   1      41.379  30.821  33.708  1.00  0.00     0.031 A 
ATOM     73  C   UNL A   1      45.003  28.880  28.324  1.00  0.00     0.031 A 
ATOM     74  C   UNL A   1      42.006  29.529  33.867  1.00  0.00     0.049 A 
ATOM     75  C   UNL A   1      44.967  28.007  29.539  1.00  0.00     0.074 A 
ATOM     76  C   UNL A   1      41.846  28.611  34.896  1.00  0.00     0.029 A 
ATOM     77  N   UNL A   1      42.863  28.942  32.956  1.00  0.00    -0.354 N 
ATOM     78  N   UNL A   1      44.304  28.187  30.651  1.00  0.00    -0.248 NA
ATOM     79  C   UNL A   1      45.775  26.777  29.506  1.00  0.00     0.031 C 
ATOM     80  C   UNL A   1      42.652  27.496  34.634  1.00  0.00     0.029 A 
ATOM     81  C   UNL A   1      43.273  27.698  33.417  1.00  0.00     0.049 A 
ATOM     82  H   UNL A   1      43.143  29.347  32.104  1.00  0.00     0.167 HD
ATOM     83  C   UNL A   1      44.615  27.095  31.452  1.00  0.00     0.074 A 
ATOM     84  C   UNL A   1      45.509  26.248  30.695  1.00  0.00     0.031 C 
ATOM     85  C   UNL A   1      44.188  26.839  32.712  1.00  0.00     0.031 A 
BRANCH  72  86
ATOM     86  C   UNL A   1      40.479  31.278  34.835  1.00  0.00    -0.014 A 
ATOM     87  C   UNL A   1      40.950  31.995  35.947  1.00  0.00     0.010 A 
ATOM     88  C   UNL A   1      39.098  31.019  34.724  1.00  0.00     0.010 A 
ATOM     89  C   UNL A   1      40.062  32.393  36.955  1.00  0.00     0.020 A 
ATOM     90  C   UNL A   1      38.206  31.439  35.712  1.00  0.00     0.020 A 
ATOM     91  C   UNL A   1      38.697  32.101  36.837  1.00  0.00     0.054 A 
BRANCH  91  92
ATOM     92  S   UNL A   1      37.566  32.605  38.163  1.00  0.00     0.124 S 
ATOM     93  O   UNL A   1      36.396  33.047  37.408  1.00  0.00    -0.237 OA
ATOM     94  O   UNL A   1      37.389  31.372  38.927  1.00  0.00    -0.237 OA
ATOM     95  O   UNL A   1      38.293  33.664  38.858  1.00  0.00    -0.744 OA
ENDBRANCH  91  92
ENDBRANCH  72  86
BRANCH  73  96
ATOM     96  C   UNL A   1      45.801  28.460  27.135  1.00  0.00    -0.014 A 
ATOM     97  C   UNL A   1      47.157  28.801  27.012  1.00  0.00     0.010 A 
ATOM     98  C   UNL A   1      45.198  27.660  26.146  1.00  0.00     0.010 A 
ATOM     99  C   UNL A   1      47.908  28.314  25.937  1.00  0.00     0.020 A 
ATOM    100  C   UNL A   1      45.951  27.152  25.087  1.00  0.00     0.020 A 
ATOM    101  C   UNL A   1      47.304  27.478  24.992  1.00  0.00     0.054 A 
BRANCH 101 102
ATOM    102  S   UNL A   1      48.326  26.739  23.687  1.00  0.00     0.124 S 
ATOM    103  O   UNL A   1      47.877  25.350  23.699  1.00  0.00    -0.237 OA
ATOM    104  O   UNL A   1      47.946  27.518  22.510  1.00  0.00    -0.237 OA
ATOM    105  O   UNL A   1      49.691  26.964  24.156  1.00  0.00    -0.744 OA
ENDBRANCH 101 102
ENDBRANCH  73  96
BRANCH  85 106
ATOM    106  C   UNL A   1      44.686  25.586  33.374  1.00  0.00    -0.014 A 
ATOM    107  C   UNL A   1      43.957  24.386  33.277  1.00  0.00     0.010 A 
ATOM    108  C   UNL A   1      45.896  25.593  34.091  1.00  0.00     0.010 A 
ATOM    109  C   UNL A   1      44.416  23.224  33.902  1.00  0.00     0.020 A 
ATOM    110  C   UNL A   1      46.368  24.426  34.704  1.00  0.00     0.020 A 
ATOM    111  C   UNL A   1      45.618  23.251  34.616  1.00  0.00     0.054 A 
BRANCH 111 112
ATOM    112  S   UNL A   1      46.210  21.720  35.391  1.00  0.00     0.124 S 
ATOM    113  O   UNL A   1      45.957  21.978  36.806  1.00  0.00    -0.237 OA
ATOM    114  O   UNL A   1      45.362  20.700  34.779  1.00  0.00    -0.237 OA
ATOM    115  O   UNL A   1      47.619  21.661  35.010  1.00  0.00    -0.744 OA
ENDBRANCH 111 112
ENDBRANCH  85 106
ENDBRANCH  59  60
ENDBRANCH  52  54
ENDBRANCH  51  52
ENDBRANCH  50  51
ENDBRANCH  49  50
ENDBRANCH  48  49
ENDBRANCH   1  48
TORSDOF 27
ENDMDL
