MODEL 1
REMARK VINA RESULT:     -10.4      0.000      0.000
REMARK SMILES CC[C@@](O)(C(=O)OCCOC(=O)c1ccc(-c2c3nc(c(-c4ccc(S(=O)(=O)[O-])cc4)c4ccc([nH]4)c(-c4ccc(S(=O)(=O)[O-])cc4)c4nc(c(-c5ccc(S(=O)(=O)[O-])cc5)c5ccc2[nH]5)C=C4)C=C3)cc1)[C@@H]1CCOc2ccccc21
REMARK SMILES IDX 9 1 8 2 7 3 5 4 6 5 3 6 2 7 1 8 4 9 73 11 74 12 82 13 75 14
REMARK SMILES IDX 77 15 81 16 76 17 78 18 80 19 79 20 10 21 11 22 12 23 13 24
REMARK SMILES IDX 14 25 72 26 15 27 71 28 16 29 17 30 18 31 65 32 19 33 70 34
REMARK SMILES IDX 64 35 66 36 20 37 69 38 63 39 62 40 21 42 51 43 32 44 50 45
REMARK SMILES IDX 33 46 36 47 49 48 67 49 34 50 35 51 48 53 68 54 37 55 22 56
REMARK SMILES IDX 23 57 31 58 24 59 30 60 25 61 26 62 27 63 28 64 29 65 52 66
REMARK SMILES IDX 53 67 61 68 54 69 60 70 55 71 56 72 57 73 58 74 59 75 38 76
REMARK SMILES IDX 39 77 47 78 40 79 46 80 41 81 42 82 43 83 44 84 45 85
REMARK H PARENT 4 10 66 41 36 52
REMARK Flexibility Score: inf
ROOT
ATOM      1  C   UNL A   1      32.986  30.257  26.329  1.00  0.00     0.275 C 
ENDROOT
BRANCH   1   2
ATOM      2  C   UNL A   1      31.820  29.356  25.919  1.00  0.00     0.274 C 
BRANCH   2   3
ATOM      3  O   UNL A   1      32.264  28.022  25.603  1.00  0.00    -0.460 OA
BRANCH   3   4
ATOM      4  C   UNL A   1      31.491  27.014  26.104  1.00  0.00     0.338 C 
ATOM      5  O   UNL A   1      30.987  27.054  27.222  1.00  0.00    -0.249 OA
BRANCH   4   6
ATOM      6  C   UNL A   1      31.323  25.819  25.104  1.00  0.00     0.168 C 
BRANCH   6   7
ATOM      7  C   UNL A   1      31.308  24.500  25.925  1.00  0.00     0.044 C 
ATOM      8  C   UNL A   1      30.885  23.235  25.175  1.00  0.00     0.007 C 
ENDBRANCH   6   7
BRANCH   6   9
ATOM      9  O   UNL A   1      30.037  25.952  24.471  1.00  0.00    -0.378 OA
ATOM     10  H   UNL A   1      29.411  25.336  24.880  1.00  0.00     0.212 HD
ENDBRANCH   6   9
BRANCH   6  11
ATOM     11  C   UNL A   1      32.495  25.953  24.036  1.00  0.00     0.070 C 
ATOM     12  C   UNL A   1      31.923  26.008  22.586  1.00  0.00     0.053 C 
ATOM     13  C   UNL A   1      33.647  24.965  24.123  1.00  0.00     0.001 A 
ATOM     14  C   UNL A   1      32.772  25.259  21.580  1.00  0.00     0.230 C 
ATOM     15  C   UNL A   1      33.814  23.979  23.146  1.00  0.00     0.122 A 
ATOM     16  C   UNL A   1      34.640  25.084  25.106  1.00  0.00     0.008 A 
ATOM     17  O   UNL A   1      32.999  23.926  22.045  1.00  0.00    -0.493 OA
ATOM     18  C   UNL A   1      34.859  23.059  23.205  1.00  0.00     0.047 A 
ATOM     19  C   UNL A   1      35.707  24.183  25.161  1.00  0.00     0.001 A 
ATOM     20  C   UNL A   1      35.808  23.161  24.219  1.00  0.00     0.004 A 
ENDBRANCH   6  11
ENDBRANCH   4   6
ENDBRANCH   3   4
ENDBRANCH   2   3
ENDBRANCH   1   2
BRANCH   1  21
ATOM     21  O   UNL A   1      33.472  29.907  27.639  1.00  0.00    -0.458 OA
BRANCH  21  22
ATOM     22  C   UNL A   1      34.359  30.768  28.188  1.00  0.00     0.338 C 
ATOM     23  O   UNL A   1      34.153  31.918  28.534  1.00  0.00    -0.246 OA
BRANCH  22  24
ATOM     24  C   UNL A   1      35.678  30.124  28.334  1.00  0.00     0.060 A 
ATOM     25  C   UNL A   1      36.099  29.668  29.582  1.00  0.00     0.016 A 
ATOM     26  C   UNL A   1      36.561  30.107  27.256  1.00  0.00     0.016 A 
ATOM     27  C   UNL A   1      37.423  29.275  29.782  1.00  0.00     0.010 A 
ATOM     28  C   UNL A   1      37.867  29.636  27.438  1.00  0.00     0.010 A 
ATOM     29  C   UNL A   1      38.329  29.255  28.712  1.00  0.00    -0.014 A 
BRANCH  29  30
ATOM     30  C   UNL A   1      39.766  28.911  28.918  1.00  0.00     0.031 A 
ATOM     31  C   UNL A   1      40.714  29.946  29.476  1.00  0.00     0.074 A 
ATOM     32  C   UNL A   1      40.244  27.686  28.618  1.00  0.00     0.049 A 
ATOM     33  N   UNL A   1      42.022  29.924  29.539  1.00  0.00    -0.248 NA
ATOM     34  C   UNL A   1      40.110  31.172  30.024  1.00  0.00     0.031 C 
ATOM     35  C   UNL A   1      39.452  26.560  28.124  1.00  0.00     0.029 A 
ATOM     36  N   UNL A   1      41.523  27.187  28.686  1.00  0.00    -0.354 N 
ATOM     37  C   UNL A   1      42.399  31.153  30.070  1.00  0.00     0.074 A 
ATOM     38  C   UNL A   1      41.181  31.895  30.318  1.00  0.00     0.031 C 
ATOM     39  C   UNL A   1      40.254  25.495  27.960  1.00  0.00     0.029 A 
ATOM     40  C   UNL A   1      41.629  25.883  28.260  1.00  0.00     0.049 A 
ATOM     41  H   UNL A   1      42.291  27.712  29.007  1.00  0.00     0.167 HD
ATOM     42  C   UNL A   1      43.644  31.627  30.321  1.00  0.00     0.031 A 
ATOM     43  C   UNL A   1      42.709  25.095  28.087  1.00  0.00     0.031 A 
ATOM     44  C   UNL A   1      44.856  30.881  30.119  1.00  0.00     0.049 A 
ATOM     45  C   UNL A   1      44.083  25.644  28.355  1.00  0.00     0.074 A 
ATOM     46  C   UNL A   1      46.163  31.285  30.337  1.00  0.00     0.029 A 
ATOM     47  N   UNL A   1      44.913  29.571  29.672  1.00  0.00    -0.354 N 
ATOM     48  N   UNL A   1      44.424  26.837  28.779  1.00  0.00    -0.248 NA
ATOM     49  C   UNL A   1      45.218  24.745  28.103  1.00  0.00     0.031 C 
ATOM     50  C   UNL A   1      47.011  30.223  29.999  1.00  0.00     0.029 A 
ATOM     51  C   UNL A   1      46.230  29.150  29.607  1.00  0.00     0.049 A 
ATOM     52  H   UNL A   1      44.131  29.020  29.436  1.00  0.00     0.167 HD
ATOM     53  C   UNL A   1      45.812  26.831  28.844  1.00  0.00     0.074 A 
ATOM     54  C   UNL A   1      46.247  25.510  28.439  1.00  0.00     0.031 C 
ATOM     55  C   UNL A   1      46.652  27.835  29.199  1.00  0.00     0.031 A 
BRANCH  42  56
ATOM     56  C   UNL A   1      43.755  33.048  30.805  1.00  0.00    -0.014 A 
ATOM     57  C   UNL A   1      43.815  34.126  29.905  1.00  0.00     0.010 A 
ATOM     58  C   UNL A   1      43.778  33.305  32.188  1.00  0.00     0.010 A 
ATOM     59  C   UNL A   1      43.942  35.434  30.382  1.00  0.00     0.020 A 
ATOM     60  C   UNL A   1      43.883  34.612  32.668  1.00  0.00     0.020 A 
ATOM     61  C   UNL A   1      43.984  35.668  31.760  1.00  0.00     0.054 A 
BRANCH  61  62
ATOM     62  S   UNL A   1      44.147  37.374  32.358  1.00  0.00     0.124 S 
ATOM     63  O   UNL A   1      45.535  37.401  32.812  1.00  0.00    -0.237 OA
ATOM     64  O   UNL A   1      43.862  38.165  31.163  1.00  0.00    -0.237 OA
ATOM     65  O   UNL A   1      43.142  37.465  33.415  1.00  0.00    -0.744 OA
ENDBRANCH  61  62
ENDBRANCH  42  56
BRANCH  43  66
ATOM     66  C   UNL A   1      42.533  23.708  27.580  1.00  0.00    -0.014 A 
ATOM     67  C   UNL A   1      42.721  23.416  26.219  1.00  0.00     0.010 A 
ATOM     68  C   UNL A   1      42.204  22.667  28.468  1.00  0.00     0.010 A 
ATOM     69  C   UNL A   1      42.580  22.106  25.753  1.00  0.00     0.020 A 
ATOM     70  C   UNL A   1      42.088  21.353  28.009  1.00  0.00     0.020 A 
ATOM     71  C   UNL A   1      42.269  21.081  26.651  1.00  0.00     0.054 A 
BRANCH  71  72
ATOM     72  S   UNL A   1      42.173  19.373  26.047  1.00  0.00     0.124 S 
ATOM     73  O   UNL A   1      43.019  19.424  24.860  1.00  0.00    -0.237 OA
ATOM     74  O   UNL A   1      42.705  18.604  27.172  1.00  0.00    -0.237 OA
ATOM     75  O   UNL A   1      40.746  19.184  25.796  1.00  0.00    -0.744 OA
ENDBRANCH  71  72
ENDBRANCH  43  66
BRANCH  55  76
ATOM     76  C   UNL A   1      48.125  27.539  29.186  1.00  0.00    -0.014 A 
ATOM     77  C   UNL A   1      48.909  27.826  28.055  1.00  0.00     0.010 A 
ATOM     78  C   UNL A   1      48.741  27.009  30.334  1.00  0.00     0.010 A 
ATOM     79  C   UNL A   1      50.281  27.563  28.063  1.00  0.00     0.020 A 
ATOM     80  C   UNL A   1      50.116  26.762  30.351  1.00  0.00     0.020 A 
ATOM     81  C   UNL A   1      50.875  27.028  29.210  1.00  0.00     0.054 A 
BRANCH  81  82
ATOM     82  S   UNL A   1      52.666  26.731  29.215  1.00  0.00     0.124 S 
ATOM     83  O   UNL A   1      52.851  25.969  27.984  1.00  0.00    -0.237 OA
ATOM     84  O   UNL A   1      53.220  28.084  29.207  1.00  0.00    -0.237 OA
ATOM     85  O   UNL A   1      52.887  25.984  30.452  1.00  0.00    -0.744 OA
ENDBRANCH  81  82
ENDBRANCH  55  76
ENDBRANCH  29  30
ENDBRANCH  22  24
ENDBRANCH  21  22
ENDBRANCH   1  21
TORSDOF 17
ENDMDL
MODEL 2
REMARK VINA RESULT:     -10.3      2.987      5.886
REMARK SMILES CC[C@@](O)(C(=O)OCCOC(=O)c1ccc(-c2c3nc(c(-c4ccc(S(=O)(=O)[O-])cc4)c4ccc([nH]4)c(-c4ccc(S(=O)(=O)[O-])cc4)c4nc(c(-c5ccc(S(=O)(=O)[O-])cc5)c5ccc2[nH]5)C=C4)C=C3)cc1)[C@@H]1CCOc2ccccc21
REMARK SMILES IDX 9 1 8 2 7 3 5 4 6 5 3 6 2 7 1 8 4 9 73 11 74 12 82 13 75 14
REMARK SMILES IDX 77 15 81 16 76 17 78 18 80 19 79 20 10 21 11 22 12 23 13 24
REMARK SMILES IDX 14 25 72 26 15 27 71 28 16 29 17 30 18 31 65 32 19 33 70 34
REMARK SMILES IDX 64 35 66 36 20 37 69 38 63 39 62 40 21 42 51 43 32 44 50 45
REMARK SMILES IDX 33 46 36 47 49 48 67 49 34 50 35 51 48 53 68 54 37 55 22 56
REMARK SMILES IDX 23 57 31 58 24 59 30 60 25 61 26 62 27 63 28 64 29 65 52 66
REMARK SMILES IDX 53 67 61 68 54 69 60 70 55 71 56 72 57 73 58 74 59 75 38 76
REMARK SMILES IDX 39 77 47 78 40 79 46 80 41 81 42 82 43 83 44 84 45 85
REMARK H PARENT 4 10 66 41 36 52
REMARK Flexibility Score: inf
ROOT
ATOM      1  C   UNL A   1      34.167  32.343  27.643  1.00  0.00     0.275 C 
ENDROOT
BRANCH   1   2
ATOM      2  C   UNL A   1      33.688  33.390  28.649  1.00  0.00     0.274 C 
BRANCH   2   3
ATOM      3  O   UNL A   1      34.096  33.064  29.992  1.00  0.00    -0.460 OA
BRANCH   3   4
ATOM      4  C   UNL A   1      34.688  34.079  30.687  1.00  0.00     0.338 C 
ATOM      5  O   UNL A   1      34.173  35.185  30.817  1.00  0.00    -0.249 OA
BRANCH   4   6
ATOM      6  C   UNL A   1      36.076  33.676  31.293  1.00  0.00     0.168 C 
BRANCH   6   7
ATOM      7  C   UNL A   1      36.810  32.776  30.262  1.00  0.00     0.044 C 
ATOM      8  C   UNL A   1      37.475  33.489  29.083  1.00  0.00     0.007 C 
ENDBRANCH   6   7
BRANCH   6   9
ATOM      9  O   UNL A   1      36.853  34.879  31.451  1.00  0.00    -0.378 OA
ATOM     10  H   UNL A   1      37.790  34.679  31.302  1.00  0.00     0.212 HD
ENDBRANCH   6   9
BRANCH   6  11
ATOM     11  C   UNL A   1      35.778  33.007  32.705  1.00  0.00     0.070 C 
ATOM     12  C   UNL A   1      35.440  34.091  33.774  1.00  0.00     0.053 C 
ATOM     13  C   UNL A   1      36.796  32.017  33.246  1.00  0.00     0.001 A 
ATOM     14  C   UNL A   1      36.012  33.781  35.142  1.00  0.00     0.230 C 
ATOM     15  C   UNL A   1      37.588  32.343  34.352  1.00  0.00     0.122 A 
ATOM     16  C   UNL A   1      36.888  30.712  32.740  1.00  0.00     0.008 A 
ATOM     17  O   UNL A   1      37.414  33.524  35.026  1.00  0.00    -0.493 OA
ATOM     18  C   UNL A   1      38.531  31.454  34.865  1.00  0.00     0.047 A 
ATOM     19  C   UNL A   1      37.813  29.804  33.263  1.00  0.00     0.001 A 
ATOM     20  C   UNL A   1      38.645  30.180  34.315  1.00  0.00     0.004 A 
ENDBRANCH   6  11
ENDBRANCH   4   6
ENDBRANCH   3   4
ENDBRANCH   2   3
ENDBRANCH   1   2
BRANCH   1  21
ATOM     21  O   UNL A   1      33.753  31.021  28.039  1.00  0.00    -0.458 OA
BRANCH  21  22
ATOM     22  C   UNL A   1      34.396  29.996  27.435  1.00  0.00     0.338 C 
ATOM     23  O   UNL A   1      33.951  29.246  26.584  1.00  0.00    -0.246 OA
BRANCH  22  24
ATOM     24  C   UNL A   1      35.775  29.881  27.945  1.00  0.00     0.060 A 
ATOM     25  C   UNL A   1      36.856  30.104  27.094  1.00  0.00     0.016 A 
ATOM     26  C   UNL A   1      35.997  29.404  29.236  1.00  0.00     0.016 A 
ATOM     27  C   UNL A   1      38.152  29.772  27.494  1.00  0.00     0.010 A 
ATOM     28  C   UNL A   1      37.305  29.149  29.665  1.00  0.00     0.010 A 
ATOM     29  C   UNL A   1      38.395  29.288  28.786  1.00  0.00    -0.014 A 
BRANCH  29  30
ATOM     30  C   UNL A   1      39.760  28.857  29.209  1.00  0.00     0.031 A 
ATOM     31  C   UNL A   1      40.624  29.790  30.024  1.00  0.00     0.074 A 
ATOM     32  C   UNL A   1      40.246  27.643  28.879  1.00  0.00     0.049 A 
ATOM     33  N   UNL A   1      41.898  29.699  30.314  1.00  0.00    -0.248 NA
ATOM     34  C   UNL A   1      39.970  30.988  30.574  1.00  0.00     0.031 C 
ATOM     35  C   UNL A   1      39.521  26.605  28.145  1.00  0.00     0.029 A 
ATOM     36  N   UNL A   1      41.475  27.078  29.122  1.00  0.00    -0.354 N 
ATOM     37  C   UNL A   1      42.211  30.854  31.021  1.00  0.00     0.074 A 
ATOM     38  C   UNL A   1      40.992  31.629  31.122  1.00  0.00     0.031 C 
ATOM     39  C   UNL A   1      40.306  25.522  28.021  1.00  0.00     0.029 A 
ATOM     40  C   UNL A   1      41.616  25.815  28.596  1.00  0.00     0.049 A 
ATOM     41  H   UNL A   1      42.189  27.534  29.623  1.00  0.00     0.167 HD
ATOM     42  C   UNL A   1      43.404  31.243  31.533  1.00  0.00     0.031 A 
ATOM     43  C   UNL A   1      42.684  24.995  28.540  1.00  0.00     0.031 A 
ATOM     44  C   UNL A   1      44.609  30.461  31.476  1.00  0.00     0.049 A 
ATOM     45  C   UNL A   1      44.003  25.450  29.098  1.00  0.00     0.074 A 
ATOM     46  C   UNL A   1      45.867  30.780  31.960  1.00  0.00     0.029 A 
ATOM     47  N   UNL A   1      44.705  29.196  30.920  1.00  0.00    -0.354 N 
ATOM     48  N   UNL A   1      44.299  26.581  29.691  1.00  0.00    -0.248 NA
ATOM     49  C   UNL A   1      45.137  24.524  28.963  1.00  0.00     0.031 C 
ATOM     50  C   UNL A   1      46.729  29.714  31.675  1.00  0.00     0.029 A 
ATOM     51  C   UNL A   1      45.998  28.719  31.047  1.00  0.00     0.049 A 
ATOM     52  H   UNL A   1      43.962  28.707  30.497  1.00  0.00     0.167 HD
ATOM     53  C   UNL A   1      45.653  26.502  29.999  1.00  0.00     0.074 A 
ATOM     54  C   UNL A   1      46.112  25.204  29.550  1.00  0.00     0.031 C 
ATOM     55  C   UNL A   1      46.445  27.428  30.593  1.00  0.00     0.031 A 
BRANCH  42  56
ATOM     56  C   UNL A   1      43.471  32.607  32.166  1.00  0.00    -0.014 A 
ATOM     57  C   UNL A   1      43.711  33.761  31.399  1.00  0.00     0.010 A 
ATOM     58  C   UNL A   1      43.268  32.734  33.553  1.00  0.00     0.010 A 
ATOM     59  C   UNL A   1      43.791  35.013  32.016  1.00  0.00     0.020 A 
ATOM     60  C   UNL A   1      43.325  33.986  34.170  1.00  0.00     0.020 A 
ATOM     61  C   UNL A   1      43.607  35.116  33.399  1.00  0.00     0.054 A 
BRANCH  61  62
ATOM     62  S   UNL A   1      43.713  36.751  34.180  1.00  0.00     0.124 S 
ATOM     63  O   UNL A   1      44.267  37.563  33.100  1.00  0.00    -0.237 OA
ATOM     64  O   UNL A   1      42.323  37.034  34.529  1.00  0.00    -0.237 OA
ATOM     65  O   UNL A   1      44.604  36.531  35.317  1.00  0.00    -0.744 OA
ENDBRANCH  61  62
ENDBRANCH  42  56
BRANCH  43  66
ATOM     66  C   UNL A   1      42.559  23.669  27.876  1.00  0.00    -0.014 A 
ATOM     67  C   UNL A   1      42.909  23.512  26.524  1.00  0.00     0.010 A 
ATOM     68  C   UNL A   1      42.115  22.551  28.606  1.00  0.00     0.010 A 
ATOM     69  C   UNL A   1      42.815  22.258  25.913  1.00  0.00     0.020 A 
ATOM     70  C   UNL A   1      42.044  21.293  28.005  1.00  0.00     0.020 A 
ATOM     71  C   UNL A   1      42.387  21.155  26.658  1.00  0.00     0.054 A 
BRANCH  71  72
ATOM     72  S   UNL A   1      42.350  19.519  25.876  1.00  0.00     0.124 S 
ATOM     73  O   UNL A   1      40.971  19.438  25.408  1.00  0.00    -0.237 OA
ATOM     74  O   UNL A   1      43.366  19.639  24.832  1.00  0.00    -0.237 OA
ATOM     75  O   UNL A   1      42.699  18.615  26.969  1.00  0.00    -0.744 OA
ENDBRANCH  71  72
ENDBRANCH  43  66
BRANCH  55  76
ATOM     76  C   UNL A   1      47.887  27.064  30.811  1.00  0.00    -0.014 A 
ATOM     77  C   UNL A   1      48.867  27.394  29.859  1.00  0.00     0.010 A 
ATOM     78  C   UNL A   1      48.272  26.424  32.003  1.00  0.00     0.010 A 
ATOM     79  C   UNL A   1      50.207  27.066  30.083  1.00  0.00     0.020 A 
ATOM     80  C   UNL A   1      49.614  26.110  32.237  1.00  0.00     0.020 A 
ATOM     81  C   UNL A   1      50.571  26.422  31.269  1.00  0.00     0.054 A 
BRANCH  81  82
ATOM     82  S   UNL A   1      52.321  26.040  31.560  1.00  0.00     0.124 S 
ATOM     83  O   UNL A   1      52.706  27.085  32.504  1.00  0.00    -0.237 OA
ATOM     84  O   UNL A   1      52.272  24.686  32.107  1.00  0.00    -0.237 OA
ATOM     85  O   UNL A   1      52.922  26.146  30.233  1.00  0.00    -0.744 OA
ENDBRANCH  81  82
ENDBRANCH  55  76
ENDBRANCH  29  30
ENDBRANCH  22  24
ENDBRANCH  21  22
ENDBRANCH   1  21
TORSDOF 17
ENDMDL
MODEL 3
REMARK VINA RESULT:     -10.3      1.081      1.872
REMARK SMILES CC[C@@](O)(C(=O)OCCOC(=O)c1ccc(-c2c3nc(c(-c4ccc(S(=O)(=O)[O-])cc4)c4ccc([nH]4)c(-c4ccc(S(=O)(=O)[O-])cc4)c4nc(c(-c5ccc(S(=O)(=O)[O-])cc5)c5ccc2[nH]5)C=C4)C=C3)cc1)[C@@H]1CCOc2ccccc21
REMARK SMILES IDX 9 1 8 2 7 3 5 4 6 5 3 6 2 7 1 8 4 9 73 11 74 12 82 13 75 14
REMARK SMILES IDX 77 15 81 16 76 17 78 18 80 19 79 20 10 21 11 22 12 23 13 24
REMARK SMILES IDX 14 25 72 26 15 27 71 28 16 29 17 30 18 31 65 32 19 33 70 34
REMARK SMILES IDX 64 35 66 36 20 37 69 38 63 39 62 40 21 42 51 43 32 44 50 45
REMARK SMILES IDX 33 46 36 47 49 48 67 49 34 50 35 51 48 53 68 54 37 55 22 56
REMARK SMILES IDX 23 57 31 58 24 59 30 60 25 61 26 62 27 63 28 64 29 65 52 66
REMARK SMILES IDX 53 67 61 68 54 69 60 70 55 71 56 72 57 73 58 74 59 75 38 76
REMARK SMILES IDX 39 77 47 78 40 79 46 80 41 81 42 82 43 83 44 84 45 85
REMARK H PARENT 4 10 66 41 36 52
REMARK Flexibility Score: inf
ROOT
ATOM      1  C   UNL A   1      33.289  29.251  26.588  1.00  0.00     0.275 C 
ENDROOT
BRANCH   1   2
ATOM      2  C   UNL A   1      32.247  29.906  25.680  1.00  0.00     0.274 C 
BRANCH   2   3
ATOM      3  O   UNL A   1      31.423  28.925  25.022  1.00  0.00    -0.460 OA
BRANCH   3   4
ATOM      4  C   UNL A   1      31.770  28.638  23.732  1.00  0.00     0.338 C 
ATOM      5  O   UNL A   1      32.826  29.010  23.229  1.00  0.00    -0.249 OA
BRANCH   4   6
ATOM      6  C   UNL A   1      30.686  27.793  22.981  1.00  0.00     0.168 C 
BRANCH   6   7
ATOM      7  C   UNL A   1      29.340  28.566  23.046  1.00  0.00     0.044 C 
ATOM      8  C   UNL A   1      29.329  29.971  22.438  1.00  0.00     0.007 C 
ENDBRANCH   6   7
BRANCH   6   9
ATOM      9  O   UNL A   1      31.073  27.709  21.597  1.00  0.00    -0.378 OA
ATOM     10  H   UNL A   1      32.030  27.563  21.538  1.00  0.00     0.212 HD
ENDBRANCH   6   9
BRANCH   6  11
ATOM     11  C   UNL A   1      30.687  26.352  23.656  1.00  0.00     0.070 C 
ATOM     12  C   UNL A   1      29.573  26.245  24.743  1.00  0.00     0.053 C 
ATOM     13  C   UNL A   1      32.008  25.821  24.186  1.00  0.00     0.001 A 
ATOM     14  C   UNL A   1      29.998  25.448  25.959  1.00  0.00     0.230 C 
ATOM     15  C   UNL A   1      32.225  25.697  25.563  1.00  0.00     0.122 A 
ATOM     16  C   UNL A   1      32.998  25.328  23.324  1.00  0.00     0.008 A 
ATOM     17  O   UNL A   1      31.230  25.971  26.465  1.00  0.00    -0.493 OA
ATOM     18  C   UNL A   1      33.429  25.217  26.075  1.00  0.00     0.047 A 
ATOM     19  C   UNL A   1      34.200  24.821  23.826  1.00  0.00     0.001 A 
ATOM     20  C   UNL A   1      34.421  24.780  25.201  1.00  0.00     0.004 A 
ENDBRANCH   6  11
ENDBRANCH   4   6
ENDBRANCH   3   4
ENDBRANCH   2   3
ENDBRANCH   1   2
BRANCH   1  21
ATOM     21  O   UNL A   1      33.374  29.936  27.852  1.00  0.00    -0.458 OA
BRANCH  21  22
ATOM     22  C   UNL A   1      34.354  30.862  27.957  1.00  0.00     0.338 C 
ATOM     23  O   UNL A   1      34.232  32.073  27.902  1.00  0.00    -0.246 OA
BRANCH  22  24
ATOM     24  C   UNL A   1      35.660  30.208  28.160  1.00  0.00     0.060 A 
ATOM     25  C   UNL A   1      35.986  29.669  29.403  1.00  0.00     0.016 A 
ATOM     26  C   UNL A   1      36.624  30.264  27.155  1.00  0.00     0.016 A 
ATOM     27  C   UNL A   1      37.293  29.262  29.678  1.00  0.00     0.010 A 
ATOM     28  C   UNL A   1      37.914  29.780  27.404  1.00  0.00     0.010 A 
ATOM     29  C   UNL A   1      38.278  29.314  28.681  1.00  0.00    -0.014 A 
BRANCH  29  30
ATOM     30  C   UNL A   1      39.697  28.955  28.975  1.00  0.00     0.031 A 
ATOM     31  C   UNL A   1      40.608  29.967  29.628  1.00  0.00     0.074 A 
ATOM     32  C   UNL A   1      40.189  27.738  28.669  1.00  0.00     0.049 A 
ATOM     33  N   UNL A   1      41.908  29.935  29.780  1.00  0.00    -0.248 NA
ATOM     34  C   UNL A   1      39.972  31.178  30.172  1.00  0.00     0.031 C 
ATOM     35  C   UNL A   1      39.429  26.632  28.086  1.00  0.00     0.029 A 
ATOM     36  N   UNL A   1      41.459  27.229  28.807  1.00  0.00    -0.354 N 
ATOM     37  C   UNL A   1      42.252  31.144  30.374  1.00  0.00     0.074 A 
ATOM     38  C   UNL A   1      41.022  31.885  30.563  1.00  0.00     0.031 C 
ATOM     39  C   UNL A   1      40.237  25.569  27.943  1.00  0.00     0.029 A 
ATOM     40  C   UNL A   1      41.589  25.939  28.348  1.00  0.00     0.049 A 
ATOM     41  H   UNL A   1      42.205  27.740  29.197  1.00  0.00     0.167 HD
ATOM     42  C   UNL A   1      43.478  31.603  30.725  1.00  0.00     0.031 A 
ATOM     43  C   UNL A   1      42.676  25.151  28.224  1.00  0.00     0.031 A 
ATOM     44  C   UNL A   1      44.699  30.857  30.582  1.00  0.00     0.049 A 
ATOM     45  C   UNL A   1      44.030  25.684  28.603  1.00  0.00     0.074 A 
ATOM     46  C   UNL A   1      45.989  31.246  30.901  1.00  0.00     0.029 A 
ATOM     47  N   UNL A   1      44.782  29.562  30.099  1.00  0.00    -0.354 N 
ATOM     48  N   UNL A   1      44.345  26.860  29.087  1.00  0.00    -0.248 NA
ATOM     49  C   UNL A   1      45.177  24.786  28.400  1.00  0.00     0.031 C 
ATOM     50  C   UNL A   1      46.855  30.192  30.589  1.00  0.00     0.029 A 
ATOM     51  C   UNL A   1      46.099  29.136  30.109  1.00  0.00     0.049 A 
ATOM     52  H   UNL A   1      44.016  29.023  29.792  1.00  0.00     0.167 HD
ATOM     53  C   UNL A   1      45.726  26.844  29.246  1.00  0.00     0.074 A 
ATOM     54  C   UNL A   1      46.183  25.535  28.830  1.00  0.00     0.031 C 
ATOM     55  C   UNL A   1      46.543  27.832  29.690  1.00  0.00     0.031 A 
BRANCH  42  56
ATOM     56  C   UNL A   1      43.561  33.007  31.260  1.00  0.00    -0.014 A 
ATOM     57  C   UNL A   1      43.790  34.104  30.411  1.00  0.00     0.010 A 
ATOM     58  C   UNL A   1      43.386  33.231  32.639  1.00  0.00     0.010 A 
ATOM     59  C   UNL A   1      43.885  35.395  30.938  1.00  0.00     0.020 A 
ATOM     60  C   UNL A   1      43.459  34.522  33.166  1.00  0.00     0.020 A 
ATOM     61  C   UNL A   1      43.728  35.595  32.313  1.00  0.00     0.054 A 
BRANCH  61  62
ATOM     62  S   UNL A   1      43.854  37.279  32.978  1.00  0.00     0.124 S 
ATOM     63  O   UNL A   1      45.175  37.258  33.600  1.00  0.00    -0.237 OA
ATOM     64  O   UNL A   1      43.737  38.109  31.781  1.00  0.00    -0.237 OA
ATOM     65  O   UNL A   1      42.728  37.368  33.905  1.00  0.00    -0.744 OA
ENDBRANCH  61  62
ENDBRANCH  42  56
BRANCH  43  66
ATOM     66  C   UNL A   1      42.531  23.782  27.662  1.00  0.00    -0.014 A 
ATOM     67  C   UNL A   1      42.528  23.577  26.272  1.00  0.00     0.010 A 
ATOM     68  C   UNL A   1      42.422  22.672  28.521  1.00  0.00     0.010 A 
ATOM     69  C   UNL A   1      42.418  22.285  25.751  1.00  0.00     0.020 A 
ATOM     70  C   UNL A   1      42.337  21.378  28.003  1.00  0.00     0.020 A 
ATOM     71  C   UNL A   1      42.327  21.193  26.619  1.00  0.00     0.054 A 
BRANCH  71  72
ATOM     72  S   UNL A   1      42.270  19.516  25.929  1.00  0.00     0.124 S 
ATOM     73  O   UNL A   1      42.626  18.701  27.085  1.00  0.00    -0.237 OA
ATOM     74  O   UNL A   1      40.884  19.401  25.477  1.00  0.00    -0.237 OA
ATOM     75  O   UNL A   1      43.262  19.558  24.858  1.00  0.00    -0.744 OA
ENDBRANCH  71  72
ENDBRANCH  43  66
BRANCH  55  76
ATOM     76  C   UNL A   1      48.012  27.528  29.767  1.00  0.00    -0.014 A 
ATOM     77  C   UNL A   1      48.882  27.896  28.726  1.00  0.00     0.010 A 
ATOM     78  C   UNL A   1      48.537  26.908  30.915  1.00  0.00     0.010 A 
ATOM     79  C   UNL A   1      50.250  27.625  28.819  1.00  0.00     0.020 A 
ATOM     80  C   UNL A   1      49.907  26.651  31.019  1.00  0.00     0.020 A 
ATOM     81  C   UNL A   1      50.753  26.999  29.964  1.00  0.00     0.054 A 
BRANCH  81  82
ATOM     82  S   UNL A   1      52.537  26.691  30.085  1.00  0.00     0.124 S 
ATOM     83  O   UNL A   1      52.836  26.122  28.774  1.00  0.00    -0.237 OA
ATOM     84  O   UNL A   1      53.081  28.025  30.332  1.00  0.00    -0.237 OA
ATOM     85  O   UNL A   1      52.651  25.763  31.209  1.00  0.00    -0.744 OA
ENDBRANCH  81  82
ENDBRANCH  55  76
ENDBRANCH  29  30
ENDBRANCH  22  24
ENDBRANCH  21  22
ENDBRANCH   1  21
TORSDOF 17
ENDMDL
