MODEL 1
REMARK VINA RESULT:      -9.4      0.000      0.000
REMARK SMILES CC(C)C[N@@H+](C1CC1)[C@@H](C)c1ccc(C(=O)OCCOC(=O)c2ccc(-c3c4nc(c(-c5ccc(S(=O)(=O)[O-])cc5)c5ccc([nH]5)c(-c5ccc(S(=O)(=O)[O-])cc5)c5nc(c(-c6ccc(S(=O)(=O)[O-])cc6)c6ccc3[nH]6)C=C5)C=C4)cc2)o1
REMARK SMILES IDX 18 1 17 2 15 3 16 4 14 5 11 6 12 7 83 8 13 9 9 10 10 11 5 12
REMARK SMILES IDX 4 14 2 15 1 16 3 17 6 18 7 19 8 20 19 21 20 22 21 23 22 24
REMARK SMILES IDX 23 25 24 26 82 27 25 28 81 29 26 30 27 31 28 32 75 33 29 34
REMARK SMILES IDX 80 35 74 36 76 37 30 38 79 39 73 40 72 41 31 43 61 44 42 45
REMARK SMILES IDX 60 46 43 47 46 48 59 49 77 50 44 51 45 52 58 54 78 55 47 56
REMARK SMILES IDX 32 57 33 58 41 59 34 60 40 61 35 62 36 63 37 64 38 65 39 66
REMARK SMILES IDX 62 67 63 68 71 69 64 70 70 71 65 72 66 73 67 74 68 75 69 76
REMARK SMILES IDX 48 77 49 78 57 79 50 80 56 81 51 82 52 83 53 84 54 85 55 86
REMARK H PARENT 5 13 76 42 46 53
REMARK Flexibility Score: inf
ROOT
ATOM      1  C   UNL A   1      32.067  29.164  25.684  1.00  0.00     0.275 C 
ENDROOT
BRANCH   1   2
ATOM      2  O   UNL A   1      31.293  27.976  25.428  1.00  0.00    -0.456 OA
BRANCH   2   3
ATOM      3  C   UNL A   1      30.860  27.805  24.139  1.00  0.00     0.374 C 
ATOM      4  O   UNL A   1      29.832  28.290  23.692  1.00  0.00    -0.242 OA
BRANCH   3   5
ATOM      5  C   UNL A   1      31.821  27.013  23.402  1.00  0.00     0.212 A 
ATOM      6  C   UNL A   1      32.854  25.127  22.853  1.00  0.00     0.162 A 
ATOM      7  C   UNL A   1      33.311  26.106  21.989  1.00  0.00     0.053 A 
ATOM      8  O   UNL A   1      32.022  25.706  23.773  1.00  0.00    -0.448 OA
ATOM      9  C   UNL A   1      32.617  27.297  22.309  1.00  0.00     0.059 A 
BRANCH   6  10
ATOM     10  C   UNL A   1      33.144  23.643  22.991  1.00  0.00     0.248 C 
ATOM     11  C   UNL A   1      31.847  22.819  23.054  1.00  0.00     0.084 C 
BRANCH  10  12
ATOM     12  N   UNL A   1      34.109  23.272  24.059  1.00  0.00    -0.324 N 
ATOM     13  H   UNL A   1      34.323  24.204  24.417  1.00  0.00     0.348 HD
BRANCH  12  14
ATOM     14  C   UNL A   1      33.589  22.491  25.212  1.00  0.00     0.265 C 
BRANCH  14  15
ATOM     15  C   UNL A   1      33.325  23.191  26.564  1.00  0.00     0.038 C 
ATOM     16  C   UNL A   1      31.845  23.278  26.930  1.00  0.00     0.013 C 
ATOM     17  C   UNL A   1      34.048  22.439  27.695  1.00  0.00     0.013 C 
ENDBRANCH  14  15
ENDBRANCH  12  14
BRANCH  12  18
ATOM     18  C   UNL A   1      35.365  22.606  23.557  1.00  0.00     0.185 C 
ATOM     19  C   UNL A   1      36.779  23.066  23.808  1.00  0.00     0.071 C 
ATOM     20  C   UNL A   1      36.242  21.876  24.542  1.00  0.00     0.071 C 
ENDBRANCH  12  18
ENDBRANCH  10  12
ENDBRANCH   6  10
ENDBRANCH   3   5
ENDBRANCH   2   3
ENDBRANCH   1   2
BRANCH   1  21
ATOM     21  C   UNL A   1      33.534  28.852  26.004  1.00  0.00     0.275 C 
BRANCH  21  22
ATOM     22  O   UNL A   1      33.805  28.962  27.413  1.00  0.00    -0.458 OA
BRANCH  22  23
ATOM     23  C   UNL A   1      34.343  30.143  27.800  1.00  0.00     0.338 C 
ATOM     24  O   UNL A   1      33.766  31.213  27.879  1.00  0.00    -0.246 OA
BRANCH  23  25
ATOM     25  C   UNL A   1      35.728  29.935  28.253  1.00  0.00     0.060 A 
ATOM     26  C   UNL A   1      36.746  30.127  27.321  1.00  0.00     0.016 A 
ATOM     27  C   UNL A   1      36.028  29.464  29.530  1.00  0.00     0.016 A 
ATOM     28  C   UNL A   1      38.060  29.808  27.627  1.00  0.00     0.010 A 
ATOM     29  C   UNL A   1      37.361  29.180  29.858  1.00  0.00     0.010 A 
ATOM     30  C   UNL A   1      38.382  29.334  28.901  1.00  0.00    -0.014 A 
BRANCH  30  31
ATOM     31  C   UNL A   1      39.791  28.983  29.197  1.00  0.00     0.031 A 
ATOM     32  C   UNL A   1      40.675  29.958  29.920  1.00  0.00     0.074 A 
ATOM     33  C   UNL A   1      40.254  27.763  28.866  1.00  0.00     0.049 A 
ATOM     34  N   UNL A   1      41.940  29.847  30.234  1.00  0.00    -0.248 NA
ATOM     35  C   UNL A   1      40.056  31.223  30.347  1.00  0.00     0.031 C 
ATOM     36  C   UNL A   1      39.469  26.708  28.220  1.00  0.00     0.029 A 
ATOM     37  N   UNL A   1      41.492  27.198  29.040  1.00  0.00    -0.354 N 
ATOM     38  C   UNL A   1      42.278  31.036  30.869  1.00  0.00     0.074 A 
ATOM     39  C   UNL A   1      41.086  31.859  30.886  1.00  0.00     0.031 C 
ATOM     40  C   UNL A   1      40.238  25.619  28.071  1.00  0.00     0.029 A 
ATOM     41  C   UNL A   1      41.581  25.913  28.560  1.00  0.00     0.049 A 
ATOM     42  H   UNL A   1      42.244  27.667  29.468  1.00  0.00     0.167 HD
ATOM     43  C   UNL A   1      43.473  31.407  31.388  1.00  0.00     0.031 A 
ATOM     44  C   UNL A   1      42.633  25.074  28.498  1.00  0.00     0.031 A 
ATOM     45  C   UNL A   1      44.651  30.579  31.373  1.00  0.00     0.049 A 
ATOM     46  C   UNL A   1      43.962  25.530  29.027  1.00  0.00     0.074 A 
ATOM     47  C   UNL A   1      45.909  30.863  31.875  1.00  0.00     0.029 A 
ATOM     48  N   UNL A   1      44.717  29.306  30.827  1.00  0.00    -0.354 N 
ATOM     49  N   UNL A   1      44.272  26.667  29.605  1.00  0.00    -0.248 NA
ATOM     50  C   UNL A   1      45.085  24.594  28.892  1.00  0.00     0.031 C 
ATOM     51  C   UNL A   1      46.746  29.777  31.594  1.00  0.00     0.029 A 
ATOM     52  C   UNL A   1      45.998  28.798  30.961  1.00  0.00     0.049 A 
ATOM     53  H   UNL A   1      43.963  28.833  30.406  1.00  0.00     0.167 HD
ATOM     54  C   UNL A   1      45.624  26.578  29.913  1.00  0.00     0.074 A 
ATOM     55  C   UNL A   1      46.068  25.271  29.472  1.00  0.00     0.031 C 
ATOM     56  C   UNL A   1      46.425  27.498  30.506  1.00  0.00     0.031 A 
BRANCH  43  57
ATOM     57  C   UNL A   1      43.570  32.790  31.970  1.00  0.00    -0.014 A 
ATOM     58  C   UNL A   1      43.766  33.918  31.156  1.00  0.00     0.010 A 
ATOM     59  C   UNL A   1      43.452  32.962  33.364  1.00  0.00     0.010 A 
ATOM     60  C   UNL A   1      43.892  35.189  31.726  1.00  0.00     0.020 A 
ATOM     61  C   UNL A   1      43.554  34.234  33.934  1.00  0.00     0.020 A 
ATOM     62  C   UNL A   1      43.795  35.337  33.112  1.00  0.00     0.054 A 
BRANCH  62  63
ATOM     63  S   UNL A   1      43.967  36.994  33.831  1.00  0.00     0.124 S 
ATOM     64  O   UNL A   1      43.810  37.849  32.657  1.00  0.00    -0.237 OA
ATOM     65  O   UNL A   1      42.872  37.044  34.795  1.00  0.00    -0.237 OA
ATOM     66  O   UNL A   1      45.306  36.981  34.416  1.00  0.00    -0.744 OA
ENDBRANCH  62  63
ENDBRANCH  43  57
BRANCH  44  67
ATOM     67  C   UNL A   1      42.465  23.730  27.885  1.00  0.00    -0.014 A 
ATOM     68  C   UNL A   1      42.705  23.533  26.514  1.00  0.00     0.010 A 
ATOM     69  C   UNL A   1      42.103  22.629  28.683  1.00  0.00     0.010 A 
ATOM     70  C   UNL A   1      42.582  22.257  25.952  1.00  0.00     0.020 A 
ATOM     71  C   UNL A   1      42.002  21.350  28.130  1.00  0.00     0.020 A 
ATOM     72  C   UNL A   1      42.235  21.173  26.765  1.00  0.00     0.054 A 
BRANCH  72  73
ATOM     73  S   UNL A   1      42.152  19.515  26.032  1.00  0.00     0.124 S 
ATOM     74  O   UNL A   1      40.724  19.374  25.764  1.00  0.00    -0.237 OA
ATOM     75  O   UNL A   1      43.007  19.645  24.853  1.00  0.00    -0.237 OA
ATOM     76  O   UNL A   1      42.682  18.651  27.083  1.00  0.00    -0.744 OA
ENDBRANCH  72  73
ENDBRANCH  44  67
BRANCH  56  77
ATOM     77  C   UNL A   1      47.861  27.112  30.729  1.00  0.00    -0.014 A 
ATOM     78  C   UNL A   1      48.850  27.423  29.780  1.00  0.00     0.010 A 
ATOM     79  C   UNL A   1      48.232  26.470  31.924  1.00  0.00     0.010 A 
ATOM     80  C   UNL A   1      50.184  27.073  30.010  1.00  0.00     0.020 A 
ATOM     81  C   UNL A   1      49.566  26.138  32.167  1.00  0.00     0.020 A 
ATOM     82  C   UNL A   1      50.532  26.430  31.202  1.00  0.00     0.054 A 
BRANCH  82  83
ATOM     83  S   UNL A   1      52.275  26.020  31.498  1.00  0.00     0.124 S 
ATOM     84  O   UNL A   1      52.858  26.193  30.171  1.00  0.00    -0.237 OA
ATOM     85  O   UNL A   1      52.675  27.010  32.495  1.00  0.00    -0.237 OA
ATOM     86  O   UNL A   1      52.227  24.642  31.983  1.00  0.00    -0.744 OA
ENDBRANCH  82  83
ENDBRANCH  56  77
ENDBRANCH  30  31
ENDBRANCH  23  25
ENDBRANCH  22  23
ENDBRANCH  21  22
ENDBRANCH   1  21
TORSDOF 19
ENDMDL
MODEL 2
REMARK VINA RESULT:      -9.2      3.466      4.449
REMARK SMILES CC(C)C[N@@H+](C1CC1)[C@@H](C)c1ccc(C(=O)OCCOC(=O)c2ccc(-c3c4nc(c(-c5ccc(S(=O)(=O)[O-])cc5)c5ccc([nH]5)c(-c5ccc(S(=O)(=O)[O-])cc5)c5nc(c(-c6ccc(S(=O)(=O)[O-])cc6)c6ccc3[nH]6)C=C5)C=C4)cc2)o1
REMARK SMILES IDX 18 1 17 2 15 3 16 4 14 5 11 6 12 7 83 8 13 9 9 10 10 11 5 12
REMARK SMILES IDX 4 14 2 15 1 16 3 17 6 18 7 19 8 20 19 21 20 22 21 23 22 24
REMARK SMILES IDX 23 25 24 26 82 27 25 28 81 29 26 30 27 31 28 32 75 33 29 34
REMARK SMILES IDX 80 35 74 36 76 37 30 38 79 39 73 40 72 41 31 43 61 44 42 45
REMARK SMILES IDX 60 46 43 47 46 48 59 49 77 50 44 51 45 52 58 54 78 55 47 56
REMARK SMILES IDX 32 57 33 58 41 59 34 60 40 61 35 62 36 63 37 64 38 65 39 66
REMARK SMILES IDX 62 67 63 68 71 69 64 70 70 71 65 72 66 73 67 74 68 75 69 76
REMARK SMILES IDX 48 77 49 78 57 79 50 80 56 81 51 82 52 83 53 84 54 85 55 86
REMARK H PARENT 5 13 76 42 46 53
REMARK Flexibility Score: inf
ROOT
ATOM      1  C   UNL A   1      34.059  30.402  27.203  1.00  0.00     0.275 C 
ENDROOT
BRANCH   1   2
ATOM      2  O   UNL A   1      32.705  29.930  27.346  1.00  0.00    -0.456 OA
BRANCH   2   3
ATOM      3  C   UNL A   1      32.052  29.616  26.183  1.00  0.00     0.374 C 
ATOM      4  O   UNL A   1      31.581  30.443  25.417  1.00  0.00    -0.242 OA
BRANCH   3   5
ATOM      5  C   UNL A   1      32.051  28.182  25.995  1.00  0.00     0.212 A 
ATOM      6  C   UNL A   1      32.512  26.310  24.893  1.00  0.00     0.162 A 
ATOM      7  C   UNL A   1      31.983  25.941  26.117  1.00  0.00     0.053 A 
ATOM      8  O   UNL A   1      32.459  27.674  24.785  1.00  0.00    -0.448 OA
ATOM      9  C   UNL A   1      31.733  27.133  26.837  1.00  0.00     0.059 A 
BRANCH   6  10
ATOM     10  C   UNL A   1      33.039  25.523  23.707  1.00  0.00     0.248 C 
ATOM     11  C   UNL A   1      32.033  25.519  22.543  1.00  0.00     0.084 C 
BRANCH  10  12
ATOM     12  N   UNL A   1      33.559  24.165  24.015  1.00  0.00    -0.324 N 
ATOM     13  H   UNL A   1      33.123  24.025  24.927  1.00  0.00     0.348 HD
BRANCH  12  14
ATOM     14  C   UNL A   1      33.101  23.042  23.156  1.00  0.00     0.265 C 
BRANCH  14  15
ATOM     15  C   UNL A   1      32.150  21.968  23.731  1.00  0.00     0.038 C 
ATOM     16  C   UNL A   1      32.788  20.586  23.848  1.00  0.00     0.013 C 
ATOM     17  C   UNL A   1      31.670  22.387  25.131  1.00  0.00     0.013 C 
ENDBRANCH  14  15
ENDBRANCH  12  14
BRANCH  12  18
ATOM     18  C   UNL A   1      35.061  24.090  24.140  1.00  0.00     0.185 C 
ATOM     19  C   UNL A   1      35.830  23.374  25.221  1.00  0.00     0.071 C 
ATOM     20  C   UNL A   1      35.748  22.780  23.849  1.00  0.00     0.071 C 
ENDBRANCH  12  18
ENDBRANCH  10  12
ENDBRANCH   6  10
ENDBRANCH   3   5
ENDBRANCH   2   3
ENDBRANCH   1   2
BRANCH   1  21
ATOM     21  C   UNL A   1      35.094  29.364  27.653  1.00  0.00     0.275 C 
BRANCH  21  22
ATOM     22  O   UNL A   1      36.402  29.946  27.799  1.00  0.00    -0.458 OA
BRANCH  22  23
ATOM     23  C   UNL A   1      37.111  29.498  28.862  1.00  0.00     0.338 C 
ATOM     24  O   UNL A   1      36.679  29.267  29.978  1.00  0.00    -0.246 OA
BRANCH  23  25
ATOM     25  C   UNL A   1      38.489  29.190  28.449  1.00  0.00     0.060 A 
ATOM     26  C   UNL A   1      39.396  28.835  29.445  1.00  0.00     0.016 A 
ATOM     27  C   UNL A   1      38.921  29.342  27.132  1.00  0.00     0.016 A 
ATOM     28  C   UNL A   1      40.743  28.676  29.157  1.00  0.00     0.010 A 
ATOM     29  C   UNL A   1      40.275  29.142  26.828  1.00  0.00     0.010 A 
ATOM     30  C   UNL A   1      41.196  28.826  27.844  1.00  0.00    -0.014 A 
BRANCH  30  31
ATOM     31  C   UNL A   1      42.643  28.669  27.566  1.00  0.00     0.031 A 
ATOM     32  C   UNL A   1      43.590  29.801  27.839  1.00  0.00     0.074 A 
ATOM     33  C   UNL A   1      43.109  27.485  27.126  1.00  0.00     0.049 A 
ATOM     34  N   UNL A   1      44.879  29.866  27.626  1.00  0.00    -0.248 NA
ATOM     35  C   UNL A   1      43.013  31.020  28.428  1.00  0.00     0.031 C 
ATOM     36  C   UNL A   1      42.294  26.291  26.888  1.00  0.00     0.029 A 
ATOM     37  N   UNL A   1      44.384  27.086  26.813  1.00  0.00    -0.354 N 
ATOM     38  C   UNL A   1      45.265  31.140  28.027  1.00  0.00     0.074 A 
ATOM     39  C   UNL A   1      44.070  31.817  28.486  1.00  0.00     0.031 C 
ATOM     40  C   UNL A   1      43.090  25.289  26.486  1.00  0.00     0.029 A 
ATOM     41  C   UNL A   1      44.461  25.781  26.387  1.00  0.00     0.049 A 
ATOM     42  H   UNL A   1      45.168  27.675  26.887  1.00  0.00     0.167 HD
ATOM     43  C   UNL A   1      46.502  31.693  28.011  1.00  0.00     0.031 A 
ATOM     44  C   UNL A   1      45.513  25.067  25.944  1.00  0.00     0.031 A 
ATOM     45  C   UNL A   1      47.685  31.009  27.559  1.00  0.00     0.049 A 
ATOM     46  C   UNL A   1      46.863  25.720  25.881  1.00  0.00     0.074 A 
ATOM     47  C   UNL A   1      48.986  31.481  27.507  1.00  0.00     0.029 A 
ATOM     48  N   UNL A   1      47.714  29.707  27.082  1.00  0.00    -0.354 N 
ATOM     49  N   UNL A   1      47.209  26.933  26.242  1.00  0.00    -0.248 NA
ATOM     50  C   UNL A   1      47.966  24.911  25.344  1.00  0.00     0.031 C 
ATOM     51  C   UNL A   1      49.792  30.478  26.958  1.00  0.00     0.029 A 
ATOM     52  C   UNL A   1      49.004  29.365  26.714  1.00  0.00     0.049 A 
ATOM     53  H   UNL A   1      46.931  29.113  27.016  1.00  0.00     0.167 HD
ATOM     54  C   UNL A   1      48.571  27.030  25.989  1.00  0.00     0.074 A 
ATOM     55  C   UNL A   1      48.990  25.748  25.458  1.00  0.00     0.031 C 
ATOM     56  C   UNL A   1      49.400  28.087  26.176  1.00  0.00     0.031 A 
BRANCH  43  57
ATOM     57  C   UNL A   1      46.620  33.126  28.452  1.00  0.00    -0.014 A 
ATOM     58  C   UNL A   1      46.662  33.476  29.812  1.00  0.00     0.010 A 
ATOM     59  C   UNL A   1      46.701  34.143  27.479  1.00  0.00     0.010 A 
ATOM     60  C   UNL A   1      46.734  34.818  30.196  1.00  0.00     0.020 A 
ATOM     61  C   UNL A   1      46.796  35.484  27.860  1.00  0.00     0.020 A 
ATOM     62  C   UNL A   1      46.790  35.814  29.217  1.00  0.00     0.054 A 
BRANCH  62  63
ATOM     63  S   UNL A   1      46.876  37.551  29.737  1.00  0.00     0.124 S 
ATOM     64  O   UNL A   1      48.180  37.955  29.218  1.00  0.00    -0.237 OA
ATOM     65  O   UNL A   1      45.722  38.146  29.069  1.00  0.00    -0.237 OA
ATOM     66  O   UNL A   1      46.780  37.481  31.193  1.00  0.00    -0.744 OA
ENDBRANCH  62  63
ENDBRANCH  43  57
BRANCH  44  67
ATOM     67  C   UNL A   1      45.313  23.661  25.500  1.00  0.00    -0.014 A 
ATOM     68  C   UNL A   1      45.566  22.591  26.375  1.00  0.00     0.010 A 
ATOM     69  C   UNL A   1      44.828  23.390  24.207  1.00  0.00     0.010 A 
ATOM     70  C   UNL A   1      45.339  21.274  25.963  1.00  0.00     0.020 A 
ATOM     71  C   UNL A   1      44.579  22.077  23.800  1.00  0.00     0.020 A 
ATOM     72  C   UNL A   1      44.843  21.025  24.679  1.00  0.00     0.054 A 
BRANCH  72  73
ATOM     73  S   UNL A   1      44.488  19.315  24.189  1.00  0.00     0.124 S 
ATOM     74  O   UNL A   1      43.147  19.117  24.730  1.00  0.00    -0.237 OA
ATOM     75  O   UNL A   1      44.579  19.376  22.731  1.00  0.00    -0.237 OA
ATOM     76  O   UNL A   1      45.547  18.547  24.838  1.00  0.00    -0.744 OA
ENDBRANCH  72  73
ENDBRANCH  44  67
BRANCH  56  77
ATOM     77  C   UNL A   1      50.849  27.892  25.823  1.00  0.00    -0.014 A 
ATOM     78  C   UNL A   1      51.755  27.355  26.754  1.00  0.00     0.010 A 
ATOM     79  C   UNL A   1      51.298  28.209  24.529  1.00  0.00     0.010 A 
ATOM     80  C   UNL A   1      53.095  27.164  26.405  1.00  0.00     0.020 A 
ATOM     81  C   UNL A   1      52.631  27.999  24.170  1.00  0.00     0.020 A 
ATOM     82  C   UNL A   1      53.525  27.491  25.114  1.00  0.00     0.054 A 
BRANCH  82  83
ATOM     83  S   UNL A   1      55.259  27.197  24.669  1.00  0.00     0.124 S 
ATOM     84  O   UNL A   1      55.380  25.754  24.852  1.00  0.00    -0.237 OA
ATOM     85  O   UNL A   1      55.321  27.664  23.286  1.00  0.00    -0.237 OA
ATOM     86  O   UNL A   1      56.003  28.011  25.627  1.00  0.00    -0.744 OA
ENDBRANCH  82  83
ENDBRANCH  56  77
ENDBRANCH  30  31
ENDBRANCH  23  25
ENDBRANCH  22  23
ENDBRANCH  21  22
ENDBRANCH   1  21
TORSDOF 19
ENDMDL
MODEL 3
REMARK VINA RESULT:      -9.2      3.628      8.264
REMARK SMILES CC(C)C[N@@H+](C1CC1)[C@@H](C)c1ccc(C(=O)OCCOC(=O)c2ccc(-c3c4nc(c(-c5ccc(S(=O)(=O)[O-])cc5)c5ccc([nH]5)c(-c5ccc(S(=O)(=O)[O-])cc5)c5nc(c(-c6ccc(S(=O)(=O)[O-])cc6)c6ccc3[nH]6)C=C5)C=C4)cc2)o1
REMARK SMILES IDX 18 1 17 2 15 3 16 4 14 5 11 6 12 7 83 8 13 9 9 10 10 11 5 12
REMARK SMILES IDX 4 14 2 15 1 16 3 17 6 18 7 19 8 20 19 21 20 22 21 23 22 24
REMARK SMILES IDX 23 25 24 26 82 27 25 28 81 29 26 30 27 31 28 32 75 33 29 34
REMARK SMILES IDX 80 35 74 36 76 37 30 38 79 39 73 40 72 41 31 43 61 44 42 45
REMARK SMILES IDX 60 46 43 47 46 48 59 49 77 50 44 51 45 52 58 54 78 55 47 56
REMARK SMILES IDX 32 57 33 58 41 59 34 60 40 61 35 62 36 63 37 64 38 65 39 66
REMARK SMILES IDX 62 67 63 68 71 69 64 70 70 71 65 72 66 73 67 74 68 75 69 76
REMARK SMILES IDX 48 77 49 78 57 79 50 80 56 81 51 82 52 83 53 84 54 85 55 86
REMARK H PARENT 5 13 76 42 46 53
REMARK Flexibility Score: inf
ROOT
ATOM      1  C   UNL A   1      39.192  21.821  26.083  1.00  0.00     0.275 C 
ENDROOT
BRANCH   1   2
ATOM      2  O   UNL A   1      37.891  22.148  25.556  1.00  0.00    -0.456 OA
BRANCH   2   3
ATOM      3  C   UNL A   1      37.470  23.437  25.750  1.00  0.00     0.374 C 
ATOM      4  O   UNL A   1      38.054  24.250  26.450  1.00  0.00    -0.242 OA
BRANCH   3   5
ATOM      5  C   UNL A   1      36.276  23.683  24.972  1.00  0.00     0.212 A 
ATOM      6  C   UNL A   1      34.409  24.774  24.467  1.00  0.00     0.162 A 
ATOM      7  C   UNL A   1      34.614  23.837  23.470  1.00  0.00     0.053 A 
ATOM      8  O   UNL A   1      35.369  24.609  25.429  1.00  0.00    -0.448 OA
ATOM      9  C   UNL A   1      35.829  23.175  23.767  1.00  0.00     0.059 A 
BRANCH   6  10
ATOM     10  C   UNL A   1      33.344  25.830  24.698  1.00  0.00     0.248 C 
ATOM     11  C   UNL A   1      33.795  26.864  25.745  1.00  0.00     0.084 C 
BRANCH  10  12
ATOM     12  N   UNL A   1      31.973  25.317  24.958  1.00  0.00    -0.324 N 
ATOM     13  H   UNL A   1      31.970  24.525  24.314  1.00  0.00     0.348 HD
BRANCH  12  14
ATOM     14  C   UNL A   1      31.691  24.761  26.307  1.00  0.00     0.265 C 
BRANCH  14  15
ATOM     15  C   UNL A   1      31.411  23.251  26.477  1.00  0.00     0.038 C 
ATOM     16  C   UNL A   1      30.024  22.944  27.038  1.00  0.00     0.013 C 
ATOM     17  C   UNL A   1      31.540  22.537  25.120  1.00  0.00     0.013 C 
ENDBRANCH  14  15
ENDBRANCH  12  14
BRANCH  12  18
ATOM     18  C   UNL A   1      30.871  26.283  24.599  1.00  0.00     0.185 C 
ATOM     19  C   UNL A   1      29.749  26.031  23.625  1.00  0.00     0.071 C 
ATOM     20  C   UNL A   1      29.476  26.008  25.097  1.00  0.00     0.071 C 
ENDBRANCH  12  18
ENDBRANCH  10  12
ENDBRANCH   6  10
ENDBRANCH   3   5
ENDBRANCH   2   3
ENDBRANCH   1   2
BRANCH   1  21
ATOM     21  C   UNL A   1      39.562  20.349  25.863  1.00  0.00     0.275 C 
BRANCH  21  22
ATOM     22  O   UNL A   1      40.610  19.926  26.754  1.00  0.00    -0.458 OA
BRANCH  22  23
ATOM     23  C   UNL A   1      41.838  19.839  26.190  1.00  0.00     0.338 C 
ATOM     24  O   UNL A   1      42.280  18.899  25.552  1.00  0.00    -0.246 OA
BRANCH  23  25
ATOM     25  C   UNL A   1      42.548  21.120  26.339  1.00  0.00     0.060 A 
ATOM     26  C   UNL A   1      42.818  21.559  27.633  1.00  0.00     0.016 A 
ATOM     27  C   UNL A   1      42.856  21.929  25.246  1.00  0.00     0.016 A 
ATOM     28  C   UNL A   1      43.348  22.821  27.860  1.00  0.00     0.010 A 
ATOM     29  C   UNL A   1      43.430  23.188  25.469  1.00  0.00     0.010 A 
ATOM     30  C   UNL A   1      43.663  23.648  26.779  1.00  0.00    -0.014 A 
BRANCH  30  31
ATOM     31  C   UNL A   1      44.210  24.998  27.049  1.00  0.00     0.031 A 
ATOM     32  C   UNL A   1      43.326  26.071  27.616  1.00  0.00     0.074 A 
ATOM     33  C   UNL A   1      45.518  25.237  26.839  1.00  0.00     0.049 A 
ATOM     34  N   UNL A   1      43.614  27.318  27.884  1.00  0.00    -0.248 NA
ATOM     35  C   UNL A   1      41.938  25.691  27.923  1.00  0.00     0.031 C 
ATOM     36  C   UNL A   1      46.490  24.253  26.354  1.00  0.00     0.029 A 
ATOM     37  N   UNL A   1      46.260  26.376  27.021  1.00  0.00    -0.354 N 
ATOM     38  C   UNL A   1      42.437  27.883  28.363  1.00  0.00     0.074 A 
ATOM     39  C   UNL A   1      41.430  26.842  28.339  1.00  0.00     0.031 C 
ATOM     40  C   UNL A   1      47.702  24.826  26.295  1.00  0.00     0.029 A 
ATOM     41  C   UNL A   1      47.586  26.227  26.687  1.00  0.00     0.049 A 
ATOM     42  H   UNL A   1      45.881  27.219  27.358  1.00  0.00     0.167 HD
ATOM     43  C   UNL A   1      42.218  29.152  28.782  1.00  0.00     0.031 A 
ATOM     44  C   UNL A   1      48.590  27.124  26.674  1.00  0.00     0.031 A 
ATOM     45  C   UNL A   1      43.228  30.179  28.808  1.00  0.00     0.049 A 
ATOM     46  C   UNL A   1      48.310  28.539  27.088  1.00  0.00     0.074 A 
ATOM     47  C   UNL A   1      43.107  31.495  29.219  1.00  0.00     0.029 A 
ATOM     48  N   UNL A   1      44.545  30.004  28.409  1.00  0.00    -0.354 N 
ATOM     49  N   UNL A   1      47.186  29.064  27.518  1.00  0.00    -0.248 NA
ATOM     50  C   UNL A   1      49.429  29.486  27.010  1.00  0.00     0.031 C 
ATOM     51  C   UNL A   1      44.341  32.127  29.026  1.00  0.00     0.029 A 
ATOM     52  C   UNL A   1      45.243  31.193  28.543  1.00  0.00     0.049 A 
ATOM     53  H   UNL A   1      44.927  29.159  28.079  1.00  0.00     0.167 HD
ATOM     54  C   UNL A   1      47.466  30.401  27.773  1.00  0.00     0.074 A 
ATOM     55  C   UNL A   1      48.869  30.600  27.465  1.00  0.00     0.031 C 
ATOM     56  C   UNL A   1      46.636  31.375  28.220  1.00  0.00     0.031 A 
BRANCH  43  57
ATOM     57  C   UNL A   1      40.817  29.507  29.197  1.00  0.00    -0.014 A 
ATOM     58  C   UNL A   1      40.472  29.682  30.547  1.00  0.00     0.010 A 
ATOM     59  C   UNL A   1      39.827  29.679  28.209  1.00  0.00     0.010 A 
ATOM     60  C   UNL A   1      39.154  29.974  30.910  1.00  0.00     0.020 A 
ATOM     61  C   UNL A   1      38.513  29.994  28.566  1.00  0.00     0.020 A 
ATOM     62  C   UNL A   1      38.181  30.118  29.917  1.00  0.00     0.054 A 
BRANCH  62  63
ATOM     63  S   UNL A   1      36.475  30.491  30.410  1.00  0.00     0.124 S 
ATOM     64  O   UNL A   1      36.640  31.744  31.142  1.00  0.00    -0.237 OA
ATOM     65  O   UNL A   1      35.785  30.601  29.127  1.00  0.00    -0.237 OA
ATOM     66  O   UNL A   1      36.089  29.341  31.223  1.00  0.00    -0.744 OA
ENDBRANCH  62  63
ENDBRANCH  43  57
BRANCH  44  67
ATOM     67  C   UNL A   1      49.945  26.704  26.227  1.00  0.00    -0.014 A 
ATOM     68  C   UNL A   1      50.371  26.946  24.910  1.00  0.00     0.010 A 
ATOM     69  C   UNL A   1      50.832  26.093  27.133  1.00  0.00     0.010 A 
ATOM     70  C   UNL A   1      51.661  26.582  24.507  1.00  0.00     0.020 A 
ATOM     71  C   UNL A   1      52.128  25.750  26.741  1.00  0.00     0.020 A 
ATOM     72  C   UNL A   1      52.532  25.990  25.427  1.00  0.00     0.054 A 
BRANCH  72  73
ATOM     73  S   UNL A   1      54.224  25.591  24.905  1.00  0.00     0.124 S 
ATOM     74  O   UNL A   1      54.260  24.143  25.076  1.00  0.00    -0.237 OA
ATOM     75  O   UNL A   1      54.251  26.066  23.523  1.00  0.00    -0.237 OA
ATOM     76  O   UNL A   1      55.055  26.354  25.833  1.00  0.00    -0.744 OA
ENDBRANCH  72  73
ENDBRANCH  44  67
BRANCH  56  77
ATOM     77  C   UNL A   1      47.230  32.742  28.422  1.00  0.00    -0.014 A 
ATOM     78  C   UNL A   1      47.209  33.699  27.393  1.00  0.00     0.010 A 
ATOM     79  C   UNL A   1      47.777  33.086  29.671  1.00  0.00     0.010 A 
ATOM     80  C   UNL A   1      47.750  34.971  27.601  1.00  0.00     0.020 A 
ATOM     81  C   UNL A   1      48.299  34.363  29.889  1.00  0.00     0.020 A 
ATOM     82  C   UNL A   1      48.295  35.293  28.848  1.00  0.00     0.054 A 
BRANCH  82  83
ATOM     83  S   UNL A   1      48.956  36.962  29.110  1.00  0.00     0.124 S 
ATOM     84  O   UNL A   1      49.735  37.175  27.894  1.00  0.00    -0.237 OA
ATOM     85  O   UNL A   1      47.747  37.773  29.233  1.00  0.00    -0.237 OA
ATOM     86  O   UNL A   1      49.738  36.834  30.338  1.00  0.00    -0.744 OA
ENDBRANCH  82  83
ENDBRANCH  56  77
ENDBRANCH  30  31
ENDBRANCH  23  25
ENDBRANCH  22  23
ENDBRANCH  21  22
ENDBRANCH   1  21
TORSDOF 19
ENDMDL
