MODEL 1
REMARK VINA RESULT:     -10.5      0.000      0.000
REMARK SMILES O=C(CC1CC[NH+](C[C@@H]2Cc3ccccc32)CC1)OCCOC(=O)c1ccc(-c2c3nc(c(-c4ccc(S(=O)(=O)[O-])cc4)c4ccc([nH]4)c(-c4ccc(S(=O)(=O)[O-])cc4)c4nc(c(-c5ccc(S(=O)(=O)[O-])cc5)c5ccc2[nH]5)C=C4)C=C3)cc1
REMARK SMILES IDX 20 1 19 2 2 3 1 4 3 5 4 6 5 7 18 8 6 9 17 10 7 11 8 13 9 14
REMARK SMILES IDX 10 15 16 16 11 17 15 18 12 19 14 20 13 21 21 22 22 23 23 24
REMARK SMILES IDX 24 25 25 26 26 27 84 28 27 29 83 30 28 31 29 32 30 33 77 34
REMARK SMILES IDX 31 35 82 36 76 37 78 38 32 39 81 40 75 41 74 42 33 44 63 45
REMARK SMILES IDX 44 46 62 47 45 48 48 49 61 50 79 51 46 52 47 53 60 55 80 56
REMARK SMILES IDX 49 57 34 58 35 59 43 60 36 61 42 62 37 63 38 64 39 65 40 66
REMARK SMILES IDX 41 67 64 68 65 69 73 70 66 71 72 72 67 73 68 74 69 75 70 76
REMARK SMILES IDX 71 77 50 78 51 79 59 80 52 81 58 82 53 83 54 84 55 85 56 86
REMARK SMILES IDX 57 87
REMARK H PARENT 7 12 78 43 48 54
REMARK Flexibility Score: inf
ROOT
ATOM      1  C   UNL A   1      31.977  29.843  26.664  1.00  0.00     0.274 C 
ENDROOT
BRANCH   1   2
ATOM      2  O   UNL A   1      31.884  29.597  25.270  1.00  0.00    -0.462 OA
BRANCH   2   3
ATOM      3  C   UNL A   1      31.689  28.273  24.988  1.00  0.00     0.306 C 
ATOM      4  O   UNL A   1      32.470  27.410  25.371  1.00  0.00    -0.252 OA
BRANCH   3   5
ATOM      5  C   UNL A   1      30.508  27.973  24.063  1.00  0.00     0.126 C 
BRANCH   5   6
ATOM      6  C   UNL A   1      30.557  26.766  23.057  1.00  0.00     0.011 C 
ATOM      7  C   UNL A   1      30.215  25.402  23.707  1.00  0.00     0.066 C 
ATOM      8  C   UNL A   1      31.764  26.669  22.111  1.00  0.00     0.066 C 
ATOM      9  C   UNL A   1      31.316  24.310  23.733  1.00  0.00     0.262 C 
ATOM     10  C   UNL A   1      32.838  25.581  22.389  1.00  0.00     0.262 C 
ATOM     11  N   UNL A   1      32.704  24.800  23.635  1.00  0.00    -0.334 N 
ATOM     12  H   UNL A   1      32.899  25.401  24.435  1.00  0.00     0.348 HD
BRANCH  11  13
ATOM     13  C   UNL A   1      33.714  23.702  23.728  1.00  0.00     0.270 C 
BRANCH  13  14
ATOM     14  C   UNL A   1      34.503  23.448  25.054  1.00  0.00     0.079 C 
ATOM     15  C   UNL A   1      35.456  24.530  25.708  1.00  0.00     0.050 C 
ATOM     16  C   UNL A   1      35.693  22.521  25.116  1.00  0.00    -0.036 A 
ATOM     17  C   UNL A   1      36.512  23.457  25.707  1.00  0.00    -0.043 A 
ATOM     18  C   UNL A   1      36.166  21.263  24.815  1.00  0.00     0.004 A 
ATOM     19  C   UNL A   1      37.856  23.229  25.948  1.00  0.00     0.004 A 
ATOM     20  C   UNL A   1      37.535  21.015  25.003  1.00  0.00     0.000 A 
ATOM     21  C   UNL A   1      38.381  22.001  25.543  1.00  0.00     0.000 A 
ENDBRANCH  13  14
ENDBRANCH  11  13
ENDBRANCH   5   6
ENDBRANCH   3   5
ENDBRANCH   2   3
ENDBRANCH   1   2
BRANCH   1  22
ATOM     22  C   UNL A   1      33.019  30.801  27.204  1.00  0.00     0.275 C 
BRANCH  22  23
ATOM     23  O   UNL A   1      34.129  30.111  27.696  1.00  0.00    -0.458 OA
BRANCH  23  24
ATOM     24  C   UNL A   1      34.865  30.940  28.462  1.00  0.00     0.338 C 
ATOM     25  O   UNL A   1      34.514  31.884  29.154  1.00  0.00    -0.246 OA
BRANCH  24  26
ATOM     26  C   UNL A   1      36.131  30.263  28.528  1.00  0.00     0.060 A 
ATOM     27  C   UNL A   1      36.439  29.630  29.729  1.00  0.00     0.016 A 
ATOM     28  C   UNL A   1      36.931  30.207  27.381  1.00  0.00     0.016 A 
ATOM     29  C   UNL A   1      37.665  29.031  29.826  1.00  0.00     0.010 A 
ATOM     30  C   UNL A   1      38.141  29.573  27.467  1.00  0.00     0.010 A 
ATOM     31  C   UNL A   1      38.521  29.072  28.715  1.00  0.00    -0.014 A 
BRANCH  31  32
ATOM     32  C   UNL A   1      39.923  28.779  28.951  1.00  0.00     0.031 A 
ATOM     33  C   UNL A   1      40.728  29.820  29.659  1.00  0.00     0.074 A 
ATOM     34  C   UNL A   1      40.354  27.559  28.621  1.00  0.00     0.049 A 
ATOM     35  N   UNL A   1      41.958  29.752  30.075  1.00  0.00    -0.248 NA
ATOM     36  C   UNL A   1      40.064  31.111  29.943  1.00  0.00     0.031 C 
ATOM     37  C   UNL A   1      39.545  26.529  27.958  1.00  0.00     0.029 A 
ATOM     38  N   UNL A   1      41.557  26.970  28.833  1.00  0.00    -0.354 N 
ATOM     39  C   UNL A   1      42.212  30.978  30.675  1.00  0.00     0.074 A 
ATOM     40  C   UNL A   1      41.035  31.797  30.524  1.00  0.00     0.031 C 
ATOM     41  C   UNL A   1      40.279  25.413  27.846  1.00  0.00     0.029 A 
ATOM     42  C   UNL A   1      41.605  25.675  28.392  1.00  0.00     0.049 A 
ATOM     43  H   UNL A   1      42.319  27.426  29.260  1.00  0.00     0.167 HD
ATOM     44  C   UNL A   1      43.336  31.360  31.315  1.00  0.00     0.031 A 
ATOM     45  C   UNL A   1      42.632  24.815  28.428  1.00  0.00     0.031 A 
ATOM     46  C   UNL A   1      44.482  30.498  31.416  1.00  0.00     0.049 A 
ATOM     47  C   UNL A   1      43.890  25.290  29.097  1.00  0.00     0.074 A 
ATOM     48  C   UNL A   1      45.704  30.749  32.003  1.00  0.00     0.029 A 
ATOM     49  N   UNL A   1      44.531  29.204  30.908  1.00  0.00    -0.354 N 
ATOM     50  N   UNL A   1      44.132  26.452  29.665  1.00  0.00    -0.248 NA
ATOM     51  C   UNL A   1      45.000  24.341  29.150  1.00  0.00     0.031 C 
ATOM     52  C   UNL A   1      46.514  29.626  31.797  1.00  0.00     0.029 A 
ATOM     53  C   UNL A   1      45.772  28.648  31.146  1.00  0.00     0.049 A 
ATOM     54  H   UNL A   1      43.789  28.751  30.446  1.00  0.00     0.167 HD
ATOM     55  C   UNL A   1      45.428  26.372  30.153  1.00  0.00     0.074 A 
ATOM     56  C   UNL A   1      45.892  25.029  29.848  1.00  0.00     0.031 C 
ATOM     57  C   UNL A   1      46.177  27.311  30.787  1.00  0.00     0.031 A 
BRANCH  44  58
ATOM     58  C   UNL A   1      43.374  32.744  31.901  1.00  0.00    -0.014 A 
ATOM     59  C   UNL A   1      42.977  32.990  33.229  1.00  0.00     0.010 A 
ATOM     60  C   UNL A   1      43.823  33.820  31.115  1.00  0.00     0.010 A 
ATOM     61  C   UNL A   1      43.015  34.285  33.754  1.00  0.00     0.020 A 
ATOM     62  C   UNL A   1      43.888  35.112  31.643  1.00  0.00     0.020 A 
ATOM     63  C   UNL A   1      43.477  35.338  32.959  1.00  0.00     0.054 A 
BRANCH  63  64
ATOM     64  S   UNL A   1      43.568  36.999  33.683  1.00  0.00     0.124 S 
ATOM     65  O   UNL A   1      42.360  37.040  34.503  1.00  0.00    -0.237 OA
ATOM     66  O   UNL A   1      44.828  36.954  34.421  1.00  0.00    -0.237 OA
ATOM     67  O   UNL A   1      43.562  37.885  32.521  1.00  0.00    -0.744 OA
ENDBRANCH  63  64
ENDBRANCH  44  58
BRANCH  45  68
ATOM     68  C   UNL A   1      42.497  23.480  27.798  1.00  0.00    -0.014 A 
ATOM     69  C   UNL A   1      42.815  23.273  26.447  1.00  0.00     0.010 A 
ATOM     70  C   UNL A   1      42.075  22.386  28.578  1.00  0.00     0.010 A 
ATOM     71  C   UNL A   1      42.679  22.002  25.878  1.00  0.00     0.020 A 
ATOM     72  C   UNL A   1      41.973  21.110  28.024  1.00  0.00     0.020 A 
ATOM     73  C   UNL A   1      42.256  20.930  26.671  1.00  0.00     0.054 A 
BRANCH  73  74
ATOM     74  S   UNL A   1      42.096  19.289  25.917  1.00  0.00     0.124 S 
ATOM     75  O   UNL A   1      40.663  19.217  25.655  1.00  0.00    -0.237 OA
ATOM     76  O   UNL A   1      42.953  19.399  24.740  1.00  0.00    -0.237 OA
ATOM     77  O   UNL A   1      42.588  18.386  26.955  1.00  0.00    -0.744 OA
ENDBRANCH  73  74
ENDBRANCH  45  68
BRANCH  57  78
ATOM     78  C   UNL A   1      47.562  26.886  31.181  1.00  0.00    -0.014 A 
ATOM     79  C   UNL A   1      48.656  27.106  30.326  1.00  0.00     0.010 A 
ATOM     80  C   UNL A   1      47.766  26.262  32.424  1.00  0.00     0.010 A 
ATOM     81  C   UNL A   1      49.923  26.645  30.678  1.00  0.00     0.020 A 
ATOM     82  C   UNL A   1      49.039  25.837  32.798  1.00  0.00     0.020 A 
ATOM     83  C   UNL A   1      50.103  26.007  31.911  1.00  0.00     0.054 A 
BRANCH  83  84
ATOM     84  S   UNL A   1      51.757  25.411  32.343  1.00  0.00     0.124 S 
ATOM     85  O   UNL A   1      52.522  25.750  31.145  1.00  0.00    -0.237 OA
ATOM     86  O   UNL A   1      52.077  26.193  33.535  1.00  0.00    -0.237 OA
ATOM     87  O   UNL A   1      51.561  23.982  32.574  1.00  0.00    -0.744 OA
ENDBRANCH  83  84
ENDBRANCH  57  78
ENDBRANCH  31  32
ENDBRANCH  24  26
ENDBRANCH  23  24
ENDBRANCH  22  23
ENDBRANCH   1  22
TORSDOF 17
ENDMDL
MODEL 2
REMARK VINA RESULT:     -10.4      1.076      8.484
REMARK SMILES O=C(CC1CC[NH+](C[C@@H]2Cc3ccccc32)CC1)OCCOC(=O)c1ccc(-c2c3nc(c(-c4ccc(S(=O)(=O)[O-])cc4)c4ccc([nH]4)c(-c4ccc(S(=O)(=O)[O-])cc4)c4nc(c(-c5ccc(S(=O)(=O)[O-])cc5)c5ccc2[nH]5)C=C4)C=C3)cc1
REMARK SMILES IDX 20 1 19 2 2 3 1 4 3 5 4 6 5 7 18 8 6 9 17 10 7 11 8 13 9 14
REMARK SMILES IDX 10 15 16 16 11 17 15 18 12 19 14 20 13 21 21 22 22 23 23 24
REMARK SMILES IDX 24 25 25 26 26 27 84 28 27 29 83 30 28 31 29 32 30 33 77 34
REMARK SMILES IDX 31 35 82 36 76 37 78 38 32 39 81 40 75 41 74 42 33 44 63 45
REMARK SMILES IDX 44 46 62 47 45 48 48 49 61 50 79 51 46 52 47 53 60 55 80 56
REMARK SMILES IDX 49 57 34 58 35 59 43 60 36 61 42 62 37 63 38 64 39 65 40 66
REMARK SMILES IDX 41 67 64 68 65 69 73 70 66 71 72 72 67 73 68 74 69 75 70 76
REMARK SMILES IDX 71 77 50 78 51 79 59 80 52 81 58 82 53 83 54 84 55 85 56 86
REMARK SMILES IDX 57 87
REMARK H PARENT 7 12 78 43 48 54
REMARK Flexibility Score: inf
ROOT
ATOM      1  C   UNL A   1      33.226  29.519  25.679  1.00  0.00     0.274 C 
ENDROOT
BRANCH   1   2
ATOM      2  O   UNL A   1      32.168  29.733  24.758  1.00  0.00    -0.462 OA
BRANCH   2   3
ATOM      3  C   UNL A   1      32.010  28.685  23.895  1.00  0.00     0.306 C 
ATOM      4  O   UNL A   1      32.899  28.344  23.123  1.00  0.00    -0.252 OA
BRANCH   3   5
ATOM      5  C   UNL A   1      30.613  28.062  23.879  1.00  0.00     0.126 C 
BRANCH   5   6
ATOM      6  C   UNL A   1      30.359  26.634  24.487  1.00  0.00     0.011 C 
ATOM      7  C   UNL A   1      30.734  26.522  25.986  1.00  0.00     0.066 C 
ATOM      8  C   UNL A   1      30.834  25.415  23.680  1.00  0.00     0.066 C 
ATOM      9  C   UNL A   1      31.872  25.545  26.381  1.00  0.00     0.262 C 
ATOM     10  C   UNL A   1      32.087  24.642  24.173  1.00  0.00     0.262 C 
ATOM     11  N   UNL A   1      32.833  25.216  25.311  1.00  0.00    -0.334 N 
ATOM     12  H   UNL A   1      33.301  26.071  25.013  1.00  0.00     0.348 HD
BRANCH  11  13
ATOM     13  C   UNL A   1      33.935  24.321  25.777  1.00  0.00     0.270 C 
BRANCH  13  14
ATOM     14  C   UNL A   1      35.076  23.881  24.803  1.00  0.00     0.079 C 
ATOM     15  C   UNL A   1      35.099  22.467  24.090  1.00  0.00     0.050 C 
ATOM     16  C   UNL A   1      36.462  23.534  25.294  1.00  0.00    -0.036 A 
ATOM     17  C   UNL A   1      36.488  22.315  24.651  1.00  0.00    -0.043 A 
ATOM     18  C   UNL A   1      37.531  23.949  26.056  1.00  0.00     0.004 A 
ATOM     19  C   UNL A   1      37.527  21.414  24.801  1.00  0.00     0.004 A 
ATOM     20  C   UNL A   1      38.579  23.039  26.267  1.00  0.00     0.000 A 
ATOM     21  C   UNL A   1      38.565  21.768  25.663  1.00  0.00     0.000 A 
ENDBRANCH  13  14
ENDBRANCH  11  13
ENDBRANCH   5   6
ENDBRANCH   3   5
ENDBRANCH   2   3
ENDBRANCH   1   2
BRANCH   1  22
ATOM     22  C   UNL A   1      33.088  29.965  27.120  1.00  0.00     0.275 C 
BRANCH  22  23
ATOM     23  O   UNL A   1      34.154  29.502  27.895  1.00  0.00    -0.458 OA
BRANCH  23  24
ATOM     24  C   UNL A   1      34.894  30.549  28.305  1.00  0.00     0.338 C 
ATOM     25  O   UNL A   1      34.541  31.654  28.691  1.00  0.00    -0.246 OA
BRANCH  24  26
ATOM     26  C   UNL A   1      36.194  29.963  28.484  1.00  0.00     0.060 A 
ATOM     27  C   UNL A   1      36.467  29.416  29.734  1.00  0.00     0.016 A 
ATOM     28  C   UNL A   1      37.065  29.898  27.390  1.00  0.00     0.016 A 
ATOM     29  C   UNL A   1      37.719  28.906  29.937  1.00  0.00     0.010 A 
ATOM     30  C   UNL A   1      38.305  29.352  27.583  1.00  0.00     0.010 A 
ATOM     31  C   UNL A   1      38.638  28.944  28.877  1.00  0.00    -0.014 A 
BRANCH  31  32
ATOM     32  C   UNL A   1      40.039  28.758  29.211  1.00  0.00     0.031 A 
ATOM     33  C   UNL A   1      40.658  27.448  28.850  1.00  0.00     0.074 A 
ATOM     34  C   UNL A   1      40.692  29.813  29.706  1.00  0.00     0.049 A 
ATOM     35  N   UNL A   1      41.902  27.083  28.946  1.00  0.00    -0.248 NA
ATOM     36  C   UNL A   1      39.763  26.404  28.305  1.00  0.00     0.031 C 
ATOM     37  C   UNL A   1      40.082  31.110  30.023  1.00  0.00     0.029 A 
ATOM     38  N   UNL A   1      42.008  29.972  29.990  1.00  0.00    -0.354 N 
ATOM     39  C   UNL A   1      41.942  25.781  28.468  1.00  0.00     0.074 A 
ATOM     40  C   UNL A   1      40.595  25.390  28.134  1.00  0.00     0.031 C 
ATOM     41  C   UNL A   1      41.044  31.948  30.434  1.00  0.00     0.029 A 
ATOM     42  C   UNL A   1      42.311  31.228  30.441  1.00  0.00     0.049 A 
ATOM     43  H   UNL A   1      42.678  29.257  29.883  1.00  0.00     0.167 HD
ATOM     44  C   UNL A   1      43.031  25.000  28.307  1.00  0.00     0.031 A 
ATOM     45  C   UNL A   1      43.500  31.717  30.823  1.00  0.00     0.031 A 
ATOM     46  C   UNL A   1      44.347  25.446  28.676  1.00  0.00     0.049 A 
ATOM     47  C   UNL A   1      44.683  30.804  30.686  1.00  0.00     0.074 A 
ATOM     48  C   UNL A   1      45.543  24.764  28.605  1.00  0.00     0.029 A 
ATOM     49  N   UNL A   1      44.626  26.709  29.189  1.00  0.00    -0.354 N 
ATOM     50  N   UNL A   1      44.722  29.568  30.234  1.00  0.00    -0.248 NA
ATOM     51  C   UNL A   1      45.979  31.348  31.087  1.00  0.00     0.031 C 
ATOM     52  C   UNL A   1      46.538  25.595  29.132  1.00  0.00     0.029 A 
ATOM     53  C   UNL A   1      45.974  26.821  29.462  1.00  0.00     0.049 A 
ATOM     54  H   UNL A   1      43.959  27.418  29.336  1.00  0.00     0.167 HD
ATOM     55  C   UNL A   1      46.055  29.187  30.289  1.00  0.00     0.074 A 
ATOM     56  C   UNL A   1      46.786  30.345  30.777  1.00  0.00     0.031 C 
ATOM     57  C   UNL A   1      46.632  27.998  29.978  1.00  0.00     0.031 A 
BRANCH  44  58
ATOM     58  C   UNL A   1      42.826  23.616  27.755  1.00  0.00    -0.014 A 
ATOM     59  C   UNL A   1      42.519  22.530  28.596  1.00  0.00     0.010 A 
ATOM     60  C   UNL A   1      42.933  23.397  26.371  1.00  0.00     0.010 A 
ATOM     61  C   UNL A   1      42.336  21.249  28.064  1.00  0.00     0.020 A 
ATOM     62  C   UNL A   1      42.725  22.124  25.831  1.00  0.00     0.020 A 
ATOM     63  C   UNL A   1      42.435  21.056  26.683  1.00  0.00     0.054 A 
BRANCH  63  64
ATOM     64  S   UNL A   1      42.138  19.396  26.014  1.00  0.00     0.124 S 
ATOM     65  O   UNL A   1      42.982  19.393  24.821  1.00  0.00    -0.237 OA
ATOM     66  O   UNL A   1      42.586  18.531  27.103  1.00  0.00    -0.237 OA
ATOM     67  O   UNL A   1      40.700  19.376  25.759  1.00  0.00    -0.744 OA
ENDBRANCH  63  64
ENDBRANCH  44  58
BRANCH  45  68
ATOM     68  C   UNL A   1      43.586  33.088  31.377  1.00  0.00    -0.014 A 
ATOM     69  C   UNL A   1      43.503  33.327  32.758  1.00  0.00     0.010 A 
ATOM     70  C   UNL A   1      43.794  34.176  30.506  1.00  0.00     0.010 A 
ATOM     71  C   UNL A   1      43.590  34.632  33.254  1.00  0.00     0.020 A 
ATOM     72  C   UNL A   1      43.917  35.474  30.999  1.00  0.00     0.020 A 
ATOM     73  C   UNL A   1      43.794  35.697  32.370  1.00  0.00     0.054 A 
BRANCH  73  74
ATOM     74  S   UNL A   1      43.914  37.380  33.034  1.00  0.00     0.124 S 
ATOM     75  O   UNL A   1      45.251  37.379  33.617  1.00  0.00    -0.237 OA
ATOM     76  O   UNL A   1      43.742  38.202  31.840  1.00  0.00    -0.237 OA
ATOM     77  O   UNL A   1      42.813  37.448  33.993  1.00  0.00    -0.744 OA
ENDBRANCH  73  74
ENDBRANCH  45  68
BRANCH  57  78
ATOM     78  C   UNL A   1      48.120  27.925  30.161  1.00  0.00    -0.014 A 
ATOM     79  C   UNL A   1      48.994  28.173  29.089  1.00  0.00     0.010 A 
ATOM     80  C   UNL A   1      48.645  27.607  31.426  1.00  0.00     0.010 A 
ATOM     81  C   UNL A   1      50.370  28.034  29.261  1.00  0.00     0.020 A 
ATOM     82  C   UNL A   1      50.022  27.509  31.612  1.00  0.00     0.020 A 
ATOM     83  C   UNL A   1      50.873  27.696  30.522  1.00  0.00     0.054 A 
BRANCH  83  84
ATOM     84  S   UNL A   1      52.664  27.516  30.718  1.00  0.00     0.124 S 
ATOM     85  O   UNL A   1      52.799  27.411  32.169  1.00  0.00    -0.237 OA
ATOM     86  O   UNL A   1      52.946  26.292  29.970  1.00  0.00    -0.237 OA
ATOM     87  O   UNL A   1      53.202  28.739  30.128  1.00  0.00    -0.744 OA
ENDBRANCH  83  84
ENDBRANCH  57  78
ENDBRANCH  31  32
ENDBRANCH  24  26
ENDBRANCH  23  24
ENDBRANCH  22  23
ENDBRANCH   1  22
TORSDOF 17
ENDMDL
MODEL 3
REMARK VINA RESULT:     -10.2      1.464      8.601
REMARK SMILES O=C(CC1CC[NH+](C[C@@H]2Cc3ccccc32)CC1)OCCOC(=O)c1ccc(-c2c3nc(c(-c4ccc(S(=O)(=O)[O-])cc4)c4ccc([nH]4)c(-c4ccc(S(=O)(=O)[O-])cc4)c4nc(c(-c5ccc(S(=O)(=O)[O-])cc5)c5ccc2[nH]5)C=C4)C=C3)cc1
REMARK SMILES IDX 20 1 19 2 2 3 1 4 3 5 4 6 5 7 18 8 6 9 17 10 7 11 8 13 9 14
REMARK SMILES IDX 10 15 16 16 11 17 15 18 12 19 14 20 13 21 21 22 22 23 23 24
REMARK SMILES IDX 24 25 25 26 26 27 84 28 27 29 83 30 28 31 29 32 30 33 77 34
REMARK SMILES IDX 31 35 82 36 76 37 78 38 32 39 81 40 75 41 74 42 33 44 63 45
REMARK SMILES IDX 44 46 62 47 45 48 48 49 61 50 79 51 46 52 47 53 60 55 80 56
REMARK SMILES IDX 49 57 34 58 35 59 43 60 36 61 42 62 37 63 38 64 39 65 40 66
REMARK SMILES IDX 41 67 64 68 65 69 73 70 66 71 72 72 67 73 68 74 69 75 70 76
REMARK SMILES IDX 71 77 50 78 51 79 59 80 52 81 58 82 53 83 54 84 55 85 56 86
REMARK SMILES IDX 57 87
REMARK H PARENT 7 12 78 43 48 54
REMARK Flexibility Score: inf
ROOT
ATOM      1  C   UNL A   1      32.197  29.406  26.428  1.00  0.00     0.274 C 
ENDROOT
BRANCH   1   2
ATOM      2  O   UNL A   1      32.360  28.906  25.110  1.00  0.00    -0.462 OA
BRANCH   2   3
ATOM      3  C   UNL A   1      32.016  27.587  25.008  1.00  0.00     0.306 C 
ATOM      4  O   UNL A   1      32.710  26.700  25.493  1.00  0.00    -0.252 OA
BRANCH   3   5
ATOM      5  C   UNL A   1      30.785  27.300  24.146  1.00  0.00     0.126 C 
BRANCH   5   6
ATOM      6  C   UNL A   1      30.809  26.166  23.057  1.00  0.00     0.011 C 
ATOM      7  C   UNL A   1      30.320  24.793  23.580  1.00  0.00     0.066 C 
ATOM      8  C   UNL A   1      32.066  26.038  22.182  1.00  0.00     0.066 C 
ATOM      9  C   UNL A   1      31.331  23.616  23.592  1.00  0.00     0.262 C 
ATOM     10  C   UNL A   1      33.032  24.850  22.442  1.00  0.00     0.262 C 
ATOM     11  N   UNL A   1      32.755  23.997  23.615  1.00  0.00    -0.334 N 
ATOM     12  H   UNL A   1      32.942  24.523  24.469  1.00  0.00     0.348 HD
BRANCH  11  13
ATOM     13  C   UNL A   1      33.670  22.817  23.687  1.00  0.00     0.270 C 
BRANCH  13  14
ATOM     14  C   UNL A   1      33.287  21.556  24.528  1.00  0.00     0.079 C 
ATOM     15  C   UNL A   1      34.342  20.740  25.383  1.00  0.00     0.050 C 
ATOM     16  C   UNL A   1      32.950  20.232  23.883  1.00  0.00    -0.036 A 
ATOM     17  C   UNL A   1      33.851  19.522  24.646  1.00  0.00    -0.043 A 
ATOM     18  C   UNL A   1      32.180  19.599  22.932  1.00  0.00     0.004 A 
ATOM     19  C   UNL A   1      34.100  18.175  24.448  1.00  0.00     0.004 A 
ATOM     20  C   UNL A   1      32.442  18.244  22.674  1.00  0.00     0.000 A 
ATOM     21  C   UNL A   1      33.415  17.542  23.410  1.00  0.00     0.000 A 
ENDBRANCH  13  14
ENDBRANCH  11  13
ENDBRANCH   5   6
ENDBRANCH   3   5
ENDBRANCH   2   3
ENDBRANCH   1   2
BRANCH   1  22
ATOM     22  C   UNL A   1      33.158  30.440  26.979  1.00  0.00     0.275 C 
BRANCH  22  23
ATOM     23  O   UNL A   1      34.240  29.831  27.617  1.00  0.00    -0.458 OA
BRANCH  23  24
ATOM     24  C   UNL A   1      34.907  30.752  28.339  1.00  0.00     0.338 C 
ATOM     25  O   UNL A   1      34.489  31.734  28.933  1.00  0.00    -0.246 OA
BRANCH  24  26
ATOM     26  C   UNL A   1      36.196  30.139  28.513  1.00  0.00     0.060 A 
ATOM     27  C   UNL A   1      36.460  29.585  29.762  1.00  0.00     0.016 A 
ATOM     28  C   UNL A   1      37.063  30.060  27.418  1.00  0.00     0.016 A 
ATOM     29  C   UNL A   1      37.702  29.050  29.962  1.00  0.00     0.010 A 
ATOM     30  C   UNL A   1      38.292  29.488  27.607  1.00  0.00     0.010 A 
ATOM     31  C   UNL A   1      38.620  29.071  28.900  1.00  0.00    -0.014 A 
BRANCH  31  32
ATOM     32  C   UNL A   1      40.017  28.857  29.230  1.00  0.00     0.031 A 
ATOM     33  C   UNL A   1      40.611  27.538  28.858  1.00  0.00     0.074 A 
ATOM     34  C   UNL A   1      40.689  29.895  29.735  1.00  0.00     0.049 A 
ATOM     35  N   UNL A   1      41.849  27.150  28.950  1.00  0.00    -0.248 NA
ATOM     36  C   UNL A   1      39.697  26.516  28.305  1.00  0.00     0.031 C 
ATOM     37  C   UNL A   1      40.104  31.201  30.063  1.00  0.00     0.029 A 
ATOM     38  N   UNL A   1      42.009  30.027  30.018  1.00  0.00    -0.354 N 
ATOM     39  C   UNL A   1      41.865  25.852  28.460  1.00  0.00     0.074 A 
ATOM     40  C   UNL A   1      40.511  25.488  28.124  1.00  0.00     0.031 C 
ATOM     41  C   UNL A   1      41.082  32.017  30.480  1.00  0.00     0.029 A 
ATOM     42  C   UNL A   1      42.336  31.274  30.479  1.00  0.00     0.049 A 
ATOM     43  H   UNL A   1      42.665  29.301  29.904  1.00  0.00     0.167 HD
ATOM     44  C   UNL A   1      42.939  25.052  28.292  1.00  0.00     0.031 A 
ATOM     45  C   UNL A   1      43.533  31.738  30.864  1.00  0.00     0.031 A 
ATOM     46  C   UNL A   1      44.263  25.471  28.663  1.00  0.00     0.049 A 
ATOM     47  C   UNL A   1      44.699  30.804  30.718  1.00  0.00     0.074 A 
ATOM     48  C   UNL A   1      45.447  24.768  28.585  1.00  0.00     0.029 A 
ATOM     49  N   UNL A   1      44.565  26.724  29.186  1.00  0.00    -0.354 N 
ATOM     50  N   UNL A   1      44.716  29.572  30.256  1.00  0.00    -0.248 NA
ATOM     51  C   UNL A   1      46.006  31.322  31.123  1.00  0.00     0.031 C 
ATOM     52  C   UNL A   1      46.458  25.576  29.118  1.00  0.00     0.029 A 
ATOM     53  C   UNL A   1      45.916  26.809  29.459  1.00  0.00     0.049 A 
ATOM     54  H   UNL A   1      43.912  27.444  29.340  1.00  0.00     0.167 HD
ATOM     55  C   UNL A   1      46.041  29.166  30.306  1.00  0.00     0.074 A 
ATOM     56  C   UNL A   1      46.794  30.306  30.803  1.00  0.00     0.031 C 
ATOM     57  C   UNL A   1      46.596  27.969  29.984  1.00  0.00     0.031 A 
BRANCH  44  58
ATOM     58  C   UNL A   1      42.709  23.678  27.728  1.00  0.00    -0.014 A 
ATOM     59  C   UNL A   1      42.813  23.424  26.347  1.00  0.00     0.010 A 
ATOM     60  C   UNL A   1      42.390  22.616  28.593  1.00  0.00     0.010 A 
ATOM     61  C   UNL A   1      42.591  22.140  25.841  1.00  0.00     0.020 A 
ATOM     62  C   UNL A   1      42.193  21.324  28.095  1.00  0.00     0.020 A 
ATOM     63  C   UNL A   1      42.287  21.096  26.720  1.00  0.00     0.054 A 
BRANCH  63  64
ATOM     64  S   UNL A   1      42.058  19.428  26.044  1.00  0.00     0.124 S 
ATOM     65  O   UNL A   1      40.627  19.414  25.748  1.00  0.00    -0.237 OA
ATOM     66  O   UNL A   1      42.940  19.435  24.879  1.00  0.00    -0.237 OA
ATOM     67  O   UNL A   1      42.477  18.550  27.133  1.00  0.00    -0.744 OA
ENDBRANCH  63  64
ENDBRANCH  44  58
BRANCH  45  68
ATOM     68  C   UNL A   1      43.646  33.103  31.431  1.00  0.00    -0.014 A 
ATOM     69  C   UNL A   1      43.526  33.336  32.809  1.00  0.00     0.010 A 
ATOM     70  C   UNL A   1      43.915  34.188  30.574  1.00  0.00     0.010 A 
ATOM     71  C   UNL A   1      43.638  34.635  33.317  1.00  0.00     0.020 A 
ATOM     72  C   UNL A   1      44.064  35.479  31.079  1.00  0.00     0.020 A 
ATOM     73  C   UNL A   1      43.904  35.697  32.447  1.00  0.00     0.054 A 
BRANCH  73  74
ATOM     74  S   UNL A   1      44.055  37.372  33.125  1.00  0.00     0.124 S 
ATOM     75  O   UNL A   1      45.348  37.307  33.800  1.00  0.00    -0.237 OA
ATOM     76  O   UNL A   1      44.005  38.203  31.926  1.00  0.00    -0.237 OA
ATOM     77  O   UNL A   1      42.895  37.490  34.006  1.00  0.00    -0.744 OA
ENDBRANCH  73  74
ENDBRANCH  45  68
BRANCH  57  78
ATOM     78  C   UNL A   1      48.083  27.867  30.165  1.00  0.00    -0.014 A 
ATOM     79  C   UNL A   1      48.634  27.422  31.379  1.00  0.00     0.010 A 
ATOM     80  C   UNL A   1      48.934  28.220  29.103  1.00  0.00     0.010 A 
ATOM     81  C   UNL A   1      50.017  27.399  31.552  1.00  0.00     0.020 A 
ATOM     82  C   UNL A   1      50.317  28.157  29.259  1.00  0.00     0.020 A 
ATOM     83  C   UNL A   1      50.848  27.773  30.491  1.00  0.00     0.054 A 
BRANCH  83  84
ATOM     84  S   UNL A   1      52.641  27.740  30.743  1.00  0.00     0.124 S 
ATOM     85  O   UNL A   1      53.054  29.001  30.133  1.00  0.00    -0.237 OA
ATOM     86  O   UNL A   1      52.757  27.678  32.199  1.00  0.00    -0.237 OA
ATOM     87  O   UNL A   1      53.068  26.535  30.037  1.00  0.00    -0.744 OA
ENDBRANCH  83  84
ENDBRANCH  57  78
ENDBRANCH  31  32
ENDBRANCH  24  26
ENDBRANCH  23  24
ENDBRANCH  22  23
ENDBRANCH   1  22
TORSDOF 17
ENDMDL
