MODEL 1
REMARK VINA RESULT:     -10.3      0.000      0.000
REMARK SMILES Cc1cc(OCC(=O)Nc2sccc2C(=O)OCCOC(=O)c2ccc(-c3c4nc(c(-c5ccc(S(=O)(=O)[O-])cc5)c5ccc([nH]5)c(-c5ccc(S(=O)(=O)[O-])cc5)c5nc(c(-c6ccc(S(=O)(=O)[O-])cc6)c6ccc3[nH]6)C=C5)C=C4)cc2)ccc1Cl
REMARK SMILES IDX 18 1 17 2 15 3 16 4 14 5 10 6 11 7 12 8 13 9 9 10 7 11 8 12
REMARK SMILES IDX 6 14 5 15 4 16 1 17 2 18 3 19 85 20 84 21 86 22 83 23 19 24
REMARK SMILES IDX 20 25 21 26 22 27 23 28 24 29 82 30 25 31 81 32 26 33 27 34
REMARK SMILES IDX 28 35 75 36 29 37 80 38 74 39 76 40 30 41 79 42 73 43 72 44
REMARK SMILES IDX 31 46 61 47 42 48 60 49 43 50 46 51 59 52 77 53 44 54 45 55
REMARK SMILES IDX 58 57 78 58 47 59 32 60 33 61 41 62 34 63 40 64 35 65 36 66
REMARK SMILES IDX 37 67 38 68 39 69 62 70 63 71 71 72 64 73 70 74 65 75 66 76
REMARK SMILES IDX 67 77 68 78 69 79 48 80 49 81 57 82 50 83 56 84 51 85 52 86
REMARK SMILES IDX 53 87 54 88 55 89
REMARK H PARENT 9 13 76 45 46 56
REMARK Flexibility Score: inf
ROOT
ATOM      1  C   UNL A   1      32.344  29.451  27.235  1.00  0.00     0.275 C 
ENDROOT
BRANCH   1   2
ATOM      2  O   UNL A   1      33.284  28.609  26.542  1.00  0.00    -0.458 OA
BRANCH   2   3
ATOM      3  C   UNL A   1      33.145  28.475  25.187  1.00  0.00     0.341 C 
ATOM      4  O   UNL A   1      34.044  28.629  24.371  1.00  0.00    -0.246 OA
BRANCH   3   5
ATOM      5  C   UNL A   1      31.804  28.036  24.815  1.00  0.00     0.094 A 
ATOM      6  C   UNL A   1      31.203  26.859  25.212  1.00  0.00     0.110 A 
ATOM      7  S   UNL A   1      29.860  26.442  24.251  1.00  0.00    -0.126 S 
ATOM      8  C   UNL A   1      29.864  27.970  23.491  1.00  0.00     0.068 A 
ATOM      9  C   UNL A   1      30.932  28.736  23.905  1.00  0.00     0.029 A 
BRANCH   6  10
ATOM     10  N   UNL A   1      31.490  25.910  26.155  1.00  0.00    -0.314 N 
ATOM     11  C   UNL A   1      32.349  24.852  26.064  1.00  0.00     0.262 C 
ATOM     12  O   UNL A   1      32.294  23.998  26.958  1.00  0.00    -0.271 OA
ATOM     13  H   UNL A   1      31.015  26.002  27.012  1.00  0.00     0.170 HD
BRANCH  11  14
ATOM     14  C   UNL A   1      33.507  24.834  25.029  1.00  0.00     0.329 C 
BRANCH  14  15
ATOM     15  O   UNL A   1      34.877  24.925  25.338  1.00  0.00    -0.484 OA
BRANCH  15  16
ATOM     16  C   UNL A   1      35.725  23.887  25.090  1.00  0.00     0.120 A 
ATOM     17  C   UNL A   1      38.996  22.360  26.245  1.00  0.00     0.046 C 
ATOM     18  C   UNL A   1      37.692  22.510  25.511  1.00  0.00    -0.029 A 
ATOM     19  C   UNL A   1      37.022  23.748  25.578  1.00  0.00     0.051 A 
ATOM     20  C   UNL A   1      37.061  21.428  24.880  1.00  0.00     0.044 A 
ATOM     21  C   UNL A   1      35.807  21.593  24.292  1.00  0.00     0.024 A 
ATOM     22  Cl  UNL A   1      37.761  19.849  24.871  1.00  0.00    -0.084 Cl
ATOM     23  C   UNL A   1      35.144  22.818  24.398  1.00  0.00     0.048 A 
ENDBRANCH  15  16
ENDBRANCH  14  15
ENDBRANCH  11  14
ENDBRANCH   6  10
ENDBRANCH   3   5
ENDBRANCH   2   3
ENDBRANCH   1   2
BRANCH   1  24
ATOM     24  C   UNL A   1      32.694  30.936  27.247  1.00  0.00     0.275 C 
BRANCH  24  25
ATOM     25  O   UNL A   1      34.110  31.103  27.079  1.00  0.00    -0.458 OA
BRANCH  25  26
ATOM     26  C   UNL A   1      34.770  31.262  28.246  1.00  0.00     0.338 C 
ATOM     27  O   UNL A   1      34.373  31.883  29.221  1.00  0.00    -0.246 OA
BRANCH  26  28
ATOM     28  C   UNL A   1      35.974  30.416  28.277  1.00  0.00     0.060 A 
ATOM     29  C   UNL A   1      36.209  29.745  29.479  1.00  0.00     0.016 A 
ATOM     30  C   UNL A   1      36.879  30.315  27.216  1.00  0.00     0.016 A 
ATOM     31  C   UNL A   1      37.374  29.024  29.665  1.00  0.00     0.010 A 
ATOM     32  C   UNL A   1      38.071  29.609  27.409  1.00  0.00     0.010 A 
ATOM     33  C   UNL A   1      38.338  29.010  28.654  1.00  0.00    -0.014 A 
BRANCH  33  34
ATOM     34  C   UNL A   1      39.709  28.619  29.043  1.00  0.00     0.031 A 
ATOM     35  C   UNL A   1      40.455  29.534  29.974  1.00  0.00     0.074 A 
ATOM     36  C   UNL A   1      40.201  27.415  28.709  1.00  0.00     0.049 A 
ATOM     37  N   UNL A   1      41.654  29.408  30.476  1.00  0.00    -0.248 NA
ATOM     38  C   UNL A   1      39.745  30.750  30.412  1.00  0.00     0.031 C 
ATOM     39  C   UNL A   1      39.503  26.407  27.910  1.00  0.00     0.029 A 
ATOM     40  N   UNL A   1      41.395  26.825  29.032  1.00  0.00    -0.354 N 
ATOM     41  C   UNL A   1      41.852  30.539  31.262  1.00  0.00     0.074 A 
ATOM     42  C   UNL A   1      40.655  31.342  31.168  1.00  0.00     0.031 C 
ATOM     43  C   UNL A   1      40.278  25.313  27.819  1.00  0.00     0.029 A 
ATOM     44  C   UNL A   1      41.538  25.560  28.515  1.00  0.00     0.049 A 
ATOM     45  H   UNL A   1      42.083  27.265  29.581  1.00  0.00     0.167 HD
ATOM     46  C   UNL A   1      42.936  30.877  31.994  1.00  0.00     0.031 A 
ATOM     47  C   UNL A   1      42.582  24.712  28.584  1.00  0.00     0.031 A 
ATOM     48  C   UNL A   1      44.117  30.065  32.081  1.00  0.00     0.049 A 
ATOM     49  C   UNL A   1      43.810  25.140  29.342  1.00  0.00     0.074 A 
ATOM     50  C   UNL A   1      45.298  30.323  32.754  1.00  0.00     0.029 A 
ATOM     51  N   UNL A   1      44.260  28.826  31.474  1.00  0.00    -0.354 N 
ATOM     52  N   UNL A   1      44.012  26.244  30.024  1.00  0.00    -0.248 NA
ATOM     53  C   UNL A   1      44.952  24.217  29.331  1.00  0.00     0.031 C 
ATOM     54  C   UNL A   1      46.168  29.252  32.521  1.00  0.00     0.029 A 
ATOM     55  C   UNL A   1      45.513  28.309  31.743  1.00  0.00     0.049 A 
ATOM     56  H   UNL A   1      43.570  28.380  30.933  1.00  0.00     0.167 HD
ATOM     57  C   UNL A   1      45.304  26.147  30.527  1.00  0.00     0.074 A 
ATOM     58  C   UNL A   1      45.826  24.867  30.088  1.00  0.00     0.031 C 
ATOM     59  C   UNL A   1      46.001  27.035  31.279  1.00  0.00     0.031 A 
BRANCH  46  60
ATOM     60  C   UNL A   1      42.904  32.211  32.689  1.00  0.00    -0.014 A 
ATOM     61  C   UNL A   1      42.368  32.354  33.982  1.00  0.00     0.010 A 
ATOM     62  C   UNL A   1      43.394  33.347  32.020  1.00  0.00     0.010 A 
ATOM     63  C   UNL A   1      42.278  33.619  34.573  1.00  0.00     0.020 A 
ATOM     64  C   UNL A   1      43.327  34.609  32.616  1.00  0.00     0.020 A 
ATOM     65  C   UNL A   1      42.750  34.740  33.880  1.00  0.00     0.054 A 
BRANCH  65  66
ATOM     66  S   UNL A   1      42.615  36.373  34.659  1.00  0.00     0.124 S 
ATOM     67  O   UNL A   1      41.225  36.377  35.110  1.00  0.00    -0.237 OA
ATOM     68  O   UNL A   1      43.618  36.310  35.719  1.00  0.00    -0.237 OA
ATOM     69  O   UNL A   1      42.919  37.301  33.573  1.00  0.00    -0.744 OA
ENDBRANCH  65  66
ENDBRANCH  46  60
BRANCH  47  70
ATOM     70  C   UNL A   1      42.519  23.402  27.881  1.00  0.00    -0.014 A 
ATOM     71  C   UNL A   1      43.012  23.256  26.573  1.00  0.00     0.010 A 
ATOM     72  C   UNL A   1      41.992  22.275  28.541  1.00  0.00     0.010 A 
ATOM     73  C   UNL A   1      42.981  22.009  25.940  1.00  0.00     0.020 A 
ATOM     74  C   UNL A   1      41.981  21.024  27.922  1.00  0.00     0.020 A 
ATOM     75  C   UNL A   1      42.471  20.899  26.621  1.00  0.00     0.054 A 
BRANCH  75  76
ATOM     76  S   UNL A   1      42.516  19.272  25.816  1.00  0.00     0.124 S 
ATOM     77  O   UNL A   1      41.103  19.029  25.544  1.00  0.00    -0.237 OA
ATOM     78  O   UNL A   1      43.353  19.519  24.645  1.00  0.00    -0.237 OA
ATOM     79  O   UNL A   1      43.118  18.409  26.829  1.00  0.00    -0.744 OA
ENDBRANCH  75  76
ENDBRANCH  47  70
BRANCH  59  80
ATOM     80  C   UNL A   1      47.395  26.645  31.680  1.00  0.00    -0.014 A 
ATOM     81  C   UNL A   1      48.492  26.945  30.855  1.00  0.00     0.010 A 
ATOM     82  C   UNL A   1      47.613  26.025  32.923  1.00  0.00     0.010 A 
ATOM     83  C   UNL A   1      49.785  26.608  31.255  1.00  0.00     0.020 A 
ATOM     84  C   UNL A   1      48.907  25.705  33.336  1.00  0.00     0.020 A 
ATOM     85  C   UNL A   1      49.984  25.986  32.493  1.00  0.00     0.054 A 
BRANCH  85  86
ATOM     86  S   UNL A   1      51.677  25.594  33.012  1.00  0.00     0.124 S 
ATOM     87  O   UNL A   1      52.118  24.691  31.952  1.00  0.00    -0.237 OA
ATOM     88  O   UNL A   1      52.322  26.905  33.032  1.00  0.00    -0.237 OA
ATOM     89  O   UNL A   1      51.499  24.976  34.324  1.00  0.00    -0.744 OA
ENDBRANCH  85  86
ENDBRANCH  59  80
ENDBRANCH  33  34
ENDBRANCH  26  28
ENDBRANCH  25  26
ENDBRANCH  24  25
ENDBRANCH   1  24
TORSDOF 18
ENDMDL
MODEL 2
REMARK VINA RESULT:      -9.7      5.060     10.733
REMARK SMILES Cc1cc(OCC(=O)Nc2sccc2C(=O)OCCOC(=O)c2ccc(-c3c4nc(c(-c5ccc(S(=O)(=O)[O-])cc5)c5ccc([nH]5)c(-c5ccc(S(=O)(=O)[O-])cc5)c5nc(c(-c6ccc(S(=O)(=O)[O-])cc6)c6ccc3[nH]6)C=C5)C=C4)cc2)ccc1Cl
REMARK SMILES IDX 18 1 17 2 15 3 16 4 14 5 10 6 11 7 12 8 13 9 9 10 7 11 8 12
REMARK SMILES IDX 6 14 5 15 4 16 1 17 2 18 3 19 85 20 84 21 86 22 83 23 19 24
REMARK SMILES IDX 20 25 21 26 22 27 23 28 24 29 82 30 25 31 81 32 26 33 27 34
REMARK SMILES IDX 28 35 75 36 29 37 80 38 74 39 76 40 30 41 79 42 73 43 72 44
REMARK SMILES IDX 31 46 61 47 42 48 60 49 43 50 46 51 59 52 77 53 44 54 45 55
REMARK SMILES IDX 58 57 78 58 47 59 32 60 33 61 41 62 34 63 40 64 35 65 36 66
REMARK SMILES IDX 37 67 38 68 39 69 62 70 63 71 71 72 64 73 70 74 65 75 66 76
REMARK SMILES IDX 67 77 68 78 69 79 48 80 49 81 57 82 50 83 56 84 51 85 52 86
REMARK SMILES IDX 53 87 54 88 55 89
REMARK H PARENT 9 13 76 45 46 56
REMARK Flexibility Score: inf
ROOT
ATOM      1  C   UNL A   1      34.519  31.531  27.950  1.00  0.00     0.275 C 
ENDROOT
BRANCH   1   2
ATOM      2  O   UNL A   1      34.027  32.586  28.798  1.00  0.00    -0.458 OA
BRANCH   2   3
ATOM      3  C   UNL A   1      34.230  33.878  28.395  1.00  0.00     0.341 C 
ATOM      4  O   UNL A   1      34.587  34.215  27.273  1.00  0.00    -0.246 OA
BRANCH   3   5
ATOM      5  C   UNL A   1      33.888  34.838  29.439  1.00  0.00     0.094 A 
ATOM      6  C   UNL A   1      33.795  34.561  30.787  1.00  0.00     0.110 A 
ATOM      7  S   UNL A   1      32.941  35.754  31.654  1.00  0.00    -0.126 S 
ATOM      8  C   UNL A   1      32.953  36.809  30.311  1.00  0.00     0.068 A 
ATOM      9  C   UNL A   1      33.516  36.210  29.205  1.00  0.00     0.029 A 
BRANCH   6  10
ATOM     10  N   UNL A   1      34.164  33.504  31.574  1.00  0.00    -0.314 N 
ATOM     11  C   UNL A   1      35.397  32.935  31.712  1.00  0.00     0.262 C 
ATOM     12  O   UNL A   1      35.460  31.855  32.314  1.00  0.00    -0.271 OA
ATOM     13  H   UNL A   1      33.445  33.101  32.113  1.00  0.00     0.170 HD
BRANCH  11  14
ATOM     14  C   UNL A   1      36.693  33.710  31.350  1.00  0.00     0.329 C 
BRANCH  14  15
ATOM     15  O   UNL A   1      37.516  33.448  30.238  1.00  0.00    -0.484 OA
BRANCH  15  16
ATOM     16  C   UNL A   1      38.847  33.201  30.390  1.00  0.00     0.120 A 
ATOM     17  C   UNL A   1      42.235  34.896  30.242  1.00  0.00     0.046 C 
ATOM     18  C   UNL A   1      41.200  33.834  30.492  1.00  0.00    -0.029 A 
ATOM     19  C   UNL A   1      39.889  34.047  30.019  1.00  0.00     0.051 A 
ATOM     20  C   UNL A   1      41.459  32.710  31.290  1.00  0.00     0.044 A 
ATOM     21  C   UNL A   1      40.442  31.799  31.573  1.00  0.00     0.024 A 
ATOM     22  Cl  UNL A   1      43.006  32.449  32.013  1.00  0.00    -0.084 Cl
ATOM     23  C   UNL A   1      39.142  32.046  31.123  1.00  0.00     0.048 A 
ENDBRANCH  15  16
ENDBRANCH  14  15
ENDBRANCH  11  14
ENDBRANCH   6  10
ENDBRANCH   3   5
ENDBRANCH   2   3
ENDBRANCH   1   2
BRANCH   1  24
ATOM     24  C   UNL A   1      36.014  31.250  28.072  1.00  0.00     0.275 C 
BRANCH  24  25
ATOM     25  O   UNL A   1      36.235  29.837  28.190  1.00  0.00    -0.458 OA
BRANCH  25  26
ATOM     26  C   UNL A   1      37.063  29.511  29.206  1.00  0.00     0.338 C 
ATOM     27  O   UNL A   1      36.759  29.431  30.387  1.00  0.00    -0.246 OA
BRANCH  26  28
ATOM     28  C   UNL A   1      38.365  29.063  28.686  1.00  0.00     0.060 A 
ATOM     29  C   UNL A   1      39.206  28.448  29.617  1.00  0.00     0.016 A 
ATOM     30  C   UNL A   1      38.793  29.279  27.373  1.00  0.00     0.016 A 
ATOM     31  C   UNL A   1      40.500  28.102  29.272  1.00  0.00     0.010 A 
ATOM     32  C   UNL A   1      40.109  28.955  27.029  1.00  0.00     0.010 A 
ATOM     33  C   UNL A   1      40.976  28.416  27.997  1.00  0.00    -0.014 A 
BRANCH  33  34
ATOM     34  C   UNL A   1      42.442  28.439  27.818  1.00  0.00     0.031 A 
ATOM     35  C   UNL A   1      43.090  27.221  27.221  1.00  0.00     0.074 A 
ATOM     36  C   UNL A   1      43.142  29.567  28.027  1.00  0.00     0.049 A 
ATOM     37  N   UNL A   1      44.347  27.000  26.946  1.00  0.00    -0.248 NA
ATOM     38  C   UNL A   1      42.193  26.102  26.872  1.00  0.00     0.031 C 
ATOM     39  C   UNL A   1      42.583  30.837  28.489  1.00  0.00     0.029 A 
ATOM     40  N   UNL A   1      44.474  29.830  27.842  1.00  0.00    -0.354 N 
ATOM     41  C   UNL A   1      44.395  25.713  26.421  1.00  0.00     0.074 A 
ATOM     42  C   UNL A   1      43.046  25.198  26.421  1.00  0.00     0.031 C 
ATOM     43  C   UNL A   1      43.565  31.753  28.536  1.00  0.00     0.029 A 
ATOM     44  C   UNL A   1      44.825  31.122  28.149  1.00  0.00     0.049 A 
ATOM     45  H   UNL A   1      45.117  29.157  27.521  1.00  0.00     0.167 HD
ATOM     46  C   UNL A   1      45.471  25.021  25.982  1.00  0.00     0.031 A 
ATOM     47  C   UNL A   1      46.034  31.715  28.137  1.00  0.00     0.031 A 
ATOM     48  C   UNL A   1      46.806  25.549  25.985  1.00  0.00     0.049 A 
ATOM     49  C   UNL A   1      47.231  30.905  27.717  1.00  0.00     0.074 A 
ATOM     50  C   UNL A   1      47.983  24.929  25.607  1.00  0.00     0.029 A 
ATOM     51  N   UNL A   1      47.136  26.836  26.384  1.00  0.00    -0.354 N 
ATOM     52  N   UNL A   1      47.274  29.663  27.288  1.00  0.00    -0.248 NA
ATOM     53  C   UNL A   1      48.539  31.567  27.787  1.00  0.00     0.031 C 
ATOM     54  C   UNL A   1      49.031  25.833  25.814  1.00  0.00     0.029 A 
ATOM     55  C   UNL A   1      48.501  27.028  26.275  1.00  0.00     0.049 A 
ATOM     56  H   UNL A   1      46.494  27.513  26.696  1.00  0.00     0.167 HD
ATOM     57  C   UNL A   1      48.614  29.397  27.034  1.00  0.00     0.074 A 
ATOM     58  C   UNL A   1      49.344  30.613  27.337  1.00  0.00     0.031 C 
ATOM     59  C   UNL A   1      49.193  28.251  26.597  1.00  0.00     0.031 A 
BRANCH  46  60
ATOM     60  C   UNL A   1      45.237  23.604  25.536  1.00  0.00    -0.014 A 
ATOM     61  C   UNL A   1      45.288  22.529  26.442  1.00  0.00     0.010 A 
ATOM     62  C   UNL A   1      44.991  23.343  24.176  1.00  0.00     0.010 A 
ATOM     63  C   UNL A   1      45.146  21.214  25.987  1.00  0.00     0.020 A 
ATOM     64  C   UNL A   1      44.826  22.032  23.721  1.00  0.00     0.020 A 
ATOM     65  C   UNL A   1      44.926  20.974  24.626  1.00  0.00     0.054 A 
BRANCH  65  66
ATOM     66  S   UNL A   1      44.755  19.262  24.054  1.00  0.00     0.124 S 
ATOM     67  O   UNL A   1      44.552  19.443  22.618  1.00  0.00    -0.237 OA
ATOM     68  O   UNL A   1      46.031  18.663  24.436  1.00  0.00    -0.237 OA
ATOM     69  O   UNL A   1      43.594  18.766  24.789  1.00  0.00    -0.744 OA
ENDBRANCH  65  66
ENDBRANCH  46  60
BRANCH  47  70
ATOM     70  C   UNL A   1      46.169  33.130  28.576  1.00  0.00    -0.014 A 
ATOM     71  C   UNL A   1      46.363  33.454  29.930  1.00  0.00     0.010 A 
ATOM     72  C   UNL A   1      46.139  34.167  27.624  1.00  0.00     0.010 A 
ATOM     73  C   UNL A   1      46.528  34.787  30.323  1.00  0.00     0.020 A 
ATOM     74  C   UNL A   1      46.325  35.497  28.009  1.00  0.00     0.020 A 
ATOM     75  C   UNL A   1      46.513  35.800  29.358  1.00  0.00     0.054 A 
BRANCH  75  76
ATOM     76  S   UNL A   1      46.812  37.514  29.874  1.00  0.00     0.124 S 
ATOM     77  O   UNL A   1      47.887  37.919  28.975  1.00  0.00    -0.237 OA
ATOM     78  O   UNL A   1      45.517  38.148  29.640  1.00  0.00    -0.237 OA
ATOM     79  O   UNL A   1      47.186  37.385  31.281  1.00  0.00    -0.744 OA
ENDBRANCH  75  76
ENDBRANCH  47  70
BRANCH  59  80
ATOM     80  C   UNL A   1      50.684  28.266  26.410  1.00  0.00    -0.014 A 
ATOM     81  C   UNL A   1      51.545  27.985  27.484  1.00  0.00     0.010 A 
ATOM     82  C   UNL A   1      51.222  28.508  25.134  1.00  0.00     0.010 A 
ATOM     83  C   UNL A   1      52.927  27.969  27.289  1.00  0.00     0.020 A 
ATOM     84  C   UNL A   1      52.603  28.472  24.932  1.00  0.00     0.020 A 
ATOM     85  C   UNL A   1      53.447  28.216  26.014  1.00  0.00     0.054 A 
BRANCH  85  86
ATOM     86  S   UNL A   1      55.244  28.150  25.774  1.00  0.00     0.124 S 
ATOM     87  O   UNL A   1      55.732  28.878  26.942  1.00  0.00    -0.237 OA
ATOM     88  O   UNL A   1      55.517  26.714  25.767  1.00  0.00    -0.237 OA
ATOM     89  O   UNL A   1      55.444  28.821  24.492  1.00  0.00    -0.744 OA
ENDBRANCH  85  86
ENDBRANCH  59  80
ENDBRANCH  33  34
ENDBRANCH  26  28
ENDBRANCH  25  26
ENDBRANCH  24  25
ENDBRANCH   1  24
TORSDOF 18
ENDMDL
MODEL 3
REMARK VINA RESULT:      -9.6      5.203     11.603
REMARK SMILES Cc1cc(OCC(=O)Nc2sccc2C(=O)OCCOC(=O)c2ccc(-c3c4nc(c(-c5ccc(S(=O)(=O)[O-])cc5)c5ccc([nH]5)c(-c5ccc(S(=O)(=O)[O-])cc5)c5nc(c(-c6ccc(S(=O)(=O)[O-])cc6)c6ccc3[nH]6)C=C5)C=C4)cc2)ccc1Cl
REMARK SMILES IDX 18 1 17 2 15 3 16 4 14 5 10 6 11 7 12 8 13 9 9 10 7 11 8 12
REMARK SMILES IDX 6 14 5 15 4 16 1 17 2 18 3 19 85 20 84 21 86 22 83 23 19 24
REMARK SMILES IDX 20 25 21 26 22 27 23 28 24 29 82 30 25 31 81 32 26 33 27 34
REMARK SMILES IDX 28 35 75 36 29 37 80 38 74 39 76 40 30 41 79 42 73 43 72 44
REMARK SMILES IDX 31 46 61 47 42 48 60 49 43 50 46 51 59 52 77 53 44 54 45 55
REMARK SMILES IDX 58 57 78 58 47 59 32 60 33 61 41 62 34 63 40 64 35 65 36 66
REMARK SMILES IDX 37 67 38 68 39 69 62 70 63 71 71 72 64 73 70 74 65 75 66 76
REMARK SMILES IDX 67 77 68 78 69 79 48 80 49 81 57 82 50 83 56 84 51 85 52 86
REMARK SMILES IDX 53 87 54 88 55 89
REMARK H PARENT 9 13 76 45 46 56
REMARK Flexibility Score: inf
ROOT
ATOM      1  C   UNL A   1      44.171  24.716  25.389  1.00  0.00     0.275 C 
ENDROOT
BRANCH   1   2
ATOM      2  O   UNL A   1      44.760  23.598  24.699  1.00  0.00    -0.458 OA
BRANCH   2   3
ATOM      3  C   UNL A   1      45.589  22.773  25.410  1.00  0.00     0.341 C 
ATOM      4  O   UNL A   1      46.442  23.150  26.204  1.00  0.00    -0.246 OA
BRANCH   3   5
ATOM      5  C   UNL A   1      45.289  21.364  25.180  1.00  0.00     0.094 A 
ATOM      6  C   UNL A   1      44.046  20.777  25.296  1.00  0.00     0.110 A 
ATOM      7  S   UNL A   1      44.122  19.079  25.416  1.00  0.00    -0.126 S 
ATOM      8  C   UNL A   1      45.778  19.073  25.003  1.00  0.00     0.068 A 
ATOM      9  C   UNL A   1      46.270  20.353  24.872  1.00  0.00     0.029 A 
BRANCH   6  10
ATOM     10  N   UNL A   1      42.770  21.255  25.416  1.00  0.00    -0.314 N 
ATOM     11  C   UNL A   1      42.127  21.693  26.538  1.00  0.00     0.262 C 
ATOM     12  O   UNL A   1      40.906  21.881  26.456  1.00  0.00    -0.271 OA
ATOM     13  H   UNL A   1      42.247  21.290  24.583  1.00  0.00     0.170 HD
BRANCH  11  14
ATOM     14  C   UNL A   1      42.913  22.166  27.792  1.00  0.00     0.329 C 
BRANCH  14  15
ATOM     15  O   UNL A   1      42.346  22.777  28.926  1.00  0.00    -0.484 OA
BRANCH  15  16
ATOM     16  C   UNL A   1      43.086  23.590  29.731  1.00  0.00     0.120 A 
ATOM     17  C   UNL A   1      44.953  23.633  33.030  1.00  0.00     0.046 C 
ATOM     18  C   UNL A   1      44.454  24.090  31.686  1.00  0.00    -0.029 A 
ATOM     19  C   UNL A   1      43.445  23.336  31.052  1.00  0.00     0.051 A 
ATOM     20  C   UNL A   1      45.048  25.153  30.990  1.00  0.00     0.044 A 
ATOM     21  C   UNL A   1      44.613  25.481  29.706  1.00  0.00     0.024 A 
ATOM     22  Cl  UNL A   1      46.376  26.039  31.649  1.00  0.00    -0.084 Cl
ATOM     23  C   UNL A   1      43.636  24.701  29.082  1.00  0.00     0.048 A 
ENDBRANCH  15  16
ENDBRANCH  14  15
ENDBRANCH  11  14
ENDBRANCH   6  10
ENDBRANCH   3   5
ENDBRANCH   2   3
ENDBRANCH   1   2
BRANCH   1  24
ATOM     24  C   UNL A   1      42.673  24.896  25.165  1.00  0.00     0.275 C 
BRANCH  24  25
ATOM     25  O   UNL A   1      42.085  25.545  26.303  1.00  0.00    -0.458 OA
BRANCH  25  26
ATOM     26  C   UNL A   1      41.831  26.855  26.097  1.00  0.00     0.338 C 
ATOM     27  O   UNL A   1      41.936  27.452  25.037  1.00  0.00    -0.246 OA
BRANCH  26  28
ATOM     28  C   UNL A   1      41.211  27.453  27.291  1.00  0.00     0.060 A 
ATOM     29  C   UNL A   1      41.312  28.843  27.391  1.00  0.00     0.016 A 
ATOM     30  C   UNL A   1      40.611  26.708  28.310  1.00  0.00     0.016 A 
ATOM     31  C   UNL A   1      40.878  29.498  28.528  1.00  0.00     0.010 A 
ATOM     32  C   UNL A   1      40.196  27.364  29.474  1.00  0.00     0.010 A 
ATOM     33  C   UNL A   1      40.381  28.753  29.600  1.00  0.00    -0.014 A 
BRANCH  33  34
ATOM     34  C   UNL A   1      40.348  29.418  30.918  1.00  0.00     0.031 A 
ATOM     35  C   UNL A   1      41.515  29.196  31.840  1.00  0.00     0.074 A 
ATOM     36  C   UNL A   1      39.393  30.316  31.212  1.00  0.00     0.049 A 
ATOM     37  N   UNL A   1      41.734  29.678  33.034  1.00  0.00    -0.248 NA
ATOM     38  C   UNL A   1      42.592  28.321  31.340  1.00  0.00     0.031 C 
ATOM     39  C   UNL A   1      38.285  30.691  30.332  1.00  0.00     0.029 A 
ATOM     40  N   UNL A   1      39.224  31.100  32.322  1.00  0.00    -0.354 N 
ATOM     41  C   UNL A   1      42.953  29.144  33.436  1.00  0.00     0.074 A 
ATOM     42  C   UNL A   1      43.426  28.297  32.366  1.00  0.00     0.031 C 
ATOM     43  C   UNL A   1      37.559  31.649  30.932  1.00  0.00     0.029 A 
ATOM     44  C   UNL A   1      38.124  31.922  32.252  1.00  0.00     0.049 A 
ATOM     45  H   UNL A   1      39.832  31.077  33.096  1.00  0.00     0.167 HD
ATOM     46  C   UNL A   1      43.617  29.340  34.597  1.00  0.00     0.031 A 
ATOM     47  C   UNL A   1      37.627  32.778  33.163  1.00  0.00     0.031 A 
ATOM     48  C   UNL A   1      43.136  30.189  35.650  1.00  0.00     0.049 A 
ATOM     49  C   UNL A   1      38.340  32.926  34.480  1.00  0.00     0.074 A 
ATOM     50  C   UNL A   1      43.697  30.433  36.891  1.00  0.00     0.029 A 
ATOM     51  N   UNL A   1      41.972  30.941  35.577  1.00  0.00    -0.354 N 
ATOM     52  N   UNL A   1      39.457  32.360  34.878  1.00  0.00    -0.248 NA
ATOM     53  C   UNL A   1      37.724  33.815  35.473  1.00  0.00     0.031 C 
ATOM     54  C   UNL A   1      42.850  31.306  37.582  1.00  0.00     0.029 A 
ATOM     55  C   UNL A   1      41.788  31.641  36.755  1.00  0.00     0.049 A 
ATOM     56  H   UNL A   1      41.369  30.974  34.801  1.00  0.00     0.167 HD
ATOM     57  C   UNL A   1      39.680  32.828  36.168  1.00  0.00     0.074 A 
ATOM     58  C   UNL A   1      38.593  33.739  36.473  1.00  0.00     0.031 C 
ATOM     59  C   UNL A   1      40.687  32.530  37.026  1.00  0.00     0.031 A 
BRANCH  46  60
ATOM     60  C   UNL A   1      44.889  28.564  34.797  1.00  0.00    -0.014 A 
ATOM     61  C   UNL A   1      46.142  29.100  34.448  1.00  0.00     0.010 A 
ATOM     62  C   UNL A   1      44.825  27.258  35.319  1.00  0.00     0.010 A 
ATOM     63  C   UNL A   1      47.301  28.327  34.571  1.00  0.00     0.020 A 
ATOM     64  C   UNL A   1      45.983  26.491  35.465  1.00  0.00     0.020 A 
ATOM     65  C   UNL A   1      47.212  27.023  35.069  1.00  0.00     0.054 A 
BRANCH  65  66
ATOM     66  S   UNL A   1      48.725  26.032  35.211  1.00  0.00     0.124 S 
ATOM     67  O   UNL A   1      48.190  24.708  35.517  1.00  0.00    -0.237 OA
ATOM     68  O   UNL A   1      49.330  26.174  33.889  1.00  0.00    -0.237 OA
ATOM     69  O   UNL A   1      49.458  26.675  36.299  1.00  0.00    -0.744 OA
ENDBRANCH  65  66
ENDBRANCH  46  60
BRANCH  47  70
ATOM     70  C   UNL A   1      36.371  33.521  32.872  1.00  0.00    -0.014 A 
ATOM     71  C   UNL A   1      36.394  34.892  32.563  1.00  0.00     0.010 A 
ATOM     72  C   UNL A   1      35.137  32.842  32.868  1.00  0.00     0.010 A 
ATOM     73  C   UNL A   1      35.209  35.568  32.253  1.00  0.00     0.020 A 
ATOM     74  C   UNL A   1      33.955  33.508  32.536  1.00  0.00     0.020 A 
ATOM     75  C   UNL A   1      33.997  34.870  32.236  1.00  0.00     0.054 A 
BRANCH  75  76
ATOM     76  S   UNL A   1      32.482  35.743  31.749  1.00  0.00     0.124 S 
ATOM     77  O   UNL A   1      32.339  35.348  30.352  1.00  0.00    -0.237 OA
ATOM     78  O   UNL A   1      31.488  35.194  32.668  1.00  0.00    -0.237 OA
ATOM     79  O   UNL A   1      32.814  37.149  31.973  1.00  0.00    -0.744 OA
ENDBRANCH  75  76
ENDBRANCH  47  70
BRANCH  59  80
ATOM     80  C   UNL A   1      40.662  33.204  38.369  1.00  0.00    -0.014 A 
ATOM     81  C   UNL A   1      41.387  34.386  38.594  1.00  0.00     0.010 A 
ATOM     82  C   UNL A   1      39.856  32.679  39.395  1.00  0.00     0.010 A 
ATOM     83  C   UNL A   1      41.327  35.020  39.836  1.00  0.00     0.020 A 
ATOM     84  C   UNL A   1      39.778  33.323  40.631  1.00  0.00     0.020 A 
ATOM     85  C   UNL A   1      40.525  34.482  40.848  1.00  0.00     0.054 A 
BRANCH  85  86
ATOM     86  S   UNL A   1      40.429  35.345  42.440  1.00  0.00     0.124 S 
ATOM     87  O   UNL A   1      41.664  36.125  42.436  1.00  0.00    -0.237 OA
ATOM     88  O   UNL A   1      39.195  36.118  42.315  1.00  0.00    -0.237 OA
ATOM     89  O   UNL A   1      40.379  34.260  43.417  1.00  0.00    -0.744 OA
ENDBRANCH  85  86
ENDBRANCH  59  80
ENDBRANCH  33  34
ENDBRANCH  26  28
ENDBRANCH  25  26
ENDBRANCH  24  25
ENDBRANCH   1  24
TORSDOF 18
ENDMDL
