MODEL 1
REMARK VINA RESULT:     -11.9      0.000      0.000
REMARK SMILES Cc1cc(C)c2c(C(=O)OCCOC(=O)c3ccc(-c4c5nc(c(-c6ccc(S(=O)(=O)[O-])cc6)c6ccc([nH]6)c(-c6ccc(S(=O)(=O)[O-])cc6)c6nc(c(-c7ccc(S(=O)(=O)[O-])cc7)c7ccc4[nH]7)C=C6)C=C5)cc3)cc(-c3ccco3)nc2c1
REMARK SMILES IDX 12 1 11 2 10 3 8 4 9 5 7 6 1 7 2 8 3 9 85 10 4 11 84 12 5 13
REMARK SMILES IDX 6 14 83 15 77 16 76 17 78 18 79 19 82 20 80 21 81 22 13 23
REMARK SMILES IDX 14 24 15 25 16 26 17 27 75 28 18 29 74 30 19 31 20 32 21 33
REMARK SMILES IDX 68 34 22 35 73 36 67 37 69 38 23 39 72 40 66 41 65 42 24 44
REMARK SMILES IDX 54 45 35 46 53 47 36 48 39 49 52 50 70 51 37 52 38 53 51 55
REMARK SMILES IDX 71 56 40 57 25 58 26 59 34 60 27 61 33 62 28 63 29 64 30 65
REMARK SMILES IDX 31 66 32 67 55 68 56 69 64 70 57 71 63 72 58 73 59 74 60 75
REMARK SMILES IDX 61 76 62 77 41 78 42 79 50 80 43 81 49 82 44 83 45 84 46 85
REMARK SMILES IDX 47 86 48 87
REMARK H PARENT 69 43 39 54
REMARK Flexibility Score: inf
ROOT
ATOM      1  C   UNL A   1      39.303  22.261  26.636  1.00  0.00     0.275 C 
ENDROOT
BRANCH   1   2
ATOM      2  C   UNL A   1      38.443  21.834  25.451  1.00  0.00     0.275 C 
BRANCH   2   3
ATOM      3  O   UNL A   1      37.097  22.311  25.651  1.00  0.00    -0.458 OA
BRANCH   3   4
ATOM      4  C   UNL A   1      36.288  22.318  24.569  1.00  0.00     0.339 C 
ATOM      5  O   UNL A   1      36.600  22.600  23.429  1.00  0.00    -0.246 OA
BRANCH   4   6
ATOM      6  C   UNL A   1      34.949  21.815  24.932  1.00  0.00     0.072 A 
ATOM      7  C   UNL A   1      30.136  24.792  25.943  1.00  0.00     0.044 C 
ATOM      8  C   UNL A   1      31.423  24.045  25.778  1.00  0.00    -0.049 A 
ATOM      9  C   UNL A   1      32.626  24.738  25.764  1.00  0.00     0.007 A 
ATOM     10  C   UNL A   1      31.447  22.660  25.615  1.00  0.00     0.032 A 
ATOM     11  C   UNL A   1      33.841  24.075  25.532  1.00  0.00    -0.041 A 
ATOM     12  C   UNL A   1      32.620  21.956  25.394  1.00  0.00     0.072 A 
ATOM     13  C   UNL A   1      35.074  24.935  25.610  1.00  0.00     0.045 C 
ATOM     14  C   UNL A   1      33.853  22.651  25.295  1.00  0.00     0.018 A 
ATOM     15  N   UNL A   1      32.479  20.625  25.265  1.00  0.00    -0.244 NA
ATOM     16  C   UNL A   1      33.558  19.879  24.973  1.00  0.00     0.107 A 
ATOM     17  C   UNL A   1      34.792  20.438  24.754  1.00  0.00     0.048 A 
BRANCH  16  18
ATOM     18  C   UNL A   1      33.381  18.438  24.927  1.00  0.00     0.152 A 
ATOM     19  C   UNL A   1      33.851  17.453  24.078  1.00  0.00     0.052 A 
ATOM     20  O   UNL A   1      32.521  17.892  25.836  1.00  0.00    -0.463 OA
ATOM     21  C   UNL A   1      33.242  16.242  24.487  1.00  0.00     0.043 A 
ATOM     22  C   UNL A   1      32.440  16.563  25.557  1.00  0.00     0.196 A 
ENDBRANCH  16  18
ENDBRANCH   4   6
ENDBRANCH   3   4
ENDBRANCH   2   3
ENDBRANCH   1   2
BRANCH   1  23
ATOM     23  O   UNL A   1      39.191  23.684  26.785  1.00  0.00    -0.458 OA
BRANCH  23  24
ATOM     24  C   UNL A   1      40.370  24.342  26.803  1.00  0.00     0.338 C 
ATOM     25  O   UNL A   1      41.378  24.109  26.157  1.00  0.00    -0.246 OA
BRANCH  24  26
ATOM     26  C   UNL A   1      40.220  25.518  27.658  1.00  0.00     0.060 A 
ATOM     27  C   UNL A   1      41.079  26.597  27.461  1.00  0.00     0.016 A 
ATOM     28  C   UNL A   1      39.317  25.502  28.716  1.00  0.00     0.016 A 
ATOM     29  C   UNL A   1      41.132  27.617  28.403  1.00  0.00     0.010 A 
ATOM     30  C   UNL A   1      39.294  26.583  29.596  1.00  0.00     0.010 A 
ATOM     31  C   UNL A   1      40.232  27.625  29.477  1.00  0.00    -0.014 A 
BRANCH  31  32
ATOM     32  C   UNL A   1      40.283  28.701  30.500  1.00  0.00     0.031 A 
ATOM     33  C   UNL A   1      41.332  28.657  31.579  1.00  0.00     0.074 A 
ATOM     34  C   UNL A   1      39.390  29.710  30.462  1.00  0.00     0.049 A 
ATOM     35  N   UNL A   1      41.448  29.406  32.643  1.00  0.00    -0.248 NA
ATOM     36  C   UNL A   1      42.381  27.628  31.455  1.00  0.00     0.031 C 
ATOM     37  C   UNL A   1      38.359  29.892  29.437  1.00  0.00     0.029 A 
ATOM     38  N   UNL A   1      39.209  30.777  31.305  1.00  0.00    -0.354 N 
ATOM     39  C   UNL A   1      42.549  28.915  33.335  1.00  0.00     0.074 A 
ATOM     40  C   UNL A   1      43.062  27.794  32.580  1.00  0.00     0.031 C 
ATOM     41  C   UNL A   1      37.684  31.024  29.688  1.00  0.00     0.029 A 
ATOM     42  C   UNL A   1      38.174  31.602  30.934  1.00  0.00     0.049 A 
ATOM     43  H   UNL A   1      39.767  30.937  32.100  1.00  0.00     0.167 HD
ATOM     44  C   UNL A   1      43.084  29.363  34.494  1.00  0.00     0.031 A 
ATOM     45  C   UNL A   1      37.648  32.683  31.542  1.00  0.00     0.031 A 
ATOM     46  C   UNL A   1      42.585  30.499  35.220  1.00  0.00     0.049 A 
ATOM     47  C   UNL A   1      38.220  33.126  32.857  1.00  0.00     0.074 A 
ATOM     48  C   UNL A   1      43.067  31.042  36.397  1.00  0.00     0.029 A 
ATOM     49  N   UNL A   1      41.501  31.272  34.832  1.00  0.00    -0.354 N 
ATOM     50  N   UNL A   1      39.233  32.623  33.519  1.00  0.00    -0.248 NA
ATOM     51  C   UNL A   1      37.571  34.267  33.518  1.00  0.00     0.031 C 
ATOM     52  C   UNL A   1      42.245  32.117  36.746  1.00  0.00     0.029 A 
ATOM     53  C   UNL A   1      41.286  32.276  35.758  1.00  0.00     0.049 A 
ATOM     54  H   UNL A   1      40.964  31.127  34.019  1.00  0.00     0.167 HD
ATOM     55  C   UNL A   1      39.353  33.391  34.669  1.00  0.00     0.074 A 
ATOM     56  C   UNL A   1      38.314  34.399  34.611  1.00  0.00     0.031 C 
ATOM     57  C   UNL A   1      40.246  33.270  35.680  1.00  0.00     0.031 A 
BRANCH  44  58
ATOM     58  C   UNL A   1      44.260  28.620  35.066  1.00  0.00    -0.014 A 
ATOM     59  C   UNL A   1      45.578  28.978  34.735  1.00  0.00     0.010 A 
ATOM     60  C   UNL A   1      44.043  27.602  36.013  1.00  0.00     0.010 A 
ATOM     61  C   UNL A   1      46.659  28.318  35.326  1.00  0.00     0.020 A 
ATOM     62  C   UNL A   1      45.121  26.955  36.624  1.00  0.00     0.020 A 
ATOM     63  C   UNL A   1      46.423  27.315  36.274  1.00  0.00     0.054 A 
BRANCH  63  64
ATOM     64  S   UNL A   1      47.849  26.502  37.046  1.00  0.00     0.124 S 
ATOM     65  O   UNL A   1      47.675  26.853  38.454  1.00  0.00    -0.237 OA
ATOM     66  O   UNL A   1      47.625  25.099  36.715  1.00  0.00    -0.237 OA
ATOM     67  O   UNL A   1      49.000  27.122  36.393  1.00  0.00    -0.744 OA
ENDBRANCH  63  64
ENDBRANCH  44  58
BRANCH  45  68
ATOM     68  C   UNL A   1      36.505  33.392  30.907  1.00  0.00    -0.014 A 
ATOM     69  C   UNL A   1      35.307  33.581  31.614  1.00  0.00     0.010 A 
ATOM     70  C   UNL A   1      36.641  33.956  29.624  1.00  0.00     0.010 A 
ATOM     71  C   UNL A   1      34.269  34.334  31.056  1.00  0.00     0.020 A 
ATOM     72  C   UNL A   1      35.615  34.728  29.072  1.00  0.00     0.020 A 
ATOM     73  C   UNL A   1      34.436  34.915  29.796  1.00  0.00     0.054 A 
BRANCH  73  74
ATOM     74  S   UNL A   1      33.099  35.948  29.131  1.00  0.00     0.124 S 
ATOM     75  O   UNL A   1      32.368  35.004  28.292  1.00  0.00    -0.237 OA
ATOM     76  O   UNL A   1      32.412  36.380  30.345  1.00  0.00    -0.237 OA
ATOM     77  O   UNL A   1      33.807  37.005  28.411  1.00  0.00    -0.744 OA
ENDBRANCH  73  74
ENDBRANCH  45  68
BRANCH  57  78
ATOM     78  C   UNL A   1      40.168  34.254  36.813  1.00  0.00    -0.014 A 
ATOM     79  C   UNL A   1      40.893  35.456  36.767  1.00  0.00     0.010 A 
ATOM     80  C   UNL A   1      39.247  34.038  37.854  1.00  0.00     0.010 A 
ATOM     81  C   UNL A   1      40.687  36.435  37.742  1.00  0.00     0.020 A 
ATOM     82  C   UNL A   1      39.023  35.024  38.817  1.00  0.00     0.020 A 
ATOM     83  C   UNL A   1      39.742  36.219  38.749  1.00  0.00     0.054 A 
BRANCH  83  84
ATOM     84  S   UNL A   1      39.433  37.549  39.943  1.00  0.00     0.124 S 
ATOM     85  O   UNL A   1      40.699  38.277  39.928  1.00  0.00    -0.237 OA
ATOM     86  O   UNL A   1      38.299  38.248  39.347  1.00  0.00    -0.237 OA
ATOM     87  O   UNL A   1      39.141  36.840  41.187  1.00  0.00    -0.744 OA
ENDBRANCH  83  84
ENDBRANCH  57  78
ENDBRANCH  31  32
ENDBRANCH  24  26
ENDBRANCH  23  24
ENDBRANCH   1  23
TORSDOF 15
ENDMDL
MODEL 2
REMARK VINA RESULT:     -11.8      6.275     10.736
REMARK SMILES Cc1cc(C)c2c(C(=O)OCCOC(=O)c3ccc(-c4c5nc(c(-c6ccc(S(=O)(=O)[O-])cc6)c6ccc([nH]6)c(-c6ccc(S(=O)(=O)[O-])cc6)c6nc(c(-c7ccc(S(=O)(=O)[O-])cc7)c7ccc4[nH]7)C=C6)C=C5)cc3)cc(-c3ccco3)nc2c1
REMARK SMILES IDX 12 1 11 2 10 3 8 4 9 5 7 6 1 7 2 8 3 9 85 10 4 11 84 12 5 13
REMARK SMILES IDX 6 14 83 15 77 16 76 17 78 18 79 19 82 20 80 21 81 22 13 23
REMARK SMILES IDX 14 24 15 25 16 26 17 27 75 28 18 29 74 30 19 31 20 32 21 33
REMARK SMILES IDX 68 34 22 35 73 36 67 37 69 38 23 39 72 40 66 41 65 42 24 44
REMARK SMILES IDX 54 45 35 46 53 47 36 48 39 49 52 50 70 51 37 52 38 53 51 55
REMARK SMILES IDX 71 56 40 57 25 58 26 59 34 60 27 61 33 62 28 63 29 64 30 65
REMARK SMILES IDX 31 66 32 67 55 68 56 69 64 70 57 71 63 72 58 73 59 74 60 75
REMARK SMILES IDX 61 76 62 77 41 78 42 79 50 80 43 81 49 82 44 83 45 84 46 85
REMARK SMILES IDX 47 86 48 87
REMARK H PARENT 69 43 39 54
REMARK Flexibility Score: inf
ROOT
ATOM      1  C   UNL A   1      38.975  20.346  25.650  1.00  0.00     0.275 C 
ENDROOT
BRANCH   1   2
ATOM      2  C   UNL A   1      38.590  21.818  25.553  1.00  0.00     0.275 C 
BRANCH   2   3
ATOM      3  O   UNL A   1      37.173  21.950  25.783  1.00  0.00    -0.458 OA
BRANCH   3   4
ATOM      4  C   UNL A   1      36.385  22.042  24.689  1.00  0.00     0.339 C 
ATOM      5  O   UNL A   1      36.724  22.391  23.575  1.00  0.00    -0.246 OA
BRANCH   4   6
ATOM      6  C   UNL A   1      35.031  21.541  24.995  1.00  0.00     0.072 A 
ATOM      7  C   UNL A   1      30.192  24.529  25.836  1.00  0.00     0.044 C 
ATOM      8  C   UNL A   1      31.482  23.779  25.716  1.00  0.00    -0.049 A 
ATOM      9  C   UNL A   1      32.687  24.467  25.755  1.00  0.00     0.007 A 
ATOM     10  C   UNL A   1      31.508  22.395  25.543  1.00  0.00     0.032 A 
ATOM     11  C   UNL A   1      33.908  23.801  25.567  1.00  0.00    -0.041 A 
ATOM     12  C   UNL A   1      32.686  21.688  25.363  1.00  0.00     0.072 A 
ATOM     13  C   UNL A   1      35.140  24.656  25.701  1.00  0.00     0.045 C 
ATOM     14  C   UNL A   1      33.925  22.379  25.320  1.00  0.00     0.018 A 
ATOM     15  N   UNL A   1      32.545  20.358  25.219  1.00  0.00    -0.244 NA
ATOM     16  C   UNL A   1      33.632  19.611  24.965  1.00  0.00     0.107 A 
ATOM     17  C   UNL A   1      34.876  20.167  24.800  1.00  0.00     0.048 A 
BRANCH  16  18
ATOM     18  C   UNL A   1      33.453  18.171  24.900  1.00  0.00     0.152 A 
ATOM     19  C   UNL A   1      33.912  17.197  24.032  1.00  0.00     0.052 A 
ATOM     20  O   UNL A   1      32.601  17.614  25.811  1.00  0.00    -0.463 OA
ATOM     21  C   UNL A   1      33.305  15.981  24.431  1.00  0.00     0.043 A 
ATOM     22  C   UNL A   1      32.515  16.289  25.514  1.00  0.00     0.196 A 
ENDBRANCH  16  18
ENDBRANCH   4   6
ENDBRANCH   3   4
ENDBRANCH   2   3
ENDBRANCH   1   2
BRANCH   1  23
ATOM     23  O   UNL A   1      39.939  20.200  26.703  1.00  0.00    -0.458 OA
BRANCH  23  24
ATOM     24  C   UNL A   1      41.190  19.913  26.283  1.00  0.00     0.338 C 
ATOM     25  O   UNL A   1      41.586  18.912  25.710  1.00  0.00    -0.246 OA
BRANCH  24  26
ATOM     26  C   UNL A   1      42.025  21.092  26.509  1.00  0.00     0.060 A 
ATOM     27  C   UNL A   1      42.419  21.387  27.812  1.00  0.00     0.016 A 
ATOM     28  C   UNL A   1      42.314  21.954  25.457  1.00  0.00     0.016 A 
ATOM     29  C   UNL A   1      42.995  22.620  28.095  1.00  0.00     0.010 A 
ATOM     30  C   UNL A   1      42.995  23.140  25.728  1.00  0.00     0.010 A 
ATOM     31  C   UNL A   1      43.298  23.506  27.053  1.00  0.00    -0.014 A 
BRANCH  31  32
ATOM     32  C   UNL A   1      43.902  24.832  27.339  1.00  0.00     0.031 A 
ATOM     33  C   UNL A   1      43.051  25.934  27.913  1.00  0.00     0.074 A 
ATOM     34  C   UNL A   1      45.208  25.049  27.079  1.00  0.00     0.049 A 
ATOM     35  N   UNL A   1      43.346  27.195  28.087  1.00  0.00    -0.248 NA
ATOM     36  C   UNL A   1      41.684  25.575  28.336  1.00  0.00     0.031 C 
ATOM     37  C   UNL A   1      46.149  24.047  26.572  1.00  0.00     0.029 A 
ATOM     38  N   UNL A   1      45.972  26.180  27.214  1.00  0.00    -0.354 N 
ATOM     39  C   UNL A   1      42.196  27.787  28.595  1.00  0.00     0.074 A 
ATOM     40  C   UNL A   1      41.190  26.753  28.690  1.00  0.00     0.031 C 
ATOM     41  C   UNL A   1      47.369  24.597  26.478  1.00  0.00     0.029 A 
ATOM     42  C   UNL A   1      47.282  26.007  26.836  1.00  0.00     0.049 A 
ATOM     43  H   UNL A   1      45.615  27.035  27.549  1.00  0.00     0.167 HD
ATOM     44  C   UNL A   1      42.000  29.078  28.951  1.00  0.00     0.031 A 
ATOM     45  C   UNL A   1      48.297  26.889  26.749  1.00  0.00     0.031 A 
ATOM     46  C   UNL A   1      43.017  30.091  28.882  1.00  0.00     0.049 A 
ATOM     47  C   UNL A   1      48.040  28.327  27.094  1.00  0.00     0.074 A 
ATOM     48  C   UNL A   1      42.922  31.425  29.234  1.00  0.00     0.029 A 
ATOM     49  N   UNL A   1      44.315  29.879  28.443  1.00  0.00    -0.354 N 
ATOM     50  N   UNL A   1      46.934  28.879  27.530  1.00  0.00    -0.248 NA
ATOM     51  C   UNL A   1      49.157  29.266  26.919  1.00  0.00     0.031 C 
ATOM     52  C   UNL A   1      44.152  32.031  28.965  1.00  0.00     0.029 A 
ATOM     53  C   UNL A   1      45.027  31.064  28.497  1.00  0.00     0.049 A 
ATOM     54  H   UNL A   1      44.676  29.016  28.138  1.00  0.00     0.167 HD
ATOM     55  C   UNL A   1      47.222  30.227  27.693  1.00  0.00     0.074 A 
ATOM     56  C   UNL A   1      48.609  30.409  27.316  1.00  0.00     0.031 C 
ATOM     57  C   UNL A   1      46.408  31.223  28.118  1.00  0.00     0.031 A 
BRANCH  44  58
ATOM     58  C   UNL A   1      40.633  29.480  29.433  1.00  0.00    -0.014 A 
ATOM     59  C   UNL A   1      40.329  29.525  30.804  1.00  0.00     0.010 A 
ATOM     60  C   UNL A   1      39.665  29.899  28.501  1.00  0.00     0.010 A 
ATOM     61  C   UNL A   1      39.074  29.963  31.235  1.00  0.00     0.020 A 
ATOM     62  C   UNL A   1      38.416  30.360  28.929  1.00  0.00     0.020 A 
ATOM     63  C   UNL A   1      38.128  30.386  30.295  1.00  0.00     0.054 A 
BRANCH  63  64
ATOM     64  S   UNL A   1      36.521  30.980  30.891  1.00  0.00     0.124 S 
ATOM     65  O   UNL A   1      36.174  29.972  31.890  1.00  0.00    -0.237 OA
ATOM     66  O   UNL A   1      36.851  32.300  31.417  1.00  0.00    -0.237 OA
ATOM     67  O   UNL A   1      35.682  30.976  29.694  1.00  0.00    -0.744 OA
ENDBRANCH  63  64
ENDBRANCH  44  58
BRANCH  45  68
ATOM     68  C   UNL A   1      49.633  26.420  26.296  1.00  0.00    -0.014 A 
ATOM     69  C   UNL A   1      50.049  26.638  24.972  1.00  0.00     0.010 A 
ATOM     70  C   UNL A   1      50.528  25.828  27.208  1.00  0.00     0.010 A 
ATOM     71  C   UNL A   1      51.343  26.287  24.572  1.00  0.00     0.020 A 
ATOM     72  C   UNL A   1      51.827  25.497  26.818  1.00  0.00     0.020 A 
ATOM     73  C   UNL A   1      52.228  25.733  25.502  1.00  0.00     0.054 A 
BRANCH  73  74
ATOM     74  S   UNL A   1      53.923  25.357  24.971  1.00  0.00     0.124 S 
ATOM     75  O   UNL A   1      53.941  23.898  25.006  1.00  0.00    -0.237 OA
ATOM     76  O   UNL A   1      53.968  25.959  23.641  1.00  0.00    -0.237 OA
ATOM     77  O   UNL A   1      54.753  26.016  25.977  1.00  0.00    -0.744 OA
ENDBRANCH  73  74
ENDBRANCH  45  68
BRANCH  57  78
ATOM     78  C   UNL A   1      46.980  32.607  28.223  1.00  0.00    -0.014 A 
ATOM     79  C   UNL A   1      47.585  33.043  29.413  1.00  0.00     0.010 A 
ATOM     80  C   UNL A   1      47.045  33.417  27.074  1.00  0.00     0.010 A 
ATOM     81  C   UNL A   1      48.260  34.266  29.448  1.00  0.00     0.020 A 
ATOM     82  C   UNL A   1      47.737  34.630  27.101  1.00  0.00     0.020 A 
ATOM     83  C   UNL A   1      48.345  35.042  28.288  1.00  0.00     0.054 A 
BRANCH  83  84
ATOM     84  S   UNL A   1      49.308  36.578  28.346  1.00  0.00     0.124 S 
ATOM     85  O   UNL A   1      48.269  37.597  28.228  1.00  0.00    -0.237 OA
ATOM     86  O   UNL A   1      49.958  36.491  29.649  1.00  0.00    -0.237 OA
ATOM     87  O   UNL A   1      50.204  36.471  27.196  1.00  0.00    -0.744 OA
ENDBRANCH  83  84
ENDBRANCH  57  78
ENDBRANCH  31  32
ENDBRANCH  24  26
ENDBRANCH  23  24
ENDBRANCH   1  23
TORSDOF 15
ENDMDL
MODEL 3
REMARK VINA RESULT:     -11.7      3.359      4.026
REMARK SMILES Cc1cc(C)c2c(C(=O)OCCOC(=O)c3ccc(-c4c5nc(c(-c6ccc(S(=O)(=O)[O-])cc6)c6ccc([nH]6)c(-c6ccc(S(=O)(=O)[O-])cc6)c6nc(c(-c7ccc(S(=O)(=O)[O-])cc7)c7ccc4[nH]7)C=C6)C=C5)cc3)cc(-c3ccco3)nc2c1
REMARK SMILES IDX 12 1 11 2 10 3 8 4 9 5 7 6 1 7 2 8 3 9 85 10 4 11 84 12 5 13
REMARK SMILES IDX 6 14 83 15 77 16 76 17 78 18 79 19 82 20 80 21 81 22 13 23
REMARK SMILES IDX 14 24 15 25 16 26 17 27 75 28 18 29 74 30 19 31 20 32 21 33
REMARK SMILES IDX 68 34 22 35 73 36 67 37 69 38 23 39 72 40 66 41 65 42 24 44
REMARK SMILES IDX 54 45 35 46 53 47 36 48 39 49 52 50 70 51 37 52 38 53 51 55
REMARK SMILES IDX 71 56 40 57 25 58 26 59 34 60 27 61 33 62 28 63 29 64 30 65
REMARK SMILES IDX 31 66 32 67 55 68 56 69 64 70 57 71 63 72 58 73 59 74 60 75
REMARK SMILES IDX 61 76 62 77 41 78 42 79 50 80 43 81 49 82 44 83 45 84 46 85
REMARK SMILES IDX 47 86 48 87
REMARK H PARENT 69 43 39 54
REMARK Flexibility Score: inf
ROOT
ATOM      1  C   UNL A   1      37.671  21.517  25.257  1.00  0.00     0.275 C 
ENDROOT
BRANCH   1   2
ATOM      2  C   UNL A   1      37.039  21.956  23.941  1.00  0.00     0.275 C 
BRANCH   2   3
ATOM      3  O   UNL A   1      36.107  23.026  24.201  1.00  0.00    -0.458 OA
BRANCH   3   4
ATOM      4  C   UNL A   1      34.946  23.002  23.509  1.00  0.00     0.339 C 
ATOM      5  O   UNL A   1      34.763  23.411  22.379  1.00  0.00    -0.246 OA
BRANCH   4   6
ATOM      6  C   UNL A   1      33.911  22.287  24.280  1.00  0.00     0.072 A 
ATOM      7  C   UNL A   1      29.276  24.425  26.926  1.00  0.00     0.044 C 
ATOM      8  C   UNL A   1      30.542  23.905  26.319  1.00  0.00    -0.049 A 
ATOM      9  C   UNL A   1      31.535  24.792  25.928  1.00  0.00     0.007 A 
ATOM     10  C   UNL A   1      30.746  22.540  26.114  1.00  0.00     0.032 A 
ATOM     11  C   UNL A   1      32.698  24.340  25.284  1.00  0.00    -0.041 A 
ATOM     12  C   UNL A   1      31.880  22.041  25.493  1.00  0.00     0.072 A 
ATOM     13  C   UNL A   1      33.721  25.400  24.976  1.00  0.00     0.045 C 
ATOM     14  C   UNL A   1      32.873  22.934  25.013  1.00  0.00     0.018 A 
ATOM     15  N   UNL A   1      31.932  20.702  25.377  1.00  0.00    -0.244 NA
ATOM     16  C   UNL A   1      32.963  20.144  24.721  1.00  0.00     0.107 A 
ATOM     17  C   UNL A   1      33.940  20.900  24.121  1.00  0.00     0.048 A 
BRANCH  16  18
ATOM     18  C   UNL A   1      33.029  18.693  24.690  1.00  0.00     0.152 A 
ATOM     19  C   UNL A   1      33.690  17.792  23.876  1.00  0.00     0.052 A 
ATOM     20  O   UNL A   1      32.235  18.021  25.574  1.00  0.00    -0.463 OA
ATOM     21  C   UNL A   1      33.273  16.500  24.281  1.00  0.00     0.043 A 
ATOM     22  C   UNL A   1      32.386  16.694  25.313  1.00  0.00     0.196 A 
ENDBRANCH  16  18
ENDBRANCH   4   6
ENDBRANCH   3   4
ENDBRANCH   2   3
ENDBRANCH   1   2
BRANCH   1  23
ATOM     23  O   UNL A   1      37.936  22.688  26.044  1.00  0.00    -0.458 OA
BRANCH  23  24
ATOM     24  C   UNL A   1      39.199  22.776  26.512  1.00  0.00     0.338 C 
ATOM     25  O   UNL A   1      40.083  21.936  26.471  1.00  0.00    -0.246 OA
BRANCH  24  26
ATOM     26  C   UNL A   1      39.411  24.142  26.988  1.00  0.00     0.060 A 
ATOM     27  C   UNL A   1      39.972  25.070  26.113  1.00  0.00     0.016 A 
ATOM     28  C   UNL A   1      39.167  24.464  28.318  1.00  0.00     0.016 A 
ATOM     29  C   UNL A   1      40.415  26.295  26.598  1.00  0.00     0.010 A 
ATOM     30  C   UNL A   1      39.509  25.736  28.775  1.00  0.00     0.010 A 
ATOM     31  C   UNL A   1      40.179  26.644  27.935  1.00  0.00    -0.014 A 
BRANCH  31  32
ATOM     32  C   UNL A   1      40.657  27.943  28.473  1.00  0.00     0.031 A 
ATOM     33  C   UNL A   1      42.108  28.114  28.834  1.00  0.00     0.074 A 
ATOM     34  C   UNL A   1      39.791  28.963  28.641  1.00  0.00     0.049 A 
ATOM     35  N   UNL A   1      42.689  29.106  29.457  1.00  0.00    -0.248 NA
ATOM     36  C   UNL A   1      43.027  27.023  28.459  1.00  0.00     0.031 C 
ATOM     37  C   UNL A   1      38.371  28.938  28.280  1.00  0.00     0.029 A 
ATOM     38  N   UNL A   1      39.979  30.222  29.153  1.00  0.00    -0.354 N 
ATOM     39  C   UNL A   1      44.024  28.742  29.587  1.00  0.00     0.074 A 
ATOM     40  C   UNL A   1      44.170  27.433  28.991  1.00  0.00     0.031 C 
ATOM     41  C   UNL A   1      37.829  30.137  28.543  1.00  0.00     0.029 A 
ATOM     42  C   UNL A   1      38.836  30.986  29.167  1.00  0.00     0.049 A 
ATOM     43  H   UNL A   1      40.849  30.547  29.479  1.00  0.00     0.167 HD
ATOM     44  C   UNL A   1      45.036  29.441  30.151  1.00  0.00     0.031 A 
ATOM     45  C   UNL A   1      38.608  32.220  29.659  1.00  0.00     0.031 A 
ATOM     46  C   UNL A   1      44.887  30.756  30.711  1.00  0.00     0.049 A 
ATOM     47  C   UNL A   1      39.732  32.952  30.332  1.00  0.00     0.074 A 
ATOM     48  C   UNL A   1      45.855  31.553  31.293  1.00  0.00     0.029 A 
ATOM     49  N   UNL A   1      43.698  31.468  30.750  1.00  0.00    -0.354 N 
ATOM     50  N   UNL A   1      40.978  32.574  30.486  1.00  0.00    -0.248 NA
ATOM     51  C   UNL A   1      39.420  34.264  30.915  1.00  0.00     0.031 C 
ATOM     52  C   UNL A   1      45.242  32.733  31.724  1.00  0.00     0.029 A 
ATOM     53  C   UNL A   1      43.904  32.691  31.363  1.00  0.00     0.049 A 
ATOM     54  H   UNL A   1      42.836  31.152  30.394  1.00  0.00     0.167 HD
ATOM     55  C   UNL A   1      41.604  33.606  31.173  1.00  0.00     0.074 A 
ATOM     56  C   UNL A   1      40.603  34.628  31.399  1.00  0.00     0.031 C 
ATOM     57  C   UNL A   1      42.894  33.695  31.577  1.00  0.00     0.031 A 
BRANCH  44  58
ATOM     58  C   UNL A   1      46.395  28.798  30.208  1.00  0.00    -0.014 A 
ATOM     59  C   UNL A   1      46.777  27.999  31.300  1.00  0.00     0.010 A 
ATOM     60  C   UNL A   1      47.271  28.928  29.115  1.00  0.00     0.010 A 
ATOM     61  C   UNL A   1      48.018  27.357  31.305  1.00  0.00     0.020 A 
ATOM     62  C   UNL A   1      48.504  28.270  29.106  1.00  0.00     0.020 A 
ATOM     63  C   UNL A   1      48.871  27.490  30.204  1.00  0.00     0.054 A 
BRANCH  63  64
ATOM     64  S   UNL A   1      50.461  26.617  30.231  1.00  0.00     0.124 S 
ATOM     65  O   UNL A   1      51.264  27.418  29.310  1.00  0.00    -0.237 OA
ATOM     66  O   UNL A   1      50.842  26.704  31.636  1.00  0.00    -0.237 OA
ATOM     67  O   UNL A   1      50.130  25.276  29.754  1.00  0.00    -0.744 OA
ENDBRANCH  63  64
ENDBRANCH  44  58
BRANCH  45  68
ATOM     68  C   UNL A   1      37.249  32.811  29.541  1.00  0.00    -0.014 A 
ATOM     69  C   UNL A   1      36.436  32.951  30.677  1.00  0.00     0.010 A 
ATOM     70  C   UNL A   1      36.796  33.314  28.306  1.00  0.00     0.010 A 
ATOM     71  C   UNL A   1      35.199  33.597  30.585  1.00  0.00     0.020 A 
ATOM     72  C   UNL A   1      35.571  33.980  28.215  1.00  0.00     0.020 A 
ATOM     73  C   UNL A   1      34.782  34.121  29.358  1.00  0.00     0.054 A 
BRANCH  73  74
ATOM     74  S   UNL A   1      33.206  35.020  29.287  1.00  0.00     0.124 S 
ATOM     75  O   UNL A   1      33.627  36.348  28.851  1.00  0.00    -0.237 OA
ATOM     76  O   UNL A   1      32.453  34.241  28.307  1.00  0.00    -0.237 OA
ATOM     77  O   UNL A   1      32.703  34.943  30.657  1.00  0.00    -0.744 OA
ENDBRANCH  73  74
ENDBRANCH  45  68
BRANCH  57  78
ATOM     78  C   UNL A   1      43.324  34.942  32.295  1.00  0.00    -0.014 A 
ATOM     79  C   UNL A   1      43.724  36.080  31.576  1.00  0.00     0.010 A 
ATOM     80  C   UNL A   1      43.181  35.019  33.693  1.00  0.00     0.010 A 
ATOM     81  C   UNL A   1      43.961  37.283  32.244  1.00  0.00     0.020 A 
ATOM     82  C   UNL A   1      43.398  36.226  34.360  1.00  0.00     0.020 A 
ATOM     83  C   UNL A   1      43.781  37.351  33.629  1.00  0.00     0.054 A 
BRANCH  83  84
ATOM     84  S   UNL A   1      44.008  38.952  34.452  1.00  0.00     0.124 S 
ATOM     85  O   UNL A   1      43.890  38.594  35.862  1.00  0.00    -0.237 OA
ATOM     86  O   UNL A   1      45.344  39.343  34.012  1.00  0.00    -0.237 OA
ATOM     87  O   UNL A   1      42.917  39.771  33.927  1.00  0.00    -0.744 OA
ENDBRANCH  83  84
ENDBRANCH  57  78
ENDBRANCH  31  32
ENDBRANCH  24  26
ENDBRANCH  23  24
ENDBRANCH   1  23
TORSDOF 15
ENDMDL
