MODEL 1
REMARK VINA RESULT:      -8.4      0.000      0.000
REMARK SMILES COC(=O)CCN(C)C(=O)NCc1ccc(C(=O)OCCOC(=O)c2ccc(-c3c4nc(c(-c5ccc(S(=O)(=O)[O-])cc5)c5ccc([nH]5)c(-c5ccc(S(=O)(=O)[O-])cc5)c5nc(c(-c6ccc(S(=O)(=O)[O-])cc6)c6ccc3[nH]6)C=C5)C=C4)cc2)o1
REMARK SMILES IDX 17 1 18 2 16 3 13 4 14 5 85 6 15 7 12 8 11 9 9 10 10 11 7 13
REMARK SMILES IDX 8 14 6 15 5 16 3 17 4 18 2 19 1 20 19 21 20 22 21 23 22 24
REMARK SMILES IDX 23 25 24 26 25 27 26 28 84 29 27 30 83 31 28 32 29 33 30 34
REMARK SMILES IDX 77 35 31 36 82 37 76 38 78 39 32 40 81 41 75 42 74 43 33 45
REMARK SMILES IDX 63 46 44 47 62 48 45 49 48 50 61 51 79 52 46 53 47 54 60 56
REMARK SMILES IDX 80 57 49 58 34 59 35 60 43 61 36 62 42 63 37 64 38 65 39 66
REMARK SMILES IDX 40 67 41 68 64 69 65 70 73 71 66 72 72 73 67 74 68 75 69 76
REMARK SMILES IDX 70 77 71 78 50 79 51 80 59 81 52 82 58 83 53 84 54 85 55 86
REMARK SMILES IDX 56 87 57 88
REMARK H PARENT 11 12 78 44 48 55
REMARK Flexibility Score: inf
ROOT
ATOM      1  C   UNL A   1      33.348  35.057  29.266  1.00  0.00     0.374 C 
ATOM      2  O   UNL A   1      32.445  35.223  28.463  1.00  0.00    -0.242 OA
ENDROOT
BRANCH   1   3
ATOM      3  C   UNL A   1      33.335  35.486  30.649  1.00  0.00     0.211 A 
ATOM      4  C   UNL A   1      34.123  35.468  32.714  1.00  0.00     0.124 A 
ATOM      5  C   UNL A   1      33.242  36.525  32.645  1.00  0.00     0.048 A 
ATOM      6  O   UNL A   1      34.126  34.793  31.531  1.00  0.00    -0.452 OA
ATOM      7  C   UNL A   1      32.743  36.542  31.316  1.00  0.00     0.058 A 
BRANCH   4   8
ATOM      8  C   UNL A   1      35.118  35.018  33.723  1.00  0.00     0.193 C 
BRANCH   8   9
ATOM      9  N   UNL A   1      36.401  34.990  33.050  1.00  0.00    -0.331 N 
ATOM     10  C   UNL A   1      37.444  34.162  32.924  1.00  0.00     0.317 C 
ATOM     11  O   UNL A   1      38.280  34.504  32.082  1.00  0.00    -0.249 OA
ATOM     12  H   UNL A   1      36.547  35.818  32.539  1.00  0.00     0.165 HD
BRANCH  10  13
ATOM     13  N   UNL A   1      37.578  33.011  33.644  1.00  0.00    -0.327 N 
ATOM     14  C   UNL A   1      36.892  31.758  33.404  1.00  0.00     0.148 C 
BRANCH  13  15
ATOM     15  C   UNL A   1      38.545  33.022  34.754  1.00  0.00     0.132 C 
BRANCH  15  16
ATOM     16  C   UNL A   1      38.178  32.044  35.861  1.00  0.00     0.144 C 
BRANCH  16  17
ATOM     17  C   UNL A   1      37.436  32.745  36.968  1.00  0.00     0.307 C 
ATOM     18  O   UNL A   1      36.481  33.484  36.769  1.00  0.00    -0.252 OA
BRANCH  17  19
ATOM     19  O   UNL A   1      37.974  32.439  38.178  1.00  0.00    -0.469 OA
ATOM     20  C   UNL A   1      39.038  33.307  38.583  1.00  0.00     0.282 C 
ENDBRANCH  17  19
ENDBRANCH  16  17
ENDBRANCH  15  16
ENDBRANCH  13  15
ENDBRANCH  10  13
ENDBRANCH   8   9
ENDBRANCH   4   8
ENDBRANCH   1   3
BRANCH   1  21
ATOM     21  O   UNL A   1      34.495  34.357  29.003  1.00  0.00    -0.456 OA
BRANCH  21  22
ATOM     22  C   UNL A   1      34.422  32.936  29.226  1.00  0.00     0.275 C 
BRANCH  22  23
ATOM     23  C   UNL A   1      33.708  32.214  28.077  1.00  0.00     0.275 C 
BRANCH  23  24
ATOM     24  O   UNL A   1      34.606  31.396  27.304  1.00  0.00    -0.458 OA
BRANCH  24  25
ATOM     25  C   UNL A   1      34.701  30.108  27.714  1.00  0.00     0.338 C 
ATOM     26  O   UNL A   1      33.807  29.276  27.700  1.00  0.00    -0.246 OA
BRANCH  25  27
ATOM     27  C   UNL A   1      36.099  29.778  28.046  1.00  0.00     0.060 A 
ATOM     28  C   UNL A   1      36.347  29.288  29.328  1.00  0.00     0.016 A 
ATOM     29  C   UNL A   1      37.158  30.006  27.166  1.00  0.00     0.016 A 
ATOM     30  C   UNL A   1      37.649  29.035  29.749  1.00  0.00     0.010 A 
ATOM     31  C   UNL A   1      38.473  29.753  27.589  1.00  0.00     0.010 A 
ATOM     32  C   UNL A   1      38.726  29.281  28.889  1.00  0.00    -0.014 A 
BRANCH  32  33
ATOM     33  C   UNL A   1      40.103  29.083  29.407  1.00  0.00     0.031 A 
ATOM     34  C   UNL A   1      40.618  29.942  30.527  1.00  0.00     0.074 A 
ATOM     35  C   UNL A   1      40.859  28.074  28.933  1.00  0.00     0.049 A 
ATOM     36  N   UNL A   1      41.776  29.894  31.137  1.00  0.00    -0.248 NA
ATOM     37  C   UNL A   1      39.714  30.988  31.028  1.00  0.00     0.031 C 
ATOM     38  C   UNL A   1      40.454  27.139  27.882  1.00  0.00     0.029 A 
ATOM     39  N   UNL A   1      42.114  27.654  29.291  1.00  0.00    -0.354 N 
ATOM     40  C   UNL A   1      41.749  30.917  32.078  1.00  0.00     0.074 A 
ATOM     41  C   UNL A   1      40.466  31.574  31.949  1.00  0.00     0.031 C 
ATOM     42  C   UNL A   1      41.437  26.242  27.695  1.00  0.00     0.029 A 
ATOM     43  C   UNL A   1      42.550  26.557  28.587  1.00  0.00     0.049 A 
ATOM     44  H   UNL A   1      42.653  28.096  29.987  1.00  0.00     0.167 HD
ATOM     45  C   UNL A   1      42.704  31.277  32.971  1.00  0.00     0.031 A 
ATOM     46  C   UNL A   1      43.715  25.883  28.646  1.00  0.00     0.031 A 
ATOM     47  C   UNL A   1      43.978  30.621  33.107  1.00  0.00     0.049 A 
ATOM     48  C   UNL A   1      44.767  26.313  29.630  1.00  0.00     0.074 A 
ATOM     49  C   UNL A   1      45.008  30.912  33.986  1.00  0.00     0.029 A 
ATOM     50  N   UNL A   1      44.396  29.538  32.349  1.00  0.00    -0.354 N 
ATOM     51  N   UNL A   1      44.726  27.287  30.506  1.00  0.00    -0.248 NA
ATOM     52  C   UNL A   1      46.021  25.546  29.634  1.00  0.00     0.031 C 
ATOM     53  C   UNL A   1      46.064  30.026  33.734  1.00  0.00     0.029 A 
ATOM     54  C   UNL A   1      45.673  29.157  32.728  1.00  0.00     0.049 A 
ATOM     55  H   UNL A   1      43.863  29.103  31.644  1.00  0.00     0.167 HD
ATOM     56  C   UNL A   1      45.946  27.246  31.173  1.00  0.00     0.074 A 
ATOM     57  C   UNL A   1      46.690  26.136  30.616  1.00  0.00     0.031 C 
ATOM     58  C   UNL A   1      46.408  28.059  32.156  1.00  0.00     0.031 A 
BRANCH  45  59
ATOM     59  C   UNL A   1      42.416  32.470  33.842  1.00  0.00    -0.014 A 
ATOM     60  C   UNL A   1      42.151  32.327  35.215  1.00  0.00     0.010 A 
ATOM     61  C   UNL A   1      42.425  33.758  33.276  1.00  0.00     0.010 A 
ATOM     62  C   UNL A   1      41.856  33.448  35.999  1.00  0.00     0.020 A 
ATOM     63  C   UNL A   1      42.152  34.882  34.060  1.00  0.00     0.020 A 
ATOM     64  C   UNL A   1      41.848  34.718  35.413  1.00  0.00     0.054 A 
BRANCH  64  65
ATOM     65  S   UNL A   1      41.466  36.162  36.443  1.00  0.00     0.124 S 
ATOM     66  O   UNL A   1      41.582  35.611  37.792  1.00  0.00    -0.237 OA
ATOM     67  O   UNL A   1      42.504  37.118  36.066  1.00  0.00    -0.237 OA
ATOM     68  O   UNL A   1      40.112  36.530  36.037  1.00  0.00    -0.744 OA
ENDBRANCH  64  65
ENDBRANCH  45  59
BRANCH  46  69
ATOM     69  C   UNL A   1      43.948  24.730  27.736  1.00  0.00    -0.014 A 
ATOM     70  C   UNL A   1      44.593  24.911  26.500  1.00  0.00     0.010 A 
ATOM     71  C   UNL A   1      43.538  23.438  28.115  1.00  0.00     0.010 A 
ATOM     72  C   UNL A   1      44.814  23.820  25.654  1.00  0.00     0.020 A 
ATOM     73  C   UNL A   1      43.779  22.343  27.282  1.00  0.00     0.020 A 
ATOM     74  C   UNL A   1      44.407  22.543  26.051  1.00  0.00     0.054 A 
BRANCH  74  75
ATOM     75  S   UNL A   1      44.764  21.129  24.970  1.00  0.00     0.124 S 
ATOM     76  O   UNL A   1      43.668  20.219  25.290  1.00  0.00    -0.237 OA
ATOM     77  O   UNL A   1      44.721  21.726  23.637  1.00  0.00    -0.237 OA
ATOM     78  O   UNL A   1      46.089  20.694  25.406  1.00  0.00    -0.744 OA
ENDBRANCH  74  75
ENDBRANCH  46  69
BRANCH  58  79
ATOM     79  C   UNL A   1      47.780  27.760  32.699  1.00  0.00    -0.014 A 
ATOM     80  C   UNL A   1      48.925  28.358  32.143  1.00  0.00     0.010 A 
ATOM     81  C   UNL A   1      47.923  26.883  33.789  1.00  0.00     0.010 A 
ATOM     82  C   UNL A   1      50.195  28.049  32.640  1.00  0.00     0.020 A 
ATOM     83  C   UNL A   1      49.190  26.589  34.302  1.00  0.00     0.020 A 
ATOM     84  C   UNL A   1      50.319  27.160  33.710  1.00  0.00     0.054 A 
BRANCH  84  85
ATOM     85  S   UNL A   1      51.975  26.779  34.349  1.00  0.00     0.124 S 
ATOM     86  O   UNL A   1      52.835  27.391  33.340  1.00  0.00    -0.237 OA
ATOM     87  O   UNL A   1      51.977  27.430  35.656  1.00  0.00    -0.237 OA
ATOM     88  O   UNL A   1      52.001  25.318  34.388  1.00  0.00    -0.744 OA
ENDBRANCH  84  85
ENDBRANCH  58  79
ENDBRANCH  32  33
ENDBRANCH  25  27
ENDBRANCH  24  25
ENDBRANCH  23  24
ENDBRANCH  22  23
ENDBRANCH  21  22
ENDBRANCH   1  21
TORSDOF 21
ENDMDL
MODEL 2
REMARK VINA RESULT:      -8.2      5.153     10.516
REMARK SMILES COC(=O)CCN(C)C(=O)NCc1ccc(C(=O)OCCOC(=O)c2ccc(-c3c4nc(c(-c5ccc(S(=O)(=O)[O-])cc5)c5ccc([nH]5)c(-c5ccc(S(=O)(=O)[O-])cc5)c5nc(c(-c6ccc(S(=O)(=O)[O-])cc6)c6ccc3[nH]6)C=C5)C=C4)cc2)o1
REMARK SMILES IDX 17 1 18 2 16 3 13 4 14 5 85 6 15 7 12 8 11 9 9 10 10 11 7 13
REMARK SMILES IDX 8 14 6 15 5 16 3 17 4 18 2 19 1 20 19 21 20 22 21 23 22 24
REMARK SMILES IDX 23 25 24 26 25 27 26 28 84 29 27 30 83 31 28 32 29 33 30 34
REMARK SMILES IDX 77 35 31 36 82 37 76 38 78 39 32 40 81 41 75 42 74 43 33 45
REMARK SMILES IDX 63 46 44 47 62 48 45 49 48 50 61 51 79 52 46 53 47 54 60 56
REMARK SMILES IDX 80 57 49 58 34 59 35 60 43 61 36 62 42 63 37 64 38 65 39 66
REMARK SMILES IDX 40 67 41 68 64 69 65 70 73 71 66 72 72 73 67 74 68 75 69 76
REMARK SMILES IDX 70 77 71 78 50 79 51 80 59 81 52 82 58 83 53 84 54 85 55 86
REMARK SMILES IDX 56 87 57 88
REMARK H PARENT 11 12 78 44 48 55
REMARK Flexibility Score: inf
ROOT
ATOM      1  C   UNL A   1      33.577  32.404  27.913  1.00  0.00     0.374 C 
ATOM      2  O   UNL A   1      33.595  33.597  27.656  1.00  0.00    -0.242 OA
ENDROOT
BRANCH   1   3
ATOM      3  C   UNL A   1      33.056  31.364  27.052  1.00  0.00     0.211 A 
ATOM      4  C   UNL A   1      33.188  29.395  26.055  1.00  0.00     0.124 A 
ATOM      5  C   UNL A   1      31.888  29.824  25.895  1.00  0.00     0.048 A 
ATOM      6  O   UNL A   1      33.915  30.357  26.689  1.00  0.00    -0.452 OA
ATOM      7  C   UNL A   1      31.801  31.083  26.544  1.00  0.00     0.058 A 
BRANCH   4   8
ATOM      8  C   UNL A   1      33.889  28.108  25.805  1.00  0.00     0.193 C 
BRANCH   8   9
ATOM      9  N   UNL A   1      33.928  27.934  24.367  1.00  0.00    -0.331 N 
ATOM     10  C   UNL A   1      33.174  27.389  23.406  1.00  0.00     0.317 C 
ATOM     11  O   UNL A   1      33.543  27.634  22.254  1.00  0.00    -0.249 OA
ATOM     12  H   UNL A   1      34.744  28.333  23.988  1.00  0.00     0.165 HD
BRANCH  10  13
ATOM     13  N   UNL A   1      32.065  26.637  23.662  1.00  0.00    -0.327 N 
ATOM     14  C   UNL A   1      30.691  27.002  23.380  1.00  0.00     0.148 C 
BRANCH  13  15
ATOM     15  C   UNL A   1      32.278  25.303  24.246  1.00  0.00     0.132 C 
BRANCH  15  16
ATOM     16  C   UNL A   1      31.032  24.756  24.930  1.00  0.00     0.144 C 
BRANCH  16  17
ATOM     17  C   UNL A   1      31.053  25.064  26.403  1.00  0.00     0.307 C 
ATOM     18  O   UNL A   1      31.077  26.204  26.847  1.00  0.00    -0.252 OA
BRANCH  17  19
ATOM     19  O   UNL A   1      31.042  23.918  27.135  1.00  0.00    -0.469 OA
ATOM     20  C   UNL A   1      31.926  22.903  26.649  1.00  0.00     0.282 C 
ENDBRANCH  17  19
ENDBRANCH  16  17
ENDBRANCH  15  16
ENDBRANCH  13  15
ENDBRANCH  10  13
ENDBRANCH   8   9
ENDBRANCH   4   8
ENDBRANCH   1   3
BRANCH   1  21
ATOM     21  O   UNL A   1      34.128  31.849  29.038  1.00  0.00    -0.456 OA
BRANCH  21  22
ATOM     22  C   UNL A   1      34.900  32.745  29.859  1.00  0.00     0.275 C 
BRANCH  22  23
ATOM     23  C   UNL A   1      35.578  32.010  31.022  1.00  0.00     0.275 C 
BRANCH  23  24
ATOM     24  O   UNL A   1      36.514  31.014  30.568  1.00  0.00    -0.458 OA
BRANCH  24  25
ATOM     25  C   UNL A   1      37.199  30.383  31.553  1.00  0.00     0.338 C 
ATOM     26  O   UNL A   1      36.732  29.943  32.592  1.00  0.00    -0.246 OA
BRANCH  25  27
ATOM     27  C   UNL A   1      38.594  30.148  31.136  1.00  0.00     0.060 A 
ATOM     28  C   UNL A   1      38.930  30.493  29.828  1.00  0.00     0.016 A 
ATOM     29  C   UNL A   1      39.537  29.539  31.966  1.00  0.00     0.016 A 
ATOM     30  C   UNL A   1      40.202  30.223  29.330  1.00  0.00     0.010 A 
ATOM     31  C   UNL A   1      40.819  29.264  31.465  1.00  0.00     0.010 A 
ATOM     32  C   UNL A   1      41.153  29.590  30.139  1.00  0.00    -0.014 A 
BRANCH  32  33
ATOM     33  C   UNL A   1      42.466  29.240  29.542  1.00  0.00     0.031 A 
ATOM     34  C   UNL A   1      42.671  27.893  28.908  1.00  0.00     0.074 A 
ATOM     35  C   UNL A   1      43.447  30.162  29.490  1.00  0.00     0.049 A 
ATOM     36  N   UNL A   1      43.733  27.420  28.304  1.00  0.00    -0.248 NA
ATOM     37  C   UNL A   1      41.537  26.960  28.958  1.00  0.00     0.031 C 
ATOM     38  C   UNL A   1      43.355  31.522  30.026  1.00  0.00     0.029 A 
ATOM     39  N   UNL A   1      44.702  30.102  28.941  1.00  0.00    -0.354 N 
ATOM     40  C   UNL A   1      43.402  26.125  27.920  1.00  0.00     0.074 A 
ATOM     41  C   UNL A   1      42.047  25.886  28.372  1.00  0.00     0.031 C 
ATOM     42  C   UNL A   1      44.500  32.173  29.759  1.00  0.00     0.029 A 
ATOM     43  C   UNL A   1      45.415  31.270  29.066  1.00  0.00     0.049 A 
ATOM     44  H   UNL A   1      45.060  29.297  28.499  1.00  0.00     0.167 HD
ATOM     45  C   UNL A   1      44.155  25.217  27.252  1.00  0.00     0.031 A 
ATOM     46  C   UNL A   1      46.666  31.580  28.674  1.00  0.00     0.031 A 
ATOM     47  C   UNL A   1      45.499  25.454  26.795  1.00  0.00     0.049 A 
ATOM     48  C   UNL A   1      47.490  30.550  27.952  1.00  0.00     0.074 A 
ATOM     49  C   UNL A   1      46.339  24.596  26.105  1.00  0.00     0.029 A 
ATOM     50  N   UNL A   1      46.199  26.637  26.975  1.00  0.00    -0.354 N 
ATOM     51  N   UNL A   1      47.163  29.329  27.606  1.00  0.00    -0.248 NA
ATOM     52  C   UNL A   1      48.851  30.946  27.564  1.00  0.00     0.031 C 
ATOM     53  C   UNL A   1      47.561  25.249  25.900  1.00  0.00     0.029 A 
ATOM     54  C   UNL A   1      47.466  26.529  26.424  1.00  0.00     0.049 A 
ATOM     55  H   UNL A   1      45.847  27.438  27.429  1.00  0.00     0.167 HD
ATOM     56  C   UNL A   1      48.275  28.811  26.951  1.00  0.00     0.074 A 
ATOM     57  C   UNL A   1      49.273  29.861  26.929  1.00  0.00     0.031 C 
ATOM     58  C   UNL A   1      48.454  27.576  26.420  1.00  0.00     0.031 A 
BRANCH  45  59
ATOM     59  C   UNL A   1      43.547  23.861  27.015  1.00  0.00    -0.014 A 
ATOM     60  C   UNL A   1      43.025  23.500  25.761  1.00  0.00     0.010 A 
ATOM     61  C   UNL A   1      43.511  22.926  28.067  1.00  0.00     0.010 A 
ATOM     62  C   UNL A   1      42.438  22.244  25.574  1.00  0.00     0.020 A 
ATOM     63  C   UNL A   1      42.944  21.662  27.878  1.00  0.00     0.020 A 
ATOM     64  C   UNL A   1      42.392  21.337  26.637  1.00  0.00     0.054 A 
BRANCH  64  65
ATOM     65  S   UNL A   1      41.629  19.711  26.377  1.00  0.00     0.124 S 
ATOM     66  O   UNL A   1      42.363  19.214  25.215  1.00  0.00    -0.237 OA
ATOM     67  O   UNL A   1      41.901  19.017  27.633  1.00  0.00    -0.237 OA
ATOM     68  O   UNL A   1      40.222  20.023  26.137  1.00  0.00    -0.744 OA
ENDBRANCH  64  65
ENDBRANCH  45  59
BRANCH  46  69
ATOM     69  C   UNL A   1      47.219  32.930  28.965  1.00  0.00    -0.014 A 
ATOM     70  C   UNL A   1      47.079  33.977  28.038  1.00  0.00     0.010 A 
ATOM     71  C   UNL A   1      47.875  33.175  30.185  1.00  0.00     0.010 A 
ATOM     72  C   UNL A   1      47.596  35.245  28.323  1.00  0.00     0.020 A 
ATOM     73  C   UNL A   1      48.372  34.446  30.483  1.00  0.00     0.020 A 
ATOM     74  C   UNL A   1      48.238  35.472  29.544  1.00  0.00     0.054 A 
BRANCH  74  75
ATOM     75  S   UNL A   1      48.843  37.140  29.925  1.00  0.00     0.124 S 
ATOM     76  O   UNL A   1      50.288  36.973  29.803  1.00  0.00    -0.237 OA
ATOM     77  O   UNL A   1      48.211  37.954  28.889  1.00  0.00    -0.237 OA
ATOM     78  O   UNL A   1      48.350  37.378  31.280  1.00  0.00    -0.744 OA
ENDBRANCH  74  75
ENDBRANCH  46  69
BRANCH  58  79
ATOM     79  C   UNL A   1      49.777  27.304  25.757  1.00  0.00    -0.014 A 
ATOM     80  C   UNL A   1      50.849  26.749  26.478  1.00  0.00     0.010 A 
ATOM     81  C   UNL A   1      49.944  27.593  24.391  1.00  0.00     0.010 A 
ATOM     82  C   UNL A   1      52.081  26.528  25.855  1.00  0.00     0.020 A 
ATOM     83  C   UNL A   1      51.168  27.353  23.759  1.00  0.00     0.020 A 
ATOM     84  C   UNL A   1      52.235  26.840  24.501  1.00  0.00     0.054 A 
BRANCH  84  85
ATOM     85  S   UNL A   1      53.838  26.537  23.707  1.00  0.00     0.124 S 
ATOM     86  O   UNL A   1      54.461  27.856  23.772  1.00  0.00    -0.237 OA
ATOM     87  O   UNL A   1      54.437  25.516  24.561  1.00  0.00    -0.237 OA
ATOM     88  O   UNL A   1      53.477  26.082  22.365  1.00  0.00    -0.744 OA
ENDBRANCH  84  85
ENDBRANCH  58  79
ENDBRANCH  32  33
ENDBRANCH  25  27
ENDBRANCH  24  25
ENDBRANCH  23  24
ENDBRANCH  22  23
ENDBRANCH  21  22
ENDBRANCH   1  21
TORSDOF 21
ENDMDL
MODEL 3
REMARK VINA RESULT:      -8.1      5.462     11.112
REMARK SMILES COC(=O)CCN(C)C(=O)NCc1ccc(C(=O)OCCOC(=O)c2ccc(-c3c4nc(c(-c5ccc(S(=O)(=O)[O-])cc5)c5ccc([nH]5)c(-c5ccc(S(=O)(=O)[O-])cc5)c5nc(c(-c6ccc(S(=O)(=O)[O-])cc6)c6ccc3[nH]6)C=C5)C=C4)cc2)o1
REMARK SMILES IDX 17 1 18 2 16 3 13 4 14 5 85 6 15 7 12 8 11 9 9 10 10 11 7 13
REMARK SMILES IDX 8 14 6 15 5 16 3 17 4 18 2 19 1 20 19 21 20 22 21 23 22 24
REMARK SMILES IDX 23 25 24 26 25 27 26 28 84 29 27 30 83 31 28 32 29 33 30 34
REMARK SMILES IDX 77 35 31 36 82 37 76 38 78 39 32 40 81 41 75 42 74 43 33 45
REMARK SMILES IDX 63 46 44 47 62 48 45 49 48 50 61 51 79 52 46 53 47 54 60 56
REMARK SMILES IDX 80 57 49 58 34 59 35 60 43 61 36 62 42 63 37 64 38 65 39 66
REMARK SMILES IDX 40 67 41 68 64 69 65 70 73 71 66 72 72 73 67 74 68 75 69 76
REMARK SMILES IDX 70 77 71 78 50 79 51 80 59 81 52 82 58 83 53 84 54 85 55 86
REMARK SMILES IDX 56 87 57 88
REMARK H PARENT 11 12 78 44 48 55
REMARK Flexibility Score: inf
ROOT
ATOM      1  C   UNL A   1      32.543  29.127  26.653  1.00  0.00     0.374 C 
ATOM      2  O   UNL A   1      31.803  28.684  27.517  1.00  0.00    -0.242 OA
ENDROOT
BRANCH   1   3
ATOM      3  C   UNL A   1      33.051  28.386  25.518  1.00  0.00     0.211 A 
ATOM      4  C   UNL A   1      33.898  26.572  24.582  1.00  0.00     0.124 A 
ATOM      5  C   UNL A   1      33.531  27.406  23.548  1.00  0.00     0.048 A 
ATOM      6  O   UNL A   1      33.677  27.193  25.774  1.00  0.00    -0.452 OA
ATOM      7  C   UNL A   1      32.978  28.566  24.149  1.00  0.00     0.058 A 
BRANCH   4   8
ATOM      8  C   UNL A   1      34.341  25.154  24.657  1.00  0.00     0.193 C 
BRANCH   8   9
ATOM      9  N   UNL A   1      34.060  24.567  23.362  1.00  0.00    -0.331 N 
ATOM     10  C   UNL A   1      33.233  23.657  22.836  1.00  0.00     0.317 C 
ATOM     11  O   UNL A   1      33.241  23.598  21.604  1.00  0.00    -0.249 OA
ATOM     12  H   UNL A   1      34.647  24.948  22.670  1.00  0.00     0.165 HD
BRANCH  10  13
ATOM     13  N   UNL A   1      32.418  22.863  23.590  1.00  0.00    -0.327 N 
ATOM     14  C   UNL A   1      32.565  21.439  23.811  1.00  0.00     0.148 C 
BRANCH  13  15
ATOM     15  C   UNL A   1      31.299  23.519  24.285  1.00  0.00     0.132 C 
BRANCH  15  16
ATOM     16  C   UNL A   1      31.088  22.982  25.694  1.00  0.00     0.144 C 
BRANCH  16  17
ATOM     17  C   UNL A   1      30.750  24.098  26.645  1.00  0.00     0.307 C 
ATOM     18  O   UNL A   1      31.476  25.067  26.826  1.00  0.00    -0.252 OA
BRANCH  17  19
ATOM     19  O   UNL A   1      29.554  23.870  27.250  1.00  0.00    -0.469 OA
ATOM     20  C   UNL A   1      29.149  22.497  27.250  1.00  0.00     0.282 C 
ENDBRANCH  17  19
ENDBRANCH  16  17
ENDBRANCH  15  16
ENDBRANCH  13  15
ENDBRANCH  10  13
ENDBRANCH   8   9
ENDBRANCH   4   8
ENDBRANCH   1   3
BRANCH   1  21
ATOM     21  O   UNL A   1      32.944  30.434  26.578  1.00  0.00    -0.456 OA
BRANCH  21  22
ATOM     22  C   UNL A   1      33.828  30.875  27.625  1.00  0.00     0.275 C 
BRANCH  22  23
ATOM     23  C   UNL A   1      34.963  29.873  27.873  1.00  0.00     0.275 C 
BRANCH  23  24
ATOM     24  O   UNL A   1      36.130  30.499  28.439  1.00  0.00    -0.458 OA
BRANCH  24  25
ATOM     25  C   UNL A   1      36.751  29.780  29.405  1.00  0.00     0.338 C 
ATOM     26  O   UNL A   1      36.246  29.364  30.436  1.00  0.00    -0.246 OA
BRANCH  25  27
ATOM     27  C   UNL A   1      38.115  29.417  28.977  1.00  0.00     0.060 A 
ATOM     28  C   UNL A   1      39.023  29.073  29.978  1.00  0.00     0.016 A 
ATOM     29  C   UNL A   1      38.529  29.479  27.645  1.00  0.00     0.016 A 
ATOM     30  C   UNL A   1      40.351  28.802  29.664  1.00  0.00     0.010 A 
ATOM     31  C   UNL A   1      39.870  29.207  27.327  1.00  0.00     0.010 A 
ATOM     32  C   UNL A   1      40.791  28.883  28.338  1.00  0.00    -0.014 A 
BRANCH  32  33
ATOM     33  C   UNL A   1      42.234  28.674  28.059  1.00  0.00     0.031 A 
ATOM     34  C   UNL A   1      42.722  27.339  27.573  1.00  0.00     0.074 A 
ATOM     35  C   UNL A   1      43.092  29.707  28.156  1.00  0.00     0.049 A 
ATOM     36  N   UNL A   1      43.937  26.976  27.241  1.00  0.00    -0.248 NA
ATOM     37  C   UNL A   1      41.717  26.275  27.441  1.00  0.00     0.031 C 
ATOM     38  C   UNL A   1      42.734  31.066  28.569  1.00  0.00     0.029 A 
ATOM     39  N   UNL A   1      44.436  29.781  27.891  1.00  0.00    -0.354 N 
ATOM     40  C   UNL A   1      43.845  25.636  26.882  1.00  0.00     0.074 A 
ATOM     41  C   UNL A   1      42.460  25.250  27.049  1.00  0.00     0.031 C 
ATOM     42  C   UNL A   1      43.829  31.843  28.510  1.00  0.00     0.029 A 
ATOM     43  C   UNL A   1      44.969  31.032  28.088  1.00  0.00     0.049 A 
ATOM     44  H   UNL A   1      44.970  29.010  27.590  1.00  0.00     0.167 HD
ATOM     45  C   UNL A   1      44.823  24.802  26.450  1.00  0.00     0.031 A 
ATOM     46  C   UNL A   1      46.232  31.479  27.951  1.00  0.00     0.031 A 
ATOM     47  C   UNL A   1      46.200  25.186  26.275  1.00  0.00     0.049 A 
ATOM     48  C   UNL A   1      47.305  30.531  27.491  1.00  0.00     0.074 A 
ATOM     49  C   UNL A   1      47.261  24.411  25.838  1.00  0.00     0.029 A 
ATOM     50  N   UNL A   1      46.706  26.452  26.522  1.00  0.00    -0.354 N 
ATOM     51  N   UNL A   1      47.200  29.266  27.165  1.00  0.00    -0.248 NA
ATOM     52  C   UNL A   1      48.665  31.076  27.377  1.00  0.00     0.031 C 
ATOM     53  C   UNL A   1      48.417  25.202  25.856  1.00  0.00     0.029 A 
ATOM     54  C   UNL A   1      48.067  26.479  26.262  1.00  0.00     0.049 A 
ATOM     55  H   UNL A   1      46.176  27.221  26.836  1.00  0.00     0.167 HD
ATOM     56  C   UNL A   1      48.480  28.864  26.797  1.00  0.00     0.074 A 
ATOM     57  C   UNL A   1      49.334  30.027  26.919  1.00  0.00     0.031 C 
ATOM     58  C   UNL A   1      48.908  27.640  26.400  1.00  0.00     0.031 A 
BRANCH  45  59
ATOM     59  C   UNL A   1      44.438  23.373  26.180  1.00  0.00    -0.014 A 
ATOM     60  C   UNL A   1      43.329  22.781  26.810  1.00  0.00     0.010 A 
ATOM     61  C   UNL A   1      45.193  22.614  25.266  1.00  0.00     0.010 A 
ATOM     62  C   UNL A   1      43.008  21.442  26.564  1.00  0.00     0.020 A 
ATOM     63  C   UNL A   1      44.862  21.282  25.002  1.00  0.00     0.020 A 
ATOM     64  C   UNL A   1      43.784  20.698  25.669  1.00  0.00     0.054 A 
BRANCH  64  65
ATOM     65  S   UNL A   1      43.353  18.963  25.360  1.00  0.00     0.124 S 
ATOM     66  O   UNL A   1      44.369  18.255  26.136  1.00  0.00    -0.237 OA
ATOM     67  O   UNL A   1      41.990  18.866  25.878  1.00  0.00    -0.237 OA
ATOM     68  O   UNL A   1      43.473  18.828  23.910  1.00  0.00    -0.744 OA
ENDBRANCH  64  65
ENDBRANCH  45  59
BRANCH  46  69
ATOM     69  C   UNL A   1      46.553  32.898  28.263  1.00  0.00    -0.014 A 
ATOM     70  C   UNL A   1      46.455  33.890  27.273  1.00  0.00     0.010 A 
ATOM     71  C   UNL A   1      46.944  33.262  29.566  1.00  0.00     0.010 A 
ATOM     72  C   UNL A   1      46.752  35.222  27.578  1.00  0.00     0.020 A 
ATOM     73  C   UNL A   1      47.219  34.595  29.878  1.00  0.00     0.020 A 
ATOM     74  C   UNL A   1      47.130  35.566  28.879  1.00  0.00     0.054 A 
BRANCH  74  75
ATOM     75  S   UNL A   1      47.446  37.310  29.272  1.00  0.00     0.124 S 
ATOM     76  O   UNL A   1      46.753  37.996  28.186  1.00  0.00    -0.237 OA
ATOM     77  O   UNL A   1      46.844  37.454  30.596  1.00  0.00    -0.237 OA
ATOM     78  O   UNL A   1      48.904  37.405  29.246  1.00  0.00    -0.744 OA
ENDBRANCH  74  75
ENDBRANCH  46  69
BRANCH  58  79
ATOM     79  C   UNL A   1      50.366  27.507  26.052  1.00  0.00    -0.014 A 
ATOM     80  C   UNL A   1      50.822  27.735  24.741  1.00  0.00     0.010 A 
ATOM     81  C   UNL A   1      51.294  27.167  27.053  1.00  0.00     0.010 A 
ATOM     82  C   UNL A   1      52.176  27.581  24.427  1.00  0.00     0.020 A 
ATOM     83  C   UNL A   1      52.652  27.033  26.747  1.00  0.00     0.020 A 
ATOM     84  C   UNL A   1      53.080  27.222  25.430  1.00  0.00     0.054 A 
BRANCH  84  85
ATOM     85  S   UNL A   1      54.835  27.036  25.007  1.00  0.00     0.124 S 
ATOM     86  O   UNL A   1      55.086  28.245  24.227  1.00  0.00    -0.237 OA
ATOM     87  O   UNL A   1      55.482  26.986  26.314  1.00  0.00    -0.237 OA
ATOM     88  O   UNL A   1      54.876  25.786  24.251  1.00  0.00    -0.744 OA
ENDBRANCH  84  85
ENDBRANCH  58  79
ENDBRANCH  32  33
ENDBRANCH  25  27
ENDBRANCH  24  25
ENDBRANCH  23  24
ENDBRANCH  22  23
ENDBRANCH  21  22
ENDBRANCH   1  21
TORSDOF 21
ENDMDL
