MODEL 1
REMARK VINA RESULT:     -12.1      0.000      0.000
REMARK SMILES O=C(OCCOC(=O)c1ccccc1Nc1cccc(S(F)(F)(F)(F)F)c1)c1ccc(-c2c3nc(c(-c4ccc(S(=O)(=O)[O-])cc4)c4ccc([nH]4)c(-c4ccc(S(=O)(=O)[O-])cc4)c4nc(c(-c5ccc(S(=O)(=O)[O-])cc5)c5ccc2[nH]5)C=C4)C=C3)cc1
REMARK SMILES IDX 4 1 3 2 2 3 1 4 28 5 29 6 87 7 30 8 86 9 31 10 32 11 33 12
REMARK SMILES IDX 80 13 34 14 85 15 79 16 81 17 35 18 84 19 78 20 77 21 36 23
REMARK SMILES IDX 66 24 47 25 65 26 48 27 51 28 64 29 82 30 49 31 50 32 63 34
REMARK SMILES IDX 83 35 52 36 37 37 38 38 46 39 39 40 45 41 40 42 41 43 42 44
REMARK SMILES IDX 43 45 44 46 67 47 68 48 76 49 69 50 75 51 70 52 71 53 72 54
REMARK SMILES IDX 73 55 74 56 53 57 54 58 62 59 55 60 61 61 56 62 57 63 58 64
REMARK SMILES IDX 59 65 60 66 5 67 6 68 7 69 8 70 9 71 10 72 14 73 11 74 13 75
REMARK SMILES IDX 12 76 15 77 16 79 17 80 27 81 18 82 20 83 19 84 21 85 22 86
REMARK SMILES IDX 23 87 24 88 25 89 26 90
REMARK H PARENT 81 22 51 33 15 78
REMARK Flexibility Score: inf
ROOT
ATOM      1  C   UNL A   1      32.209  29.779  27.048  1.00  0.00     0.275 C 
ENDROOT
BRANCH   1   2
ATOM      2  O   UNL A   1      33.570  29.508  27.351  1.00  0.00    -0.458 OA
BRANCH   2   3
ATOM      3  C   UNL A   1      34.427  30.558  27.772  1.00  0.00     0.338 C 
ATOM      4  O   UNL A   1      34.018  31.762  27.744  1.00  0.00    -0.246 OA
BRANCH   3   5
ATOM      5  C   UNL A   1      35.833  30.244  28.255  1.00  0.00     0.060 A 
ATOM      6  C   UNL A   1      36.869  30.422  27.353  1.00  0.00     0.016 A 
ATOM      7  C   UNL A   1      36.045  29.701  29.449  1.00  0.00     0.016 A 
ATOM      8  C   UNL A   1      38.053  29.726  27.695  1.00  0.00     0.010 A 
ATOM      9  C   UNL A   1      37.268  29.160  29.764  1.00  0.00     0.010 A 
ATOM     10  C   UNL A   1      38.320  29.247  28.896  1.00  0.00    -0.014 A 
BRANCH  10  11
ATOM     11  C   UNL A   1      39.723  28.816  29.293  1.00  0.00     0.031 A 
ATOM     12  C   UNL A   1      40.221  27.569  28.914  1.00  0.00     0.074 A 
ATOM     13  C   UNL A   1      40.469  29.781  29.949  1.00  0.00     0.049 A 
ATOM     14  N   UNL A   1      41.462  27.107  29.073  1.00  0.00    -0.248 NA
ATOM     15  C   UNL A   1      39.421  26.530  28.248  1.00  0.00     0.031 C 
ATOM     16  C   UNL A   1      39.976  31.046  30.327  1.00  0.00     0.029 A 
ATOM     17  N   UNL A   1      41.785  29.706  30.346  1.00  0.00    -0.354 N 
ATOM     18  C   UNL A   1      41.564  25.876  28.565  1.00  0.00     0.074 A 
ATOM     19  C   UNL A   1      40.251  25.485  28.034  1.00  0.00     0.031 C 
ATOM     20  C   UNL A   1      40.976  31.718  30.955  1.00  0.00     0.029 A 
ATOM     21  C   UNL A   1      42.111  30.886  30.979  1.00  0.00     0.049 A 
ATOM     22  H   UNL A   1      42.388  28.941  30.205  1.00  0.00     0.167 HD
ATOM     23  C   UNL A   1      42.699  25.066  28.523  1.00  0.00     0.031 A 
ATOM     24  C   UNL A   1      43.325  31.235  31.550  1.00  0.00     0.031 A 
ATOM     25  C   UNL A   1      43.925  25.432  29.057  1.00  0.00     0.049 A 
ATOM     26  C   UNL A   1      44.445  30.401  31.561  1.00  0.00     0.074 A 
ATOM     27  C   UNL A   1      45.081  24.631  29.016  1.00  0.00     0.029 A 
ATOM     28  N   UNL A   1      44.244  26.602  29.710  1.00  0.00    -0.354 N 
ATOM     29  N   UNL A   1      44.557  29.187  31.018  1.00  0.00    -0.248 NA
ATOM     30  C   UNL A   1      45.725  30.746  32.192  1.00  0.00     0.031 C 
ATOM     31  C   UNL A   1      46.083  25.303  29.644  1.00  0.00     0.029 A 
ATOM     32  C   UNL A   1      45.567  26.536  30.089  1.00  0.00     0.049 A 
ATOM     33  H   UNL A   1      43.633  27.356  29.878  1.00  0.00     0.167 HD
ATOM     34  C   UNL A   1      45.787  28.708  31.214  1.00  0.00     0.074 A 
ATOM     35  C   UNL A   1      46.554  29.700  31.978  1.00  0.00     0.031 C 
ATOM     36  C   UNL A   1      46.302  27.484  30.783  1.00  0.00     0.031 A 
BRANCH  23  37
ATOM     37  C   UNL A   1      42.586  23.706  27.854  1.00  0.00    -0.014 A 
ATOM     38  C   UNL A   1      42.299  22.643  28.694  1.00  0.00     0.010 A 
ATOM     39  C   UNL A   1      42.680  23.540  26.540  1.00  0.00     0.010 A 
ATOM     40  C   UNL A   1      42.410  21.376  28.074  1.00  0.00     0.020 A 
ATOM     41  C   UNL A   1      42.644  22.282  25.990  1.00  0.00     0.020 A 
ATOM     42  C   UNL A   1      42.422  21.179  26.768  1.00  0.00     0.054 A 
BRANCH  42  43
ATOM     43  S   UNL A   1      42.159  19.540  26.048  1.00  0.00     0.124 S 
ATOM     44  O   UNL A   1      42.966  19.416  24.753  1.00  0.00    -0.237 OA
ATOM     45  O   UNL A   1      42.617  18.467  27.038  1.00  0.00    -0.237 OA
ATOM     46  O   UNL A   1      40.497  19.328  25.706  1.00  0.00    -0.744 OA
ENDBRANCH  42  43
ENDBRANCH  23  37
BRANCH  24  47
ATOM     47  C   UNL A   1      43.442  32.602  32.204  1.00  0.00    -0.014 A 
ATOM     48  C   UNL A   1      43.225  32.776  33.561  1.00  0.00     0.010 A 
ATOM     49  C   UNL A   1      43.672  33.637  31.405  1.00  0.00     0.010 A 
ATOM     50  C   UNL A   1      42.981  34.119  33.934  1.00  0.00     0.020 A 
ATOM     51  C   UNL A   1      43.547  34.923  31.872  1.00  0.00     0.020 A 
ATOM     52  C   UNL A   1      43.275  35.169  33.189  1.00  0.00     0.054 A 
BRANCH  52  53
ATOM     53  S   UNL A   1      43.317  36.844  33.875  1.00  0.00     0.124 S 
ATOM     54  O   UNL A   1      41.951  37.181  34.479  1.00  0.00    -0.237 OA
ATOM     55  O   UNL A   1      44.390  36.924  34.963  1.00  0.00    -0.237 OA
ATOM     56  O   UNL A   1      43.682  37.960  32.631  1.00  0.00    -0.744 OA
ENDBRANCH  52  53
ENDBRANCH  24  47
BRANCH  36  57
ATOM     57  C   UNL A   1      47.756  27.171  31.094  1.00  0.00    -0.014 A 
ATOM     58  C   UNL A   1      48.713  27.580  30.179  1.00  0.00     0.010 A 
ATOM     59  C   UNL A   1      48.088  26.460  32.164  1.00  0.00     0.010 A 
ATOM     60  C   UNL A   1      49.964  26.939  30.332  1.00  0.00     0.020 A 
ATOM     61  C   UNL A   1      49.366  25.978  32.316  1.00  0.00     0.020 A 
ATOM     62  C   UNL A   1      50.348  26.294  31.419  1.00  0.00     0.054 A 
BRANCH  62  63
ATOM     63  S   UNL A   1      52.079  25.851  31.705  1.00  0.00     0.124 S 
ATOM     64  O   UNL A   1      52.654  26.734  32.815  1.00  0.00    -0.237 OA
ATOM     65  O   UNL A   1      52.168  24.382  32.125  1.00  0.00    -0.237 OA
ATOM     66  O   UNL A   1      52.974  26.088  30.268  1.00  0.00    -0.744 OA
ENDBRANCH  62  63
ENDBRANCH  36  57
ENDBRANCH  10  11
ENDBRANCH   3   5
ENDBRANCH   2   3
ENDBRANCH   1   2
BRANCH   1  67
ATOM     67  C   UNL A   1      31.906  29.326  25.628  1.00  0.00     0.275 C 
BRANCH  67  68
ATOM     68  O   UNL A   1      33.047  29.537  24.810  1.00  0.00    -0.458 OA
BRANCH  68  69
ATOM     69  C   UNL A   1      33.307  28.669  23.716  1.00  0.00     0.340 C 
ATOM     70  O   UNL A   1      33.928  29.101  22.695  1.00  0.00    -0.246 OA
BRANCH  69  71
ATOM     71  C   UNL A   1      32.841  27.223  23.769  1.00  0.00     0.083 A 
ATOM     72  C   UNL A   1      33.424  26.326  24.649  1.00  0.00     0.018 A 
ATOM     73  C   UNL A   1      31.988  26.817  22.836  1.00  0.00     0.053 A 
ATOM     74  C   UNL A   1      33.260  24.970  24.280  1.00  0.00     0.001 A 
ATOM     75  C   UNL A   1      31.774  25.477  22.620  1.00  0.00     0.027 A 
ATOM     76  C   UNL A   1      32.363  24.533  23.415  1.00  0.00     0.002 A 
BRANCH  73  77
ATOM     77  N   UNL A   1      31.265  27.810  22.029  1.00  0.00    -0.355 N 
ATOM     78  H   UNL A   1      31.593  28.049  21.133  1.00  0.00     0.167 HD
BRANCH  77  79
ATOM     79  C   UNL A   1      30.052  28.448  22.561  1.00  0.00     0.040 A 
ATOM     80  C   UNL A   1      29.020  27.657  23.041  1.00  0.00     0.026 A 
ATOM     81  C   UNL A   1      29.961  29.772  22.560  1.00  0.00     0.050 A 
ATOM     82  C   UNL A   1      27.804  28.356  23.231  1.00  0.00     0.004 A 
ATOM     83  C   UNL A   1      28.779  30.393  22.888  1.00  0.00     0.109 A 
ATOM     84  C   UNL A   1      27.700  29.669  23.314  1.00  0.00     0.024 A 
BRANCH  83  85
ATOM     85  S   UNL A   1      28.650  32.193  22.757  1.00  0.00     0.310 S 
ATOM     86  F   UNL A   1      27.251  32.048  23.491  1.00  0.00    -0.094 F 
ATOM     87  F   UNL A   1      27.865  32.112  21.393  1.00  0.00    -0.094 F 
ATOM     88  F   UNL A   1      28.450  33.734  22.814  1.00  0.00    -0.094 F 
ATOM     89  F   UNL A   1      29.314  32.236  24.190  1.00  0.00    -0.094 F 
ATOM     90  F   UNL A   1      28.761  30.616  22.769  1.00  0.00    -0.094 F 
ENDBRANCH  83  85
ENDBRANCH  77  79
ENDBRANCH  73  77
ENDBRANCH  69  71
ENDBRANCH  68  69
ENDBRANCH  67  68
ENDBRANCH   1  67
TORSDOF 17
ENDMDL
MODEL 2
REMARK VINA RESULT:     -11.7      0.693      8.145
REMARK SMILES O=C(OCCOC(=O)c1ccccc1Nc1cccc(S(F)(F)(F)(F)F)c1)c1ccc(-c2c3nc(c(-c4ccc(S(=O)(=O)[O-])cc4)c4ccc([nH]4)c(-c4ccc(S(=O)(=O)[O-])cc4)c4nc(c(-c5ccc(S(=O)(=O)[O-])cc5)c5ccc2[nH]5)C=C4)C=C3)cc1
REMARK SMILES IDX 4 1 3 2 2 3 1 4 28 5 29 6 87 7 30 8 86 9 31 10 32 11 33 12
REMARK SMILES IDX 80 13 34 14 85 15 79 16 81 17 35 18 84 19 78 20 77 21 36 23
REMARK SMILES IDX 66 24 47 25 65 26 48 27 51 28 64 29 82 30 49 31 50 32 63 34
REMARK SMILES IDX 83 35 52 36 37 37 38 38 46 39 39 40 45 41 40 42 41 43 42 44
REMARK SMILES IDX 43 45 44 46 67 47 68 48 76 49 69 50 75 51 70 52 71 53 72 54
REMARK SMILES IDX 73 55 74 56 53 57 54 58 62 59 55 60 61 61 56 62 57 63 58 64
REMARK SMILES IDX 59 65 60 66 5 67 6 68 7 69 8 70 9 71 10 72 14 73 11 74 13 75
REMARK SMILES IDX 12 76 15 77 16 79 17 80 27 81 18 82 20 83 19 84 21 85 22 86
REMARK SMILES IDX 23 87 24 88 25 89 26 90
REMARK H PARENT 81 22 51 33 15 78
REMARK Flexibility Score: inf
ROOT
ATOM      1  C   UNL A   1      32.180  29.748  26.995  1.00  0.00     0.275 C 
ENDROOT
BRANCH   1   2
ATOM      2  O   UNL A   1      33.478  29.307  27.365  1.00  0.00    -0.458 OA
BRANCH   2   3
ATOM      3  C   UNL A   1      34.478  30.253  27.710  1.00  0.00     0.338 C 
ATOM      4  O   UNL A   1      34.192  31.490  27.760  1.00  0.00    -0.246 OA
BRANCH   3   5
ATOM      5  C   UNL A   1      35.891  29.786  28.020  1.00  0.00     0.060 A 
ATOM      6  C   UNL A   1      36.149  29.355  29.311  1.00  0.00     0.016 A 
ATOM      7  C   UNL A   1      36.867  29.906  27.127  1.00  0.00     0.016 A 
ATOM      8  C   UNL A   1      37.522  29.349  29.650  1.00  0.00     0.010 A 
ATOM      9  C   UNL A   1      38.180  29.755  27.501  1.00  0.00     0.010 A 
ATOM     10  C   UNL A   1      38.510  29.388  28.775  1.00  0.00    -0.014 A 
BRANCH  10  11
ATOM     11  C   UNL A   1      39.939  29.041  29.164  1.00  0.00     0.031 A 
ATOM     12  C   UNL A   1      40.720  29.943  29.889  1.00  0.00     0.074 A 
ATOM     13  C   UNL A   1      40.340  27.757  28.837  1.00  0.00     0.049 A 
ATOM     14  N   UNL A   1      41.930  29.734  30.409  1.00  0.00    -0.248 NA
ATOM     15  C   UNL A   1      40.309  31.318  30.208  1.00  0.00     0.031 C 
ATOM     16  C   UNL A   1      39.555  26.839  28.113  1.00  0.00     0.029 A 
ATOM     17  N   UNL A   1      41.535  27.143  29.138  1.00  0.00    -0.354 N 
ATOM     18  C   UNL A   1      42.350  30.827  31.052  1.00  0.00     0.074 A 
ATOM     19  C   UNL A   1      41.316  31.863  30.925  1.00  0.00     0.031 C 
ATOM     20  C   UNL A   1      40.270  25.692  27.970  1.00  0.00     0.029 A 
ATOM     21  C   UNL A   1      41.514  25.874  28.602  1.00  0.00     0.049 A 
ATOM     22  H   UNL A   1      42.277  27.543  29.648  1.00  0.00     0.167 HD
ATOM     23  C   UNL A   1      43.553  30.998  31.738  1.00  0.00     0.031 A 
ATOM     24  C   UNL A   1      42.515  24.916  28.650  1.00  0.00     0.031 A 
ATOM     25  C   UNL A   1      44.535  30.025  31.823  1.00  0.00     0.049 A 
ATOM     26  C   UNL A   1      43.743  25.108  29.287  1.00  0.00     0.074 A 
ATOM     27  C   UNL A   1      45.749  30.179  32.518  1.00  0.00     0.029 A 
ATOM     28  N   UNL A   1      44.524  28.765  31.266  1.00  0.00    -0.354 N 
ATOM     29  N   UNL A   1      44.145  26.186  29.963  1.00  0.00    -0.248 NA
ATOM     30  C   UNL A   1      44.822  24.113  29.317  1.00  0.00     0.031 C 
ATOM     31  C   UNL A   1      46.466  29.031  32.375  1.00  0.00     0.029 A 
ATOM     32  C   UNL A   1      45.710  28.142  31.587  1.00  0.00     0.049 A 
ATOM     33  H   UNL A   1      43.794  28.376  30.731  1.00  0.00     0.167 HD
ATOM     34  C   UNL A   1      45.373  25.992  30.448  1.00  0.00     0.074 A 
ATOM     35  C   UNL A   1      45.829  24.659  30.034  1.00  0.00     0.031 C 
ATOM     36  C   UNL A   1      46.130  26.872  31.223  1.00  0.00     0.031 A 
BRANCH  23  37
ATOM     37  C   UNL A   1      43.799  32.328  32.433  1.00  0.00    -0.014 A 
ATOM     38  C   UNL A   1      43.379  32.407  33.750  1.00  0.00     0.010 A 
ATOM     39  C   UNL A   1      44.442  33.335  31.853  1.00  0.00     0.010 A 
ATOM     40  C   UNL A   1      43.431  33.714  34.291  1.00  0.00     0.020 A 
ATOM     41  C   UNL A   1      44.575  34.542  32.494  1.00  0.00     0.020 A 
ATOM     42  C   UNL A   1      44.130  34.710  33.777  1.00  0.00     0.054 A 
BRANCH  42  43
ATOM     43  S   UNL A   1      44.481  36.215  34.719  1.00  0.00     0.124 S 
ATOM     44  O   UNL A   1      45.984  36.505  34.676  1.00  0.00    -0.237 OA
ATOM     45  O   UNL A   1      43.717  37.391  34.106  1.00  0.00    -0.237 OA
ATOM     46  O   UNL A   1      43.988  35.999  36.342  1.00  0.00    -0.744 OA
ENDBRANCH  42  43
ENDBRANCH  23  37
BRANCH  24  47
ATOM     47  C   UNL A   1      42.261  23.580  27.971  1.00  0.00    -0.014 A 
ATOM     48  C   UNL A   1      41.506  22.591  28.579  1.00  0.00     0.010 A 
ATOM     49  C   UNL A   1      42.869  23.367  26.810  1.00  0.00     0.010 A 
ATOM     50  C   UNL A   1      41.691  21.304  28.020  1.00  0.00     0.020 A 
ATOM     51  C   UNL A   1      42.895  22.111  26.254  1.00  0.00     0.020 A 
ATOM     52  C   UNL A   1      42.220  21.072  26.832  1.00  0.00     0.054 A 
BRANCH  52  53
ATOM     53  S   UNL A   1      42.060  19.466  26.014  1.00  0.00     0.124 S 
ATOM     54  O   UNL A   1      40.589  19.213  25.671  1.00  0.00    -0.237 OA
ATOM     55  O   UNL A   1      42.890  19.462  24.729  1.00  0.00    -0.237 OA
ATOM     56  O   UNL A   1      42.621  18.234  27.059  1.00  0.00    -0.744 OA
ENDBRANCH  52  53
ENDBRANCH  24  47
BRANCH  36  57
ATOM     57  C   UNL A   1      47.499  26.411  31.697  1.00  0.00    -0.014 A 
ATOM     58  C   UNL A   1      48.548  26.474  30.794  1.00  0.00     0.010 A 
ATOM     59  C   UNL A   1      47.663  25.890  32.907  1.00  0.00     0.010 A 
ATOM     60  C   UNL A   1      49.668  25.693  31.162  1.00  0.00     0.020 A 
ATOM     61  C   UNL A   1      48.836  25.260  33.245  1.00  0.00     0.020 A 
ATOM     62  C   UNL A   1      49.894  25.232  32.379  1.00  0.00     0.054 A 
BRANCH  62  63
ATOM     63  S   UNL A   1      51.515  24.599  32.874  1.00  0.00     0.124 S 
ATOM     64  O   UNL A   1      52.613  25.467  32.256  1.00  0.00    -0.237 OA
ATOM     65  O   UNL A   1      51.633  24.638  34.400  1.00  0.00    -0.237 OA
ATOM     66  O   UNL A   1      51.688  22.987  32.331  1.00  0.00    -0.744 OA
ENDBRANCH  62  63
ENDBRANCH  36  57
ENDBRANCH  10  11
ENDBRANCH   3   5
ENDBRANCH   2   3
ENDBRANCH   1   2
BRANCH   1  67
ATOM     67  C   UNL A   1      31.964  29.501  25.511  1.00  0.00     0.275 C 
BRANCH  67  68
ATOM     68  O   UNL A   1      33.222  29.404  24.859  1.00  0.00    -0.458 OA
BRANCH  68  69
ATOM     69  C   UNL A   1      33.373  28.553  23.732  1.00  0.00     0.340 C 
ATOM     70  O   UNL A   1      33.956  28.980  22.687  1.00  0.00    -0.246 OA
BRANCH  69  71
ATOM     71  C   UNL A   1      32.837  27.131  23.777  1.00  0.00     0.083 A 
ATOM     72  C   UNL A   1      33.387  26.197  24.640  1.00  0.00     0.018 A 
ATOM     73  C   UNL A   1      31.950  26.777  22.854  1.00  0.00     0.053 A 
ATOM     74  C   UNL A   1      33.151  24.855  24.260  1.00  0.00     0.001 A 
ATOM     75  C   UNL A   1      31.668  25.452  22.628  1.00  0.00     0.027 A 
ATOM     76  C   UNL A   1      32.220  24.472  23.404  1.00  0.00     0.002 A 
BRANCH  73  77
ATOM     77  N   UNL A   1      31.266  27.813  22.068  1.00  0.00    -0.355 N 
ATOM     78  H   UNL A   1      31.626  28.087  21.194  1.00  0.00     0.167 HD
BRANCH  77  79
ATOM     79  C   UNL A   1      30.044  28.443  22.588  1.00  0.00     0.040 A 
ATOM     80  C   UNL A   1      29.013  27.647  23.057  1.00  0.00     0.026 A 
ATOM     81  C   UNL A   1      29.944  29.767  22.585  1.00  0.00     0.050 A 
ATOM     82  C   UNL A   1      27.790  28.337  23.235  1.00  0.00     0.004 A 
ATOM     83  C   UNL A   1      28.755  30.380  22.902  1.00  0.00     0.109 A 
ATOM     84  C   UNL A   1      27.676  29.650  23.317  1.00  0.00     0.024 A 
BRANCH  83  85
ATOM     85  S   UNL A   1      28.616  32.179  22.770  1.00  0.00     0.310 S 
ATOM     86  F   UNL A   1      27.236  32.031  23.537  1.00  0.00    -0.094 F 
ATOM     87  F   UNL A   1      27.799  32.092  21.425  1.00  0.00    -0.094 F 
ATOM     88  F   UNL A   1      28.411  33.720  22.827  1.00  0.00    -0.094 F 
ATOM     89  F   UNL A   1      29.314  32.229  24.186  1.00  0.00    -0.094 F 
ATOM     90  F   UNL A   1      28.733  30.603  22.782  1.00  0.00    -0.094 F 
ENDBRANCH  83  85
ENDBRANCH  77  79
ENDBRANCH  73  77
ENDBRANCH  69  71
ENDBRANCH  68  69
ENDBRANCH  67  68
ENDBRANCH   1  67
TORSDOF 17
ENDMDL
MODEL 3
REMARK VINA RESULT:     -11.5      3.441      4.493
REMARK SMILES O=C(OCCOC(=O)c1ccccc1Nc1cccc(S(F)(F)(F)(F)F)c1)c1ccc(-c2c3nc(c(-c4ccc(S(=O)(=O)[O-])cc4)c4ccc([nH]4)c(-c4ccc(S(=O)(=O)[O-])cc4)c4nc(c(-c5ccc(S(=O)(=O)[O-])cc5)c5ccc2[nH]5)C=C4)C=C3)cc1
REMARK SMILES IDX 4 1 3 2 2 3 1 4 28 5 29 6 87 7 30 8 86 9 31 10 32 11 33 12
REMARK SMILES IDX 80 13 34 14 85 15 79 16 81 17 35 18 84 19 78 20 77 21 36 23
REMARK SMILES IDX 66 24 47 25 65 26 48 27 51 28 64 29 82 30 49 31 50 32 63 34
REMARK SMILES IDX 83 35 52 36 37 37 38 38 46 39 39 40 45 41 40 42 41 43 42 44
REMARK SMILES IDX 43 45 44 46 67 47 68 48 76 49 69 50 75 51 70 52 71 53 72 54
REMARK SMILES IDX 73 55 74 56 53 57 54 58 62 59 55 60 61 61 56 62 57 63 58 64
REMARK SMILES IDX 59 65 60 66 5 67 6 68 7 69 8 70 9 71 10 72 14 73 11 74 13 75
REMARK SMILES IDX 12 76 15 77 16 79 17 80 27 81 18 82 20 83 19 84 21 85 22 86
REMARK SMILES IDX 23 87 24 88 25 89 26 90
REMARK H PARENT 81 22 51 33 15 78
REMARK Flexibility Score: inf
ROOT
ATOM      1  C   UNL A   1      32.453  29.739  27.232  1.00  0.00     0.275 C 
ENDROOT
BRANCH   1   2
ATOM      2  O   UNL A   1      33.868  29.632  27.273  1.00  0.00    -0.458 OA
BRANCH   2   3
ATOM      3  C   UNL A   1      34.630  30.567  28.021  1.00  0.00     0.338 C 
ATOM      4  O   UNL A   1      34.110  31.672  28.375  1.00  0.00    -0.246 OA
BRANCH   3   5
ATOM      5  C   UNL A   1      36.067  30.248  28.399  1.00  0.00     0.060 A 
ATOM      6  C   UNL A   1      37.035  30.430  27.426  1.00  0.00     0.016 A 
ATOM      7  C   UNL A   1      36.363  29.695  29.571  1.00  0.00     0.016 A 
ATOM      8  C   UNL A   1      38.239  29.730  27.676  1.00  0.00     0.010 A 
ATOM      9  C   UNL A   1      37.604  29.150  29.792  1.00  0.00     0.010 A 
ATOM     10  C   UNL A   1      38.591  29.241  28.852  1.00  0.00    -0.014 A 
BRANCH  10  11
ATOM     11  C   UNL A   1      40.018  28.806  29.143  1.00  0.00     0.031 A 
ATOM     12  C   UNL A   1      40.454  27.522  28.813  1.00  0.00     0.074 A 
ATOM     13  C   UNL A   1      40.842  29.797  29.648  1.00  0.00     0.049 A 
ATOM     14  N   UNL A   1      41.696  27.041  28.886  1.00  0.00    -0.248 NA
ATOM     15  C   UNL A   1      39.574  26.457  28.308  1.00  0.00     0.031 C 
ATOM     16  C   UNL A   1      40.412  31.098  29.976  1.00  0.00     0.029 A 
ATOM     17  N   UNL A   1      42.189  29.718  29.922  1.00  0.00    -0.354 N 
ATOM     18  C   UNL A   1      41.725  25.774  28.465  1.00  0.00     0.074 A 
ATOM     19  C   UNL A   1      40.360  25.379  28.095  1.00  0.00     0.031 C 
ATOM     20  C   UNL A   1      41.481  31.789  30.451  1.00  0.00     0.029 A 
ATOM     21  C   UNL A   1      42.598  30.933  30.428  1.00  0.00     0.049 A 
ATOM     22  H   UNL A   1      42.761  28.929  29.782  1.00  0.00     0.167 HD
ATOM     23  C   UNL A   1      42.837  24.935  28.376  1.00  0.00     0.031 A 
ATOM     24  C   UNL A   1      43.868  31.292  30.853  1.00  0.00     0.031 A 
ATOM     25  C   UNL A   1      44.115  25.307  28.760  1.00  0.00     0.049 A 
ATOM     26  C   UNL A   1      44.968  30.433  30.818  1.00  0.00     0.074 A 
ATOM     27  C   UNL A   1      45.247  24.476  28.669  1.00  0.00     0.029 A 
ATOM     28  N   UNL A   1      44.518  26.514  29.289  1.00  0.00    -0.354 N 
ATOM     29  N   UNL A   1      45.005  29.179  30.361  1.00  0.00    -0.248 NA
ATOM     30  C   UNL A   1      46.310  30.791  31.295  1.00  0.00     0.031 C 
ATOM     31  C   UNL A   1      46.318  25.168  29.144  1.00  0.00     0.029 A 
ATOM     32  C   UNL A   1      45.870  26.442  29.542  1.00  0.00     0.049 A 
ATOM     33  H   UNL A   1      43.940  27.293  29.457  1.00  0.00     0.167 HD
ATOM     34  C   UNL A   1      46.239  28.685  30.473  1.00  0.00     0.074 A 
ATOM     35  C   UNL A   1      47.095  29.712  31.082  1.00  0.00     0.031 C 
ATOM     36  C   UNL A   1      46.687  27.420  30.088  1.00  0.00     0.031 A 
BRANCH  23  37
ATOM     37  C   UNL A   1      42.634  23.532  27.826  1.00  0.00    -0.014 A 
ATOM     38  C   UNL A   1      42.710  23.408  26.449  1.00  0.00     0.010 A 
ATOM     39  C   UNL A   1      42.468  22.470  28.606  1.00  0.00     0.010 A 
ATOM     40  C   UNL A   1      42.309  22.139  25.965  1.00  0.00     0.020 A 
ATOM     41  C   UNL A   1      42.214  21.235  28.061  1.00  0.00     0.020 A 
ATOM     42  C   UNL A   1      42.216  21.050  26.705  1.00  0.00     0.054 A 
BRANCH  42  43
ATOM     43  S   UNL A   1      42.098  19.402  25.967  1.00  0.00     0.124 S 
ATOM     44  O   UNL A   1      40.642  19.115  25.590  1.00  0.00    -0.237 OA
ATOM     45  O   UNL A   1      42.971  19.341  24.712  1.00  0.00    -0.237 OA
ATOM     46  O   UNL A   1      42.636  18.233  27.093  1.00  0.00    -0.744 OA
ENDBRANCH  42  43
ENDBRANCH  23  37
BRANCH  24  47
ATOM     47  C   UNL A   1      44.073  32.700  31.386  1.00  0.00    -0.014 A 
ATOM     48  C   UNL A   1      44.476  33.735  30.560  1.00  0.00     0.010 A 
ATOM     49  C   UNL A   1      43.940  32.875  32.696  1.00  0.00     0.010 A 
ATOM     50  C   UNL A   1      44.997  34.853  31.253  1.00  0.00     0.020 A 
ATOM     51  C   UNL A   1      44.346  34.047  33.290  1.00  0.00     0.020 A 
ATOM     52  C   UNL A   1      44.810  35.091  32.539  1.00  0.00     0.054 A 
BRANCH  52  53
ATOM     53  S   UNL A   1      45.148  36.713  33.268  1.00  0.00     0.124 S 
ATOM     54  O   UNL A   1      44.853  36.667  34.770  1.00  0.00    -0.237 OA
ATOM     55  O   UNL A   1      46.618  37.076  33.048  1.00  0.00    -0.237 OA
ATOM     56  O   UNL A   1      44.153  37.890  32.528  1.00  0.00    -0.744 OA
ENDBRANCH  52  53
ENDBRANCH  24  47
BRANCH  36  57
ATOM     57  C   UNL A   1      48.159  27.095  30.280  1.00  0.00    -0.014 A 
ATOM     58  C   UNL A   1      48.533  26.474  31.461  1.00  0.00     0.010 A 
ATOM     59  C   UNL A   1      49.063  27.467  29.382  1.00  0.00     0.010 A 
ATOM     60  C   UNL A   1      49.918  26.549  31.735  1.00  0.00     0.020 A 
ATOM     61  C   UNL A   1      50.405  27.386  29.665  1.00  0.00     0.020 A 
ATOM     62  C   UNL A   1      50.845  26.838  30.839  1.00  0.00     0.054 A 
BRANCH  62  63
ATOM     63  S   UNL A   1      52.600  26.525  31.146  1.00  0.00     0.124 S 
ATOM     64  O   UNL A   1      52.746  25.375  32.145  1.00  0.00    -0.237 OA
ATOM     65  O   UNL A   1      53.289  26.149  29.832  1.00  0.00    -0.237 OA
ATOM     66  O   UNL A   1      53.327  27.934  31.787  1.00  0.00    -0.744 OA
ENDBRANCH  62  63
ENDBRANCH  36  57
ENDBRANCH  10  11
ENDBRANCH   3   5
ENDBRANCH   2   3
ENDBRANCH   1   2
BRANCH   1  67
ATOM     67  C   UNL A   1      31.992  29.822  25.785  1.00  0.00     0.275 C 
BRANCH  67  68
ATOM     68  O   UNL A   1      32.906  29.119  24.956  1.00  0.00    -0.458 OA
BRANCH  68  69
ATOM     69  C   UNL A   1      32.422  28.285  23.914  1.00  0.00     0.340 C 
ATOM     70  O   UNL A   1      32.723  28.537  22.706  1.00  0.00    -0.246 OA
BRANCH  69  71
ATOM     71  C   UNL A   1      31.543  27.089  24.246  1.00  0.00     0.083 A 
ATOM     72  C   UNL A   1      30.211  27.065  23.864  1.00  0.00     0.018 A 
ATOM     73  C   UNL A   1      32.046  26.159  25.049  1.00  0.00     0.053 A 
ATOM     74  C   UNL A   1      29.414  26.173  24.618  1.00  0.00     0.001 A 
ATOM     75  C   UNL A   1      31.225  25.234  25.647  1.00  0.00     0.027 A 
ATOM     76  C   UNL A   1      29.889  25.189  25.361  1.00  0.00     0.002 A 
BRANCH  73  77
ATOM     77  N   UNL A   1      33.493  26.120  25.301  1.00  0.00    -0.355 N 
ATOM     78  H   UNL A   1      33.908  26.787  25.894  1.00  0.00     0.167 HD
BRANCH  77  79
ATOM     79  C   UNL A   1      34.322  25.086  24.665  1.00  0.00     0.040 A 
ATOM     80  C   UNL A   1      34.000  24.639  23.395  1.00  0.00     0.026 A 
ATOM     81  C   UNL A   1      35.360  24.588  25.328  1.00  0.00     0.050 A 
ATOM     82  C   UNL A   1      34.664  23.447  23.020  1.00  0.00     0.004 A 
ATOM     83  C   UNL A   1      36.049  23.505  24.836  1.00  0.00     0.109 A 
ATOM     84  C   UNL A   1      35.745  22.975  23.613  1.00  0.00     0.024 A 
BRANCH  83  85
ATOM     85  S   UNL A   1      37.379  22.772  25.820  1.00  0.00     0.310 S 
ATOM     86  F   UNL A   1      37.835  22.049  24.484  1.00  0.00    -0.094 F 
ATOM     87  F   UNL A   1      36.530  21.485  26.145  1.00  0.00    -0.094 F 
ATOM     88  F   UNL A   1      38.629  22.155  26.508  1.00  0.00    -0.094 F 
ATOM     89  F   UNL A   1      38.251  24.007  25.363  1.00  0.00    -0.094 F 
ATOM     90  F   UNL A   1      36.150  23.361  25.019  1.00  0.00    -0.094 F 
ENDBRANCH  83  85
ENDBRANCH  77  79
ENDBRANCH  73  77
ENDBRANCH  69  71
ENDBRANCH  68  69
ENDBRANCH  67  68
ENDBRANCH   1  67
TORSDOF 17
ENDMDL
