MODEL 1
REMARK VINA RESULT:     -11.4      0.000      0.000
REMARK SMILES O=C(OCCOC(=O)[C@@H]1CCCC[C@@H]1C(=O)Nc1nc(-c2ccc(Cl)c(Cl)c2)cs1)c1ccc(-c2c3nc(c(-c4ccc(S(=O)(=O)[O-])cc4)c4ccc([nH]4)c(-c4ccc(S(=O)(=O)[O-])cc4)c4nc(c(-c5ccc(S(=O)(=O)[O-])cc5)c5ccc2[nH]5)C=C4)C=C3)cc1
REMARK SMILES IDX 4 1 3 2 2 3 1 4 31 5 32 6 90 7 33 8 89 9 34 10 35 11 36 12
REMARK SMILES IDX 83 13 37 14 88 15 82 16 84 17 38 18 87 19 81 20 80 21 39 23
REMARK SMILES IDX 69 24 50 25 68 26 51 27 54 28 67 29 85 30 52 31 53 32 66 34
REMARK SMILES IDX 86 35 55 36 40 37 41 38 49 39 42 40 48 41 43 42 44 43 45 44
REMARK SMILES IDX 46 45 47 46 70 47 71 48 79 49 72 50 78 51 73 52 74 53 75 54
REMARK SMILES IDX 76 55 77 56 56 57 57 58 65 59 58 60 64 61 59 62 60 63 61 64
REMARK SMILES IDX 62 65 63 66 5 67 6 68 7 69 8 70 9 71 10 72 14 73 11 74 13 75
REMARK SMILES IDX 12 76 15 77 16 78 17 79 18 81 19 82 30 83 20 84 29 85 21 86
REMARK SMILES IDX 22 87 28 88 23 89 26 90 24 91 27 92 25 93
REMARK H PARENT 84 22 54 33 17 80
REMARK Flexibility Score: inf
ROOT
ATOM      1  C   UNL A   1      38.561  23.386  26.221  1.00  0.00     0.275 C 
ENDROOT
BRANCH   1   2
ATOM      2  O   UNL A   1      39.270  24.129  27.219  1.00  0.00    -0.458 OA
BRANCH   2   3
ATOM      3  C   UNL A   1      39.739  25.399  27.148  1.00  0.00     0.338 C 
ATOM      4  O   UNL A   1      40.406  25.719  26.165  1.00  0.00    -0.246 OA
BRANCH   3   5
ATOM      5  C   UNL A   1      39.607  26.388  28.270  1.00  0.00     0.060 A 
ATOM      6  C   UNL A   1      38.821  26.264  29.427  1.00  0.00     0.016 A 
ATOM      7  C   UNL A   1      40.408  27.531  28.155  1.00  0.00     0.016 A 
ATOM      8  C   UNL A   1      38.933  27.164  30.502  1.00  0.00     0.010 A 
ATOM      9  C   UNL A   1      40.541  28.417  29.230  1.00  0.00     0.010 A 
ATOM     10  C   UNL A   1      39.828  28.225  30.433  1.00  0.00    -0.014 A 
BRANCH  10  11
ATOM     11  C   UNL A   1      39.952  29.249  31.506  1.00  0.00     0.031 A 
ATOM     12  C   UNL A   1      41.007  28.971  32.535  1.00  0.00     0.074 A 
ATOM     13  C   UNL A   1      39.111  30.295  31.662  1.00  0.00     0.049 A 
ATOM     14  N   UNL A   1      41.187  29.503  33.711  1.00  0.00    -0.248 NA
ATOM     15  C   UNL A   1      41.950  27.884  32.206  1.00  0.00     0.031 C 
ATOM     16  C   UNL A   1      38.057  30.715  30.739  1.00  0.00     0.029 A 
ATOM     17  N   UNL A   1      38.972  31.173  32.717  1.00  0.00    -0.354 N 
ATOM     18  C   UNL A   1      42.240  28.788  34.262  1.00  0.00     0.074 A 
ATOM     19  C   UNL A   1      42.540  27.696  33.370  1.00  0.00     0.031 C 
ATOM     20  C   UNL A   1      37.315  31.684  31.308  1.00  0.00     0.029 A 
ATOM     21  C   UNL A   1      37.868  31.996  32.620  1.00  0.00     0.049 A 
ATOM     22  H   UNL A   1      39.602  31.208  33.472  1.00  0.00     0.167 HD
ATOM     23  C   UNL A   1      42.964  29.065  35.368  1.00  0.00     0.031 A 
ATOM     24  C   UNL A   1      37.367  32.903  33.487  1.00  0.00     0.031 A 
ATOM     25  C   UNL A   1      42.688  30.181  36.218  1.00  0.00     0.049 A 
ATOM     26  C   UNL A   1      38.141  33.182  34.751  1.00  0.00     0.074 A 
ATOM     27  C   UNL A   1      43.390  30.621  37.322  1.00  0.00     0.029 A 
ATOM     28  N   UNL A   1      41.613  31.042  36.043  1.00  0.00    -0.354 N 
ATOM     29  N   UNL A   1      39.209  32.572  35.211  1.00  0.00    -0.248 NA
ATOM     30  C   UNL A   1      37.688  34.308  35.582  1.00  0.00     0.031 C 
ATOM     31  C   UNL A   1      42.712  31.727  37.841  1.00  0.00     0.029 A 
ATOM     32  C   UNL A   1      41.624  32.010  37.024  1.00  0.00     0.049 A 
ATOM     33  H   UNL A   1      40.944  30.971  35.325  1.00  0.00     0.167 HD
ATOM     34  C   UNL A   1      39.598  33.284  36.340  1.00  0.00     0.074 A 
ATOM     35  C   UNL A   1      38.635  34.353  36.513  1.00  0.00     0.031 C 
ATOM     36  C   UNL A   1      40.671  33.086  37.144  1.00  0.00     0.031 A 
BRANCH  23  37
ATOM     37  C   UNL A   1      44.116  28.142  35.651  1.00  0.00    -0.014 A 
ATOM     38  C   UNL A   1      43.949  27.023  36.492  1.00  0.00     0.010 A 
ATOM     39  C   UNL A   1      45.399  28.463  35.181  1.00  0.00     0.010 A 
ATOM     40  C   UNL A   1      45.057  26.317  36.956  1.00  0.00     0.020 A 
ATOM     41  C   UNL A   1      46.508  27.726  35.606  1.00  0.00     0.020 A 
ATOM     42  C   UNL A   1      46.333  26.686  36.523  1.00  0.00     0.054 A 
BRANCH  42  43
ATOM     43  S   UNL A   1      47.762  25.795  37.191  1.00  0.00     0.124 S 
ATOM     44  O   UNL A   1      48.775  26.043  36.168  1.00  0.00    -0.237 OA
ATOM     45  O   UNL A   1      47.988  26.462  38.471  1.00  0.00    -0.237 OA
ATOM     46  O   UNL A   1      47.294  24.414  37.284  1.00  0.00    -0.744 OA
ENDBRANCH  42  43
ENDBRANCH  23  37
BRANCH  24  47
ATOM     47  C   UNL A   1      36.127  33.669  33.162  1.00  0.00    -0.014 A 
ATOM     48  C   UNL A   1      34.862  33.175  33.533  1.00  0.00     0.010 A 
ATOM     49  C   UNL A   1      36.195  34.899  32.479  1.00  0.00     0.010 A 
ATOM     50  C   UNL A   1      33.695  33.882  33.219  1.00  0.00     0.020 A 
ATOM     51  C   UNL A   1      35.030  35.619  32.178  1.00  0.00     0.020 A 
ATOM     52  C   UNL A   1      33.785  35.104  32.547  1.00  0.00     0.054 A 
BRANCH  52  53
ATOM     53  S   UNL A   1      32.256  36.025  32.205  1.00  0.00     0.124 S 
ATOM     54  O   UNL A   1      31.225  35.057  32.567  1.00  0.00    -0.237 OA
ATOM     55  O   UNL A   1      32.383  37.177  33.095  1.00  0.00    -0.237 OA
ATOM     56  O   UNL A   1      32.353  36.334  30.780  1.00  0.00    -0.744 OA
ENDBRANCH  52  53
ENDBRANCH  24  47
BRANCH  36  57
ATOM     57  C   UNL A   1      40.938  34.082  38.238  1.00  0.00    -0.014 A 
ATOM     58  C   UNL A   1      41.666  35.256  37.994  1.00  0.00     0.010 A 
ATOM     59  C   UNL A   1      40.285  33.913  39.474  1.00  0.00     0.010 A 
ATOM     60  C   UNL A   1      41.718  36.259  38.966  1.00  0.00     0.020 A 
ATOM     61  C   UNL A   1      40.312  34.923  40.434  1.00  0.00     0.020 A 
ATOM     62  C   UNL A   1      41.025  36.093  40.171  1.00  0.00     0.054 A 
BRANCH  62  63
ATOM     63  S   UNL A   1      40.988  37.469  41.351  1.00  0.00     0.124 S 
ATOM     64  O   UNL A   1      39.701  37.270  42.011  1.00  0.00    -0.237 OA
ATOM     65  O   UNL A   1      42.165  37.212  42.177  1.00  0.00    -0.237 OA
ATOM     66  O   UNL A   1      41.077  38.657  40.503  1.00  0.00    -0.744 OA
ENDBRANCH  62  63
ENDBRANCH  36  57
ENDBRANCH  10  11
ENDBRANCH   3   5
ENDBRANCH   2   3
ENDBRANCH   1   2
BRANCH   1  67
ATOM     67  C   UNL A   1      37.286  24.063  25.715  1.00  0.00     0.274 C 
BRANCH  67  68
ATOM     68  O   UNL A   1      36.080  23.304  25.915  1.00  0.00    -0.462 OA
BRANCH  68  69
ATOM     69  C   UNL A   1      34.910  23.967  25.667  1.00  0.00     0.309 C 
ATOM     70  O   UNL A   1      34.754  25.161  25.867  1.00  0.00    -0.252 OA
BRANCH  69  71
ATOM     71  C   UNL A   1      33.768  23.019  25.265  1.00  0.00     0.111 C 
ATOM     72  C   UNL A   1      34.220  21.638  24.859  1.00  0.00     0.016 C 
ATOM     73  C   UNL A   1      32.919  23.644  24.155  1.00  0.00     0.093 C 
ATOM     74  C   UNL A   1      33.125  20.710  24.342  1.00  0.00     0.001 C 
ATOM     75  C   UNL A   1      31.815  22.701  23.636  1.00  0.00     0.014 C 
ATOM     76  C   UNL A   1      32.352  21.345  23.202  1.00  0.00     0.001 C 
BRANCH  73  77
ATOM     77  C   UNL A   1      33.746  24.157  22.948  1.00  0.00     0.230 C 
ATOM     78  O   UNL A   1      34.519  23.420  22.331  1.00  0.00    -0.274 OA
ATOM     79  N   UNL A   1      33.462  25.385  22.416  1.00  0.00    -0.302 N 
ATOM     80  H   UNL A   1      33.724  25.570  21.485  1.00  0.00     0.172 HD
BRANCH  79  81
ATOM     81  C   UNL A   1      32.833  26.358  23.123  1.00  0.00     0.189 A 
ATOM     82  N   UNL A   1      33.408  27.304  23.809  1.00  0.00    -0.220 NA
ATOM     83  S   UNL A   1      31.138  26.296  23.208  1.00  0.00    -0.105 S 
ATOM     84  C   UNL A   1      32.513  27.854  24.683  1.00  0.00     0.084 A 
ATOM     85  C   UNL A   1      31.211  27.422  24.523  1.00  0.00     0.097 A 
BRANCH  84  86
ATOM     86  C   UNL A   1      32.994  28.788  25.679  1.00  0.00     0.003 A 
ATOM     87  C   UNL A   1      32.228  29.925  25.970  1.00  0.00     0.012 A 
ATOM     88  C   UNL A   1      34.245  28.627  26.282  1.00  0.00     0.032 A 
ATOM     89  C   UNL A   1      32.673  30.856  26.909  1.00  0.00     0.023 A 
ATOM     90  C   UNL A   1      34.696  29.565  27.218  1.00  0.00     0.060 A 
ATOM     91  C   UNL A   1      33.902  30.670  27.547  1.00  0.00     0.059 A 
ATOM     92  Cl  UNL A   1      36.245  29.293  27.936  1.00  0.00    -0.083 Cl
ATOM     93  Cl  UNL A   1      34.372  31.831  28.736  1.00  0.00    -0.083 Cl
ENDBRANCH  84  86
ENDBRANCH  79  81
ENDBRANCH  73  77
ENDBRANCH  69  71
ENDBRANCH  68  69
ENDBRANCH  67  68
ENDBRANCH   1  67
TORSDOF 17
ENDMDL
MODEL 2
REMARK VINA RESULT:     -11.2      1.288      8.093
REMARK SMILES O=C(OCCOC(=O)[C@@H]1CCCC[C@@H]1C(=O)Nc1nc(-c2ccc(Cl)c(Cl)c2)cs1)c1ccc(-c2c3nc(c(-c4ccc(S(=O)(=O)[O-])cc4)c4ccc([nH]4)c(-c4ccc(S(=O)(=O)[O-])cc4)c4nc(c(-c5ccc(S(=O)(=O)[O-])cc5)c5ccc2[nH]5)C=C4)C=C3)cc1
REMARK SMILES IDX 4 1 3 2 2 3 1 4 31 5 32 6 90 7 33 8 89 9 34 10 35 11 36 12
REMARK SMILES IDX 83 13 37 14 88 15 82 16 84 17 38 18 87 19 81 20 80 21 39 23
REMARK SMILES IDX 69 24 50 25 68 26 51 27 54 28 67 29 85 30 52 31 53 32 66 34
REMARK SMILES IDX 86 35 55 36 40 37 41 38 49 39 42 40 48 41 43 42 44 43 45 44
REMARK SMILES IDX 46 45 47 46 70 47 71 48 79 49 72 50 78 51 73 52 74 53 75 54
REMARK SMILES IDX 76 55 77 56 56 57 57 58 65 59 58 60 64 61 59 62 60 63 61 64
REMARK SMILES IDX 62 65 63 66 5 67 6 68 7 69 8 70 9 71 10 72 14 73 11 74 13 75
REMARK SMILES IDX 12 76 15 77 16 78 17 79 18 81 19 82 30 83 20 84 29 85 21 86
REMARK SMILES IDX 22 87 28 88 23 89 26 90 24 91 27 92 25 93
REMARK H PARENT 84 22 54 33 17 80
REMARK Flexibility Score: inf
ROOT
ATOM      1  C   UNL A   1      38.095  24.289  26.502  1.00  0.00     0.275 C 
ENDROOT
BRANCH   1   2
ATOM      2  O   UNL A   1      39.515  24.410  26.366  1.00  0.00    -0.458 OA
BRANCH   2   3
ATOM      3  C   UNL A   1      40.274  25.531  26.421  1.00  0.00     0.338 C 
ATOM      4  O   UNL A   1      40.950  25.825  25.435  1.00  0.00    -0.246 OA
BRANCH   3   5
ATOM      5  C   UNL A   1      40.441  26.351  27.668  1.00  0.00     0.060 A 
ATOM      6  C   UNL A   1      41.325  27.422  27.872  1.00  0.00     0.016 A 
ATOM      7  C   UNL A   1      39.570  26.027  28.716  1.00  0.00     0.016 A 
ATOM      8  C   UNL A   1      41.251  28.241  29.012  1.00  0.00     0.010 A 
ATOM      9  C   UNL A   1      39.476  26.851  29.842  1.00  0.00     0.010 A 
ATOM     10  C   UNL A   1      40.295  27.991  29.990  1.00  0.00    -0.014 A 
BRANCH  10  11
ATOM     11  C   UNL A   1      40.201  28.778  31.249  1.00  0.00     0.031 A 
ATOM     12  C   UNL A   1      39.209  29.903  31.227  1.00  0.00     0.074 A 
ATOM     13  C   UNL A   1      41.024  28.619  32.310  1.00  0.00     0.049 A 
ATOM     14  N   UNL A   1      39.078  30.916  32.036  1.00  0.00    -0.248 NA
ATOM     15  C   UNL A   1      38.278  29.911  30.082  1.00  0.00     0.031 C 
ATOM     16  C   UNL A   1      42.017  27.562  32.496  1.00  0.00     0.029 A 
ATOM     17  N   UNL A   1      41.196  29.410  33.427  1.00  0.00    -0.354 N 
ATOM     18  C   UNL A   1      38.074  31.688  31.472  1.00  0.00     0.074 A 
ATOM     19  C   UNL A   1      37.754  31.117  30.187  1.00  0.00     0.031 C 
ATOM     20  C   UNL A   1      42.763  27.826  33.584  1.00  0.00     0.029 A 
ATOM     21  C   UNL A   1      42.272  29.047  34.211  1.00  0.00     0.049 A 
ATOM     22  H   UNL A   1      40.605  30.167  33.644  1.00  0.00     0.167 HD
ATOM     23  C   UNL A   1      37.402  32.728  32.010  1.00  0.00     0.031 A 
ATOM     24  C   UNL A   1      42.794  29.629  35.312  1.00  0.00     0.031 A 
ATOM     25  C   UNL A   1      37.694  33.254  33.308  1.00  0.00     0.049 A 
ATOM     26  C   UNL A   1      42.081  30.825  35.893  1.00  0.00     0.074 A 
ATOM     27  C   UNL A   1      37.041  34.251  34.003  1.00  0.00     0.029 A 
ATOM     28  N   UNL A   1      38.736  32.808  34.109  1.00  0.00    -0.354 N 
ATOM     29  N   UNL A   1      41.055  31.483  35.406  1.00  0.00    -0.248 NA
ATOM     30  C   UNL A   1      42.549  31.319  37.196  1.00  0.00     0.031 C 
ATOM     31  C   UNL A   1      37.716  34.436  35.212  1.00  0.00     0.029 A 
ATOM     32  C   UNL A   1      38.753  33.514  35.292  1.00  0.00     0.049 A 
ATOM     33  H   UNL A   1      39.369  32.094  33.866  1.00  0.00     0.167 HD
ATOM     34  C   UNL A   1      40.707  32.418  36.375  1.00  0.00     0.074 A 
ATOM     35  C   UNL A   1      41.651  32.262  37.464  1.00  0.00     0.031 C 
ATOM     36  C   UNL A   1      39.683  33.306  36.374  1.00  0.00     0.031 A 
BRANCH  23  37
ATOM     37  C   UNL A   1      36.290  33.299  31.176  1.00  0.00    -0.014 A 
ATOM     38  C   UNL A   1      36.565  33.913  29.936  1.00  0.00     0.010 A 
ATOM     39  C   UNL A   1      34.983  33.339  31.686  1.00  0.00     0.010 A 
ATOM     40  C   UNL A   1      35.585  34.659  29.285  1.00  0.00     0.020 A 
ATOM     41  C   UNL A   1      33.985  34.045  31.011  1.00  0.00     0.020 A 
ATOM     42  C   UNL A   1      34.304  34.735  29.837  1.00  0.00     0.054 A 
BRANCH  42  43
ATOM     43  S   UNL A   1      33.065  35.764  29.007  1.00  0.00     0.124 S 
ATOM     44  O   UNL A   1      32.370  34.784  28.177  1.00  0.00    -0.237 OA
ATOM     45  O   UNL A   1      32.292  36.301  30.123  1.00  0.00    -0.237 OA
ATOM     46  O   UNL A   1      33.866  36.744  28.276  1.00  0.00    -0.744 OA
ENDBRANCH  42  43
ENDBRANCH  23  37
BRANCH  24  47
ATOM     47  C   UNL A   1      43.997  29.051  35.986  1.00  0.00    -0.014 A 
ATOM     48  C   UNL A   1      43.860  28.014  36.927  1.00  0.00     0.010 A 
ATOM     49  C   UNL A   1      45.288  29.531  35.695  1.00  0.00     0.010 A 
ATOM     50  C   UNL A   1      44.982  27.478  37.571  1.00  0.00     0.020 A 
ATOM     51  C   UNL A   1      46.416  28.985  36.324  1.00  0.00     0.020 A 
ATOM     52  C   UNL A   1      46.256  27.963  37.263  1.00  0.00     0.054 A 
BRANCH  52  53
ATOM     53  S   UNL A   1      47.696  27.207  38.073  1.00  0.00     0.124 S 
ATOM     54  O   UNL A   1      47.693  27.859  39.379  1.00  0.00    -0.237 OA
ATOM     55  O   UNL A   1      47.344  25.789  38.073  1.00  0.00    -0.237 OA
ATOM     56  O   UNL A   1      48.810  27.565  37.197  1.00  0.00    -0.744 OA
ENDBRANCH  52  53
ENDBRANCH  24  47
BRANCH  36  57
ATOM     57  C   UNL A   1      39.450  34.128  37.610  1.00  0.00    -0.014 A 
ATOM     58  C   UNL A   1      38.737  33.615  38.704  1.00  0.00     0.010 A 
ATOM     59  C   UNL A   1      40.119  35.361  37.733  1.00  0.00     0.010 A 
ATOM     60  C   UNL A   1      38.716  34.314  39.914  1.00  0.00     0.020 A 
ATOM     61  C   UNL A   1      40.123  36.047  38.947  1.00  0.00     0.020 A 
ATOM     62  C   UNL A   1      39.425  35.516  40.031  1.00  0.00     0.054 A 
BRANCH  62  63
ATOM     63  S   UNL A   1      39.502  36.326  41.651  1.00  0.00     0.124 S 
ATOM     64  O   UNL A   1      40.850  35.988  42.098  1.00  0.00    -0.237 OA
ATOM     65  O   UNL A   1      39.284  37.731  41.316  1.00  0.00    -0.237 OA
ATOM     66  O   UNL A   1      38.419  35.698  42.406  1.00  0.00    -0.744 OA
ENDBRANCH  62  63
ENDBRANCH  36  57
ENDBRANCH  10  11
ENDBRANCH   3   5
ENDBRANCH   2   3
ENDBRANCH   1   2
BRANCH   1  67
ATOM     67  C   UNL A   1      37.397  23.648  25.300  1.00  0.00     0.274 C 
BRANCH  67  68
ATOM     68  O   UNL A   1      36.168  22.966  25.610  1.00  0.00    -0.462 OA
BRANCH  68  69
ATOM     69  C   UNL A   1      35.023  23.695  25.440  1.00  0.00     0.309 C 
ATOM     70  O   UNL A   1      34.946  24.893  25.658  1.00  0.00    -0.252 OA
BRANCH  69  71
ATOM     71  C   UNL A   1      33.809  22.815  25.103  1.00  0.00     0.111 C 
ATOM     72  C   UNL A   1      34.155  21.398  24.717  1.00  0.00     0.016 C 
ATOM     73  C   UNL A   1      32.962  23.468  24.007  1.00  0.00     0.093 C 
ATOM     74  C   UNL A   1      32.984  20.532  24.262  1.00  0.00     0.001 C 
ATOM     75  C   UNL A   1      31.781  22.588  23.551  1.00  0.00     0.014 C 
ATOM     76  C   UNL A   1      32.213  21.189  23.134  1.00  0.00     0.001 C 
BRANCH  73  77
ATOM     77  C   UNL A   1      33.776  23.896  22.759  1.00  0.00     0.230 C 
ATOM     78  O   UNL A   1      34.582  23.135  22.217  1.00  0.00    -0.274 OA
ATOM     79  N   UNL A   1      33.449  25.056  22.112  1.00  0.00    -0.302 N 
ATOM     80  H   UNL A   1      33.709  25.162  21.169  1.00  0.00     0.172 HD
BRANCH  79  81
ATOM     81  C   UNL A   1      32.778  26.066  22.721  1.00  0.00     0.189 A 
ATOM     82  N   UNL A   1      33.308  27.031  23.417  1.00  0.00    -0.220 NA
ATOM     83  S   UNL A   1      31.081  26.032  22.659  1.00  0.00    -0.105 S 
ATOM     84  C   UNL A   1      32.350  27.629  24.186  1.00  0.00     0.084 A 
ATOM     85  C   UNL A   1      31.059  27.210  23.929  1.00  0.00     0.097 A 
BRANCH  84  86
ATOM     86  C   UNL A   1      32.758  28.597  25.183  1.00  0.00     0.003 A 
ATOM     87  C   UNL A   1      33.903  28.341  25.949  1.00  0.00     0.012 A 
ATOM     88  C   UNL A   1      31.982  29.726  25.460  1.00  0.00     0.032 A 
ATOM     89  C   UNL A   1      34.312  29.242  26.933  1.00  0.00     0.023 A 
ATOM     90  C   UNL A   1      32.387  30.627  26.452  1.00  0.00     0.060 A 
ATOM     91  C   UNL A   1      33.563  30.396  27.176  1.00  0.00     0.059 A 
ATOM     92  Cl  UNL A   1      31.388  32.010  26.729  1.00  0.00    -0.083 Cl
ATOM     93  Cl  UNL A   1      34.150  31.496  28.372  1.00  0.00    -0.083 Cl
ENDBRANCH  84  86
ENDBRANCH  79  81
ENDBRANCH  73  77
ENDBRANCH  69  71
ENDBRANCH  68  69
ENDBRANCH  67  68
ENDBRANCH   1  67
TORSDOF 17
ENDMDL
MODEL 3
REMARK VINA RESULT:     -11.0      3.880      5.546
REMARK SMILES O=C(OCCOC(=O)[C@@H]1CCCC[C@@H]1C(=O)Nc1nc(-c2ccc(Cl)c(Cl)c2)cs1)c1ccc(-c2c3nc(c(-c4ccc(S(=O)(=O)[O-])cc4)c4ccc([nH]4)c(-c4ccc(S(=O)(=O)[O-])cc4)c4nc(c(-c5ccc(S(=O)(=O)[O-])cc5)c5ccc2[nH]5)C=C4)C=C3)cc1
REMARK SMILES IDX 4 1 3 2 2 3 1 4 31 5 32 6 90 7 33 8 89 9 34 10 35 11 36 12
REMARK SMILES IDX 83 13 37 14 88 15 82 16 84 17 38 18 87 19 81 20 80 21 39 23
REMARK SMILES IDX 69 24 50 25 68 26 51 27 54 28 67 29 85 30 52 31 53 32 66 34
REMARK SMILES IDX 86 35 55 36 40 37 41 38 49 39 42 40 48 41 43 42 44 43 45 44
REMARK SMILES IDX 46 45 47 46 70 47 71 48 79 49 72 50 78 51 73 52 74 53 75 54
REMARK SMILES IDX 76 55 77 56 56 57 57 58 65 59 58 60 64 61 59 62 60 63 61 64
REMARK SMILES IDX 62 65 63 66 5 67 6 68 7 69 8 70 9 71 10 72 14 73 11 74 13 75
REMARK SMILES IDX 12 76 15 77 16 78 17 79 18 81 19 82 30 83 20 84 29 85 21 86
REMARK SMILES IDX 22 87 28 88 23 89 26 90 24 91 27 92 25 93
REMARK H PARENT 84 22 54 33 17 80
REMARK Flexibility Score: inf
ROOT
ATOM      1  C   UNL A   1      36.317  23.775  25.635  1.00  0.00     0.275 C 
ENDROOT
BRANCH   1   2
ATOM      2  O   UNL A   1      37.293  22.852  26.129  1.00  0.00    -0.458 OA
BRANCH   2   3
ATOM      3  C   UNL A   1      38.635  23.016  26.224  1.00  0.00     0.338 C 
ATOM      4  O   UNL A   1      39.359  22.059  25.953  1.00  0.00    -0.246 OA
BRANCH   3   5
ATOM      5  C   UNL A   1      39.274  24.257  26.780  1.00  0.00     0.060 A 
ATOM      6  C   UNL A   1      40.116  25.156  26.106  1.00  0.00     0.016 A 
ATOM      7  C   UNL A   1      38.936  24.560  28.105  1.00  0.00     0.016 A 
ATOM      8  C   UNL A   1      40.492  26.388  26.670  1.00  0.00     0.010 A 
ATOM      9  C   UNL A   1      39.287  25.794  28.663  1.00  0.00     0.010 A 
ATOM     10  C   UNL A   1      40.044  26.740  27.938  1.00  0.00    -0.014 A 
BRANCH  10  11
ATOM     11  C   UNL A   1      40.453  27.999  28.620  1.00  0.00     0.031 A 
ATOM     12  C   UNL A   1      41.761  27.933  29.350  1.00  0.00     0.074 A 
ATOM     13  C   UNL A   1      39.674  29.099  28.719  1.00  0.00     0.049 A 
ATOM     14  N   UNL A   1      42.260  28.741  30.243  1.00  0.00    -0.248 NA
ATOM     15  C   UNL A   1      42.588  26.742  29.074  1.00  0.00     0.031 C 
ATOM     16  C   UNL A   1      38.395  29.328  28.049  1.00  0.00     0.029 A 
ATOM     17  N   UNL A   1      39.827  30.228  29.496  1.00  0.00    -0.354 N 
ATOM     18  C   UNL A   1      43.437  28.131  30.649  1.00  0.00     0.074 A 
ATOM     19  C   UNL A   1      43.488  26.828  30.034  1.00  0.00     0.031 C 
ATOM     20  C   UNL A   1      37.831  30.455  28.521  1.00  0.00     0.029 A 
ATOM     21  C   UNL A   1      38.729  31.064  29.494  1.00  0.00     0.049 A 
ATOM     22  H   UNL A   1      40.646  30.420  30.008  1.00  0.00     0.167 HD
ATOM     23  C   UNL A   1      44.441  28.641  31.394  1.00  0.00     0.031 A 
ATOM     24  C   UNL A   1      38.482  32.194  30.191  1.00  0.00     0.031 A 
ATOM     25  C   UNL A   1      44.402  29.955  31.956  1.00  0.00     0.049 A 
ATOM     26  C   UNL A   1      39.579  32.745  31.068  1.00  0.00     0.074 A 
ATOM     27  C   UNL A   1      45.382  30.623  32.662  1.00  0.00     0.029 A 
ATOM     28  N   UNL A   1      43.309  30.805  31.864  1.00  0.00    -0.354 N 
ATOM     29  N   UNL A   1      40.743  32.211  31.357  1.00  0.00    -0.248 NA
ATOM     30  C   UNL A   1      39.364  34.074  31.659  1.00  0.00     0.031 C 
ATOM     31  C   UNL A   1      44.863  31.866  33.034  1.00  0.00     0.029 A 
ATOM     32  C   UNL A   1      43.583  31.993  32.508  1.00  0.00     0.049 A 
ATOM     33  H   UNL A   1      42.463  30.591  31.407  1.00  0.00     0.167 HD
ATOM     34  C   UNL A   1      41.427  33.167  32.100  1.00  0.00     0.074 A 
ATOM     35  C   UNL A   1      40.536  34.301  32.242  1.00  0.00     0.031 C 
ATOM     36  C   UNL A   1      42.687  33.120  32.596  1.00  0.00     0.031 A 
BRANCH  23  37
ATOM     37  C   UNL A   1      45.641  27.755  31.580  1.00  0.00    -0.014 A 
ATOM     38  C   UNL A   1      45.685  26.819  32.635  1.00  0.00     0.010 A 
ATOM     39  C   UNL A   1      46.780  27.943  30.782  1.00  0.00     0.010 A 
ATOM     40  C   UNL A   1      46.879  26.181  32.964  1.00  0.00     0.020 A 
ATOM     41  C   UNL A   1      47.967  27.268  31.079  1.00  0.00     0.020 A 
ATOM     42  C   UNL A   1      48.019  26.424  32.193  1.00  0.00     0.054 A 
BRANCH  42  43
ATOM     43  S   UNL A   1      49.575  25.633  32.679  1.00  0.00     0.124 S 
ATOM     44  O   UNL A   1      49.923  24.891  31.471  1.00  0.00    -0.237 OA
ATOM     45  O   UNL A   1      50.434  26.774  32.984  1.00  0.00    -0.237 OA
ATOM     46  O   UNL A   1      49.199  24.813  33.829  1.00  0.00    -0.744 OA
ENDBRANCH  42  43
ENDBRANCH  23  37
BRANCH  24  47
ATOM     47  C   UNL A   1      37.188  32.924  30.032  1.00  0.00    -0.014 A 
ATOM     48  C   UNL A   1      36.925  33.668  28.866  1.00  0.00     0.010 A 
ATOM     49  C   UNL A   1      36.206  32.884  31.040  1.00  0.00     0.010 A 
ATOM     50  C   UNL A   1      35.721  34.365  28.716  1.00  0.00     0.020 A 
ATOM     51  C   UNL A   1      34.990  33.566  30.887  1.00  0.00     0.020 A 
ATOM     52  C   UNL A   1      34.756  34.307  29.726  1.00  0.00     0.054 A 
BRANCH  52  53
ATOM     53  S   UNL A   1      33.179  35.175  29.477  1.00  0.00     0.124 S 
ATOM     54  O   UNL A   1      32.562  34.393  28.411  1.00  0.00    -0.237 OA
ATOM     55  O   UNL A   1      32.551  35.061  30.791  1.00  0.00    -0.237 OA
ATOM     56  O   UNL A   1      33.588  36.528  29.104  1.00  0.00    -0.744 OA
ENDBRANCH  52  53
ENDBRANCH  24  47
BRANCH  36  57
ATOM     57  C   UNL A   1      43.238  34.347  33.265  1.00  0.00    -0.014 A 
ATOM     58  C   UNL A   1      43.192  34.502  34.659  1.00  0.00     0.010 A 
ATOM     59  C   UNL A   1      43.973  35.262  32.488  1.00  0.00     0.010 A 
ATOM     60  C   UNL A   1      43.894  35.544  35.269  1.00  0.00     0.020 A 
ATOM     61  C   UNL A   1      44.698  36.287  33.096  1.00  0.00     0.020 A 
ATOM     62  C   UNL A   1      44.657  36.418  34.484  1.00  0.00     0.054 A 
BRANCH  62  63
ATOM     63  S   UNL A   1      45.675  37.669  35.313  1.00  0.00     0.124 S 
ATOM     64  O   UNL A   1      44.665  38.504  35.958  1.00  0.00    -0.237 OA
ATOM     65  O   UNL A   1      46.496  36.866  36.215  1.00  0.00    -0.237 OA
ATOM     66  O   UNL A   1      46.404  38.306  34.218  1.00  0.00    -0.744 OA
ENDBRANCH  62  63
ENDBRANCH  36  57
ENDBRANCH  10  11
ENDBRANCH   3   5
ENDBRANCH   2   3
ENDBRANCH   1   2
BRANCH   1  67
ATOM     67  C   UNL A   1      35.009  23.797  26.429  1.00  0.00     0.274 C 
BRANCH  67  68
ATOM     68  O   UNL A   1      33.839  24.112  25.653  1.00  0.00    -0.462 OA
BRANCH  68  69
ATOM     69  C   UNL A   1      33.109  25.186  26.084  1.00  0.00     0.309 C 
ATOM     70  O   UNL A   1      32.039  25.088  26.663  1.00  0.00    -0.252 OA
BRANCH  69  71
ATOM     71  C   UNL A   1      33.699  26.526  25.616  1.00  0.00     0.111 C 
ATOM     72  C   UNL A   1      33.556  27.651  26.612  1.00  0.00     0.016 C 
ATOM     73  C   UNL A   1      33.098  26.935  24.269  1.00  0.00     0.093 C 
ATOM     74  C   UNL A   1      34.023  29.021  26.133  1.00  0.00     0.001 C 
ATOM     75  C   UNL A   1      33.575  28.322  23.791  1.00  0.00     0.014 C 
ATOM     76  C   UNL A   1      33.355  29.411  24.830  1.00  0.00     0.001 C 
BRANCH  73  77
ATOM     77  C   UNL A   1      31.548  26.902  24.239  1.00  0.00     0.230 C 
ATOM     78  O   UNL A   1      30.870  27.767  24.798  1.00  0.00    -0.274 OA
ATOM     79  N   UNL A   1      30.914  26.024  23.403  1.00  0.00    -0.302 N 
ATOM     80  H   UNL A   1      29.989  26.218  23.126  1.00  0.00     0.172 HD
BRANCH  79  81
ATOM     81  C   UNL A   1      31.511  24.897  22.940  1.00  0.00     0.189 A 
ATOM     82  N   UNL A   1      31.290  23.683  23.358  1.00  0.00    -0.220 NA
ATOM     83  S   UNL A   1      32.731  25.077  21.773  1.00  0.00    -0.105 S 
ATOM     84  C   UNL A   1      32.309  22.863  22.963  1.00  0.00     0.084 A 
ATOM     85  C   UNL A   1      33.215  23.445  22.096  1.00  0.00     0.097 A 
BRANCH  84  86
ATOM     86  C   UNL A   1      32.364  21.515  23.487  1.00  0.00     0.003 A 
ATOM     87  C   UNL A   1      32.579  21.327  24.859  1.00  0.00     0.012 A 
ATOM     88  C   UNL A   1      32.302  20.404  22.641  1.00  0.00     0.032 A 
ATOM     89  C   UNL A   1      32.659  20.040  25.393  1.00  0.00     0.023 A 
ATOM     90  C   UNL A   1      32.390  19.112  23.174  1.00  0.00     0.060 A 
ATOM     91  C   UNL A   1      32.549  18.929  24.553  1.00  0.00     0.059 A 
ATOM     92  Cl  UNL A   1      32.290  17.786  22.071  1.00  0.00    -0.083 Cl
ATOM     93  Cl  UNL A   1      32.604  17.364  25.283  1.00  0.00    -0.083 Cl
ENDBRANCH  84  86
ENDBRANCH  79  81
ENDBRANCH  73  77
ENDBRANCH  69  71
ENDBRANCH  68  69
ENDBRANCH  67  68
ENDBRANCH   1  67
TORSDOF 17
ENDMDL
