MODEL 1
REMARK VINA RESULT:      -8.9      0.000      0.000
REMARK SMILES CC(C)(C)OCC[C@@H]1CCC[C@]1([NH2+]C1CC1)C(=O)OCCOC(=O)c1ccc(-c2c3nc(c(-c4ccc(S(=O)(=O)[O-])cc4)c4ccc([nH]4)c(-c4ccc(S(=O)(=O)[O-])cc4)c4nc(c(-c5ccc(S(=O)(=O)[O-])cc5)c5ccc2[nH]5)C=C4)C=C3)cc1
REMARK SMILES IDX 20 1 19 2 17 3 18 4 12 5 8 6 9 7 10 8 11 9 7 10 6 11 5 12
REMARK SMILES IDX 2 13 1 14 3 15 4 16 13 17 14 20 15 21 16 22 21 23 22 24
REMARK SMILES IDX 23 25 24 26 25 27 26 28 84 29 27 30 83 31 28 32 29 33 30 34
REMARK SMILES IDX 77 35 31 36 82 37 76 38 78 39 32 40 81 41 75 42 74 43 33 45
REMARK SMILES IDX 63 46 44 47 62 48 45 49 48 50 61 51 79 52 46 53 47 54 60 56
REMARK SMILES IDX 80 57 49 58 34 59 35 60 43 61 36 62 42 63 37 64 38 65 39 66
REMARK SMILES IDX 40 67 41 68 64 69 65 70 73 71 66 72 72 73 67 74 68 75 69 76
REMARK SMILES IDX 70 77 71 78 50 79 51 80 59 81 52 82 58 83 53 84 54 85 55 86
REMARK SMILES IDX 56 87 57 88
REMARK H PARENT 13 18 13 19 78 44 48 55
REMARK Flexibility Score: inf
ROOT
ATOM      1  C   UNL A   1      35.418  22.828  24.921  1.00  0.00     0.274 C 
ENDROOT
BRANCH   1   2
ATOM      2  O   UNL A   1      34.358  23.599  24.322  1.00  0.00    -0.457 OA
BRANCH   2   3
ATOM      3  C   UNL A   1      33.160  23.571  24.971  1.00  0.00     0.368 C 
ATOM      4  O   UNL A   1      32.963  22.883  25.967  1.00  0.00    -0.245 OA
BRANCH   3   5
ATOM      5  C   UNL A   1      32.076  24.483  24.293  1.00  0.00     0.197 C 
ATOM      6  C   UNL A   1      32.199  26.004  24.749  1.00  0.00     0.065 C 
ATOM      7  C   UNL A   1      31.593  25.867  26.144  1.00  0.00     0.011 C 
ATOM      8  C   UNL A   1      30.272  25.209  25.844  1.00  0.00     0.008 C 
ATOM      9  C   UNL A   1      30.633  24.154  24.814  1.00  0.00     0.081 C 
BRANCH   6  10
ATOM     10  C   UNL A   1      33.560  26.740  24.757  1.00  0.00     0.039 C 
BRANCH  10  11
ATOM     11  C   UNL A   1      34.042  27.229  26.148  1.00  0.00     0.161 C 
BRANCH  11  12
ATOM     12  O   UNL A   1      34.131  28.645  26.312  1.00  0.00    -0.376 OA
BRANCH  12  13
ATOM     13  C   UNL A   1      32.972  29.433  26.635  1.00  0.00     0.060 C 
ATOM     14  C   UNL A   1      33.482  30.667  27.402  1.00  0.00     0.042 C 
ATOM     15  C   UNL A   1      32.075  28.673  27.594  1.00  0.00     0.042 C 
ATOM     16  C   UNL A   1      32.155  29.914  25.429  1.00  0.00     0.042 C 
ENDBRANCH  12  13
ENDBRANCH  11  12
ENDBRANCH  10  11
ENDBRANCH   6  10
BRANCH   5  17
ATOM     17  N   UNL A   1      32.122  24.285  22.826  1.00  0.00    -0.329 N 
ATOM     18  H   UNL A   1      31.180  24.029  22.532  1.00  0.00     0.347 HD
ATOM     19  H   UNL A   1      32.853  23.584  22.703  1.00  0.00     0.347 HD
BRANCH  17  20
ATOM     20  C   UNL A   1      32.559  25.403  21.948  1.00  0.00     0.183 C 
ATOM     21  C   UNL A   1      32.843  25.361  20.470  1.00  0.00     0.071 C 
ATOM     22  C   UNL A   1      31.599  26.029  20.958  1.00  0.00     0.071 C 
ENDBRANCH  17  20
ENDBRANCH   5  17
ENDBRANCH   3   5
ENDBRANCH   2   3
ENDBRANCH   1   2
BRANCH   1  23
ATOM     23  C   UNL A   1      36.372  23.727  25.715  1.00  0.00     0.275 C 
BRANCH  23  24
ATOM     24  O   UNL A   1      37.674  23.718  25.103  1.00  0.00    -0.458 OA
BRANCH  24  25
ATOM     25  C   UNL A   1      38.691  23.238  25.851  1.00  0.00     0.338 C 
ATOM     26  O   UNL A   1      39.130  22.091  25.814  1.00  0.00    -0.246 OA
BRANCH  25  27
ATOM     27  C   UNL A   1      39.272  24.310  26.700  1.00  0.00     0.060 A 
ATOM     28  C   UNL A   1      38.990  24.375  28.063  1.00  0.00     0.016 A 
ATOM     29  C   UNL A   1      40.010  25.345  26.124  1.00  0.00     0.016 A 
ATOM     30  C   UNL A   1      39.314  25.508  28.806  1.00  0.00     0.010 A 
ATOM     31  C   UNL A   1      40.451  26.422  26.911  1.00  0.00     0.010 A 
ATOM     32  C   UNL A   1      40.076  26.543  28.261  1.00  0.00    -0.014 A 
BRANCH  32  33
ATOM     33  C   UNL A   1      40.448  27.739  29.084  1.00  0.00     0.031 A 
ATOM     34  C   UNL A   1      41.759  27.771  29.834  1.00  0.00     0.074 A 
ATOM     35  C   UNL A   1      39.634  28.815  29.167  1.00  0.00     0.049 A 
ATOM     36  N   UNL A   1      42.127  28.548  30.822  1.00  0.00    -0.248 NA
ATOM     37  C   UNL A   1      42.783  26.793  29.433  1.00  0.00     0.031 C 
ATOM     38  C   UNL A   1      38.373  29.001  28.442  1.00  0.00     0.029 A 
ATOM     39  N   UNL A   1      39.753  29.974  29.901  1.00  0.00    -0.354 N 
ATOM     40  C   UNL A   1      43.381  28.094  31.220  1.00  0.00     0.074 A 
ATOM     41  C   UNL A   1      43.720  26.986  30.351  1.00  0.00     0.031 C 
ATOM     42  C   UNL A   1      37.872  30.212  28.717  1.00  0.00     0.029 A 
ATOM     43  C   UNL A   1      38.686  30.831  29.752  1.00  0.00     0.049 A 
ATOM     44  H   UNL A   1      40.525  30.170  30.479  1.00  0.00     0.167 HD
ATOM     45  C   UNL A   1      44.166  28.549  32.226  1.00  0.00     0.031 A 
ATOM     46  C   UNL A   1      38.339  31.949  30.420  1.00  0.00     0.031 A 
ATOM     47  C   UNL A   1      43.848  29.691  33.045  1.00  0.00     0.049 A 
ATOM     48  C   UNL A   1      39.186  32.404  31.570  1.00  0.00     0.074 A 
ATOM     49  C   UNL A   1      44.573  30.227  34.098  1.00  0.00     0.029 A 
ATOM     50  N   UNL A   1      42.726  30.491  32.887  1.00  0.00    -0.354 N 
ATOM     51  N   UNL A   1      40.302  31.886  32.024  1.00  0.00    -0.248 NA
ATOM     52  C   UNL A   1      38.709  33.573  32.321  1.00  0.00     0.031 C 
ATOM     53  C   UNL A   1      43.868  31.326  34.600  1.00  0.00     0.029 A 
ATOM     54  C   UNL A   1      42.733  31.509  33.826  1.00  0.00     0.049 A 
ATOM     55  H   UNL A   1      42.027  30.355  32.207  1.00  0.00     0.167 HD
ATOM     56  C   UNL A   1      40.664  32.670  33.112  1.00  0.00     0.074 A 
ATOM     57  C   UNL A   1      39.662  33.709  33.233  1.00  0.00     0.031 C 
ATOM     58  C   UNL A   1      41.727  32.534  33.940  1.00  0.00     0.031 A 
BRANCH  45  59
ATOM     59  C   UNL A   1      45.421  27.776  32.547  1.00  0.00    -0.014 A 
ATOM     60  C   UNL A   1      46.656  28.081  31.950  1.00  0.00     0.010 A 
ATOM     61  C   UNL A   1      45.364  26.749  33.509  1.00  0.00     0.010 A 
ATOM     62  C   UNL A   1      47.801  27.349  32.281  1.00  0.00     0.020 A 
ATOM     63  C   UNL A   1      46.512  26.033  33.864  1.00  0.00     0.020 A 
ATOM     64  C   UNL A   1      47.721  26.327  33.234  1.00  0.00     0.054 A 
BRANCH  64  65
ATOM     65  S   UNL A   1      49.226  25.407  33.661  1.00  0.00     0.124 S 
ATOM     66  O   UNL A   1      49.903  25.323  32.369  1.00  0.00    -0.237 OA
ATOM     67  O   UNL A   1      49.864  26.275  34.648  1.00  0.00    -0.237 OA
ATOM     68  O   UNL A   1      48.722  24.140  34.183  1.00  0.00    -0.744 OA
ENDBRANCH  64  65
ENDBRANCH  45  59
BRANCH  46  69
ATOM     69  C   UNL A   1      37.071  32.649  30.073  1.00  0.00    -0.014 A 
ATOM     70  C   UNL A   1      35.881  32.363  30.763  1.00  0.00     0.010 A 
ATOM     71  C   UNL A   1      37.061  33.644  29.075  1.00  0.00     0.010 A 
ATOM     72  C   UNL A   1      34.707  33.064  30.468  1.00  0.00     0.020 A 
ATOM     73  C   UNL A   1      35.899  34.370  28.803  1.00  0.00     0.020 A 
ATOM     74  C   UNL A   1      34.727  34.071  29.496  1.00  0.00     0.054 A 
BRANCH  74  75
ATOM     75  S   UNL A   1      33.217  35.030  29.192  1.00  0.00     0.124 S 
ATOM     76  O   UNL A   1      32.566  34.991  30.497  1.00  0.00    -0.237 OA
ATOM     77  O   UNL A   1      33.745  36.332  28.786  1.00  0.00    -0.237 OA
ATOM     78  O   UNL A   1      32.546  34.283  28.132  1.00  0.00    -0.744 OA
ENDBRANCH  74  75
ENDBRANCH  46  69
BRANCH  58  79
ATOM     79  C   UNL A   1      41.882  33.558  35.030  1.00  0.00    -0.014 A 
ATOM     80  C   UNL A   1      42.686  34.697  34.849  1.00  0.00     0.010 A 
ATOM     81  C   UNL A   1      41.183  33.394  36.239  1.00  0.00     0.010 A 
ATOM     82  C   UNL A   1      42.812  35.640  35.872  1.00  0.00     0.020 A 
ATOM     83  C   UNL A   1      41.288  34.347  37.255  1.00  0.00     0.020 A 
ATOM     84  C   UNL A   1      42.114  35.457  37.070  1.00  0.00     0.054 A 
BRANCH  84  85
ATOM     85  S   UNL A   1      42.265  36.713  38.370  1.00  0.00     0.124 S 
ATOM     86  O   UNL A   1      43.051  37.747  37.702  1.00  0.00    -0.237 OA
ATOM     87  O   UNL A   1      40.873  37.060  38.644  1.00  0.00    -0.237 OA
ATOM     88  O   UNL A   1      42.951  36.010  39.452  1.00  0.00    -0.744 OA
ENDBRANCH  84  85
ENDBRANCH  58  79
ENDBRANCH  32  33
ENDBRANCH  25  27
ENDBRANCH  24  25
ENDBRANCH  23  24
ENDBRANCH   1  23
TORSDOF 20
ENDMDL
MODEL 2
REMARK VINA RESULT:      -8.5      5.743     11.520
REMARK SMILES CC(C)(C)OCC[C@@H]1CCC[C@]1([NH2+]C1CC1)C(=O)OCCOC(=O)c1ccc(-c2c3nc(c(-c4ccc(S(=O)(=O)[O-])cc4)c4ccc([nH]4)c(-c4ccc(S(=O)(=O)[O-])cc4)c4nc(c(-c5ccc(S(=O)(=O)[O-])cc5)c5ccc2[nH]5)C=C4)C=C3)cc1
REMARK SMILES IDX 20 1 19 2 17 3 18 4 12 5 8 6 9 7 10 8 11 9 7 10 6 11 5 12
REMARK SMILES IDX 2 13 1 14 3 15 4 16 13 17 14 20 15 21 16 22 21 23 22 24
REMARK SMILES IDX 23 25 24 26 25 27 26 28 84 29 27 30 83 31 28 32 29 33 30 34
REMARK SMILES IDX 77 35 31 36 82 37 76 38 78 39 32 40 81 41 75 42 74 43 33 45
REMARK SMILES IDX 63 46 44 47 62 48 45 49 48 50 61 51 79 52 46 53 47 54 60 56
REMARK SMILES IDX 80 57 49 58 34 59 35 60 43 61 36 62 42 63 37 64 38 65 39 66
REMARK SMILES IDX 40 67 41 68 64 69 65 70 73 71 66 72 72 73 67 74 68 75 69 76
REMARK SMILES IDX 70 77 71 78 50 79 51 80 59 81 52 82 58 83 53 84 54 85 55 86
REMARK SMILES IDX 56 87 57 88
REMARK H PARENT 13 18 13 19 78 44 48 55
REMARK Flexibility Score: inf
ROOT
ATOM      1  C   UNL A   1      35.198  33.203  29.491  1.00  0.00     0.274 C 
ENDROOT
BRANCH   1   2
ATOM      2  O   UNL A   1      35.967  33.205  30.710  1.00  0.00    -0.457 OA
BRANCH   2   3
ATOM      3  C   UNL A   1      35.250  33.233  31.869  1.00  0.00     0.368 C 
ATOM      4  O   UNL A   1      34.404  32.387  32.143  1.00  0.00    -0.245 OA
BRANCH   3   5
ATOM      5  C   UNL A   1      35.606  34.461  32.780  1.00  0.00     0.197 C 
ATOM      6  C   UNL A   1      37.147  34.482  33.186  1.00  0.00     0.065 C 
ATOM      7  C   UNL A   1      37.114  33.374  34.237  1.00  0.00     0.011 C 
ATOM      8  C   UNL A   1      36.021  33.852  35.157  1.00  0.00     0.008 C 
ATOM      9  C   UNL A   1      34.948  34.340  34.200  1.00  0.00     0.081 C 
BRANCH   6  10
ATOM     10  C   UNL A   1      38.263  34.279  32.135  1.00  0.00     0.039 C 
BRANCH  10  11
ATOM     11  C   UNL A   1      39.126  33.003  32.322  1.00  0.00     0.161 C 
BRANCH  11  12
ATOM     12  O   UNL A   1      40.189  32.829  31.386  1.00  0.00    -0.376 OA
BRANCH  12  13
ATOM     13  C   UNL A   1      41.558  32.733  31.820  1.00  0.00     0.060 C 
ATOM     14  C   UNL A   1      41.862  31.233  31.979  1.00  0.00     0.042 C 
ATOM     15  C   UNL A   1      41.712  33.350  33.198  1.00  0.00     0.042 C 
ATOM     16  C   UNL A   1      42.589  33.340  30.860  1.00  0.00     0.042 C 
ENDBRANCH  12  13
ENDBRANCH  11  12
ENDBRANCH  10  11
ENDBRANCH   6  10
BRANCH   5  17
ATOM     17  N   UNL A   1      35.135  35.704  32.128  1.00  0.00    -0.329 N 
ATOM     18  H   UNL A   1      35.698  35.830  31.287  1.00  0.00     0.347 HD
ATOM     19  H   UNL A   1      35.230  36.409  32.860  1.00  0.00     0.347 HD
BRANCH  17  20
ATOM     20  C   UNL A   1      33.711  35.822  31.715  1.00  0.00     0.183 C 
ATOM     21  C   UNL A   1      32.558  36.362  32.517  1.00  0.00     0.071 C 
ATOM     22  C   UNL A   1      33.110  37.174  31.391  1.00  0.00     0.071 C 
ENDBRANCH  17  20
ENDBRANCH   5  17
ENDBRANCH   3   5
ENDBRANCH   2   3
ENDBRANCH   1   2
BRANCH   1  23
ATOM     23  C   UNL A   1      34.958  31.774  28.994  1.00  0.00     0.275 C 
BRANCH  23  24
ATOM     24  O   UNL A   1      36.211  31.165  28.635  1.00  0.00    -0.458 OA
BRANCH  24  25
ATOM     25  C   UNL A   1      36.679  30.207  29.464  1.00  0.00     0.338 C 
ATOM     26  O   UNL A   1      36.097  29.766  30.453  1.00  0.00    -0.246 OA
BRANCH  25  27
ATOM     27  C   UNL A   1      37.989  29.693  28.989  1.00  0.00     0.060 A 
ATOM     28  C   UNL A   1      38.979  29.314  29.892  1.00  0.00     0.016 A 
ATOM     29  C   UNL A   1      38.298  29.700  27.628  1.00  0.00     0.016 A 
ATOM     30  C   UNL A   1      40.285  29.081  29.465  1.00  0.00     0.010 A 
ATOM     31  C   UNL A   1      39.583  29.331  27.192  1.00  0.00     0.010 A 
ATOM     32  C   UNL A   1      40.613  29.053  28.108  1.00  0.00    -0.014 A 
BRANCH  32  33
ATOM     33  C   UNL A   1      42.014  28.765  27.662  1.00  0.00     0.031 A 
ATOM     34  C   UNL A   1      42.410  27.366  27.250  1.00  0.00     0.074 A 
ATOM     35  C   UNL A   1      42.948  29.740  27.605  1.00  0.00     0.049 A 
ATOM     36  N   UNL A   1      43.607  26.848  27.132  1.00  0.00    -0.248 NA
ATOM     37  C   UNL A   1      41.321  26.424  26.946  1.00  0.00     0.031 C 
ATOM     38  C   UNL A   1      42.727  31.164  27.878  1.00  0.00     0.029 A 
ATOM     39  N   UNL A   1      44.287  29.681  27.288  1.00  0.00    -0.354 N 
ATOM     40  C   UNL A   1      43.414  25.501  26.834  1.00  0.00     0.074 A 
ATOM     41  C   UNL A   1      41.983  25.289  26.767  1.00  0.00     0.031 C 
ATOM     42  C   UNL A   1      43.860  31.844  27.659  1.00  0.00     0.029 A 
ATOM     43  C   UNL A   1      44.928  30.896  27.381  1.00  0.00     0.049 A 
ATOM     44  H   UNL A   1      44.742  28.850  27.020  1.00  0.00     0.167 HD
ATOM     45  C   UNL A   1      44.344  24.533  26.650  1.00  0.00     0.031 A 
ATOM     46  C   UNL A   1      46.235  31.221  27.337  1.00  0.00     0.031 A 
ATOM     47  C   UNL A   1      45.765  24.767  26.658  1.00  0.00     0.049 A 
ATOM     48  C   UNL A   1      47.253  30.130  27.195  1.00  0.00     0.074 A 
ATOM     49  C   UNL A   1      46.792  23.851  26.491  1.00  0.00     0.029 A 
ATOM     50  N   UNL A   1      46.363  26.009  26.813  1.00  0.00    -0.354 N 
ATOM     51  N   UNL A   1      47.062  28.842  27.048  1.00  0.00    -0.248 NA
ATOM     52  C   UNL A   1      48.665  30.533  27.247  1.00  0.00     0.031 C 
ATOM     53  C   UNL A   1      48.009  24.534  26.586  1.00  0.00     0.029 A 
ATOM     54  C   UNL A   1      47.741  25.883  26.756  1.00  0.00     0.049 A 
ATOM     55  H   UNL A   1      45.879  26.856  26.944  1.00  0.00     0.167 HD
ATOM     56  C   UNL A   1      48.330  28.279  26.985  1.00  0.00     0.074 A 
ATOM     57  C   UNL A   1      49.279  29.369  27.087  1.00  0.00     0.031 C 
ATOM     58  C   UNL A   1      48.675  26.974  26.863  1.00  0.00     0.031 A 
BRANCH  45  59
ATOM     59  C   UNL A   1      43.861  23.114  26.487  1.00  0.00    -0.014 A 
ATOM     60  C   UNL A   1      44.199  22.336  25.367  1.00  0.00     0.010 A 
ATOM     61  C   UNL A   1      43.088  22.533  27.512  1.00  0.00     0.010 A 
ATOM     62  C   UNL A   1      43.742  21.019  25.256  1.00  0.00     0.020 A 
ATOM     63  C   UNL A   1      42.652  21.208  27.418  1.00  0.00     0.020 A 
ATOM     64  C   UNL A   1      42.968  20.463  26.282  1.00  0.00     0.054 A 
BRANCH  64  65
ATOM     65  S   UNL A   1      42.406  18.745  26.123  1.00  0.00     0.124 S 
ATOM     66  O   UNL A   1      43.283  18.239  25.070  1.00  0.00    -0.237 OA
ATOM     67  O   UNL A   1      42.649  18.203  27.457  1.00  0.00    -0.237 OA
ATOM     68  O   UNL A   1      40.999  18.873  25.753  1.00  0.00    -0.744 OA
ENDBRANCH  64  65
ENDBRANCH  45  59
BRANCH  46  69
ATOM     69  C   UNL A   1      46.647  32.639  27.534  1.00  0.00    -0.014 A 
ATOM     70  C   UNL A   1      46.846  33.488  26.432  1.00  0.00     0.010 A 
ATOM     71  C   UNL A   1      46.798  33.160  28.835  1.00  0.00     0.010 A 
ATOM     72  C   UNL A   1      47.180  34.832  26.627  1.00  0.00     0.020 A 
ATOM     73  C   UNL A   1      47.096  34.510  29.033  1.00  0.00     0.020 A 
ATOM     74  C   UNL A   1      47.293  35.336  27.927  1.00  0.00     0.054 A 
BRANCH  74  75
ATOM     75  S   UNL A   1      47.636  37.103  28.159  1.00  0.00     0.124 S 
ATOM     76  O   UNL A   1      47.968  37.528  26.803  1.00  0.00    -0.237 OA
ATOM     77  O   UNL A   1      46.370  37.606  28.689  1.00  0.00    -0.237 OA
ATOM     78  O   UNL A   1      48.745  37.113  29.110  1.00  0.00    -0.744 OA
ENDBRANCH  74  75
ENDBRANCH  46  69
BRANCH  58  79
ATOM     79  C   UNL A   1      50.144  26.657  26.795  1.00  0.00    -0.014 A 
ATOM     80  C   UNL A   1      50.826  26.633  25.567  1.00  0.00     0.010 A 
ATOM     81  C   UNL A   1      50.856  26.417  27.984  1.00  0.00     0.010 A 
ATOM     82  C   UNL A   1      52.191  26.342  25.525  1.00  0.00     0.020 A 
ATOM     83  C   UNL A   1      52.227  26.149  27.948  1.00  0.00     0.020 A 
ATOM     84  C   UNL A   1      52.883  26.099  26.716  1.00  0.00     0.054 A 
BRANCH  84  85
ATOM     85  S   UNL A   1      54.663  25.760  26.640  1.00  0.00     0.124 S 
ATOM     86  O   UNL A   1      54.688  24.307  26.499  1.00  0.00    -0.237 OA
ATOM     87  O   UNL A   1      55.084  26.514  25.462  1.00  0.00    -0.237 OA
ATOM     88  O   UNL A   1      55.167  26.271  27.913  1.00  0.00    -0.744 OA
ENDBRANCH  84  85
ENDBRANCH  58  79
ENDBRANCH  32  33
ENDBRANCH  25  27
ENDBRANCH  24  25
ENDBRANCH  23  24
ENDBRANCH   1  23
TORSDOF 20
ENDMDL
MODEL 3
REMARK VINA RESULT:      -8.4      5.508      7.607
REMARK SMILES CC(C)(C)OCC[C@@H]1CCC[C@]1([NH2+]C1CC1)C(=O)OCCOC(=O)c1ccc(-c2c3nc(c(-c4ccc(S(=O)(=O)[O-])cc4)c4ccc([nH]4)c(-c4ccc(S(=O)(=O)[O-])cc4)c4nc(c(-c5ccc(S(=O)(=O)[O-])cc5)c5ccc2[nH]5)C=C4)C=C3)cc1
REMARK SMILES IDX 20 1 19 2 17 3 18 4 12 5 8 6 9 7 10 8 11 9 7 10 6 11 5 12
REMARK SMILES IDX 2 13 1 14 3 15 4 16 13 17 14 20 15 21 16 22 21 23 22 24
REMARK SMILES IDX 23 25 24 26 25 27 26 28 84 29 27 30 83 31 28 32 29 33 30 34
REMARK SMILES IDX 77 35 31 36 82 37 76 38 78 39 32 40 81 41 75 42 74 43 33 45
REMARK SMILES IDX 63 46 44 47 62 48 45 49 48 50 61 51 79 52 46 53 47 54 60 56
REMARK SMILES IDX 80 57 49 58 34 59 35 60 43 61 36 62 42 63 37 64 38 65 39 66
REMARK SMILES IDX 40 67 41 68 64 69 65 70 73 71 66 72 72 73 67 74 68 75 69 76
REMARK SMILES IDX 70 77 71 78 50 79 51 80 59 81 52 82 58 83 53 84 54 85 55 86
REMARK SMILES IDX 56 87 57 88
REMARK H PARENT 13 18 13 19 78 44 48 55
REMARK Flexibility Score: inf
ROOT
ATOM      1  C   UNL A   1      46.974  24.333  24.396  1.00  0.00     0.274 C 
ENDROOT
BRANCH   1   2
ATOM      2  O   UNL A   1      46.161  23.499  25.244  1.00  0.00    -0.457 OA
BRANCH   2   3
ATOM      3  C   UNL A   1      44.897  23.246  24.798  1.00  0.00     0.368 C 
ATOM      4  O   UNL A   1      44.630  23.117  23.608  1.00  0.00    -0.245 OA
BRANCH   3   5
ATOM      5  C   UNL A   1      43.843  23.167  25.959  1.00  0.00     0.197 C 
ATOM      6  C   UNL A   1      43.339  24.607  26.415  1.00  0.00     0.065 C 
ATOM      7  C   UNL A   1      44.574  25.032  27.208  1.00  0.00     0.011 C 
ATOM      8  C   UNL A   1      44.736  23.883  28.168  1.00  0.00     0.008 C 
ATOM      9  C   UNL A   1      44.491  22.663  27.297  1.00  0.00     0.081 C 
BRANCH   6  10
ATOM     10  C   UNL A   1      42.893  25.672  25.386  1.00  0.00     0.039 C 
BRANCH  10  11
ATOM     11  C   UNL A   1      41.397  26.075  25.455  1.00  0.00     0.161 C 
BRANCH  11  12
ATOM     12  O   UNL A   1      40.955  26.616  26.700  1.00  0.00    -0.376 OA
BRANCH  12  13
ATOM     13  C   UNL A   1      41.134  28.008  27.014  1.00  0.00     0.060 C 
ATOM     14  C   UNL A   1      42.151  28.069  28.168  1.00  0.00     0.042 C 
ATOM     15  C   UNL A   1      39.842  28.594  27.551  1.00  0.00     0.042 C 
ATOM     16  C   UNL A   1      41.656  28.873  25.860  1.00  0.00     0.042 C 
ENDBRANCH  12  13
ENDBRANCH  11  12
ENDBRANCH  10  11
ENDBRANCH   6  10
BRANCH   5  17
ATOM     17  N   UNL A   1      42.755  22.241  25.566  1.00  0.00    -0.329 N 
ATOM     18  H   UNL A   1      43.103  21.295  25.715  1.00  0.00     0.347 HD
ATOM     19  H   UNL A   1      42.547  22.513  24.604  1.00  0.00     0.347 HD
BRANCH  17  20
ATOM     20  C   UNL A   1      41.436  22.329  26.246  1.00  0.00     0.183 C 
ATOM     21  C   UNL A   1      40.390  21.254  26.377  1.00  0.00     0.071 C 
ATOM     22  C   UNL A   1      41.203  21.635  27.572  1.00  0.00     0.071 C 
ENDBRANCH  17  20
ENDBRANCH   5  17
ENDBRANCH   3   5
ENDBRANCH   2   3
ENDBRANCH   1   2
BRANCH   1  23
ATOM     23  C   UNL A   1      47.948  25.177  25.224  1.00  0.00     0.275 C 
BRANCH  23  24
ATOM     24  O   UNL A   1      48.634  26.109  24.370  1.00  0.00    -0.458 OA
BRANCH  24  25
ATOM     25  C   UNL A   1      47.919  27.167  23.930  1.00  0.00     0.338 C 
ATOM     26  O   UNL A   1      47.745  27.477  22.753  1.00  0.00    -0.246 OA
BRANCH  25  27
ATOM     27  C   UNL A   1      47.299  27.894  25.067  1.00  0.00     0.060 A 
ATOM     28  C   UNL A   1      48.085  28.495  26.047  1.00  0.00     0.016 A 
ATOM     29  C   UNL A   1      45.914  27.880  25.243  1.00  0.00     0.016 A 
ATOM     30  C   UNL A   1      47.521  28.947  27.238  1.00  0.00     0.010 A 
ATOM     31  C   UNL A   1      45.339  28.461  26.386  1.00  0.00     0.010 A 
ATOM     32  C   UNL A   1      46.137  28.970  27.426  1.00  0.00    -0.014 A 
BRANCH  32  33
ATOM     33  C   UNL A   1      45.544  29.494  28.698  1.00  0.00     0.031 A 
ATOM     34  C   UNL A   1      45.457  28.610  29.920  1.00  0.00     0.074 A 
ATOM     35  C   UNL A   1      45.085  30.763  28.789  1.00  0.00     0.049 A 
ATOM     36  N   UNL A   1      44.722  28.756  30.995  1.00  0.00    -0.248 NA
ATOM     37  C   UNL A   1      46.292  27.398  29.930  1.00  0.00     0.031 C 
ATOM     38  C   UNL A   1      45.167  31.786  27.742  1.00  0.00     0.029 A 
ATOM     39  N   UNL A   1      44.458  31.416  29.826  1.00  0.00    -0.354 N 
ATOM     40  C   UNL A   1      44.934  27.613  31.762  1.00  0.00     0.074 A 
ATOM     41  C   UNL A   1      45.884  26.794  31.039  1.00  0.00     0.031 C 
ATOM     42  C   UNL A   1      44.674  32.942  28.206  1.00  0.00     0.029 A 
ATOM     43  C   UNL A   1      44.099  32.710  29.523  1.00  0.00     0.049 A 
ATOM     44  H   UNL A   1      44.282  30.999  30.700  1.00  0.00     0.167 HD
ATOM     45  C   UNL A   1      44.375  27.275  32.948  1.00  0.00     0.031 A 
ATOM     46  C   UNL A   1      43.324  33.598  30.176  1.00  0.00     0.031 A 
ATOM     47  C   UNL A   1      43.478  28.124  33.690  1.00  0.00     0.049 A 
ATOM     48  C   UNL A   1      42.664  33.186  31.458  1.00  0.00     0.074 A 
ATOM     49  C   UNL A   1      42.849  27.869  34.898  1.00  0.00     0.029 A 
ATOM     50  N   UNL A   1      43.103  29.404  33.309  1.00  0.00    -0.354 N 
ATOM     51  N   UNL A   1      42.766  32.051  32.106  1.00  0.00    -0.248 NA
ATOM     52  C   UNL A   1      41.757  34.160  32.077  1.00  0.00     0.031 C 
ATOM     53  C   UNL A   1      42.063  28.979  35.226  1.00  0.00     0.029 A 
ATOM     54  C   UNL A   1      42.245  29.947  34.252  1.00  0.00     0.049 A 
ATOM     55  H   UNL A   1      43.402  29.859  32.489  1.00  0.00     0.167 HD
ATOM     56  C   UNL A   1      41.938  32.177  33.214  1.00  0.00     0.074 A 
ATOM     57  C   UNL A   1      41.363  33.505  33.161  1.00  0.00     0.031 C 
ATOM     58  C   UNL A   1      41.675  31.268  34.184  1.00  0.00     0.031 A 
BRANCH  45  59
ATOM     59  C   UNL A   1      44.663  25.900  33.497  1.00  0.00    -0.014 A 
ATOM     60  C   UNL A   1      43.994  24.756  33.031  1.00  0.00     0.010 A 
ATOM     61  C   UNL A   1      45.668  25.751  34.473  1.00  0.00     0.010 A 
ATOM     62  C   UNL A   1      44.296  23.495  33.556  1.00  0.00     0.020 A 
ATOM     63  C   UNL A   1      45.994  24.489  34.980  1.00  0.00     0.020 A 
ATOM     64  C   UNL A   1      45.293  23.370  34.531  1.00  0.00     0.054 A 
BRANCH  64  65
ATOM     65  S   UNL A   1      45.682  21.721  35.180  1.00  0.00     0.124 S 
ATOM     66  O   UNL A   1      46.947  21.426  34.512  1.00  0.00    -0.237 OA
ATOM     67  O   UNL A   1      45.772  21.954  36.619  1.00  0.00    -0.237 OA
ATOM     68  O   UNL A   1      44.548  20.905  34.754  1.00  0.00    -0.744 OA
ENDBRANCH  64  65
ENDBRANCH  45  59
BRANCH  46  69
ATOM     69  C   UNL A   1      43.056  34.930  29.565  1.00  0.00    -0.014 A 
ATOM     70  C   UNL A   1      43.887  36.028  29.843  1.00  0.00     0.010 A 
ATOM     71  C   UNL A   1      41.987  35.093  28.661  1.00  0.00     0.010 A 
ATOM     72  C   UNL A   1      43.660  37.261  29.223  1.00  0.00     0.020 A 
ATOM     73  C   UNL A   1      41.779  36.313  28.013  1.00  0.00     0.020 A 
ATOM     74  C   UNL A   1      42.613  37.392  28.304  1.00  0.00     0.054 A 
BRANCH  74  75
ATOM     75  S   UNL A   1      42.392  38.973  27.442  1.00  0.00     0.124 S 
ATOM     76  O   UNL A   1      43.708  39.180  26.847  1.00  0.00    -0.237 OA
ATOM     77  O   UNL A   1      41.311  38.675  26.504  1.00  0.00    -0.237 OA
ATOM     78  O   UNL A   1      42.035  39.899  28.515  1.00  0.00    -0.744 OA
ENDBRANCH  74  75
ENDBRANCH  46  69
BRANCH  58  79
ATOM     79  C   UNL A   1      40.748  31.695  35.289  1.00  0.00    -0.014 A 
ATOM     80  C   UNL A   1      39.375  31.400  35.240  1.00  0.00     0.010 A 
ATOM     81  C   UNL A   1      41.268  32.369  36.408  1.00  0.00     0.010 A 
ATOM     82  C   UNL A   1      38.531  31.801  36.278  1.00  0.00     0.020 A 
ATOM     83  C   UNL A   1      40.432  32.750  37.460  1.00  0.00     0.020 A 
ATOM     84  C   UNL A   1      39.064  32.475  37.381  1.00  0.00     0.054 A 
BRANCH  84  85
ATOM     85  S   UNL A   1      37.956  32.953  38.735  1.00  0.00     0.124 S 
ATOM     86  O   UNL A   1      38.388  34.321  39.011  1.00  0.00    -0.237 OA
ATOM     87  O   UNL A   1      36.633  32.822  38.129  1.00  0.00    -0.237 OA
ATOM     88  O   UNL A   1      38.254  31.981  39.785  1.00  0.00    -0.744 OA
ENDBRANCH  84  85
ENDBRANCH  58  79
ENDBRANCH  32  33
ENDBRANCH  25  27
ENDBRANCH  24  25
ENDBRANCH  23  24
ENDBRANCH   1  23
TORSDOF 20
ENDMDL
