MODEL 1
REMARK VINA RESULT:     -13.3      0.000      0.000
REMARK SMILES O=C(OCCOC(=O)[C@@H]1CCCC[C@@H]1NS(=O)(=O)c1ccc2ccccc2c1)c1ccc(-c2c3nc(c(-c4ccc(S(=O)(=O)[O-])cc4)c4ccc([nH]4)c(-c4ccc(S(=O)(=O)[O-])cc4)c4nc(c(-c5ccc(S(=O)(=O)[O-])cc5)c5ccc2[nH]5)C=C4)C=C3)cc1
REMARK SMILES IDX 4 1 3 2 2 3 1 4 29 5 30 6 88 7 31 8 87 9 32 10 33 11 34 12
REMARK SMILES IDX 81 13 35 14 86 15 80 16 82 17 36 18 85 19 79 20 78 21 37 23
REMARK SMILES IDX 67 24 48 25 66 26 49 27 52 28 65 29 83 30 50 31 51 32 64 34
REMARK SMILES IDX 84 35 53 36 38 37 39 38 47 39 40 40 46 41 41 42 42 43 43 44
REMARK SMILES IDX 44 45 45 46 68 47 69 48 77 49 70 50 76 51 71 52 72 53 73 54
REMARK SMILES IDX 74 55 75 56 54 57 55 58 63 59 56 60 62 61 57 62 58 63 59 64
REMARK SMILES IDX 60 65 61 66 5 67 6 68 7 69 8 70 9 71 10 72 14 73 11 74 13 75
REMARK SMILES IDX 12 76 15 77 16 79 17 80 18 81 19 82 20 83 28 84 21 85 27 86
REMARK SMILES IDX 22 87 26 88 23 89 25 90 24 91
REMARK H PARENT 82 22 52 33 15 78
REMARK Flexibility Score: inf
ROOT
ATOM      1  C   UNL A   1      32.351  28.868  26.196  1.00  0.00     0.275 C 
ENDROOT
BRANCH   1   2
ATOM      2  O   UNL A   1      33.732  29.183  26.607  1.00  0.00    -0.458 OA
BRANCH   2   3
ATOM      3  C   UNL A   1      34.233  30.093  27.512  1.00  0.00     0.338 C 
ATOM      4  O   UNL A   1      33.655  31.163  27.689  1.00  0.00    -0.246 OA
BRANCH   3   5
ATOM      5  C   UNL A   1      35.632  29.966  28.045  1.00  0.00     0.060 A 
ATOM      6  C   UNL A   1      35.920  29.672  29.372  1.00  0.00     0.016 A 
ATOM      7  C   UNL A   1      36.715  30.088  27.150  1.00  0.00     0.016 A 
ATOM      8  C   UNL A   1      37.215  29.247  29.749  1.00  0.00     0.010 A 
ATOM      9  C   UNL A   1      38.017  29.708  27.540  1.00  0.00     0.010 A 
ATOM     10  C   UNL A   1      38.267  29.185  28.826  1.00  0.00    -0.014 A 
BRANCH  10  11
ATOM     11  C   UNL A   1      39.673  28.978  29.309  1.00  0.00     0.031 A 
ATOM     12  C   UNL A   1      40.207  27.604  29.015  1.00  0.00     0.074 A 
ATOM     13  C   UNL A   1      40.486  29.882  29.913  1.00  0.00     0.049 A 
ATOM     14  N   UNL A   1      41.351  27.063  29.326  1.00  0.00    -0.248 NA
ATOM     15  C   UNL A   1      39.322  26.740  28.211  1.00  0.00     0.031 C 
ATOM     16  C   UNL A   1      40.247  31.313  30.088  1.00  0.00     0.029 A 
ATOM     17  N   UNL A   1      41.715  29.712  30.528  1.00  0.00    -0.354 N 
ATOM     18  C   UNL A   1      41.332  25.816  28.718  1.00  0.00     0.074 A 
ATOM     19  C   UNL A   1      40.042  25.646  28.098  1.00  0.00     0.031 C 
ATOM     20  C   UNL A   1      41.188  31.851  30.889  1.00  0.00     0.029 A 
ATOM     21  C   UNL A   1      42.169  30.826  31.214  1.00  0.00     0.049 A 
ATOM     22  H   UNL A   1      42.222  28.870  30.481  1.00  0.00     0.167 HD
ATOM     23  C   UNL A   1      42.317  24.897  28.628  1.00  0.00     0.031 A 
ATOM     24  C   UNL A   1      43.263  31.012  31.988  1.00  0.00     0.031 A 
ATOM     25  C   UNL A   1      43.578  25.031  29.281  1.00  0.00     0.049 A 
ATOM     26  C   UNL A   1      44.276  29.896  32.059  1.00  0.00     0.074 A 
ATOM     27  C   UNL A   1      44.621  24.131  29.338  1.00  0.00     0.029 A 
ATOM     28  N   UNL A   1      43.952  26.147  30.014  1.00  0.00    -0.354 N 
ATOM     29  N   UNL A   1      44.240  28.722  31.473  1.00  0.00    -0.248 NA
ATOM     30  C   UNL A   1      45.500  30.140  32.839  1.00  0.00     0.031 C 
ATOM     31  C   UNL A   1      45.622  24.696  30.136  1.00  0.00     0.029 A 
ATOM     32  C   UNL A   1      45.215  25.963  30.534  1.00  0.00     0.049 A 
ATOM     33  H   UNL A   1      43.399  26.953  30.143  1.00  0.00     0.167 HD
ATOM     34  C   UNL A   1      45.462  28.121  31.749  1.00  0.00     0.074 A 
ATOM     35  C   UNL A   1      46.205  29.044  32.583  1.00  0.00     0.031 C 
ATOM     36  C   UNL A   1      45.937  26.924  31.328  1.00  0.00     0.031 A 
BRANCH  23  37
ATOM     37  C   UNL A   1      41.970  23.679  27.824  1.00  0.00    -0.014 A 
ATOM     38  C   UNL A   1      41.144  22.679  28.377  1.00  0.00     0.010 A 
ATOM     39  C   UNL A   1      42.665  23.425  26.630  1.00  0.00     0.010 A 
ATOM     40  C   UNL A   1      41.114  21.404  27.811  1.00  0.00     0.020 A 
ATOM     41  C   UNL A   1      42.612  22.158  26.046  1.00  0.00     0.020 A 
ATOM     42  C   UNL A   1      41.873  21.145  26.665  1.00  0.00     0.054 A 
BRANCH  42  43
ATOM     43  S   UNL A   1      41.934  19.451  26.024  1.00  0.00     0.124 S 
ATOM     44  O   UNL A   1      42.481  18.721  27.166  1.00  0.00    -0.237 OA
ATOM     45  O   UNL A   1      40.535  19.171  25.713  1.00  0.00    -0.237 OA
ATOM     46  O   UNL A   1      42.820  19.554  24.867  1.00  0.00    -0.744 OA
ENDBRANCH  42  43
ENDBRANCH  23  37
BRANCH  24  47
ATOM     47  C   UNL A   1      43.501  32.292  32.732  1.00  0.00    -0.014 A 
ATOM     48  C   UNL A   1      42.960  32.512  34.014  1.00  0.00     0.010 A 
ATOM     49  C   UNL A   1      44.223  33.339  32.126  1.00  0.00     0.010 A 
ATOM     50  C   UNL A   1      43.110  33.751  34.657  1.00  0.00     0.020 A 
ATOM     51  C   UNL A   1      44.388  34.575  32.771  1.00  0.00     0.020 A 
ATOM     52  C   UNL A   1      43.820  34.778  34.030  1.00  0.00     0.054 A 
BRANCH  52  53
ATOM     53  S   UNL A   1      44.006  36.374  34.885  1.00  0.00     0.124 S 
ATOM     54  O   UNL A   1      44.328  35.956  36.247  1.00  0.00    -0.237 OA
ATOM     55  O   UNL A   1      45.097  37.003  34.144  1.00  0.00    -0.237 OA
ATOM     56  O   UNL A   1      42.700  37.007  34.719  1.00  0.00    -0.744 OA
ENDBRANCH  52  53
ENDBRANCH  24  47
BRANCH  36  57
ATOM     57  C   UNL A   1      47.349  26.560  31.680  1.00  0.00    -0.014 A 
ATOM     58  C   UNL A   1      47.642  25.817  32.834  1.00  0.00     0.010 A 
ATOM     59  C   UNL A   1      48.365  26.822  30.742  1.00  0.00     0.010 A 
ATOM     60  C   UNL A   1      48.930  25.319  33.033  1.00  0.00     0.020 A 
ATOM     61  C   UNL A   1      49.647  26.307  30.927  1.00  0.00     0.020 A 
ATOM     62  C   UNL A   1      49.920  25.554  32.070  1.00  0.00     0.054 A 
BRANCH  62  63
ATOM     63  S   UNL A   1      51.541  24.770  32.276  1.00  0.00     0.124 S 
ATOM     64  O   UNL A   1      51.849  25.070  33.671  1.00  0.00    -0.237 OA
ATOM     65  O   UNL A   1      51.259  23.367  31.981  1.00  0.00    -0.237 OA
ATOM     66  O   UNL A   1      52.381  25.448  31.291  1.00  0.00    -0.744 OA
ENDBRANCH  62  63
ENDBRANCH  36  57
ENDBRANCH  10  11
ENDBRANCH   3   5
ENDBRANCH   2   3
ENDBRANCH   1   2
BRANCH   1  67
ATOM     67  C   UNL A   1      31.423  27.620  26.973  1.00  0.00     0.274 C 
BRANCH  67  68
ATOM     68  O   UNL A   1      31.645  25.603  26.816  1.00  0.00    -0.462 OA
BRANCH  68  69
ATOM     69  C   UNL A   1      31.572  24.202  26.782  1.00  0.00     0.310 C 
ATOM     70  O   UNL A   1      30.582  23.650  27.282  1.00  0.00    -0.252 OA
BRANCH  69  71
ATOM     71  C   UNL A   1      32.679  23.282  26.174  1.00  0.00     0.117 C 
ATOM     72  C   UNL A   1      33.995  23.183  26.936  1.00  0.00     0.017 C 
ATOM     73  C   UNL A   1      32.907  23.144  24.654  1.00  0.00     0.084 C 
ATOM     74  C   UNL A   1      34.657  21.830  26.737  1.00  0.00     0.001 C 
ATOM     75  C   UNL A   1      33.791  21.892  24.357  1.00  0.00     0.021 C 
ATOM     76  C   UNL A   1      35.021  21.712  25.263  1.00  0.00     0.002 C 
BRANCH  73  77
ATOM     77  N   UNL A   1      33.580  24.282  23.994  1.00  0.00    -0.207 NA
ATOM     78  H   UNL A   1      34.566  24.031  23.914  1.00  0.00     0.141 HD
BRANCH  77  79
ATOM     79  S   UNL A   1      33.091  24.799  22.477  1.00  0.00     0.240 S 
ATOM     80  O   UNL A   1      34.152  25.600  21.917  1.00  0.00    -0.207 OA
ATOM     81  O   UNL A   1      32.484  23.691  21.780  1.00  0.00    -0.207 OA
BRANCH  79  82
ATOM     82  C   UNL A   1      31.834  25.886  22.972  1.00  0.00     0.083 A 
ATOM     83  C   UNL A   1      30.354  25.116  23.632  1.00  0.00     0.022 A 
ATOM     84  C   UNL A   1      31.776  27.600  22.438  1.00  0.00     0.030 A 
ATOM     85  C   UNL A   1      28.826  26.097  23.756  1.00  0.00     0.010 A 
ATOM     86  C   UNL A   1      30.247  28.562  22.561  1.00  0.00    -0.017 A 
ATOM     87  C   UNL A   1      28.775  27.812  23.244  1.00  0.00    -0.018 A 
ATOM     88  C   UNL A   1      30.030  29.836  22.045  1.00  0.00     0.009 A 
ATOM     89  C   UNL A   1      27.628  28.587  23.311  1.00  0.00     0.009 A 
ATOM     90  C   UNL A   1      28.757  30.443  22.123  1.00  0.00     0.001 A 
ATOM     91  C   UNL A   1      27.627  29.867  22.754  1.00  0.00     0.001 A 
ENDBRANCH  79  82
ENDBRANCH  77  79
ENDBRANCH  73  77
ENDBRANCH  69  71
ENDBRANCH  68  69
ENDBRANCH  67  68
ENDBRANCH   1  67
TORSDOF 17
ENDMDL
MODEL 2
REMARK VINA RESULT:     -13.2      2.947      9.235
REMARK SMILES O=C(OCCOC(=O)[C@@H]1CCCC[C@@H]1NS(=O)(=O)c1ccc2ccccc2c1)c1ccc(-c2c3nc(c(-c4ccc(S(=O)(=O)[O-])cc4)c4ccc([nH]4)c(-c4ccc(S(=O)(=O)[O-])cc4)c4nc(c(-c5ccc(S(=O)(=O)[O-])cc5)c5ccc2[nH]5)C=C4)C=C3)cc1
REMARK SMILES IDX 4 1 3 2 2 3 1 4 29 5 30 6 88 7 31 8 87 9 32 10 33 11 34 12
REMARK SMILES IDX 81 13 35 14 86 15 80 16 82 17 36 18 85 19 79 20 78 21 37 23
REMARK SMILES IDX 67 24 48 25 66 26 49 27 52 28 65 29 83 30 50 31 51 32 64 34
REMARK SMILES IDX 84 35 53 36 38 37 39 38 47 39 40 40 46 41 41 42 42 43 43 44
REMARK SMILES IDX 44 45 45 46 68 47 69 48 77 49 70 50 76 51 71 52 72 53 73 54
REMARK SMILES IDX 74 55 75 56 54 57 55 58 63 59 56 60 62 61 57 62 58 63 59 64
REMARK SMILES IDX 60 65 61 66 5 67 6 68 7 69 8 70 9 71 10 72 14 73 11 74 13 75
REMARK SMILES IDX 12 76 15 77 16 79 17 80 18 81 19 82 20 83 28 84 21 85 27 86
REMARK SMILES IDX 22 87 26 88 23 89 25 90 24 91
REMARK H PARENT 82 22 52 33 15 78
REMARK Flexibility Score: inf
ROOT
ATOM      1  C   UNL A   1      36.569  23.239  24.367  1.00  0.00     0.275 C 
ENDROOT
BRANCH   1   2
ATOM      2  O   UNL A   1      37.174  23.282  25.712  1.00  0.00    -0.458 OA
BRANCH   2   3
ATOM      3  C   UNL A   1      38.475  23.128  26.135  1.00  0.00     0.338 C 
ATOM      4  O   UNL A   1      38.963  22.003  26.219  1.00  0.00    -0.246 OA
BRANCH   3   5
ATOM      5  C   UNL A   1      39.209  24.251  26.811  1.00  0.00     0.060 A 
ATOM      6  C   UNL A   1      40.133  25.060  26.160  1.00  0.00     0.016 A 
ATOM      7  C   UNL A   1      38.909  24.549  28.156  1.00  0.00     0.016 A 
ATOM      8  C   UNL A   1      40.546  26.285  26.735  1.00  0.00     0.010 A 
ATOM      9  C   UNL A   1      39.359  25.750  28.745  1.00  0.00     0.010 A 
ATOM     10  C   UNL A   1      40.107  26.687  28.003  1.00  0.00    -0.014 A 
BRANCH  10  11
ATOM     11  C   UNL A   1      40.759  27.857  28.681  1.00  0.00     0.031 A 
ATOM     12  C   UNL A   1      39.865  29.061  28.779  1.00  0.00     0.074 A 
ATOM     13  C   UNL A   1      42.000  27.914  29.230  1.00  0.00     0.049 A 
ATOM     14  N   UNL A   1      40.107  30.251  29.252  1.00  0.00    -0.248 NA
ATOM     15  C   UNL A   1      38.482  28.862  28.309  1.00  0.00     0.031 C 
ATOM     16  C   UNL A   1      42.931  26.808  29.438  1.00  0.00     0.029 A 
ATOM     17  N   UNL A   1      42.717  28.996  29.713  1.00  0.00    -0.354 N 
ATOM     18  C   UNL A   1      38.894  30.920  29.174  1.00  0.00     0.074 A 
ATOM     19  C   UNL A   1      37.947  30.043  28.532  1.00  0.00     0.031 C 
ATOM     20  C   UNL A   1      44.130  27.273  29.840  1.00  0.00     0.029 A 
ATOM     21  C   UNL A   1      44.037  28.714  30.022  1.00  0.00     0.049 A 
ATOM     22  H   UNL A   1      42.321  29.890  29.827  1.00  0.00     0.167 HD
ATOM     23  C   UNL A   1      38.564  32.144  29.637  1.00  0.00     0.031 A 
ATOM     24  C   UNL A   1      45.047  29.514  30.433  1.00  0.00     0.031 A 
ATOM     25  C   UNL A   1      39.505  33.041  30.224  1.00  0.00     0.049 A 
ATOM     26  C   UNL A   1      44.723  30.952  30.756  1.00  0.00     0.074 A 
ATOM     27  C   UNL A   1      39.312  34.338  30.652  1.00  0.00     0.029 A 
ATOM     28  N   UNL A   1      40.837  32.725  30.448  1.00  0.00    -0.354 N 
ATOM     29  N   UNL A   1      43.565  31.566  30.676  1.00  0.00    -0.248 NA
ATOM     30  C   UNL A   1      45.813  31.792  31.279  1.00  0.00     0.031 C 
ATOM     31  C   UNL A   1      40.543  34.820  31.109  1.00  0.00     0.029 A 
ATOM     32  C   UNL A   1      41.485  33.805  31.007  1.00  0.00     0.049 A 
ATOM     33  H   UNL A   1      41.256  31.858  30.239  1.00  0.00     0.167 HD
ATOM     34  C   UNL A   1      43.769  32.834  31.207  1.00  0.00     0.074 A 
ATOM     35  C   UNL A   1      45.168  32.914  31.575  1.00  0.00     0.031 C 
ATOM     36  C   UNL A   1      42.873  33.832  31.396  1.00  0.00     0.031 A 
BRANCH  23  37
ATOM     37  C   UNL A   1      37.127  32.525  29.442  1.00  0.00    -0.014 A 
ATOM     38  C   UNL A   1      36.683  32.989  28.186  1.00  0.00     0.010 A 
ATOM     39  C   UNL A   1      36.293  32.654  30.564  1.00  0.00     0.010 A 
ATOM     40  C   UNL A   1      35.477  33.683  28.082  1.00  0.00     0.020 A 
ATOM     41  C   UNL A   1      35.072  33.322  30.456  1.00  0.00     0.020 A 
ATOM     42  C   UNL A   1      34.694  33.870  29.226  1.00  0.00     0.054 A 
BRANCH  42  43
ATOM     43  S   UNL A   1      33.202  34.893  29.103  1.00  0.00     0.124 S 
ATOM     44  O   UNL A   1      32.709  34.863  30.479  1.00  0.00    -0.237 OA
ATOM     45  O   UNL A   1      33.727  36.179  28.652  1.00  0.00    -0.237 OA
ATOM     46  O   UNL A   1      32.379  34.181  28.129  1.00  0.00    -0.744 OA
ENDBRANCH  42  43
ENDBRANCH  23  37
BRANCH  24  47
ATOM     47  C   UNL A   1      46.447  29.002  30.605  1.00  0.00    -0.014 A 
ATOM     48  C   UNL A   1      47.386  29.055  29.557  1.00  0.00     0.010 A 
ATOM     49  C   UNL A   1      46.832  28.388  31.813  1.00  0.00     0.010 A 
ATOM     50  C   UNL A   1      48.660  28.484  29.701  1.00  0.00     0.020 A 
ATOM     51  C   UNL A   1      48.110  27.829  31.967  1.00  0.00     0.020 A 
ATOM     52  C   UNL A   1      49.014  27.870  30.905  1.00  0.00     0.054 A 
BRANCH  52  53
ATOM     53  S   UNL A   1      50.674  27.142  31.071  1.00  0.00     0.124 S 
ATOM     54  O   UNL A   1      50.374  25.719  31.198  1.00  0.00    -0.237 OA
ATOM     55  O   UNL A   1      51.319  27.542  29.822  1.00  0.00    -0.237 OA
ATOM     56  O   UNL A   1      51.210  27.777  32.273  1.00  0.00    -0.744 OA
ENDBRANCH  52  53
ENDBRANCH  24  47
BRANCH  36  57
ATOM     57  C   UNL A   1      43.334  35.072  32.103  1.00  0.00    -0.014 A 
ATOM     58  C   UNL A   1      43.890  36.148  31.393  1.00  0.00     0.010 A 
ATOM     59  C   UNL A   1      43.039  35.216  33.472  1.00  0.00     0.010 A 
ATOM     60  C   UNL A   1      44.122  37.362  32.040  1.00  0.00     0.020 A 
ATOM     61  C   UNL A   1      43.249  36.434  34.115  1.00  0.00     0.020 A 
ATOM     62  C   UNL A   1      43.785  37.502  33.393  1.00  0.00     0.054 A 
BRANCH  62  63
ATOM     63  S   UNL A   1      43.954  39.131  34.170  1.00  0.00     0.124 S 
ATOM     64  O   UNL A   1      45.211  39.610  33.601  1.00  0.00    -0.237 OA
ATOM     65  O   UNL A   1      42.752  39.828  33.720  1.00  0.00    -0.237 OA
ATOM     66  O   UNL A   1      43.991  38.830  35.599  1.00  0.00    -0.744 OA
ENDBRANCH  62  63
ENDBRANCH  36  57
ENDBRANCH  10  11
ENDBRANCH   3   5
ENDBRANCH   2   3
ENDBRANCH   1   2
BRANCH   1  67
ATOM     67  C   UNL A   1      34.889  23.601  24.104  1.00  0.00     0.274 C 
BRANCH  67  68
ATOM     68  O   UNL A   1      34.033  25.411  23.737  1.00  0.00    -0.462 OA
BRANCH  68  69
ATOM     69  C   UNL A   1      33.667  26.734  23.446  1.00  0.00     0.310 C 
ATOM     70  O   UNL A   1      33.633  27.090  22.260  1.00  0.00    -0.252 OA
BRANCH  69  71
ATOM     71  C   UNL A   1      33.320  27.805  24.530  1.00  0.00     0.117 C 
ATOM     72  C   UNL A   1      33.543  27.415  25.987  1.00  0.00     0.017 C 
ATOM     73  C   UNL A   1      32.129  28.776  24.392  1.00  0.00     0.084 C 
ATOM     74  C   UNL A   1      33.891  28.621  26.842  1.00  0.00     0.001 C 
ATOM     75  C   UNL A   1      32.275  29.949  25.412  1.00  0.00     0.021 C 
ATOM     76  C   UNL A   1      32.681  29.547  26.840  1.00  0.00     0.002 C 
BRANCH  73  77
ATOM     77  N   UNL A   1      30.790  28.197  24.628  1.00  0.00    -0.207 NA
ATOM     78  H   UNL A   1      30.195  28.960  24.952  1.00  0.00     0.141 HD
BRANCH  77  79
ATOM     79  S   UNL A   1      29.961  27.434  23.388  1.00  0.00     0.240 S 
ATOM     80  O   UNL A   1      28.562  27.759  23.522  1.00  0.00    -0.207 OA
ATOM     81  O   UNL A   1      30.698  27.604  22.159  1.00  0.00    -0.207 OA
BRANCH  79  82
ATOM     82  C   UNL A   1      30.161  25.795  23.920  1.00  0.00     0.083 A 
ATOM     83  C   UNL A   1      30.257  25.559  25.696  1.00  0.00     0.022 A 
ATOM     84  C   UNL A   1      30.719  24.487  22.824  1.00  0.00     0.030 A 
ATOM     85  C   UNL A   1      30.908  23.990  26.347  1.00  0.00     0.010 A 
ATOM     86  C   UNL A   1      31.371  22.933  23.485  1.00  0.00    -0.017 A 
ATOM     87  C   UNL A   1      31.442  22.677  25.252  1.00  0.00    -0.018 A 
ATOM     88  C   UNL A   1      31.973  21.913  22.754  1.00  0.00     0.009 A 
ATOM     89  C   UNL A   1      31.956  21.473  25.710  1.00  0.00     0.009 A 
ATOM     90  C   UNL A   1      32.530  20.788  23.400  1.00  0.00     0.001 A 
ATOM     91  C   UNL A   1      32.492  20.561  24.799  1.00  0.00     0.001 A 
ENDBRANCH  79  82
ENDBRANCH  77  79
ENDBRANCH  73  77
ENDBRANCH  69  71
ENDBRANCH  68  69
ENDBRANCH  67  68
ENDBRANCH   1  67
TORSDOF 17
ENDMDL
MODEL 3
REMARK VINA RESULT:     -13.0      2.733      8.369
REMARK SMILES O=C(OCCOC(=O)[C@@H]1CCCC[C@@H]1NS(=O)(=O)c1ccc2ccccc2c1)c1ccc(-c2c3nc(c(-c4ccc(S(=O)(=O)[O-])cc4)c4ccc([nH]4)c(-c4ccc(S(=O)(=O)[O-])cc4)c4nc(c(-c5ccc(S(=O)(=O)[O-])cc5)c5ccc2[nH]5)C=C4)C=C3)cc1
REMARK SMILES IDX 4 1 3 2 2 3 1 4 29 5 30 6 88 7 31 8 87 9 32 10 33 11 34 12
REMARK SMILES IDX 81 13 35 14 86 15 80 16 82 17 36 18 85 19 79 20 78 21 37 23
REMARK SMILES IDX 67 24 48 25 66 26 49 27 52 28 65 29 83 30 50 31 51 32 64 34
REMARK SMILES IDX 84 35 53 36 38 37 39 38 47 39 40 40 46 41 41 42 42 43 43 44
REMARK SMILES IDX 44 45 45 46 68 47 69 48 77 49 70 50 76 51 71 52 72 53 73 54
REMARK SMILES IDX 74 55 75 56 54 57 55 58 63 59 56 60 62 61 57 62 58 63 59 64
REMARK SMILES IDX 60 65 61 66 5 67 6 68 7 69 8 70 9 71 10 72 14 73 11 74 13 75
REMARK SMILES IDX 12 76 15 77 16 79 17 80 18 81 19 82 20 83 28 84 21 85 27 86
REMARK SMILES IDX 22 87 26 88 23 89 25 90 24 91
REMARK H PARENT 82 22 52 33 15 78
REMARK Flexibility Score: inf
ROOT
ATOM      1  C   UNL A   1      37.007  23.108  24.730  1.00  0.00     0.275 C 
ENDROOT
BRANCH   1   2
ATOM      2  O   UNL A   1      37.833  22.333  25.674  1.00  0.00    -0.458 OA
BRANCH   2   3
ATOM      3  C   UNL A   1      39.125  22.508  26.118  1.00  0.00     0.338 C 
ATOM      4  O   UNL A   1      39.862  21.535  26.260  1.00  0.00    -0.246 OA
BRANCH   3   5
ATOM      5  C   UNL A   1      39.559  23.802  26.747  1.00  0.00     0.060 A 
ATOM      6  C   UNL A   1      40.295  24.769  26.074  1.00  0.00     0.016 A 
ATOM      7  C   UNL A   1      39.153  24.087  28.067  1.00  0.00     0.016 A 
ATOM      8  C   UNL A   1      40.397  26.083  26.589  1.00  0.00     0.010 A 
ATOM      9  C   UNL A   1      39.296  25.387  28.599  1.00  0.00     0.010 A 
ATOM     10  C   UNL A   1      39.835  26.434  27.824  1.00  0.00    -0.014 A 
BRANCH  10  11
ATOM     11  C   UNL A   1      40.178  27.754  28.451  1.00  0.00     0.031 A 
ATOM     12  C   UNL A   1      41.556  27.786  29.052  1.00  0.00     0.074 A 
ATOM     13  C   UNL A   1      39.422  28.880  28.484  1.00  0.00     0.049 A 
ATOM     14  N   UNL A   1      42.163  28.732  29.712  1.00  0.00    -0.248 NA
ATOM     15  C   UNL A   1      42.372  26.578  28.828  1.00  0.00     0.031 C 
ATOM     16  C   UNL A   1      38.167  29.129  27.778  1.00  0.00     0.029 A 
ATOM     17  N   UNL A   1      39.604  30.062  29.182  1.00  0.00    -0.354 N 
ATOM     18  C   UNL A   1      43.442  28.244  29.939  1.00  0.00     0.074 A 
ATOM     19  C   UNL A   1      43.497  26.897  29.430  1.00  0.00     0.031 C 
ATOM     20  C   UNL A   1      37.616  30.286  28.193  1.00  0.00     0.029 A 
ATOM     21  C   UNL A   1      38.525  30.928  29.130  1.00  0.00     0.049 A 
ATOM     22  H   UNL A   1      40.432  30.269  29.673  1.00  0.00     0.167 HD
ATOM     23  C   UNL A   1      44.509  28.870  30.479  1.00  0.00     0.031 A 
ATOM     24  C   UNL A   1      38.304  32.116  29.740  1.00  0.00     0.031 A 
ATOM     25  C   UNL A   1      44.451  30.182  31.035  1.00  0.00     0.049 A 
ATOM     26  C   UNL A   1      39.437  32.727  30.527  1.00  0.00     0.074 A 
ATOM     27  C   UNL A   1      45.439  30.888  31.688  1.00  0.00     0.029 A 
ATOM     28  N   UNL A   1      43.317  30.980  31.013  1.00  0.00    -0.354 N 
ATOM     29  N   UNL A   1      40.643  32.249  30.729  1.00  0.00    -0.248 NA
ATOM     30  C   UNL A   1      39.212  34.056  31.119  1.00  0.00     0.031 C 
ATOM     31  C   UNL A   1      44.890  32.110  32.090  1.00  0.00     0.029 A 
ATOM     32  C   UNL A   1      43.576  32.177  31.646  1.00  0.00     0.049 A 
ATOM     33  H   UNL A   1      42.455  30.730  30.606  1.00  0.00     0.167 HD
ATOM     34  C   UNL A   1      41.340  33.245  31.402  1.00  0.00     0.074 A 
ATOM     35  C   UNL A   1      40.415  34.341  31.604  1.00  0.00     0.031 C 
ATOM     36  C   UNL A   1      42.637  33.260  31.792  1.00  0.00     0.031 A 
BRANCH  23  37
ATOM     37  C   UNL A   1      45.769  28.057  30.504  1.00  0.00    -0.014 A 
ATOM     38  C   UNL A   1      46.103  27.305  31.650  1.00  0.00     0.010 A 
ATOM     39  C   UNL A   1      46.726  28.244  29.493  1.00  0.00     0.010 A 
ATOM     40  C   UNL A   1      47.411  26.856  31.836  1.00  0.00     0.020 A 
ATOM     41  C   UNL A   1      48.027  27.769  29.665  1.00  0.00     0.020 A 
ATOM     42  C   UNL A   1      48.370  27.118  30.854  1.00  0.00     0.054 A 
BRANCH  42  43
ATOM     43  S   UNL A   1      50.093  26.651  31.172  1.00  0.00     0.124 S 
ATOM     44  O   UNL A   1      50.145  26.685  32.632  1.00  0.00    -0.237 OA
ATOM     45  O   UNL A   1      50.186  25.323  30.573  1.00  0.00    -0.237 OA
ATOM     46  O   UNL A   1      50.860  27.694  30.496  1.00  0.00    -0.744 OA
ENDBRANCH  42  43
ENDBRANCH  23  37
BRANCH  24  47
ATOM     47  C   UNL A   1      36.995  32.838  29.622  1.00  0.00    -0.014 A 
ATOM     48  C   UNL A   1      36.640  33.536  28.452  1.00  0.00     0.010 A 
ATOM     49  C   UNL A   1      36.113  32.887  30.719  1.00  0.00     0.010 A 
ATOM     50  C   UNL A   1      35.456  34.288  28.391  1.00  0.00     0.020 A 
ATOM     51  C   UNL A   1      34.920  33.624  30.659  1.00  0.00     0.020 A 
ATOM     52  C   UNL A   1      34.603  34.330  29.498  1.00  0.00     0.054 A 
BRANCH  52  53
ATOM     53  S   UNL A   1      33.070  35.306  29.394  1.00  0.00     0.124 S 
ATOM     54  O   UNL A   1      33.568  36.618  28.991  1.00  0.00    -0.237 OA
ATOM     55  O   UNL A   1      32.305  34.583  28.380  1.00  0.00    -0.237 OA
ATOM     56  O   UNL A   1      32.524  35.234  30.747  1.00  0.00    -0.744 OA
ENDBRANCH  52  53
ENDBRANCH  24  47
BRANCH  36  57
ATOM     57  C   UNL A   1      43.176  34.520  32.404  1.00  0.00    -0.014 A 
ATOM     58  C   UNL A   1      43.586  35.598  31.605  1.00  0.00     0.010 A 
ATOM     59  C   UNL A   1      43.102  34.675  33.801  1.00  0.00     0.010 A 
ATOM     60  C   UNL A   1      43.891  36.825  32.194  1.00  0.00     0.020 A 
ATOM     61  C   UNL A   1      43.383  35.906  34.390  1.00  0.00     0.020 A 
ATOM     62  C   UNL A   1      43.772  36.976  33.582  1.00  0.00     0.054 A 
BRANCH  62  63
ATOM     63  S   UNL A   1      44.025  38.618  34.307  1.00  0.00     0.124 S 
ATOM     64  O   UNL A   1      42.954  39.392  33.686  1.00  0.00    -0.237 OA
ATOM     65  O   UNL A   1      43.872  38.365  35.737  1.00  0.00    -0.237 OA
ATOM     66  O   UNL A   1      45.378  38.976  33.887  1.00  0.00    -0.744 OA
ENDBRANCH  62  63
ENDBRANCH  36  57
ENDBRANCH  10  11
ENDBRANCH   3   5
ENDBRANCH   2   3
ENDBRANCH   1   2
BRANCH   1  67
ATOM     67  C   UNL A   1      35.424  23.687  25.155  1.00  0.00     0.274 C 
BRANCH  67  68
ATOM     68  O   UNL A   1      34.371  25.210  24.308  1.00  0.00    -0.462 OA
BRANCH  68  69
ATOM     69  C   UNL A   1      33.814  26.400  23.818  1.00  0.00     0.310 C 
ATOM     70  O   UNL A   1      33.647  26.515  22.596  1.00  0.00    -0.252 OA
BRANCH  69  71
ATOM     71  C   UNL A   1      33.410  27.614  24.717  1.00  0.00     0.117 C 
ATOM     72  C   UNL A   1      33.616  27.463  26.219  1.00  0.00     0.017 C 
ATOM     73  C   UNL A   1      32.191  28.510  24.411  1.00  0.00     0.084 C 
ATOM     74  C   UNL A   1      33.907  28.799  26.882  1.00  0.00     0.001 C 
ATOM     75  C   UNL A   1      32.278  29.831  25.237  1.00  0.00     0.021 C 
ATOM     76  C   UNL A   1      32.668  29.670  26.717  1.00  0.00     0.002 C 
BRANCH  73  77
ATOM     77  N   UNL A   1      30.868  27.927  24.714  1.00  0.00    -0.207 NA
ATOM     78  H   UNL A   1      30.261  28.703  24.981  1.00  0.00     0.141 HD
BRANCH  77  79
ATOM     79  S   UNL A   1      30.038  27.047  23.555  1.00  0.00     0.240 S 
ATOM     80  O   UNL A   1      28.628  27.288  23.737  1.00  0.00    -0.207 OA
ATOM     81  O   UNL A   1      30.708  27.198  22.285  1.00  0.00    -0.207 OA
BRANCH  79  82
ATOM     82  C   UNL A   1      30.369  25.455  24.159  1.00  0.00     0.083 A 
ATOM     83  C   UNL A   1      30.570  25.324  25.937  1.00  0.00     0.022 A 
ATOM     84  C   UNL A   1      30.954  24.125  23.104  1.00  0.00     0.030 A 
ATOM     85  C   UNL A   1      31.353  23.836  26.633  1.00  0.00     0.010 A 
ATOM     86  C   UNL A   1      31.738  22.653  23.809  1.00  0.00    -0.017 A 
ATOM     87  C   UNL A   1      31.914  22.500  25.580  1.00  0.00    -0.018 A 
ATOM     88  C   UNL A   1      32.366  21.633  23.100  1.00  0.00     0.009 A 
ATOM     89  C   UNL A   1      32.527  21.357  26.071  1.00  0.00     0.009 A 
ATOM     90  C   UNL A   1      33.026  20.582  23.773  1.00  0.00     0.001 A 
ATOM     91  C   UNL A   1      33.073  20.431  25.181  1.00  0.00     0.001 A 
ENDBRANCH  79  82
ENDBRANCH  77  79
ENDBRANCH  73  77
ENDBRANCH  69  71
ENDBRANCH  68  69
ENDBRANCH  67  68
ENDBRANCH   1  67
TORSDOF 17
ENDMDL
