MODEL 1
REMARK VINA RESULT:     -10.0      0.000      0.000
REMARK SMILES C[NH2+][C@]1(C(=O)OCCOC(=O)c2ccc(-c3c4nc(c(-c5ccc(S(=O)(=O)[O-])cc5)c5ccc([nH]5)c(-c5ccc(S(=O)(=O)[O-])cc5)c5nc(c(-c6ccc(S(=O)(=O)[O-])cc6)c6ccc3[nH]6)C=C5)C=C4)cc2)CCC[C@@H]1CCn1cc(C)cn1
REMARK SMILES IDX 7 1 6 2 4 3 5 4 3 5 72 6 75 7 73 8 74 9 2 10 1 11 76 14
REMARK SMILES IDX 77 15 78 16 79 17 83 18 80 19 82 20 81 21 8 22 9 23 10 24
REMARK SMILES IDX 11 25 12 26 13 27 71 28 14 29 70 30 15 31 16 32 17 33 64 34
REMARK SMILES IDX 18 35 69 36 63 37 65 38 19 39 68 40 62 41 61 42 20 44 50 45
REMARK SMILES IDX 31 46 49 47 32 48 35 49 48 50 66 51 33 52 34 53 47 55 67 56
REMARK SMILES IDX 36 57 21 58 22 59 30 60 23 61 29 62 24 63 25 64 26 65 27 66
REMARK SMILES IDX 28 67 51 68 52 69 60 70 53 71 59 72 54 73 55 74 56 75 57 76
REMARK SMILES IDX 58 77 37 78 38 79 46 80 39 81 45 82 40 83 41 84 42 85 43 86
REMARK SMILES IDX 44 87
REMARK H PARENT 2 12 2 13 65 43 35 54
REMARK Flexibility Score: inf
ROOT
ATOM      1  C   UNL A   1      32.116  30.111  25.643  1.00  0.00     0.274 C 
ENDROOT
BRANCH   1   2
ATOM      2  O   UNL A   1      33.004  29.052  25.234  1.00  0.00    -0.457 OA
BRANCH   2   3
ATOM      3  C   UNL A   1      32.644  28.431  24.076  1.00  0.00     0.368 C 
ATOM      4  O   UNL A   1      32.837  28.908  22.961  1.00  0.00    -0.245 OA
BRANCH   3   5
ATOM      5  C   UNL A   1      31.974  27.054  24.295  1.00  0.00     0.197 C 
ATOM      6  C   UNL A   1      32.147  26.482  25.714  1.00  0.00     0.081 C 
ATOM      7  C   UNL A   1      30.432  27.282  24.301  1.00  0.00     0.064 C 
ATOM      8  C   UNL A   1      30.991  25.498  25.878  1.00  0.00     0.008 C 
ATOM      9  C   UNL A   1      29.864  26.028  24.987  1.00  0.00     0.011 C 
BRANCH   5  10
ATOM     10  N   UNL A   1      32.325  26.086  23.224  1.00  0.00    -0.334 N 
ATOM     11  C   UNL A   1      33.653  25.501  23.330  1.00  0.00     0.331 C 
ATOM     12  H   UNL A   1      31.643  25.327  23.248  1.00  0.00     0.347 HD
ATOM     13  H   UNL A   1      32.316  26.613  22.350  1.00  0.00     0.347 HD
ENDBRANCH   5  10
BRANCH   7  14
ATOM     14  C   UNL A   1      29.770  27.575  22.935  1.00  0.00     0.034 C 
BRANCH  14  15
ATOM     15  C   UNL A   1      28.430  28.309  23.056  1.00  0.00     0.144 C 
BRANCH  15  16
ATOM     16  N   UNL A   1      28.495  29.699  22.636  1.00  0.00    -0.272 N 
ATOM     17  C   UNL A   1      28.802  30.779  23.416  1.00  0.00     0.112 A 
ATOM     18  N   UNL A   1      28.226  30.032  21.356  1.00  0.00    -0.181 NA
ATOM     19  C   UNL A   1      28.698  31.891  22.607  1.00  0.00    -0.013 A 
ATOM     20  C   UNL A   1      28.340  31.362  21.348  1.00  0.00     0.138 A 
ATOM     21  C   UNL A   1      28.904  33.311  22.966  1.00  0.00     0.048 C 
ENDBRANCH  15  16
ENDBRANCH  14  15
ENDBRANCH   7  14
ENDBRANCH   3   5
ENDBRANCH   2   3
ENDBRANCH   1   2
BRANCH   1  22
ATOM     22  C   UNL A   1      32.550  30.735  26.968  1.00  0.00     0.275 C 
BRANCH  22  23
ATOM     23  O   UNL A   1      33.976  30.643  27.119  1.00  0.00    -0.458 OA
BRANCH  23  24
ATOM     24  C   UNL A   1      34.566  31.654  27.793  1.00  0.00     0.338 C 
ATOM     25  O   UNL A   1      34.140  32.796  27.916  1.00  0.00    -0.246 OA
BRANCH  24  26
ATOM     26  C   UNL A   1      35.839  31.207  28.396  1.00  0.00     0.060 A 
ATOM     27  C   UNL A   1      35.977  29.926  28.931  1.00  0.00     0.016 A 
ATOM     28  C   UNL A   1      36.883  32.123  28.529  1.00  0.00     0.016 A 
ATOM     29  C   UNL A   1      37.107  29.588  29.677  1.00  0.00     0.010 A 
ATOM     30  C   UNL A   1      38.058  31.750  29.188  1.00  0.00     0.010 A 
ATOM     31  C   UNL A   1      38.172  30.490  29.802  1.00  0.00    -0.014 A 
BRANCH  31  32
ATOM     32  C   UNL A   1      39.386  30.148  30.595  1.00  0.00     0.031 A 
ATOM     33  C   UNL A   1      40.382  29.151  30.056  1.00  0.00     0.074 A 
ATOM     34  C   UNL A   1      39.604  30.706  31.803  1.00  0.00     0.049 A 
ATOM     35  N   UNL A   1      41.359  28.540  30.676  1.00  0.00    -0.248 NA
ATOM     36  C   UNL A   1      40.247  28.779  28.638  1.00  0.00     0.031 C 
ATOM     37  C   UNL A   1      38.763  31.722  32.439  1.00  0.00     0.029 A 
ATOM     38  N   UNL A   1      40.608  30.493  32.716  1.00  0.00    -0.354 N 
ATOM     39  C   UNL A   1      41.905  27.659  29.748  1.00  0.00     0.074 A 
ATOM     40  C   UNL A   1      41.160  27.825  28.519  1.00  0.00     0.031 C 
ATOM     41  C   UNL A   1      39.304  32.070  33.616  1.00  0.00     0.029 A 
ATOM     42  C   UNL A   1      40.476  31.239  33.864  1.00  0.00     0.049 A 
ATOM     43  H   UNL A   1      41.351  29.865  32.565  1.00  0.00     0.167 HD
ATOM     44  C   UNL A   1      42.926  26.782  29.912  1.00  0.00     0.031 A 
ATOM     45  C   UNL A   1      41.185  31.229  35.009  1.00  0.00     0.031 A 
ATOM     46  C   UNL A   1      43.700  26.655  31.117  1.00  0.00     0.049 A 
ATOM     47  C   UNL A   1      42.311  30.248  35.171  1.00  0.00     0.074 A 
ATOM     48  C   UNL A   1      44.754  25.796  31.379  1.00  0.00     0.029 A 
ATOM     49  N   UNL A   1      43.522  27.426  32.255  1.00  0.00    -0.354 N 
ATOM     50  N   UNL A   1      42.756  29.360  34.316  1.00  0.00    -0.248 NA
ATOM     51  C   UNL A   1      43.013  30.253  36.462  1.00  0.00     0.031 C 
ATOM     52  C   UNL A   1      45.198  26.033  32.685  1.00  0.00     0.029 A 
ATOM     53  C   UNL A   1      44.445  27.063  33.222  1.00  0.00     0.049 A 
ATOM     54  H   UNL A   1      42.841  28.129  32.360  1.00  0.00     0.167 HD
ATOM     55  C   UNL A   1      43.790  28.698  34.966  1.00  0.00     0.074 A 
ATOM     56  C   UNL A   1      43.920  29.304  36.275  1.00  0.00     0.031 C 
ATOM     57  C   UNL A   1      44.556  27.672  34.521  1.00  0.00     0.031 A 
BRANCH  44  58
ATOM     58  C   UNL A   1      43.231  25.853  28.767  1.00  0.00    -0.014 A 
ATOM     59  C   UNL A   1      42.606  24.601  28.649  1.00  0.00     0.010 A 
ATOM     60  C   UNL A   1      44.142  26.262  27.776  1.00  0.00     0.010 A 
ATOM     61  C   UNL A   1      42.917  23.755  27.579  1.00  0.00     0.020 A 
ATOM     62  C   UNL A   1      44.440  25.430  26.694  1.00  0.00     0.020 A 
ATOM     63  C   UNL A   1      43.839  24.173  26.613  1.00  0.00     0.054 A 
BRANCH  63  64
ATOM     64  S   UNL A   1      44.220  23.066  25.225  1.00  0.00     0.124 S 
ATOM     65  O   UNL A   1      45.010  22.026  25.880  1.00  0.00    -0.237 OA
ATOM     66  O   UNL A   1      42.896  22.653  24.766  1.00  0.00    -0.237 OA
ATOM     67  O   UNL A   1      44.959  23.919  24.298  1.00  0.00    -0.744 OA
ENDBRANCH  63  64
ENDBRANCH  44  58
BRANCH  45  68
ATOM     68  C   UNL A   1      40.808  32.148  36.115  1.00  0.00    -0.014 A 
ATOM     69  C   UNL A   1      41.654  33.209  36.481  1.00  0.00     0.010 A 
ATOM     70  C   UNL A   1      39.578  31.990  36.783  1.00  0.00     0.010 A 
ATOM     71  C   UNL A   1      41.276  34.099  37.490  1.00  0.00     0.020 A 
ATOM     72  C   UNL A   1      39.187  32.892  37.774  1.00  0.00     0.020 A 
ATOM     73  C   UNL A   1      40.042  33.937  38.128  1.00  0.00     0.054 A 
BRANCH  73  74
ATOM     74  S   UNL A   1      39.524  35.152  39.372  1.00  0.00     0.124 S 
ATOM     75  O   UNL A   1      40.750  35.338  40.141  1.00  0.00    -0.237 OA
ATOM     76  O   UNL A   1      39.108  36.290  38.555  1.00  0.00    -0.237 OA
ATOM     77  O   UNL A   1      38.437  34.473  40.073  1.00  0.00    -0.744 OA
ENDBRANCH  73  74
ENDBRANCH  45  68
BRANCH  57  78
ATOM     78  C   UNL A   1      45.615  27.155  35.453  1.00  0.00    -0.014 A 
ATOM     79  C   UNL A   1      45.340  26.100  36.340  1.00  0.00     0.010 A 
ATOM     80  C   UNL A   1      46.907  27.706  35.414  1.00  0.00     0.010 A 
ATOM     81  C   UNL A   1      46.337  25.622  37.195  1.00  0.00     0.020 A 
ATOM     82  C   UNL A   1      47.910  27.219  36.255  1.00  0.00     0.020 A 
ATOM     83  C   UNL A   1      47.614  26.189  37.151  1.00  0.00     0.054 A 
BRANCH  83  84
ATOM     84  S   UNL A   1      48.905  25.533  38.245  1.00  0.00     0.124 S 
ATOM     85  O   UNL A   1      49.357  24.357  37.505  1.00  0.00    -0.237 OA
ATOM     86  O   UNL A   1      49.861  26.635  38.317  1.00  0.00    -0.237 OA
ATOM     87  O   UNL A   1      48.192  25.252  39.489  1.00  0.00    -0.744 OA
ENDBRANCH  83  84
ENDBRANCH  57  78
ENDBRANCH  31  32
ENDBRANCH  24  26
ENDBRANCH  23  24
ENDBRANCH  22  23
ENDBRANCH   1  22
TORSDOF 18
ENDMDL
MODEL 2
REMARK VINA RESULT:      -9.9      3.394      7.440
REMARK SMILES C[NH2+][C@]1(C(=O)OCCOC(=O)c2ccc(-c3c4nc(c(-c5ccc(S(=O)(=O)[O-])cc5)c5ccc([nH]5)c(-c5ccc(S(=O)(=O)[O-])cc5)c5nc(c(-c6ccc(S(=O)(=O)[O-])cc6)c6ccc3[nH]6)C=C5)C=C4)cc2)CCC[C@@H]1CCn1cc(C)cn1
REMARK SMILES IDX 7 1 6 2 4 3 5 4 3 5 72 6 75 7 73 8 74 9 2 10 1 11 76 14
REMARK SMILES IDX 77 15 78 16 79 17 83 18 80 19 82 20 81 21 8 22 9 23 10 24
REMARK SMILES IDX 11 25 12 26 13 27 71 28 14 29 70 30 15 31 16 32 17 33 64 34
REMARK SMILES IDX 18 35 69 36 63 37 65 38 19 39 68 40 62 41 61 42 20 44 50 45
REMARK SMILES IDX 31 46 49 47 32 48 35 49 48 50 66 51 33 52 34 53 47 55 67 56
REMARK SMILES IDX 36 57 21 58 22 59 30 60 23 61 29 62 24 63 25 64 26 65 27 66
REMARK SMILES IDX 28 67 51 68 52 69 60 70 53 71 59 72 54 73 55 74 56 75 57 76
REMARK SMILES IDX 58 77 37 78 38 79 46 80 39 81 45 82 40 83 41 84 42 85 43 86
REMARK SMILES IDX 44 87
REMARK H PARENT 2 12 2 13 65 43 35 54
REMARK Flexibility Score: inf
ROOT
ATOM      1  C   UNL A   1      36.861  23.311  23.922  1.00  0.00     0.274 C 
ENDROOT
BRANCH   1   2
ATOM      2  O   UNL A   1      35.651  24.014  24.270  1.00  0.00    -0.457 OA
BRANCH   2   3
ATOM      3  C   UNL A   1      34.532  23.553  23.643  1.00  0.00     0.368 C 
ATOM      4  O   UNL A   1      34.444  23.414  22.427  1.00  0.00    -0.245 OA
BRANCH   3   5
ATOM      5  C   UNL A   1      33.377  23.209  24.613  1.00  0.00     0.197 C 
ATOM      6  C   UNL A   1      33.828  22.891  26.051  1.00  0.00     0.081 C 
ATOM      7  C   UNL A   1      32.587  24.525  24.882  1.00  0.00     0.064 C 
ATOM      8  C   UNL A   1      32.597  23.159  26.911  1.00  0.00     0.008 C 
ATOM      9  C   UNL A   1      31.802  24.241  26.174  1.00  0.00     0.011 C 
BRANCH   5  10
ATOM     10  N   UNL A   1      32.458  22.189  24.046  1.00  0.00    -0.334 N 
ATOM     11  C   UNL A   1      32.944  20.818  24.105  1.00  0.00     0.331 C 
ATOM     12  H   UNL A   1      31.579  22.234  24.562  1.00  0.00     0.347 HD
ATOM     13  H   UNL A   1      32.361  22.413  23.056  1.00  0.00     0.347 HD
ENDBRANCH   5  10
BRANCH   7  14
ATOM     14  C   UNL A   1      31.692  25.042  23.733  1.00  0.00     0.034 C 
BRANCH  14  15
ATOM     15  C   UNL A   1      31.952  26.510  23.375  1.00  0.00     0.144 C 
BRANCH  15  16
ATOM     16  N   UNL A   1      32.319  27.326  24.521  1.00  0.00    -0.272 N 
ATOM     17  C   UNL A   1      33.584  27.638  24.936  1.00  0.00     0.112 A 
ATOM     18  N   UNL A   1      31.360  27.856  25.308  1.00  0.00    -0.181 NA
ATOM     19  C   UNL A   1      33.447  28.392  26.082  1.00  0.00    -0.013 A 
ATOM     20  C   UNL A   1      32.050  28.492  26.257  1.00  0.00     0.138 A 
ATOM     21  C   UNL A   1      34.510  28.961  26.939  1.00  0.00     0.048 C 
ENDBRANCH  15  16
ENDBRANCH  14  15
ENDBRANCH   7  14
ENDBRANCH   3   5
ENDBRANCH   2   3
ENDBRANCH   1   2
BRANCH   1  22
ATOM     22  C   UNL A   1      37.095  22.103  24.826  1.00  0.00     0.275 C 
BRANCH  22  23
ATOM     23  O   UNL A   1      37.624  22.525  26.094  1.00  0.00    -0.458 OA
BRANCH  23  24
ATOM     24  C   UNL A   1      38.953  22.769  26.130  1.00  0.00     0.338 C 
ATOM     25  O   UNL A   1      39.840  22.040  25.703  1.00  0.00    -0.246 OA
BRANCH  24  26
ATOM     26  C   UNL A   1      39.228  24.073  26.768  1.00  0.00     0.060 A 
ATOM     27  C   UNL A   1      40.012  25.038  26.135  1.00  0.00     0.016 A 
ATOM     28  C   UNL A   1      38.785  24.295  28.072  1.00  0.00     0.016 A 
ATOM     29  C   UNL A   1      40.434  26.173  26.827  1.00  0.00     0.010 A 
ATOM     30  C   UNL A   1      39.123  25.481  28.730  1.00  0.00     0.010 A 
ATOM     31  C   UNL A   1      39.981  26.420  28.130  1.00  0.00    -0.014 A 
BRANCH  31  32
ATOM     32  C   UNL A   1      40.421  27.627  28.887  1.00  0.00     0.031 A 
ATOM     33  C   UNL A   1      41.782  27.654  29.537  1.00  0.00     0.074 A 
ATOM     34  C   UNL A   1      39.609  28.696  29.016  1.00  0.00     0.049 A 
ATOM     35  N   UNL A   1      42.256  28.487  30.428  1.00  0.00    -0.248 NA
ATOM     36  C   UNL A   1      42.725  26.594  29.146  1.00  0.00     0.031 C 
ATOM     37  C   UNL A   1      38.286  28.842  28.406  1.00  0.00     0.029 A 
ATOM     38  N   UNL A   1      39.783  29.869  29.709  1.00  0.00    -0.354 N 
ATOM     39  C   UNL A   1      43.520  28.009  30.759  1.00  0.00     0.074 A 
ATOM     40  C   UNL A   1      43.744  26.822  29.964  1.00  0.00     0.031 C 
ATOM     41  C   UNL A   1      37.786  30.048  28.720  1.00  0.00     0.029 A 
ATOM     42  C   UNL A   1      38.708  30.722  29.627  1.00  0.00     0.049 A 
ATOM     43  H   UNL A   1      40.599  30.079  30.219  1.00  0.00     0.167 HD
ATOM     44  C   UNL A   1      44.406  28.508  31.655  1.00  0.00     0.031 A 
ATOM     45  C   UNL A   1      38.461  31.894  30.244  1.00  0.00     0.031 A 
ATOM     46  C   UNL A   1      44.204  29.718  32.407  1.00  0.00     0.049 A 
ATOM     47  C   UNL A   1      39.455  32.428  31.235  1.00  0.00     0.074 A 
ATOM     48  C   UNL A   1      45.044  30.304  33.339  1.00  0.00     0.029 A 
ATOM     49  N   UNL A   1      43.095  30.541  32.295  1.00  0.00    -0.354 N 
ATOM     50  N   UNL A   1      40.604  31.917  31.603  1.00  0.00    -0.248 NA
ATOM     51  C   UNL A   1      39.105  33.685  31.911  1.00  0.00     0.031 C 
ATOM     52  C   UNL A   1      44.430  31.472  33.807  1.00  0.00     0.029 A 
ATOM     53  C   UNL A   1      43.227  31.630  33.141  1.00  0.00     0.049 A 
ATOM     54  H   UNL A   1      42.327  30.378  31.702  1.00  0.00     0.167 HD
ATOM     55  C   UNL A   1      41.115  32.789  32.556  1.00  0.00     0.074 A 
ATOM     56  C   UNL A   1      40.162  33.872  32.689  1.00  0.00     0.031 C 
ATOM     57  C   UNL A   1      42.267  32.695  33.265  1.00  0.00     0.031 A 
BRANCH  44  58
ATOM     58  C   UNL A   1      45.658  27.713  31.907  1.00  0.00    -0.014 A 
ATOM     59  C   UNL A   1      45.718  26.732  32.911  1.00  0.00     0.010 A 
ATOM     60  C   UNL A   1      46.788  27.936  31.098  1.00  0.00     0.010 A 
ATOM     61  C   UNL A   1      46.899  26.016  33.129  1.00  0.00     0.020 A 
ATOM     62  C   UNL A   1      47.962  27.207  31.297  1.00  0.00     0.020 A 
ATOM     63  C   UNL A   1      48.017  26.264  32.324  1.00  0.00     0.054 A 
BRANCH  63  64
ATOM     64  S   UNL A   1      49.537  25.315  32.613  1.00  0.00     0.124 S 
ATOM     65  O   UNL A   1      50.398  26.313  33.243  1.00  0.00    -0.237 OA
ATOM     66  O   UNL A   1      49.085  24.236  33.487  1.00  0.00    -0.237 OA
ATOM     67  O   UNL A   1      49.942  24.898  31.273  1.00  0.00    -0.744 OA
ENDBRANCH  63  64
ENDBRANCH  44  58
BRANCH  45  68
ATOM     68  C   UNL A   1      37.187  32.611  29.977  1.00  0.00    -0.014 A 
ATOM     69  C   UNL A   1      36.095  32.473  30.852  1.00  0.00     0.010 A 
ATOM     70  C   UNL A   1      37.072  33.469  28.867  1.00  0.00     0.010 A 
ATOM     71  C   UNL A   1      34.913  33.184  30.624  1.00  0.00     0.020 A 
ATOM     72  C   UNL A   1      35.902  34.200  28.651  1.00  0.00     0.020 A 
ATOM     73  C   UNL A   1      34.826  34.047  29.527  1.00  0.00     0.054 A 
BRANCH  73  74
ATOM     74  S   UNL A   1      33.320  35.032  29.294  1.00  0.00     0.124 S 
ATOM     75  O   UNL A   1      32.769  35.065  30.645  1.00  0.00    -0.237 OA
ATOM     76  O   UNL A   1      33.841  36.301  28.790  1.00  0.00    -0.237 OA
ATOM     77  O   UNL A   1      32.556  34.254  28.321  1.00  0.00    -0.744 OA
ENDBRANCH  73  74
ENDBRANCH  45  68
BRANCH  57  78
ATOM     78  C   UNL A   1      42.565  33.803  34.234  1.00  0.00    -0.014 A 
ATOM     79  C   UNL A   1      42.141  33.724  35.572  1.00  0.00     0.010 A 
ATOM     80  C   UNL A   1      43.311  34.918  33.811  1.00  0.00     0.010 A 
ATOM     81  C   UNL A   1      42.435  34.758  36.466  1.00  0.00     0.020 A 
ATOM     82  C   UNL A   1      43.619  35.944  34.705  1.00  0.00     0.020 A 
ATOM     83  C   UNL A   1      43.166  35.864  36.025  1.00  0.00     0.054 A 
BRANCH  83  84
ATOM     84  S   UNL A   1      43.567  37.181  37.208  1.00  0.00     0.124 S 
ATOM     85  O   UNL A   1      43.916  38.288  36.321  1.00  0.00    -0.237 OA
ATOM     86  O   UNL A   1      42.319  37.341  37.951  1.00  0.00    -0.237 OA
ATOM     87  O   UNL A   1      44.677  36.625  37.978  1.00  0.00    -0.744 OA
ENDBRANCH  83  84
ENDBRANCH  57  78
ENDBRANCH  31  32
ENDBRANCH  24  26
ENDBRANCH  23  24
ENDBRANCH  22  23
ENDBRANCH   1  22
TORSDOF 18
ENDMDL
MODEL 3
REMARK VINA RESULT:      -9.6      4.632     10.666
REMARK SMILES C[NH2+][C@]1(C(=O)OCCOC(=O)c2ccc(-c3c4nc(c(-c5ccc(S(=O)(=O)[O-])cc5)c5ccc([nH]5)c(-c5ccc(S(=O)(=O)[O-])cc5)c5nc(c(-c6ccc(S(=O)(=O)[O-])cc6)c6ccc3[nH]6)C=C5)C=C4)cc2)CCC[C@@H]1CCn1cc(C)cn1
REMARK SMILES IDX 7 1 6 2 4 3 5 4 3 5 72 6 75 7 73 8 74 9 2 10 1 11 76 14
REMARK SMILES IDX 77 15 78 16 79 17 83 18 80 19 82 20 81 21 8 22 9 23 10 24
REMARK SMILES IDX 11 25 12 26 13 27 71 28 14 29 70 30 15 31 16 32 17 33 64 34
REMARK SMILES IDX 18 35 69 36 63 37 65 38 19 39 68 40 62 41 61 42 20 44 50 45
REMARK SMILES IDX 31 46 49 47 32 48 35 49 48 50 66 51 33 52 34 53 47 55 67 56
REMARK SMILES IDX 36 57 21 58 22 59 30 60 23 61 29 62 24 63 25 64 26 65 27 66
REMARK SMILES IDX 28 67 51 68 52 69 60 70 53 71 59 72 54 73 55 74 56 75 57 76
REMARK SMILES IDX 58 77 37 78 38 79 46 80 39 81 45 82 40 83 41 84 42 85 43 86
REMARK SMILES IDX 44 87
REMARK H PARENT 2 12 2 13 65 43 35 54
REMARK Flexibility Score: inf
ROOT
ATOM      1  C   UNL A   1      43.669  23.833  24.618  1.00  0.00     0.274 C 
ENDROOT
BRANCH   1   2
ATOM      2  O   UNL A   1      42.536  23.189  25.235  1.00  0.00    -0.457 OA
BRANCH   2   3
ATOM      3  C   UNL A   1      42.837  22.043  25.908  1.00  0.00     0.368 C 
ATOM      4  O   UNL A   1      42.958  20.948  25.365  1.00  0.00    -0.245 OA
BRANCH   3   5
ATOM      5  C   UNL A   1      43.026  22.249  27.429  1.00  0.00     0.197 C 
ATOM      6  C   UNL A   1      44.392  22.838  27.826  1.00  0.00     0.081 C 
ATOM      7  C   UNL A   1      42.108  23.435  27.855  1.00  0.00     0.064 C 
ATOM      8  C   UNL A   1      44.156  23.479  29.191  1.00  0.00     0.008 C 
ATOM      9  C   UNL A   1      42.683  23.897  29.204  1.00  0.00     0.011 C 
BRANCH   5  10
ATOM     10  N   UNL A   1      42.659  21.038  28.207  1.00  0.00    -0.334 N 
ATOM     11  C   UNL A   1      41.801  20.093  27.509  1.00  0.00     0.331 C 
ATOM     12  H   UNL A   1      43.520  20.554  28.463  1.00  0.00     0.347 HD
ATOM     13  H   UNL A   1      42.124  21.368  29.011  1.00  0.00     0.347 HD
ENDBRANCH   5  10
BRANCH   7  14
ATOM     14  C   UNL A   1      40.590  23.150  27.912  1.00  0.00     0.034 C 
BRANCH  14  15
ATOM     15  C   UNL A   1      39.791  23.898  26.838  1.00  0.00     0.144 C 
BRANCH  15  16
ATOM     16  N   UNL A   1      38.752  23.088  26.224  1.00  0.00    -0.272 N 
ATOM     17  C   UNL A   1      38.831  21.764  25.893  1.00  0.00     0.112 A 
ATOM     18  N   UNL A   1      37.561  23.640  25.911  1.00  0.00    -0.181 NA
ATOM     19  C   UNL A   1      37.631  21.434  25.300  1.00  0.00    -0.013 A 
ATOM     20  C   UNL A   1      36.891  22.636  25.343  1.00  0.00     0.138 A 
ATOM     21  C   UNL A   1      37.210  20.131  24.740  1.00  0.00     0.048 C 
ENDBRANCH  15  16
ENDBRANCH  14  15
ENDBRANCH   7  14
ENDBRANCH   3   5
ENDBRANCH   2   3
ENDBRANCH   1   2
BRANCH   1  22
ATOM     22  C   UNL A   1      43.908  25.229  25.188  1.00  0.00     0.275 C 
BRANCH  22  23
ATOM     23  O   UNL A   1      42.657  25.846  25.536  1.00  0.00    -0.458 OA
BRANCH  23  24
ATOM     24  C   UNL A   1      42.588  27.184  25.361  1.00  0.00     0.338 C 
ATOM     25  O   UNL A   1      42.887  27.803  24.347  1.00  0.00    -0.246 OA
BRANCH  24  26
ATOM     26  C   UNL A   1      42.087  27.846  26.583  1.00  0.00     0.060 A 
ATOM     27  C   UNL A   1      42.461  29.151  26.905  1.00  0.00     0.016 A 
ATOM     28  C   UNL A   1      41.315  27.111  27.483  1.00  0.00     0.016 A 
ATOM     29  C   UNL A   1      42.150  29.689  28.155  1.00  0.00     0.010 A 
ATOM     30  C   UNL A   1      40.916  27.687  28.692  1.00  0.00     0.010 A 
ATOM     31  C   UNL A   1      41.358  28.971  29.061  1.00  0.00    -0.014 A 
BRANCH  31  32
ATOM     32  C   UNL A   1      41.016  29.527  30.400  1.00  0.00     0.031 A 
ATOM     33  C   UNL A   1      39.820  30.433  30.556  1.00  0.00     0.074 A 
ATOM     34  C   UNL A   1      41.774  29.247  31.480  1.00  0.00     0.049 A 
ATOM     35  N   UNL A   1      39.493  31.205  31.561  1.00  0.00    -0.248 NA
ATOM     36  C   UNL A   1      38.879  30.490  29.426  1.00  0.00     0.031 C 
ATOM     37  C   UNL A   1      42.931  28.350  31.502  1.00  0.00     0.029 A 
ATOM     38  N   UNL A   1      41.680  29.693  32.775  1.00  0.00    -0.354 N 
ATOM     39  C   UNL A   1      38.355  31.895  31.155  1.00  0.00     0.074 A 
ATOM     40  C   UNL A   1      38.040  31.439  29.818  1.00  0.00     0.031 C 
ATOM     41  C   UNL A   1      43.415  28.283  32.752  1.00  0.00     0.029 A 
ATOM     42  C   UNL A   1      42.663  29.201  33.601  1.00  0.00     0.049 A 
ATOM     43  H   UNL A   1      40.976  30.309  33.084  1.00  0.00     0.167 HD
ATOM     44  C   UNL A   1      37.646  32.832  31.831  1.00  0.00     0.031 A 
ATOM     45  C   UNL A   1      42.964  29.485  34.883  1.00  0.00     0.031 A 
ATOM     46  C   UNL A   1      37.929  33.245  33.179  1.00  0.00     0.049 A 
ATOM     47  C   UNL A   1      42.168  30.528  35.613  1.00  0.00     0.074 A 
ATOM     48  C   UNL A   1      37.267  34.188  33.949  1.00  0.00     0.029 A 
ATOM     49  N   UNL A   1      38.941  32.724  33.969  1.00  0.00    -0.354 N 
ATOM     50  N   UNL A   1      41.151  31.235  35.184  1.00  0.00    -0.248 NA
ATOM     51  C   UNL A   1      42.576  30.828  36.992  1.00  0.00     0.031 C 
ATOM     52  C   UNL A   1      37.896  34.252  35.198  1.00  0.00     0.029 A 
ATOM     53  C   UNL A   1      38.924  33.324  35.217  1.00  0.00     0.049 A 
ATOM     54  H   UNL A   1      39.577  32.029  33.686  1.00  0.00     0.167 HD
ATOM     55  C   UNL A   1      40.799  32.066  36.240  1.00  0.00     0.074 A 
ATOM     56  C   UNL A   1      41.694  31.756  37.336  1.00  0.00     0.031 C 
ATOM     57  C   UNL A   1      39.826  33.009  36.293  1.00  0.00     0.031 A 
BRANCH  44  58
ATOM     58  C   UNL A   1      36.521  33.511  31.097  1.00  0.00    -0.014 A 
ATOM     59  C   UNL A   1      36.658  33.929  29.763  1.00  0.00     0.010 A 
ATOM     60  C   UNL A   1      35.292  33.706  31.755  1.00  0.00     0.010 A 
ATOM     61  C   UNL A   1      35.598  34.566  29.111  1.00  0.00     0.020 A 
ATOM     62  C   UNL A   1      34.223  34.322  31.100  1.00  0.00     0.020 A 
ATOM     63  C   UNL A   1      34.389  34.766  29.787  1.00  0.00     0.054 A 
BRANCH  63  64
ATOM     64  S   UNL A   1      33.021  35.583  28.919  1.00  0.00     0.124 S 
ATOM     65  O   UNL A   1      33.723  36.614  28.157  1.00  0.00    -0.237 OA
ATOM     66  O   UNL A   1      32.446  34.500  28.126  1.00  0.00    -0.237 OA
ATOM     67  O   UNL A   1      32.173  36.077  30.001  1.00  0.00    -0.744 OA
ENDBRANCH  63  64
ENDBRANCH  44  58
BRANCH  45  68
ATOM     68  C   UNL A   1      44.112  28.804  35.537  1.00  0.00    -0.014 A 
ATOM     69  C   UNL A   1      43.923  27.594  36.228  1.00  0.00     0.010 A 
ATOM     70  C   UNL A   1      45.409  29.342  35.437  1.00  0.00     0.010 A 
ATOM     71  C   UNL A   1      45.012  26.932  36.803  1.00  0.00     0.020 A 
ATOM     72  C   UNL A   1      46.502  28.669  35.989  1.00  0.00     0.020 A 
ATOM     73  C   UNL A   1      46.295  27.472  36.676  1.00  0.00     0.054 A 
BRANCH  73  74
ATOM     74  S   UNL A   1      47.710  26.556  37.348  1.00  0.00     0.124 S 
ATOM     75  O   UNL A   1      48.529  26.348  36.158  1.00  0.00    -0.237 OA
ATOM     76  O   UNL A   1      48.253  27.486  38.337  1.00  0.00    -0.237 OA
ATOM     77  O   UNL A   1      47.097  25.355  37.909  1.00  0.00    -0.744 OA
ENDBRANCH  73  74
ENDBRANCH  45  68
BRANCH  57  78
ATOM     78  C   UNL A   1      39.671  33.758  37.585  1.00  0.00    -0.014 A 
ATOM     79  C   UNL A   1      38.861  33.254  38.618  1.00  0.00     0.010 A 
ATOM     80  C   UNL A   1      40.372  34.960  37.784  1.00  0.00     0.010 A 
ATOM     81  C   UNL A   1      38.733  33.955  39.819  1.00  0.00     0.020 A 
ATOM     82  C   UNL A   1      40.260  35.655  38.990  1.00  0.00     0.020 A 
ATOM     83  C   UNL A   1      39.428  35.155  39.995  1.00  0.00     0.054 A 
BRANCH  83  84
ATOM     84  S   UNL A   1      39.277  36.036  41.575  1.00  0.00     0.124 S 
ATOM     85  O   UNL A   1      39.324  37.431  41.148  1.00  0.00    -0.237 OA
ATOM     86  O   UNL A   1      37.986  35.576  42.080  1.00  0.00    -0.237 OA
ATOM     87  O   UNL A   1      40.436  35.576  42.337  1.00  0.00    -0.744 OA
ENDBRANCH  83  84
ENDBRANCH  57  78
ENDBRANCH  31  32
ENDBRANCH  24  26
ENDBRANCH  23  24
ENDBRANCH  22  23
ENDBRANCH   1  22
TORSDOF 18
ENDMDL
