MODEL 1
REMARK VINA RESULT:      -9.4      0.000      0.000
REMARK SMILES CCC[C@@](C)(C(=O)OCCOC(=O)c1ccc(-c2c3nc(c(-c4ccc(S(=O)(=O)[O-])cc4)c4ccc([nH]4)c(-c4ccc(S(=O)(=O)[O-])cc4)c4nc(c(-c5ccc(S(=O)(=O)[O-])cc5)c5ccc2[nH]5)C=C4)C=C3)cc1)[C@H]1CCOC1
REMARK SMILES IDX 10 1 9 2 8 3 6 4 7 5 4 6 5 7 3 8 2 9 1 10 74 11 75 12 78 13
REMARK SMILES IDX 76 14 77 15 11 16 12 17 13 18 14 19 15 20 73 21 16 22 72 23
REMARK SMILES IDX 17 24 18 25 19 26 66 27 20 28 71 29 65 30 67 31 21 32 70 33
REMARK SMILES IDX 64 34 63 35 22 37 52 38 33 39 51 40 34 41 37 42 50 43 68 44
REMARK SMILES IDX 35 45 36 46 49 48 69 49 38 50 23 51 24 52 32 53 25 54 31 55
REMARK SMILES IDX 26 56 27 57 28 58 29 59 30 60 53 61 54 62 62 63 55 64 61 65
REMARK SMILES IDX 56 66 57 67 58 68 59 69 60 70 39 71 40 72 48 73 41 74 47 75
REMARK SMILES IDX 42 76 43 77 44 78 45 79 46 80
REMARK H PARENT 67 36 37 47
REMARK Flexibility Score: inf
ROOT
ATOM      1  C   UNL A   1      37.534  21.346  24.772  1.00  0.00     0.275 C 
ENDROOT
BRANCH   1   2
ATOM      2  C   UNL A   1      36.178  20.781  25.187  1.00  0.00     0.274 C 
BRANCH   2   3
ATOM      3  O   UNL A   1      35.193  21.836  25.291  1.00  0.00    -0.462 OA
BRANCH   3   4
ATOM      4  C   UNL A   1      33.976  21.599  24.723  1.00  0.00     0.312 C 
ATOM      5  O   UNL A   1      33.576  20.472  24.456  1.00  0.00    -0.252 OA
BRANCH   4   6
ATOM      6  C   UNL A   1      33.242  22.901  24.288  1.00  0.00     0.070 C 
ATOM      7  C   UNL A   1      32.713  22.554  22.877  1.00  0.00     0.024 C 
BRANCH   6   8
ATOM      8  C   UNL A   1      34.249  24.100  24.195  1.00  0.00     0.018 C 
BRANCH   8   9
ATOM      9  C   UNL A   1      34.049  25.168  23.105  1.00  0.00    -0.002 C 
ATOM     10  C   UNL A   1      33.221  26.381  23.493  1.00  0.00     0.004 C 
ENDBRANCH   8   9
ENDBRANCH   6   8
BRANCH   6  11
ATOM     11  C   UNL A   1      32.025  23.252  25.197  1.00  0.00     0.034 C 
ATOM     12  C   UNL A   1      31.179  22.135  25.794  1.00  0.00     0.035 C 
ATOM     13  C   UNL A   1      32.309  24.087  26.438  1.00  0.00     0.165 C 
ATOM     14  C   UNL A   1      30.335  22.893  26.799  1.00  0.00     0.160 C 
ATOM     15  O   UNL A   1      31.176  23.942  27.303  1.00  0.00    -0.381 OA
ENDBRANCH   6  11
ENDBRANCH   4   6
ENDBRANCH   3   4
ENDBRANCH   2   3
ENDBRANCH   1   2
BRANCH   1  16
ATOM     16  O   UNL A   1      37.976  22.241  25.799  1.00  0.00    -0.458 OA
BRANCH  16  17
ATOM     17  C   UNL A   1      39.242  22.066  26.247  1.00  0.00     0.338 C 
ATOM     18  O   UNL A   1      39.940  21.082  26.080  1.00  0.00    -0.246 OA
BRANCH  17  19
ATOM     19  C   UNL A   1      39.685  23.308  26.928  1.00  0.00     0.060 A 
ATOM     20  C   UNL A   1      39.162  24.537  26.537  1.00  0.00     0.016 A 
ATOM     21  C   UNL A   1      40.704  23.276  27.885  1.00  0.00     0.016 A 
ATOM     22  C   UNL A   1      39.726  25.721  27.005  1.00  0.00     0.010 A 
ATOM     23  C   UNL A   1      41.200  24.474  28.428  1.00  0.00     0.010 A 
ATOM     24  C   UNL A   1      40.753  25.720  27.955  1.00  0.00    -0.014 A 
BRANCH  24  25
ATOM     25  C   UNL A   1      41.387  27.020  28.345  1.00  0.00     0.031 A 
ATOM     26  C   UNL A   1      42.847  27.281  28.048  1.00  0.00     0.074 A 
ATOM     27  C   UNL A   1      40.647  28.028  28.859  1.00  0.00     0.049 A 
ATOM     28  N   UNL A   1      43.590  28.305  28.389  1.00  0.00    -0.248 NA
ATOM     29  C   UNL A   1      43.569  26.256  27.277  1.00  0.00     0.031 C 
ATOM     30  C   UNL A   1      39.209  27.976  29.132  1.00  0.00     0.029 A 
ATOM     31  N   UNL A   1      40.994  29.318  29.190  1.00  0.00    -0.354 N 
ATOM     32  C   UNL A   1      44.874  28.015  27.939  1.00  0.00     0.074 A 
ATOM     33  C   UNL A   1      44.809  26.722  27.292  1.00  0.00     0.031 C 
ATOM     34  C   UNL A   1      38.781  29.198  29.483  1.00  0.00     0.029 A 
ATOM     35  C   UNL A   1      39.926  30.098  29.572  1.00  0.00     0.049 A 
ATOM     36  H   UNL A   1      41.919  29.651  29.157  1.00  0.00     0.167 HD
ATOM     37  C   UNL A   1      46.007  28.748  28.060  1.00  0.00     0.031 A 
ATOM     38  C   UNL A   1      39.866  31.382  29.978  1.00  0.00     0.031 A 
ATOM     39  C   UNL A   1      46.075  30.060  28.648  1.00  0.00     0.049 A 
ATOM     40  C   UNL A   1      41.136  32.174  30.113  1.00  0.00     0.074 A 
ATOM     41  C   UNL A   1      47.190  30.855  28.857  1.00  0.00     0.029 A 
ATOM     42  N   UNL A   1      44.980  30.786  29.088  1.00  0.00    -0.354 N 
ATOM     43  N   UNL A   1      42.362  31.827  29.806  1.00  0.00    -0.248 NA
ATOM     44  C   UNL A   1      41.016  33.522  30.688  1.00  0.00     0.031 C 
ATOM     45  C   UNL A   1      46.771  32.051  29.454  1.00  0.00     0.029 A 
ATOM     46  C   UNL A   1      45.392  32.017  29.574  1.00  0.00     0.049 A 
ATOM     47  H   UNL A   1      44.046  30.474  29.060  1.00  0.00     0.167 HD
ATOM     48  C   UNL A   1      43.160  32.909  30.158  1.00  0.00     0.074 A 
ATOM     49  C   UNL A   1      42.275  33.938  30.663  1.00  0.00     0.031 C 
ATOM     50  C   UNL A   1      44.509  33.030  30.088  1.00  0.00     0.031 A 
BRANCH  37  51
ATOM     51  C   UNL A   1      47.291  28.106  27.608  1.00  0.00    -0.014 A 
ATOM     52  C   UNL A   1      47.791  28.281  26.307  1.00  0.00     0.010 A 
ATOM     53  C   UNL A   1      48.017  27.321  28.522  1.00  0.00     0.010 A 
ATOM     54  C   UNL A   1      48.975  27.647  25.915  1.00  0.00     0.020 A 
ATOM     55  C   UNL A   1      49.211  26.704  28.143  1.00  0.00     0.020 A 
ATOM     56  C   UNL A   1      49.672  26.854  26.834  1.00  0.00     0.054 A 
BRANCH  56  57
ATOM     57  S   UNL A   1      51.206  26.040  26.308  1.00  0.00     0.124 S 
ATOM     58  O   UNL A   1      51.073  24.723  26.926  1.00  0.00    -0.237 OA
ATOM     59  O   UNL A   1      51.104  26.064  24.852  1.00  0.00    -0.237 OA
ATOM     60  O   UNL A   1      52.257  26.887  26.869  1.00  0.00    -0.744 OA
ENDBRANCH  56  57
ENDBRANCH  37  51
BRANCH  38  61
ATOM     61  C   UNL A   1      38.556  31.988  30.348  1.00  0.00    -0.014 A 
ATOM     62  C   UNL A   1      37.809  32.716  29.407  1.00  0.00     0.010 A 
ATOM     63  C   UNL A   1      38.050  31.836  31.653  1.00  0.00     0.010 A 
ATOM     64  C   UNL A   1      36.584  33.289  29.763  1.00  0.00     0.020 A 
ATOM     65  C   UNL A   1      36.811  32.378  32.004  1.00  0.00     0.020 A 
ATOM     66  C   UNL A   1      36.092  33.113  31.060  1.00  0.00     0.054 A 
BRANCH  66  67
ATOM     67  S   UNL A   1      34.471  33.802  31.495  1.00  0.00     0.124 S 
ATOM     68  O   UNL A   1      34.841  35.029  32.192  1.00  0.00    -0.237 OA
ATOM     69  O   UNL A   1      33.835  33.979  30.192  1.00  0.00    -0.237 OA
ATOM     70  O   UNL A   1      33.876  32.760  32.330  1.00  0.00    -0.744 OA
ENDBRANCH  66  67
ENDBRANCH  38  61
BRANCH  50  71
ATOM     71  C   UNL A   1      45.105  34.326  30.565  1.00  0.00    -0.014 A 
ATOM     72  C   UNL A   1      45.506  34.488  31.904  1.00  0.00     0.010 A 
ATOM     73  C   UNL A   1      45.276  35.392  29.664  1.00  0.00     0.010 A 
ATOM     74  C   UNL A   1      46.025  35.709  32.344  1.00  0.00     0.020 A 
ATOM     75  C   UNL A   1      45.815  36.608  30.096  1.00  0.00     0.020 A 
ATOM     76  C   UNL A   1      46.167  36.765  31.439  1.00  0.00     0.054 A 
BRANCH  76  77
ATOM     77  S   UNL A   1      46.848  38.340  32.026  1.00  0.00     0.124 S 
ATOM     78  O   UNL A   1      47.073  38.064  33.442  1.00  0.00    -0.237 OA
ATOM     79  O   UNL A   1      48.056  38.493  31.218  1.00  0.00    -0.237 OA
ATOM     80  O   UNL A   1      45.788  39.304  31.738  1.00  0.00    -0.744 OA
ENDBRANCH  76  77
ENDBRANCH  50  71
ENDBRANCH  24  25
ENDBRANCH  17  19
ENDBRANCH  16  17
ENDBRANCH   1  16
TORSDOF 17
ENDMDL
MODEL 2
REMARK VINA RESULT:      -9.4      2.915     10.192
REMARK SMILES CCC[C@@](C)(C(=O)OCCOC(=O)c1ccc(-c2c3nc(c(-c4ccc(S(=O)(=O)[O-])cc4)c4ccc([nH]4)c(-c4ccc(S(=O)(=O)[O-])cc4)c4nc(c(-c5ccc(S(=O)(=O)[O-])cc5)c5ccc2[nH]5)C=C4)C=C3)cc1)[C@H]1CCOC1
REMARK SMILES IDX 10 1 9 2 8 3 6 4 7 5 4 6 5 7 3 8 2 9 1 10 74 11 75 12 78 13
REMARK SMILES IDX 76 14 77 15 11 16 12 17 13 18 14 19 15 20 73 21 16 22 72 23
REMARK SMILES IDX 17 24 18 25 19 26 66 27 20 28 71 29 65 30 67 31 21 32 70 33
REMARK SMILES IDX 64 34 63 35 22 37 52 38 33 39 51 40 34 41 37 42 50 43 68 44
REMARK SMILES IDX 35 45 36 46 49 48 69 49 38 50 23 51 24 52 32 53 25 54 31 55
REMARK SMILES IDX 26 56 27 57 28 58 29 59 30 60 53 61 54 62 62 63 55 64 61 65
REMARK SMILES IDX 56 66 57 67 58 68 59 69 60 70 39 71 40 72 48 73 41 74 47 75
REMARK SMILES IDX 42 76 43 77 44 78 45 79 46 80
REMARK H PARENT 67 36 37 47
REMARK Flexibility Score: inf
ROOT
ATOM      1  C   UNL A   1      40.811  20.703  26.117  1.00  0.00     0.275 C 
ENDROOT
BRANCH   1   2
ATOM      2  C   UNL A   1      42.278  20.749  26.537  1.00  0.00     0.274 C 
BRANCH   2   3
ATOM      3  O   UNL A   1      43.098  21.301  25.481  1.00  0.00    -0.462 OA
BRANCH   3   4
ATOM      4  C   UNL A   1      43.512  22.591  25.634  1.00  0.00     0.312 C 
ATOM      5  O   UNL A   1      42.838  23.551  25.279  1.00  0.00    -0.252 OA
BRANCH   4   6
ATOM      6  C   UNL A   1      44.984  22.705  26.126  1.00  0.00     0.070 C 
ATOM      7  C   UNL A   1      45.592  21.335  25.745  1.00  0.00     0.024 C 
BRANCH   6   8
ATOM      8  C   UNL A   1      45.036  22.892  27.682  1.00  0.00     0.018 C 
BRANCH   8   9
ATOM      9  C   UNL A   1      43.736  23.196  28.448  1.00  0.00    -0.002 C 
ATOM     10  C   UNL A   1      43.852  23.299  29.959  1.00  0.00     0.004 C 
ENDBRANCH   8   9
ENDBRANCH   6   8
BRANCH   6  11
ATOM     11  C   UNL A   1      45.791  23.821  25.394  1.00  0.00     0.034 C 
ATOM     12  C   UNL A   1      46.994  24.458  26.079  1.00  0.00     0.035 C 
ATOM     13  C   UNL A   1      46.389  23.465  24.041  1.00  0.00     0.165 C 
ATOM     14  C   UNL A   1      47.619  25.236  24.938  1.00  0.00     0.160 C 
ATOM     15  O   UNL A   1      47.389  24.452  23.758  1.00  0.00    -0.381 OA
ENDBRANCH   6  11
ENDBRANCH   4   6
ENDBRANCH   3   4
ENDBRANCH   2   3
ENDBRANCH   1   2
BRANCH   1  16
ATOM     16  O   UNL A   1      40.060  21.503  27.037  1.00  0.00    -0.458 OA
BRANCH  16  17
ATOM     17  C   UNL A   1      39.271  22.461  26.497  1.00  0.00     0.338 C 
ATOM     18  O   UNL A   1      38.314  22.284  25.764  1.00  0.00    -0.246 OA
BRANCH  17  19
ATOM     19  C   UNL A   1      39.714  23.787  26.998  1.00  0.00     0.060 A 
ATOM     20  C   UNL A   1      39.709  24.887  26.145  1.00  0.00     0.016 A 
ATOM     21  C   UNL A   1      40.242  23.926  28.285  1.00  0.00     0.016 A 
ATOM     22  C   UNL A   1      40.327  26.073  26.528  1.00  0.00     0.010 A 
ATOM     23  C   UNL A   1      40.775  25.159  28.699  1.00  0.00     0.010 A 
ATOM     24  C   UNL A   1      40.873  26.240  27.805  1.00  0.00    -0.014 A 
BRANCH  24  25
ATOM     25  C   UNL A   1      41.612  27.503  28.123  1.00  0.00     0.031 A 
ATOM     26  C   UNL A   1      40.905  28.653  28.807  1.00  0.00     0.074 A 
ATOM     27  C   UNL A   1      42.944  27.600  27.918  1.00  0.00     0.049 A 
ATOM     28  N   UNL A   1      41.353  29.854  29.080  1.00  0.00    -0.248 NA
ATOM     29  C   UNL A   1      39.513  28.430  29.229  1.00  0.00     0.031 C 
ATOM     30  C   UNL A   1      43.797  26.556  27.345  1.00  0.00     0.029 A 
ATOM     31  N   UNL A   1      43.828  28.610  28.223  1.00  0.00    -0.354 N 
ATOM     32  C   UNL A   1      40.283  30.546  29.637  1.00  0.00     0.074 A 
ATOM     33  C   UNL A   1      39.164  29.629  29.672  1.00  0.00     0.031 C 
ATOM     34  C   UNL A   1      45.081  26.933  27.438  1.00  0.00     0.029 A 
ATOM     35  C   UNL A   1      45.143  28.290  27.971  1.00  0.00     0.049 A 
ATOM     36  H   UNL A   1      43.547  29.479  28.587  1.00  0.00     0.167 HD
ATOM     37  C   UNL A   1      40.228  31.828  30.071  1.00  0.00     0.031 A 
ATOM     38  C   UNL A   1      46.275  29.006  28.120  1.00  0.00     0.031 A 
ATOM     39  C   UNL A   1      41.348  32.733  30.097  1.00  0.00     0.049 A 
ATOM     40  C   UNL A   1      46.190  30.430  28.594  1.00  0.00     0.074 A 
ATOM     41  C   UNL A   1      41.372  34.065  30.474  1.00  0.00     0.029 A 
ATOM     42  N   UNL A   1      42.649  32.389  29.766  1.00  0.00    -0.354 N 
ATOM     43  N   UNL A   1      45.140  31.107  28.990  1.00  0.00    -0.248 NA
ATOM     44  C   UNL A   1      47.444  31.198  28.607  1.00  0.00     0.031 C 
ATOM     45  C   UNL A   1      42.684  34.536  30.340  1.00  0.00     0.029 A 
ATOM     46  C   UNL A   1      43.483  33.485  29.924  1.00  0.00     0.049 A 
ATOM     47  H   UNL A   1      42.939  31.498  29.464  1.00  0.00     0.167 HD
ATOM     48  C   UNL A   1      45.604  32.383  29.288  1.00  0.00     0.074 A 
ATOM     49  C   UNL A   1      47.036  32.372  29.068  1.00  0.00     0.031 C 
ATOM     50  C   UNL A   1      44.903  33.472  29.690  1.00  0.00     0.031 A 
BRANCH  37  51
ATOM     51  C   UNL A   1      38.881  32.355  30.487  1.00  0.00    -0.014 A 
ATOM     52  C   UNL A   1      38.479  32.385  31.833  1.00  0.00     0.010 A 
ATOM     53  C   UNL A   1      38.008  32.845  29.499  1.00  0.00     0.010 A 
ATOM     54  C   UNL A   1      37.208  32.858  32.178  1.00  0.00     0.020 A 
ATOM     55  C   UNL A   1      36.748  33.339  29.841  1.00  0.00     0.020 A 
ATOM     56  C   UNL A   1      36.347  33.323  31.178  1.00  0.00     0.054 A 
BRANCH  56  57
ATOM     57  S   UNL A   1      34.704  33.933  31.646  1.00  0.00     0.124 S 
ATOM     58  O   UNL A   1      34.032  32.701  32.051  1.00  0.00    -0.237 OA
ATOM     59  O   UNL A   1      35.000  34.871  32.725  1.00  0.00    -0.237 OA
ATOM     60  O   UNL A   1      34.199  34.542  30.418  1.00  0.00    -0.744 OA
ENDBRANCH  56  57
ENDBRANCH  37  51
BRANCH  38  61
ATOM     61  C   UNL A   1      47.590  28.409  27.757  1.00  0.00    -0.014 A 
ATOM     62  C   UNL A   1      48.288  27.598  28.667  1.00  0.00     0.010 A 
ATOM     63  C   UNL A   1      48.152  28.653  26.489  1.00  0.00     0.010 A 
ATOM     64  C   UNL A   1      49.527  27.047  28.322  1.00  0.00     0.020 A 
ATOM     65  C   UNL A   1      49.373  28.078  26.128  1.00  0.00     0.020 A 
ATOM     66  C   UNL A   1      50.059  27.289  27.052  1.00  0.00     0.054 A 
BRANCH  66  67
ATOM     67  S   UNL A   1      51.634  26.516  26.588  1.00  0.00     0.124 S 
ATOM     68  O   UNL A   1      52.579  27.209  27.458  1.00  0.00    -0.237 OA
ATOM     69  O   UNL A   1      51.404  25.106  26.895  1.00  0.00    -0.237 OA
ATOM     70  O   UNL A   1      51.751  26.821  25.163  1.00  0.00    -0.744 OA
ENDBRANCH  66  67
ENDBRANCH  38  61
BRANCH  50  71
ATOM     71  C   UNL A   1      45.679  34.739  29.921  1.00  0.00    -0.014 A 
ATOM     72  C   UNL A   1      45.873  35.668  28.882  1.00  0.00     0.010 A 
ATOM     73  C   UNL A   1      46.213  35.011  31.193  1.00  0.00     0.010 A 
ATOM     74  C   UNL A   1      46.628  36.824  29.099  1.00  0.00     0.020 A 
ATOM     75  C   UNL A   1      46.949  36.177  31.420  1.00  0.00     0.020 A 
ATOM     76  C   UNL A   1      47.169  37.067  30.365  1.00  0.00     0.054 A 
BRANCH  76  77
ATOM     77  S   UNL A   1      48.140  38.577  30.631  1.00  0.00     0.124 S 
ATOM     78  O   UNL A   1      48.534  38.927  29.269  1.00  0.00    -0.237 OA
ATOM     79  O   UNL A   1      47.174  39.478  31.256  1.00  0.00    -0.237 OA
ATOM     80  O   UNL A   1      49.228  38.138  31.502  1.00  0.00    -0.744 OA
ENDBRANCH  76  77
ENDBRANCH  50  71
ENDBRANCH  24  25
ENDBRANCH  17  19
ENDBRANCH  16  17
ENDBRANCH   1  16
TORSDOF 17
ENDMDL
MODEL 3
REMARK VINA RESULT:      -9.4      0.782      2.000
REMARK SMILES CCC[C@@](C)(C(=O)OCCOC(=O)c1ccc(-c2c3nc(c(-c4ccc(S(=O)(=O)[O-])cc4)c4ccc([nH]4)c(-c4ccc(S(=O)(=O)[O-])cc4)c4nc(c(-c5ccc(S(=O)(=O)[O-])cc5)c5ccc2[nH]5)C=C4)C=C3)cc1)[C@H]1CCOC1
REMARK SMILES IDX 10 1 9 2 8 3 6 4 7 5 4 6 5 7 3 8 2 9 1 10 74 11 75 12 78 13
REMARK SMILES IDX 76 14 77 15 11 16 12 17 13 18 14 19 15 20 73 21 16 22 72 23
REMARK SMILES IDX 17 24 18 25 19 26 66 27 20 28 71 29 65 30 67 31 21 32 70 33
REMARK SMILES IDX 64 34 63 35 22 37 52 38 33 39 51 40 34 41 37 42 50 43 68 44
REMARK SMILES IDX 35 45 36 46 49 48 69 49 38 50 23 51 24 52 32 53 25 54 31 55
REMARK SMILES IDX 26 56 27 57 28 58 29 59 30 60 53 61 54 62 62 63 55 64 61 65
REMARK SMILES IDX 56 66 57 67 58 68 59 69 60 70 39 71 40 72 48 73 41 74 47 75
REMARK SMILES IDX 42 76 43 77 44 78 45 79 46 80
REMARK H PARENT 67 36 37 47
REMARK Flexibility Score: inf
ROOT
ATOM      1  C   UNL A   1      37.613  21.396  24.633  1.00  0.00     0.275 C 
ENDROOT
BRANCH   1   2
ATOM      2  C   UNL A   1      36.581  20.344  25.030  1.00  0.00     0.274 C 
BRANCH   2   3
ATOM      3  O   UNL A   1      35.522  20.935  25.820  1.00  0.00    -0.462 OA
BRANCH   3   4
ATOM      4  C   UNL A   1      34.252  20.808  25.340  1.00  0.00     0.312 C 
ATOM      5  O   UNL A   1      33.785  19.737  24.973  1.00  0.00    -0.252 OA
BRANCH   4   6
ATOM      6  C   UNL A   1      33.539  22.177  25.136  1.00  0.00     0.070 C 
ATOM      7  C   UNL A   1      34.232  23.095  26.169  1.00  0.00     0.024 C 
BRANCH   6   8
ATOM      8  C   UNL A   1      32.011  22.061  25.473  1.00  0.00     0.018 C 
BRANCH   8   9
ATOM      9  C   UNL A   1      31.287  23.262  26.108  1.00  0.00    -0.002 C 
ATOM     10  C   UNL A   1      30.048  22.946  26.927  1.00  0.00     0.004 C 
ENDBRANCH   8   9
ENDBRANCH   6   8
BRANCH   6  11
ATOM     11  C   UNL A   1      33.761  22.778  23.715  1.00  0.00     0.034 C 
ATOM     12  C   UNL A   1      32.645  22.710  22.681  1.00  0.00     0.035 C 
ATOM     13  C   UNL A   1      34.128  24.254  23.641  1.00  0.00     0.165 C 
ATOM     14  C   UNL A   1      33.169  23.638  21.602  1.00  0.00     0.160 C 
ATOM     15  O   UNL A   1      33.885  24.673  22.292  1.00  0.00    -0.381 OA
ENDBRANCH   6  11
ENDBRANCH   4   6
ENDBRANCH   3   4
ENDBRANCH   2   3
ENDBRANCH   1   2
BRANCH   1  16
ATOM     16  O   UNL A   1      37.996  22.110  25.815  1.00  0.00    -0.458 OA
BRANCH  16  17
ATOM     17  C   UNL A   1      39.276  21.950  26.228  1.00  0.00     0.338 C 
ATOM     18  O   UNL A   1      39.985  20.980  26.028  1.00  0.00    -0.246 OA
BRANCH  17  19
ATOM     19  C   UNL A   1      39.716  23.188  26.919  1.00  0.00     0.060 A 
ATOM     20  C   UNL A   1      39.184  24.417  26.541  1.00  0.00     0.016 A 
ATOM     21  C   UNL A   1      40.739  23.152  27.870  1.00  0.00     0.016 A 
ATOM     22  C   UNL A   1      39.745  25.599  27.018  1.00  0.00     0.010 A 
ATOM     23  C   UNL A   1      41.232  24.348  28.421  1.00  0.00     0.010 A 
ATOM     24  C   UNL A   1      40.776  25.596  27.962  1.00  0.00    -0.014 A 
BRANCH  24  25
ATOM     25  C   UNL A   1      41.405  26.895  28.361  1.00  0.00     0.031 A 
ATOM     26  C   UNL A   1      42.864  27.162  28.068  1.00  0.00     0.074 A 
ATOM     27  C   UNL A   1      40.661  27.897  28.880  1.00  0.00     0.049 A 
ATOM     28  N   UNL A   1      43.604  28.187  28.416  1.00  0.00    -0.248 NA
ATOM     29  C   UNL A   1      43.591  26.144  27.292  1.00  0.00     0.031 C 
ATOM     30  C   UNL A   1      39.222  27.839  29.151  1.00  0.00     0.029 A 
ATOM     31  N   UNL A   1      41.003  29.187  29.219  1.00  0.00    -0.354 N 
ATOM     32  C   UNL A   1      44.889  27.904  27.967  1.00  0.00     0.074 A 
ATOM     33  C   UNL A   1      44.830  26.615  27.312  1.00  0.00     0.031 C 
ATOM     34  C   UNL A   1      38.790  29.058  29.509  1.00  0.00     0.029 A 
ATOM     35  C   UNL A   1      39.932  29.961  29.605  1.00  0.00     0.049 A 
ATOM     36  H   UNL A   1      41.927  29.523  29.190  1.00  0.00     0.167 HD
ATOM     37  C   UNL A   1      46.020  28.640  28.094  1.00  0.00     0.031 A 
ATOM     38  C   UNL A   1      39.867  31.242  30.018  1.00  0.00     0.031 A 
ATOM     39  C   UNL A   1      46.082  29.949  28.690  1.00  0.00     0.049 A 
ATOM     40  C   UNL A   1      41.134  32.037  30.161  1.00  0.00     0.074 A 
ATOM     41  C   UNL A   1      47.194  30.746  28.906  1.00  0.00     0.029 A 
ATOM     42  N   UNL A   1      44.984  30.668  29.133  1.00  0.00    -0.354 N 
ATOM     43  N   UNL A   1      42.362  31.696  29.852  1.00  0.00    -0.248 NA
ATOM     44  C   UNL A   1      41.009  33.381  30.743  1.00  0.00     0.031 C 
ATOM     45  C   UNL A   1      46.771  31.937  29.509  1.00  0.00     0.029 A 
ATOM     46  C   UNL A   1      45.392  31.898  29.627  1.00  0.00     0.049 A 
ATOM     47  H   UNL A   1      44.052  30.353  29.101  1.00  0.00     0.167 HD
ATOM     48  C   UNL A   1      43.156  32.779  30.213  1.00  0.00     0.074 A 
ATOM     49  C   UNL A   1      42.266  33.802  30.723  1.00  0.00     0.031 C 
ATOM     50  C   UNL A   1      44.504  32.905  30.145  1.00  0.00     0.031 A 
BRANCH  37  51
ATOM     51  C   UNL A   1      47.307  28.005  27.640  1.00  0.00    -0.014 A 
ATOM     52  C   UNL A   1      48.118  27.262  28.515  1.00  0.00     0.010 A 
ATOM     53  C   UNL A   1      47.699  28.149  26.297  1.00  0.00     0.010 A 
ATOM     54  C   UNL A   1      49.320  26.709  28.063  1.00  0.00     0.020 A 
ATOM     55  C   UNL A   1      48.888  27.580  25.835  1.00  0.00     0.020 A 
ATOM     56  C   UNL A   1      49.702  26.881  26.727  1.00  0.00     0.054 A 
BRANCH  56  57
ATOM     57  S   UNL A   1      51.265  26.155  26.159  1.00  0.00     0.124 S 
ATOM     58  O   UNL A   1      51.151  26.298  24.709  1.00  0.00    -0.237 OA
ATOM     59  O   UNL A   1      52.268  27.004  26.796  1.00  0.00    -0.237 OA
ATOM     60  O   UNL A   1      51.211  24.783  26.655  1.00  0.00    -0.744 OA
ENDBRANCH  56  57
ENDBRANCH  37  51
BRANCH  38  61
ATOM     61  C   UNL A   1      38.555  31.841  30.390  1.00  0.00    -0.014 A 
ATOM     62  C   UNL A   1      38.036  31.687  31.687  1.00  0.00     0.010 A 
ATOM     63  C   UNL A   1      37.816  32.573  29.441  1.00  0.00     0.010 A 
ATOM     64  C   UNL A   1      36.799  32.245  32.027  1.00  0.00     0.020 A 
ATOM     65  C   UNL A   1      36.596  33.160  29.786  1.00  0.00     0.020 A 
ATOM     66  C   UNL A   1      36.089  32.981  31.074  1.00  0.00     0.054 A 
BRANCH  66  67
ATOM     67  S   UNL A   1      34.518  33.758  31.543  1.00  0.00     0.124 S 
ATOM     68  O   UNL A   1      33.928  32.747  32.413  1.00  0.00    -0.237 OA
ATOM     69  O   UNL A   1      34.950  34.988  32.201  1.00  0.00    -0.237 OA
ATOM     70  O   UNL A   1      33.844  33.954  30.260  1.00  0.00    -0.744 OA
ENDBRANCH  66  67
ENDBRANCH  38  61
BRANCH  50  71
ATOM     71  C   UNL A   1      45.095  34.200  30.631  1.00  0.00    -0.014 A 
ATOM     72  C   UNL A   1      45.309  35.273  29.745  1.00  0.00     0.010 A 
ATOM     73  C   UNL A   1      45.432  34.353  31.987  1.00  0.00     0.010 A 
ATOM     74  C   UNL A   1      45.893  36.459  30.200  1.00  0.00     0.020 A 
ATOM     75  C   UNL A   1      45.995  35.545  32.450  1.00  0.00     0.020 A 
ATOM     76  C   UNL A   1      46.241  36.584  31.549  1.00  0.00     0.054 A 
BRANCH  76  77
ATOM     77  S   UNL A   1      46.992  38.133  32.122  1.00  0.00     0.124 S 
ATOM     78  O   UNL A   1      46.348  39.119  31.260  1.00  0.00    -0.237 OA
ATOM     79  O   UNL A   1      46.602  38.181  33.530  1.00  0.00    -0.237 OA
ATOM     80  O   UNL A   1      48.420  37.933  31.886  1.00  0.00    -0.744 OA
ENDBRANCH  76  77
ENDBRANCH  50  71
ENDBRANCH  24  25
ENDBRANCH  17  19
ENDBRANCH  16  17
ENDBRANCH   1  16
TORSDOF 17
ENDMDL
