MODEL 1
REMARK VINA RESULT:      -9.9      0.000      0.000
REMARK SMILES CC(C)(C[NH2+]Cc1ccc2c(c1)OCO2)C(=O)OCCOC(=O)c1ccc(-c2c3nc(c(-c4ccc(S(=O)(=O)[O-])cc4)c4ccc([nH]4)c(-c4ccc(S(=O)(=O)[O-])cc4)c4nc(c(-c5ccc(S(=O)(=O)[O-])cc5)c5ccc2[nH]5)C=C4)C=C3)cc1
REMARK SMILES IDX 19 1 18 2 16 3 17 4 2 5 1 6 3 7 4 8 5 9 6 12 7 13 8 14 12 15
REMARK SMILES IDX 9 16 11 17 10 18 13 19 15 20 14 21 20 22 21 23 22 24 23 25
REMARK SMILES IDX 24 26 25 27 83 28 26 29 82 30 27 31 28 32 29 33 76 34 30 35
REMARK SMILES IDX 81 36 75 37 77 38 31 39 80 40 74 41 73 42 32 44 62 45 43 46
REMARK SMILES IDX 61 47 44 48 47 49 60 50 78 51 45 52 46 53 59 55 79 56 48 57
REMARK SMILES IDX 33 58 34 59 42 60 35 61 41 62 36 63 37 64 38 65 39 66 40 67
REMARK SMILES IDX 63 68 64 69 72 70 65 71 71 72 66 73 67 74 68 75 69 76 70 77
REMARK SMILES IDX 49 78 50 79 58 80 51 81 57 82 52 83 53 84 54 85 55 86 56 87
REMARK H PARENT 5 10 5 11 77 43 47 54
REMARK Flexibility Score: inf
ROOT
ATOM      1  C   UNL A   1      31.697  29.241  25.809  1.00  0.00     0.274 C 
ENDROOT
BRANCH   1   2
ATOM      2  O   UNL A   1      31.880  28.008  25.086  1.00  0.00    -0.461 OA
BRANCH   2   3
ATOM      3  C   UNL A   1      31.538  26.868  25.751  1.00  0.00     0.317 C 
ATOM      4  O   UNL A   1      30.863  26.846  26.775  1.00  0.00    -0.251 OA
BRANCH   3   5
ATOM      5  C   UNL A   1      32.185  25.623  25.143  1.00  0.00     0.111 C 
ATOM      6  C   UNL A   1      32.565  24.623  26.256  1.00  0.00     0.029 C 
ATOM      7  C   UNL A   1      33.497  26.105  24.494  1.00  0.00     0.029 C 
BRANCH   5   8
ATOM      8  C   UNL A   1      31.300  24.950  24.056  1.00  0.00     0.279 C 
BRANCH   8   9
ATOM      9  N   UNL A   1      31.259  23.482  24.099  1.00  0.00    -0.342 N 
ATOM     10  H   UNL A   1      30.314  23.176  23.865  1.00  0.00     0.346 HD
ATOM     11  H   UNL A   1      31.532  23.197  25.039  1.00  0.00     0.346 HD
BRANCH   9  12
ATOM     12  C   UNL A   1      32.199  22.849  23.162  1.00  0.00     0.297 C 
BRANCH  12  13
ATOM     13  C   UNL A   1      33.407  22.157  23.775  1.00  0.00     0.010 A 
ATOM     14  C   UNL A   1      33.224  20.878  24.359  1.00  0.00     0.013 A 
ATOM     15  C   UNL A   1      34.696  22.717  23.788  1.00  0.00     0.060 A 
ATOM     16  C   UNL A   1      34.301  20.154  24.891  1.00  0.00     0.051 A 
ATOM     17  C   UNL A   1      35.743  21.969  24.283  1.00  0.00     0.166 A 
ATOM     18  C   UNL A   1      35.554  20.720  24.816  1.00  0.00     0.165 A 
ATOM     19  O   UNL A   1      37.048  22.348  24.283  1.00  0.00    -0.454 OA
ATOM     20  O   UNL A   1      36.719  20.153  25.226  1.00  0.00    -0.454 OA
ATOM     21  C   UNL A   1      37.666  21.177  24.852  1.00  0.00     0.468 C 
ENDBRANCH  12  13
ENDBRANCH   9  12
ENDBRANCH   8   9
ENDBRANCH   5   8
ENDBRANCH   3   5
ENDBRANCH   2   3
ENDBRANCH   1   2
BRANCH   1  22
ATOM     22  C   UNL A   1      33.039  29.949  25.988  1.00  0.00     0.275 C 
BRANCH  22  23
ATOM     23  O   UNL A   1      33.539  29.661  27.301  1.00  0.00    -0.458 OA
BRANCH  23  24
ATOM     24  C   UNL A   1      34.253  30.650  27.886  1.00  0.00     0.338 C 
ATOM     25  O   UNL A   1      33.871  31.786  28.110  1.00  0.00    -0.246 OA
BRANCH  24  26
ATOM     26  C   UNL A   1      35.612  30.148  28.202  1.00  0.00     0.060 A 
ATOM     27  C   UNL A   1      35.911  29.620  29.460  1.00  0.00     0.016 A 
ATOM     28  C   UNL A   1      36.620  30.246  27.242  1.00  0.00     0.016 A 
ATOM     29  C   UNL A   1      37.215  29.240  29.782  1.00  0.00     0.010 A 
ATOM     30  C   UNL A   1      37.912  29.795  27.539  1.00  0.00     0.010 A 
ATOM     31  C   UNL A   1      38.234  29.313  28.822  1.00  0.00    -0.014 A 
BRANCH  31  32
ATOM     32  C   UNL A   1      39.637  28.940  29.164  1.00  0.00     0.031 A 
ATOM     33  C   UNL A   1      40.516  29.918  29.905  1.00  0.00     0.074 A 
ATOM     34  C   UNL A   1      40.136  27.736  28.820  1.00  0.00     0.049 A 
ATOM     35  N   UNL A   1      41.799  29.850  30.159  1.00  0.00    -0.248 NA
ATOM     36  C   UNL A   1      39.868  31.138  30.412  1.00  0.00     0.031 C 
ATOM     37  C   UNL A   1      39.400  26.672  28.132  1.00  0.00     0.029 A 
ATOM     38  N   UNL A   1      41.388  27.201  29.009  1.00  0.00    -0.354 N 
ATOM     39  C   UNL A   1      42.123  31.042  30.800  1.00  0.00     0.074 A 
ATOM     40  C   UNL A   1      40.902  31.815  30.892  1.00  0.00     0.031 C 
ATOM     41  C   UNL A   1      40.200  25.602  27.994  1.00  0.00     0.029 A 
ATOM     42  C   UNL A   1      41.524  25.925  28.515  1.00  0.00     0.049 A 
ATOM     43  H   UNL A   1      42.119  27.686  29.457  1.00  0.00     0.167 HD
ATOM     44  C   UNL A   1      43.324  31.458  31.269  1.00  0.00     0.031 A 
ATOM     45  C   UNL A   1      42.598  25.111  28.460  1.00  0.00     0.031 A 
ATOM     46  C   UNL A   1      44.532  30.677  31.220  1.00  0.00     0.049 A 
ATOM     47  C   UNL A   1      43.919  25.591  28.991  1.00  0.00     0.074 A 
ATOM     48  C   UNL A   1      45.796  31.013  31.675  1.00  0.00     0.029 A 
ATOM     49  N   UNL A   1      44.623  29.393  30.705  1.00  0.00    -0.354 N 
ATOM     50  N   UNL A   1      44.217  26.744  29.541  1.00  0.00    -0.248 NA
ATOM     51  C   UNL A   1      45.052  24.659  28.887  1.00  0.00     0.031 C 
ATOM     52  C   UNL A   1      46.658  29.942  31.410  1.00  0.00     0.029 A 
ATOM     53  C   UNL A   1      45.921  28.924  30.830  1.00  0.00     0.049 A 
ATOM     54  H   UNL A   1      43.876  28.889  30.308  1.00  0.00     0.167 HD
ATOM     55  C   UNL A   1      45.569  26.672  29.859  1.00  0.00     0.074 A 
ATOM     56  C   UNL A   1      46.024  25.355  29.462  1.00  0.00     0.031 C 
ATOM     57  C   UNL A   1      46.362  27.614  30.424  1.00  0.00     0.031 A 
BRANCH  44  58
ATOM     58  C   UNL A   1      43.396  32.847  31.846  1.00  0.00    -0.014 A 
ATOM     59  C   UNL A   1      43.700  33.961  31.045  1.00  0.00     0.010 A 
ATOM     60  C   UNL A   1      43.133  33.040  33.216  1.00  0.00     0.010 A 
ATOM     61  C   UNL A   1      43.785  35.237  31.611  1.00  0.00     0.020 A 
ATOM     62  C   UNL A   1      43.192  34.317  33.781  1.00  0.00     0.020 A 
ATOM     63  C   UNL A   1      43.538  35.405  32.977  1.00  0.00     0.054 A 
BRANCH  63  64
ATOM     64  S   UNL A   1      43.646  37.071  33.689  1.00  0.00     0.124 S 
ATOM     65  O   UNL A   1      44.880  36.986  34.465  1.00  0.00    -0.237 OA
ATOM     66  O   UNL A   1      43.707  37.925  32.506  1.00  0.00    -0.237 OA
ATOM     67  O   UNL A   1      42.421  37.191  34.475  1.00  0.00    -0.744 OA
ENDBRANCH  63  64
ENDBRANCH  44  58
BRANCH  45  68
ATOM     68  C   UNL A   1      42.470  23.755  27.858  1.00  0.00    -0.014 A 
ATOM     69  C   UNL A   1      42.730  23.555  26.490  1.00  0.00     0.010 A 
ATOM     70  C   UNL A   1      42.102  22.654  28.653  1.00  0.00     0.010 A 
ATOM     71  C   UNL A   1      42.618  22.280  25.928  1.00  0.00     0.020 A 
ATOM     72  C   UNL A   1      42.017  21.374  28.100  1.00  0.00     0.020 A 
ATOM     73  C   UNL A   1      42.266  21.196  26.738  1.00  0.00     0.054 A 
BRANCH  73  74
ATOM     74  S   UNL A   1      42.196  19.537  26.007  1.00  0.00     0.124 S 
ATOM     75  O   UNL A   1      40.769  19.378  25.749  1.00  0.00    -0.237 OA
ATOM     76  O   UNL A   1      43.042  19.673  24.824  1.00  0.00    -0.237 OA
ATOM     77  O   UNL A   1      42.745  18.681  27.057  1.00  0.00    -0.744 OA
ENDBRANCH  73  74
ENDBRANCH  45  68
BRANCH  57  78
ATOM     78  C   UNL A   1      47.797  27.236  30.678  1.00  0.00    -0.014 A 
ATOM     79  C   UNL A   1      48.819  27.620  29.790  1.00  0.00     0.010 A 
ATOM     80  C   UNL A   1      48.127  26.491  31.824  1.00  0.00     0.010 A 
ATOM     81  C   UNL A   1      50.138  27.222  30.020  1.00  0.00     0.020 A 
ATOM     82  C   UNL A   1      49.449  26.112  32.069  1.00  0.00     0.020 A 
ATOM     83  C   UNL A   1      50.443  26.461  31.152  1.00  0.00     0.054 A 
BRANCH  83  84
ATOM     84  S   UNL A   1      52.163  25.954  31.436  1.00  0.00     0.124 S 
ATOM     85  O   UNL A   1      52.725  26.026  30.090  1.00  0.00    -0.237 OA
ATOM     86  O   UNL A   1      52.649  26.964  32.374  1.00  0.00    -0.237 OA
ATOM     87  O   UNL A   1      52.038  24.609  31.990  1.00  0.00    -0.744 OA
ENDBRANCH  83  84
ENDBRANCH  57  78
ENDBRANCH  31  32
ENDBRANCH  24  26
ENDBRANCH  23  24
ENDBRANCH  22  23
ENDBRANCH   1  22
TORSDOF 18
ENDMDL
MODEL 2
REMARK VINA RESULT:      -9.8      3.056      5.156
REMARK SMILES CC(C)(C[NH2+]Cc1ccc2c(c1)OCO2)C(=O)OCCOC(=O)c1ccc(-c2c3nc(c(-c4ccc(S(=O)(=O)[O-])cc4)c4ccc([nH]4)c(-c4ccc(S(=O)(=O)[O-])cc4)c4nc(c(-c5ccc(S(=O)(=O)[O-])cc5)c5ccc2[nH]5)C=C4)C=C3)cc1
REMARK SMILES IDX 19 1 18 2 16 3 17 4 2 5 1 6 3 7 4 8 5 9 6 12 7 13 8 14 12 15
REMARK SMILES IDX 9 16 11 17 10 18 13 19 15 20 14 21 20 22 21 23 22 24 23 25
REMARK SMILES IDX 24 26 25 27 83 28 26 29 82 30 27 31 28 32 29 33 76 34 30 35
REMARK SMILES IDX 81 36 75 37 77 38 31 39 80 40 74 41 73 42 32 44 62 45 43 46
REMARK SMILES IDX 61 47 44 48 47 49 60 50 78 51 45 52 46 53 59 55 79 56 48 57
REMARK SMILES IDX 33 58 34 59 42 60 35 61 41 62 36 63 37 64 38 65 39 66 40 67
REMARK SMILES IDX 63 68 64 69 72 70 65 71 71 72 66 73 67 74 68 75 69 76 70 77
REMARK SMILES IDX 49 78 50 79 58 80 51 81 57 82 52 83 53 84 54 85 55 86 56 87
REMARK H PARENT 5 10 5 11 77 43 47 54
REMARK Flexibility Score: inf
ROOT
ATOM      1  C   UNL A   1      32.146  29.042  27.263  1.00  0.00     0.274 C 
ENDROOT
BRANCH   1   2
ATOM      2  O   UNL A   1      32.415  28.272  26.074  1.00  0.00    -0.461 OA
BRANCH   2   3
ATOM      3  C   UNL A   1      31.764  27.078  25.975  1.00  0.00     0.317 C 
ATOM      4  O   UNL A   1      30.990  26.645  26.822  1.00  0.00    -0.251 OA
BRANCH   3   5
ATOM      5  C   UNL A   1      32.194  26.282  24.742  1.00  0.00     0.111 C 
ATOM      6  C   UNL A   1      32.233  24.774  25.070  1.00  0.00     0.029 C 
ATOM      7  C   UNL A   1      33.640  26.721  24.440  1.00  0.00     0.029 C 
BRANCH   5   8
ATOM      8  C   UNL A   1      31.308  26.568  23.497  1.00  0.00     0.279 C 
BRANCH   8   9
ATOM      9  N   UNL A   1      30.944  27.978  23.295  1.00  0.00    -0.342 N 
ATOM     10  H   UNL A   1      31.335  28.290  22.406  1.00  0.00     0.346 HD
ATOM     11  H   UNL A   1      31.319  28.504  24.084  1.00  0.00     0.346 HD
BRANCH   9  12
ATOM     12  C   UNL A   1      29.491  28.202  23.271  1.00  0.00     0.297 C 
BRANCH  12  13
ATOM     13  C   UNL A   1      29.026  29.598  22.885  1.00  0.00     0.010 A 
ATOM     14  C   UNL A   1      29.255  30.659  23.797  1.00  0.00     0.013 A 
ATOM     15  C   UNL A   1      28.386  29.892  21.669  1.00  0.00     0.060 A 
ATOM     16  C   UNL A   1      28.908  31.981  23.486  1.00  0.00     0.051 A 
ATOM     17  C   UNL A   1      28.089  31.205  21.372  1.00  0.00     0.166 A 
ATOM     18  C   UNL A   1      28.346  32.224  22.252  1.00  0.00     0.165 A 
ATOM     19  O   UNL A   1      27.548  31.643  20.205  1.00  0.00    -0.454 OA
ATOM     20  O   UNL A   1      27.994  33.438  21.753  1.00  0.00    -0.454 OA
ATOM     21  C   UNL A   1      27.522  33.064  20.441  1.00  0.00     0.468 C 
ENDBRANCH  12  13
ENDBRANCH   9  12
ENDBRANCH   8   9
ENDBRANCH   5   8
ENDBRANCH   3   5
ENDBRANCH   2   3
ENDBRANCH   1   2
BRANCH   1  22
ATOM     22  C   UNL A   1      32.340  30.530  26.979  1.00  0.00     0.275 C 
BRANCH  22  23
ATOM     23  O   UNL A   1      33.745  30.799  26.878  1.00  0.00    -0.458 OA
BRANCH  23  24
ATOM     24  C   UNL A   1      34.241  31.676  27.781  1.00  0.00     0.338 C 
ATOM     25  O   UNL A   1      33.746  32.743  28.103  1.00  0.00    -0.246 OA
BRANCH  24  26
ATOM     26  C   UNL A   1      35.519  31.151  28.319  1.00  0.00     0.060 A 
ATOM     27  C   UNL A   1      35.599  29.866  28.861  1.00  0.00     0.016 A 
ATOM     28  C   UNL A   1      36.649  31.970  28.325  1.00  0.00     0.016 A 
ATOM     29  C   UNL A   1      36.780  29.415  29.454  1.00  0.00     0.010 A 
ATOM     30  C   UNL A   1      37.854  31.490  28.852  1.00  0.00     0.010 A 
ATOM     31  C   UNL A   1      37.929  30.218  29.449  1.00  0.00    -0.014 A 
BRANCH  31  32
ATOM     32  C   UNL A   1      39.186  29.760  30.107  1.00  0.00     0.031 A 
ATOM     33  C   UNL A   1      39.670  30.443  31.363  1.00  0.00     0.074 A 
ATOM     34  C   UNL A   1      39.901  28.737  29.596  1.00  0.00     0.049 A 
ATOM     35  N   UNL A   1      40.808  30.301  31.997  1.00  0.00    -0.248 NA
ATOM     36  C   UNL A   1      38.762  31.425  31.975  1.00  0.00     0.031 C 
ATOM     37  C   UNL A   1      39.545  27.956  28.410  1.00  0.00     0.029 A 
ATOM     38  N   UNL A   1      41.083  28.176  30.018  1.00  0.00    -0.354 N 
ATOM     39  C   UNL A   1      40.776  31.217  33.043  1.00  0.00     0.074 A 
ATOM     40  C   UNL A   1      39.509  31.912  32.956  1.00  0.00     0.031 C 
ATOM     41  C   UNL A   1      40.465  26.994  28.224  1.00  0.00     0.029 A 
ATOM     42  C   UNL A   1      41.512  27.133  29.230  1.00  0.00     0.049 A 
ATOM     43  H   UNL A   1      41.576  28.489  30.811  1.00  0.00     0.167 HD
ATOM     44  C   UNL A   1      41.713  31.462  33.991  1.00  0.00     0.031 A 
ATOM     45  C   UNL A   1      42.634  26.388  29.289  1.00  0.00     0.031 A 
ATOM     46  C   UNL A   1      42.956  30.745  34.110  1.00  0.00     0.049 A 
ATOM     47  C   UNL A   1      43.657  26.673  30.351  1.00  0.00     0.074 A 
ATOM     48  C   UNL A   1      43.967  30.919  35.041  1.00  0.00     0.029 A 
ATOM     49  N   UNL A   1      43.350  29.703  33.285  1.00  0.00    -0.354 N 
ATOM     50  N   UNL A   1      43.635  27.581  31.296  1.00  0.00    -0.248 NA
ATOM     51  C   UNL A   1      44.864  25.831  30.350  1.00  0.00     0.031 C 
ATOM     52  C   UNL A   1      44.984  29.999  34.762  1.00  0.00     0.029 A 
ATOM     53  C   UNL A   1      44.587  29.224  33.686  1.00  0.00     0.049 A 
ATOM     54  H   UNL A   1      42.828  29.354  32.528  1.00  0.00     0.167 HD
ATOM     55  C   UNL A   1      44.817  27.415  32.008  1.00  0.00     0.074 A 
ATOM     56  C   UNL A   1      45.520  26.304  31.401  1.00  0.00     0.031 C 
ATOM     57  C   UNL A   1      45.280  28.122  33.068  1.00  0.00     0.031 A 
BRANCH  44  58
ATOM     58  C   UNL A   1      41.442  32.584  34.957  1.00  0.00    -0.014 A 
ATOM     59  C   UNL A   1      41.699  33.924  34.619  1.00  0.00     0.010 A 
ATOM     60  C   UNL A   1      40.900  32.290  36.223  1.00  0.00     0.010 A 
ATOM     61  C   UNL A   1      41.461  34.945  35.544  1.00  0.00     0.020 A 
ATOM     62  C   UNL A   1      40.637  33.310  37.141  1.00  0.00     0.020 A 
ATOM     63  C   UNL A   1      40.939  34.630  36.802  1.00  0.00     0.054 A 
BRANCH  63  64
ATOM     64  S   UNL A   1      40.630  35.972  37.984  1.00  0.00     0.124 S 
ATOM     65  O   UNL A   1      41.861  36.751  37.881  1.00  0.00    -0.237 OA
ATOM     66  O   UNL A   1      39.435  36.613  37.441  1.00  0.00    -0.237 OA
ATOM     67  O   UNL A   1      40.435  35.277  39.254  1.00  0.00    -0.744 OA
ENDBRANCH  63  64
ENDBRANCH  44  58
BRANCH  45  68
ATOM     68  C   UNL A   1      42.856  25.305  28.291  1.00  0.00    -0.014 A 
ATOM     69  C   UNL A   1      43.528  25.573  27.086  1.00  0.00     0.010 A 
ATOM     70  C   UNL A   1      42.411  23.995  28.550  1.00  0.00     0.010 A 
ATOM     71  C   UNL A   1      43.745  24.553  26.154  1.00  0.00     0.020 A 
ATOM     72  C   UNL A   1      42.650  22.969  27.633  1.00  0.00     0.020 A 
ATOM     73  C   UNL A   1      43.307  23.256  26.436  1.00  0.00     0.054 A 
BRANCH  73  74
ATOM     74  S   UNL A   1      43.661  21.930  25.249  1.00  0.00     0.124 S 
ATOM     75  O   UNL A   1      45.029  21.565  25.600  1.00  0.00    -0.237 OA
ATOM     76  O   UNL A   1      42.639  20.935  25.567  1.00  0.00    -0.237 OA
ATOM     77  O   UNL A   1      43.497  22.584  23.952  1.00  0.00    -0.744 OA
ENDBRANCH  73  74
ENDBRANCH  45  68
BRANCH  57  78
ATOM     78  C   UNL A   1      46.595  27.689  33.656  1.00  0.00    -0.014 A 
ATOM     79  C   UNL A   1      47.815  28.171  33.147  1.00  0.00     0.010 A 
ATOM     80  C   UNL A   1      46.610  26.790  34.739  1.00  0.00     0.010 A 
ATOM     81  C   UNL A   1      49.027  27.723  33.678  1.00  0.00     0.020 A 
ATOM     82  C   UNL A   1      47.820  26.359  35.287  1.00  0.00     0.020 A 
ATOM     83  C   UNL A   1      49.022  26.810  34.738  1.00  0.00     0.054 A 
BRANCH  83  84
ATOM     84  S   UNL A   1      50.605  26.240  35.417  1.00  0.00     0.124 S 
ATOM     85  O   UNL A   1      51.536  26.590  34.349  1.00  0.00    -0.237 OA
ATOM     86  O   UNL A   1      50.734  27.023  36.644  1.00  0.00    -0.237 OA
ATOM     87  O   UNL A   1      50.398  24.808  35.620  1.00  0.00    -0.744 OA
ENDBRANCH  83  84
ENDBRANCH  57  78
ENDBRANCH  31  32
ENDBRANCH  24  26
ENDBRANCH  23  24
ENDBRANCH  22  23
ENDBRANCH   1  22
TORSDOF 18
ENDMDL
MODEL 3
REMARK VINA RESULT:      -9.5      2.492      9.494
REMARK SMILES CC(C)(C[NH2+]Cc1ccc2c(c1)OCO2)C(=O)OCCOC(=O)c1ccc(-c2c3nc(c(-c4ccc(S(=O)(=O)[O-])cc4)c4ccc([nH]4)c(-c4ccc(S(=O)(=O)[O-])cc4)c4nc(c(-c5ccc(S(=O)(=O)[O-])cc5)c5ccc2[nH]5)C=C4)C=C3)cc1
REMARK SMILES IDX 19 1 18 2 16 3 17 4 2 5 1 6 3 7 4 8 5 9 6 12 7 13 8 14 12 15
REMARK SMILES IDX 9 16 11 17 10 18 13 19 15 20 14 21 20 22 21 23 22 24 23 25
REMARK SMILES IDX 24 26 25 27 83 28 26 29 82 30 27 31 28 32 29 33 76 34 30 35
REMARK SMILES IDX 81 36 75 37 77 38 31 39 80 40 74 41 73 42 32 44 62 45 43 46
REMARK SMILES IDX 61 47 44 48 47 49 60 50 78 51 45 52 46 53 59 55 79 56 48 57
REMARK SMILES IDX 33 58 34 59 42 60 35 61 41 62 36 63 37 64 38 65 39 66 40 67
REMARK SMILES IDX 63 68 64 69 72 70 65 71 71 72 66 73 67 74 68 75 69 76 70 77
REMARK SMILES IDX 49 78 50 79 58 80 51 81 57 82 52 83 53 84 54 85 55 86 56 87
REMARK H PARENT 5 10 5 11 77 43 47 54
REMARK Flexibility Score: inf
ROOT
ATOM      1  C   UNL A   1      36.258  22.927  24.121  1.00  0.00     0.274 C 
ENDROOT
BRANCH   1   2
ATOM      2  O   UNL A   1      35.053  22.164  23.907  1.00  0.00    -0.461 OA
BRANCH   2   3
ATOM      3  C   UNL A   1      34.136  22.200  24.915  1.00  0.00     0.317 C 
ATOM      4  O   UNL A   1      34.413  22.424  26.089  1.00  0.00    -0.251 OA
BRANCH   3   5
ATOM      5  C   UNL A   1      32.734  21.816  24.440  1.00  0.00     0.111 C 
ATOM      6  C   UNL A   1      32.702  20.330  24.024  1.00  0.00     0.029 C 
ATOM      7  C   UNL A   1      32.477  22.652  23.171  1.00  0.00     0.029 C 
BRANCH   5   8
ATOM      8  C   UNL A   1      31.631  22.135  25.488  1.00  0.00     0.279 C 
BRANCH   8   9
ATOM      9  N   UNL A   1      31.774  23.424  26.179  1.00  0.00    -0.342 N 
ATOM     10  H   UNL A   1      32.489  23.972  25.700  1.00  0.00     0.346 HD
ATOM     11  H   UNL A   1      32.028  23.224  27.146  1.00  0.00     0.346 HD
BRANCH   9  12
ATOM     12  C   UNL A   1      30.528  24.206  26.209  1.00  0.00     0.297 C 
BRANCH  12  13
ATOM     13  C   UNL A   1      30.594  25.610  25.628  1.00  0.00     0.010 A 
ATOM     14  C   UNL A   1      31.419  26.566  26.272  1.00  0.00     0.013 A 
ATOM     15  C   UNL A   1      29.884  26.008  24.482  1.00  0.00     0.060 A 
ATOM     16  C   UNL A   1      31.575  27.863  25.761  1.00  0.00     0.051 A 
ATOM     17  C   UNL A   1      30.085  27.276  23.980  1.00  0.00     0.166 A 
ATOM     18  C   UNL A   1      30.911  28.179  24.597  1.00  0.00     0.165 A 
ATOM     19  O   UNL A   1      29.532  27.765  22.838  1.00  0.00    -0.454 OA
ATOM     20  O   UNL A   1      30.980  29.358  23.926  1.00  0.00    -0.454 OA
ATOM     21  C   UNL A   1      30.131  29.075  22.793  1.00  0.00     0.468 C 
ENDBRANCH  12  13
ENDBRANCH   9  12
ENDBRANCH   8   9
ENDBRANCH   5   8
ENDBRANCH   3   5
ENDBRANCH   2   3
ENDBRANCH   1   2
BRANCH   1  22
ATOM     22  C   UNL A   1      37.293  22.077  24.856  1.00  0.00     0.275 C 
BRANCH  22  23
ATOM     23  O   UNL A   1      37.698  22.772  26.044  1.00  0.00    -0.458 OA
BRANCH  23  24
ATOM     24  C   UNL A   1      39.031  22.823  26.267  1.00  0.00     0.338 C 
ATOM     25  O   UNL A   1      39.836  21.933  26.055  1.00  0.00    -0.246 OA
BRANCH  24  26
ATOM     26  C   UNL A   1      39.377  24.144  26.847  1.00  0.00     0.060 A 
ATOM     27  C   UNL A   1      40.075  25.097  26.102  1.00  0.00     0.016 A 
ATOM     28  C   UNL A   1      39.041  24.420  28.173  1.00  0.00     0.016 A 
ATOM     29  C   UNL A   1      40.483  26.298  26.685  1.00  0.00     0.010 A 
ATOM     30  C   UNL A   1      39.384  25.655  28.735  1.00  0.00     0.010 A 
ATOM     31  C   UNL A   1      40.135  26.599  28.009  1.00  0.00    -0.014 A 
BRANCH  31  32
ATOM     32  C   UNL A   1      40.592  27.864  28.653  1.00  0.00     0.031 A 
ATOM     33  C   UNL A   1      42.016  27.991  29.136  1.00  0.00     0.074 A 
ATOM     34  C   UNL A   1      39.749  28.904  28.810  1.00  0.00     0.049 A 
ATOM     35  N   UNL A   1      42.566  28.938  29.854  1.00  0.00    -0.248 NA
ATOM     36  C   UNL A   1      42.937  26.900  28.777  1.00  0.00     0.031 C 
ATOM     37  C   UNL A   1      38.354  28.947  28.365  1.00  0.00     0.029 A 
ATOM     38  N   UNL A   1      39.947  30.135  29.389  1.00  0.00    -0.354 N 
ATOM     39  C   UNL A   1      43.876  28.529  30.083  1.00  0.00     0.074 A 
ATOM     40  C   UNL A   1      44.036  27.246  29.431  1.00  0.00     0.031 C 
ATOM     41  C   UNL A   1      37.837  30.154  28.651  1.00  0.00     0.029 A 
ATOM     42  C   UNL A   1      38.836  30.945  29.362  1.00  0.00     0.049 A 
ATOM     43  H   UNL A   1      40.805  30.412  29.785  1.00  0.00     0.167 HD
ATOM     44  C   UNL A   1      44.858  29.159  30.772  1.00  0.00     0.031 A 
ATOM     45  C   UNL A   1      38.628  32.175  29.874  1.00  0.00     0.031 A 
ATOM     46  C   UNL A   1      44.719  30.454  31.386  1.00  0.00     0.049 A 
ATOM     47  C   UNL A   1      39.733  32.858  30.630  1.00  0.00     0.074 A 
ATOM     48  C   UNL A   1      45.660  31.176  32.102  1.00  0.00     0.029 A 
ATOM     49  N   UNL A   1      43.572  31.233  31.338  1.00  0.00    -0.354 N 
ATOM     50  N   UNL A   1      40.945  32.429  30.885  1.00  0.00    -0.248 NA
ATOM     51  C   UNL A   1      39.435  34.191  31.174  1.00  0.00     0.031 C 
ATOM     52  C   UNL A   1      45.073  32.379  32.509  1.00  0.00     0.029 A 
ATOM     53  C   UNL A   1      43.783  32.426  32.011  1.00  0.00     0.049 A 
ATOM     54  H   UNL A   1      42.734  30.977  30.892  1.00  0.00     0.167 HD
ATOM     55  C   UNL A   1      41.560  33.444  31.610  1.00  0.00     0.074 A 
ATOM     56  C   UNL A   1      40.594  34.517  31.731  1.00  0.00     0.031 C 
ATOM     57  C   UNL A   1      42.811  33.482  32.131  1.00  0.00     0.031 A 
BRANCH  44  58
ATOM     58  C   UNL A   1      46.167  28.432  30.932  1.00  0.00    -0.014 A 
ATOM     59  C   UNL A   1      46.395  27.558  32.009  1.00  0.00     0.010 A 
ATOM     60  C   UNL A   1      47.179  28.613  29.970  1.00  0.00     0.010 A 
ATOM     61  C   UNL A   1      47.629  26.914  32.147  1.00  0.00     0.020 A 
ATOM     62  C   UNL A   1      48.404  27.952  30.091  1.00  0.00     0.020 A 
ATOM     63  C   UNL A   1      48.628  27.122  31.191  1.00  0.00     0.054 A 
BRANCH  63  64
ATOM     64  S   UNL A   1      50.218  26.269  31.385  1.00  0.00     0.124 S 
ATOM     65  O   UNL A   1      51.164  27.381  31.326  1.00  0.00    -0.237 OA
ATOM     66  O   UNL A   1      50.084  25.628  32.691  1.00  0.00    -0.237 OA
ATOM     67  O   UNL A   1      50.261  25.352  30.248  1.00  0.00    -0.744 OA
ENDBRANCH  63  64
ENDBRANCH  44  58
BRANCH  45  68
ATOM     68  C   UNL A   1      37.305  32.835  29.702  1.00  0.00    -0.014 A 
ATOM     69  C   UNL A   1      36.366  32.834  30.749  1.00  0.00     0.010 A 
ATOM     70  C   UNL A   1      36.984  33.483  28.495  1.00  0.00     0.010 A 
ATOM     71  C   UNL A   1      35.128  33.463  30.590  1.00  0.00     0.020 A 
ATOM     72  C   UNL A   1      35.757  34.135  28.343  1.00  0.00     0.020 A 
ATOM     73  C   UNL A   1      34.833  34.113  29.388  1.00  0.00     0.054 A 
BRANCH  73  74
ATOM     74  S   UNL A   1      33.250  34.985  29.224  1.00  0.00     0.124 S 
ATOM     75  O   UNL A   1      32.725  34.919  30.584  1.00  0.00    -0.237 OA
ATOM     76  O   UNL A   1      33.661  36.311  28.768  1.00  0.00    -0.237 OA
ATOM     77  O   UNL A   1      32.527  34.193  28.232  1.00  0.00    -0.744 OA
ENDBRANCH  73  74
ENDBRANCH  45  68
BRANCH  57  78
ATOM     78  C   UNL A   1      43.213  34.741  32.851  1.00  0.00    -0.014 A 
ATOM     79  C   UNL A   1      43.015  34.883  34.236  1.00  0.00     0.010 A 
ATOM     80  C   UNL A   1      43.803  35.795  32.129  1.00  0.00     0.010 A 
ATOM     81  C   UNL A   1      43.355  36.077  34.878  1.00  0.00     0.020 A 
ATOM     82  C   UNL A   1      44.166  36.981  32.773  1.00  0.00     0.020 A 
ATOM     83  C   UNL A   1      43.918  37.122  34.140  1.00  0.00     0.054 A 
BRANCH  83  84
ATOM     84  S   UNL A   1      44.354  38.665  34.991  1.00  0.00     0.124 S 
ATOM     85  O   UNL A   1      43.428  39.617  34.386  1.00  0.00    -0.237 OA
ATOM     86  O   UNL A   1      44.100  38.346  36.394  1.00  0.00    -0.237 OA
ATOM     87  O   UNL A   1      45.761  38.860  34.650  1.00  0.00    -0.744 OA
ENDBRANCH  83  84
ENDBRANCH  57  78
ENDBRANCH  31  32
ENDBRANCH  24  26
ENDBRANCH  23  24
ENDBRANCH  22  23
ENDBRANCH   1  22
TORSDOF 18
ENDMDL
