MODEL 1
REMARK VINA RESULT:     -11.1      0.000      0.000
REMARK SMILES CC(=O)NS(=O)(=O)c1ccc(-c2ccn(C(F)F)c(=O)c2)cc1C(=O)OCCOC(=O)c1ccc(-c2c3nc(c(-c4ccc(S(=O)(=O)[O-])cc4)c4ccc([nH]4)c(-c4ccc(S(=O)(=O)[O-])cc4)c4nc(c(-c5ccc(S(=O)(=O)[O-])cc5)c5ccc2[nH]5)C=C4)C=C3)cc1
REMARK SMILES IDX 28 1 27 2 26 3 24 4 25 5 23 6 8 7 9 8 10 9 22 10 11 11 5 12
REMARK SMILES IDX 6 13 7 14 4 15 1 16 2 17 3 18 12 20 13 21 21 22 14 23 19 24
REMARK SMILES IDX 15 25 20 26 16 27 17 28 18 29 29 30 30 31 31 32 32 33 33 34
REMARK SMILES IDX 91 35 34 36 90 37 35 38 36 39 37 40 84 41 38 42 89 43 83 44
REMARK SMILES IDX 85 45 39 46 88 47 82 48 81 49 40 51 70 52 51 53 69 54 52 55
REMARK SMILES IDX 55 56 68 57 86 58 53 59 54 60 67 62 87 63 56 64 41 65 42 66
REMARK SMILES IDX 50 67 43 68 49 69 44 70 45 71 46 72 47 73 48 74 71 75 72 76
REMARK SMILES IDX 80 77 73 78 79 79 74 80 75 81 76 82 77 83 78 84 57 85 58 86
REMARK SMILES IDX 66 87 59 88 65 89 60 90 61 91 62 92 63 93 64 94
REMARK H PARENT 4 19 85 50 55 61
REMARK Flexibility Score: inf
ROOT
ATOM      1  C   UNL A   1      38.754  23.347  26.417  1.00  0.00     0.275 C 
ENDROOT
BRANCH   1   2
ATOM      2  C   UNL A   1      37.526  23.033  25.567  1.00  0.00     0.275 C 
BRANCH   2   3
ATOM      3  O   UNL A   1      36.539  24.076  25.715  1.00  0.00    -0.458 OA
BRANCH   3   4
ATOM      4  C   UNL A   1      35.267  23.684  25.904  1.00  0.00     0.339 C 
ATOM      5  O   UNL A   1      34.916  22.658  26.469  1.00  0.00    -0.246 OA
BRANCH   4   6
ATOM      6  C   UNL A   1      34.264  24.679  25.435  1.00  0.00     0.081 A 
ATOM      7  C   UNL A   1      33.326  24.512  24.412  1.00  0.00     0.102 A 
ATOM      8  C   UNL A   1      32.284  25.448  24.268  1.00  0.00     0.024 A 
ATOM      9  C   UNL A   1      32.291  26.643  24.988  1.00  0.00     0.010 A 
ATOM     10  C   UNL A   1      34.236  25.880  26.173  1.00  0.00     0.025 A 
ATOM     11  C   UNL A   1      33.314  26.895  25.898  1.00  0.00    -0.017 A 
BRANCH   7  12
ATOM     12  S   UNL A   1      33.505  23.242  23.190  1.00  0.00     0.264 S 
ATOM     13  O   UNL A   1      34.855  23.324  22.677  1.00  0.00    -0.201 OA
ATOM     14  O   UNL A   1      32.340  23.241  22.336  1.00  0.00    -0.201 OA
BRANCH  12  15
ATOM     15  N   UNL A   1      33.436  21.809  24.048  1.00  0.00    -0.249 N 
ATOM     16  C   UNL A   1      31.388  22.192  25.451  1.00  0.00     0.115 C 
ATOM     17  C   UNL A   1      32.278  21.278  24.649  1.00  0.00     0.230 C 
ATOM     18  O   UNL A   1      32.134  20.062  24.666  1.00  0.00    -0.274 OA
ATOM     19  H   UNL A   1      34.271  21.297  24.140  1.00  0.00     0.183 HD
ENDBRANCH  12  15
ENDBRANCH   7  12
BRANCH  11  20
ATOM     20  C   UNL A   1      33.500  28.227  26.498  1.00  0.00    -0.011 A 
ATOM     21  C   UNL A   1      32.375  29.118  26.729  1.00  0.00     0.027 A 
ATOM     22  C   UNL A   1      34.734  28.633  26.838  1.00  0.00     0.080 A 
ATOM     23  C   UNL A   1      32.569  30.350  27.213  1.00  0.00     0.095 A 
ATOM     24  C   UNL A   1      34.958  29.984  27.430  1.00  0.00     0.255 A 
ATOM     25  N   UNL A   1      33.838  30.792  27.538  1.00  0.00    -0.258 N 
ATOM     26  O   UNL A   1      36.098  30.276  27.777  1.00  0.00    -0.269 OA
BRANCH  25  27
ATOM     27  C   UNL A   1      34.034  32.125  28.056  1.00  0.00     0.451 C 
ATOM     28  F   UNL A   1      34.309  32.078  29.383  1.00  0.00    -0.185 F 
ATOM     29  F   UNL A   1      35.071  32.738  27.435  1.00  0.00    -0.185 F 
ENDBRANCH  25  27
ENDBRANCH  11  20
ENDBRANCH   4   6
ENDBRANCH   3   4
ENDBRANCH   2   3
ENDBRANCH   1   2
BRANCH   1  30
ATOM     30  O   UNL A   1      38.566  24.622  27.053  1.00  0.00    -0.458 OA
BRANCH  30  31
ATOM     31  C   UNL A   1      39.565  25.519  26.895  1.00  0.00     0.338 C 
ATOM     32  O   UNL A   1      40.400  25.558  26.007  1.00  0.00    -0.246 OA
BRANCH  31  33
ATOM     33  C   UNL A   1      39.503  26.508  27.985  1.00  0.00     0.060 A 
ATOM     34  C   UNL A   1      40.095  27.759  27.817  1.00  0.00     0.016 A 
ATOM     35  C   UNL A   1      38.947  26.158  29.213  1.00  0.00     0.016 A 
ATOM     36  C   UNL A   1      40.206  28.633  28.897  1.00  0.00     0.010 A 
ATOM     37  C   UNL A   1      38.981  27.073  30.272  1.00  0.00     0.010 A 
ATOM     38  C   UNL A   1      39.648  28.306  30.141  1.00  0.00    -0.014 A 
BRANCH  38  39
ATOM     39  C   UNL A   1      39.809  29.215  31.314  1.00  0.00     0.031 A 
ATOM     40  C   UNL A   1      41.017  29.088  32.211  1.00  0.00     0.074 A 
ATOM     41  C   UNL A   1      38.896  30.172  31.580  1.00  0.00     0.049 A 
ATOM     42  N   UNL A   1      41.256  29.666  33.361  1.00  0.00    -0.248 NA
ATOM     43  C   UNL A   1      42.091  28.189  31.760  1.00  0.00     0.031 C 
ATOM     44  C   UNL A   1      37.699  30.453  30.785  1.00  0.00     0.029 A 
ATOM     45  N   UNL A   1      38.842  31.098  32.595  1.00  0.00    -0.354 N 
ATOM     46  C   UNL A   1      42.463  29.139  33.809  1.00  0.00     0.074 A 
ATOM     47  C   UNL A   1      42.921  28.215  32.794  1.00  0.00     0.031 C 
ATOM     48  C   UNL A   1      37.056  31.508  31.312  1.00  0.00     0.029 A 
ATOM     49  C   UNL A   1      37.743  31.924  32.530  1.00  0.00     0.049 A 
ATOM     50  H   UNL A   1      39.525  31.164  33.302  1.00  0.00     0.167 HD
ATOM     51  C   UNL A   1      43.124  29.389  34.965  1.00  0.00     0.031 A 
ATOM     52  C   UNL A   1      37.305  32.879  33.373  1.00  0.00     0.031 A 
ATOM     53  C   UNL A   1      42.698  30.339  35.959  1.00  0.00     0.049 A 
ATOM     54  C   UNL A   1      38.055  33.145  34.646  1.00  0.00     0.074 A 
ATOM     55  C   UNL A   1      43.309  30.663  37.158  1.00  0.00     0.029 A 
ATOM     56  N   UNL A   1      41.565  31.129  35.863  1.00  0.00    -0.354 N 
ATOM     57  N   UNL A   1      39.155  32.581  35.084  1.00  0.00    -0.248 NA
ATOM     58  C   UNL A   1      37.489  34.157  35.550  1.00  0.00     0.031 C 
ATOM     59  C   UNL A   1      42.532  31.635  37.798  1.00  0.00     0.029 A 
ATOM     60  C   UNL A   1      41.457  31.941  36.979  1.00  0.00     0.049 A 
ATOM     61  H   UNL A   1      40.928  31.115  35.112  1.00  0.00     0.167 HD
ATOM     62  C   UNL A   1      39.407  33.164  36.321  1.00  0.00     0.074 A 
ATOM     63  C   UNL A   1      38.364  34.143  36.547  1.00  0.00     0.031 C 
ATOM     64  C   UNL A   1      40.408  32.900  37.197  1.00  0.00     0.031 A 
BRANCH  51  65
ATOM     65  C   UNL A   1      44.364  28.583  35.241  1.00  0.00    -0.014 A 
ATOM     66  C   UNL A   1      45.634  29.028  34.837  1.00  0.00     0.010 A 
ATOM     67  C   UNL A   1      44.252  27.366  35.939  1.00  0.00     0.010 A 
ATOM     68  C   UNL A   1      46.767  28.250  35.092  1.00  0.00     0.020 A 
ATOM     69  C   UNL A   1      45.384  26.596  36.214  1.00  0.00     0.020 A 
ATOM     70  C   UNL A   1      46.633  27.034  35.771  1.00  0.00     0.054 A 
BRANCH  70  71
ATOM     71  S   UNL A   1      48.117  26.043  36.097  1.00  0.00     0.124 S 
ATOM     72  O   UNL A   1      48.979  26.420  34.978  1.00  0.00    -0.237 OA
ATOM     73  O   UNL A   1      48.547  26.523  37.408  1.00  0.00    -0.237 OA
ATOM     74  O   UNL A   1      47.626  24.668  36.070  1.00  0.00    -0.744 OA
ENDBRANCH  70  71
ENDBRANCH  51  65
BRANCH  52  75
ATOM     75  C   UNL A   1      36.052  33.618  33.061  1.00  0.00    -0.014 A 
ATOM     76  C   UNL A   1      34.798  33.048  33.343  1.00  0.00     0.010 A 
ATOM     77  C   UNL A   1      36.110  34.910  32.508  1.00  0.00     0.010 A 
ATOM     78  C   UNL A   1      33.624  33.759  33.080  1.00  0.00     0.020 A 
ATOM     79  C   UNL A   1      34.939  35.632  32.266  1.00  0.00     0.020 A 
ATOM     80  C   UNL A   1      33.702  35.050  32.547  1.00  0.00     0.054 A 
BRANCH  80  81
ATOM     81  S   UNL A   1      32.177  35.997  32.288  1.00  0.00     0.124 S 
ATOM     82  O   UNL A   1      32.359  37.121  33.201  1.00  0.00    -0.237 OA
ATOM     83  O   UNL A   1      32.235  36.322  30.864  1.00  0.00    -0.237 OA
ATOM     84  O   UNL A   1      31.127  35.051  32.657  1.00  0.00    -0.744 OA
ENDBRANCH  80  81
ENDBRANCH  52  75
BRANCH  64  85
ATOM     85  C   UNL A   1      40.425  33.689  38.475  1.00  0.00    -0.014 A 
ATOM     86  C   UNL A   1      39.775  33.209  39.626  1.00  0.00     0.010 A 
ATOM     87  C   UNL A   1      41.129  34.906  38.536  1.00  0.00     0.010 A 
ATOM     88  C   UNL A   1      39.806  33.948  40.812  1.00  0.00     0.020 A 
ATOM     89  C   UNL A   1      41.176  35.637  39.726  1.00  0.00     0.020 A 
ATOM     90  C   UNL A   1      40.502  35.161  40.852  1.00  0.00     0.054 A 
BRANCH  90  91
ATOM     91  S   UNL A   1      40.560  36.088  42.410  1.00  0.00     0.124 S 
ATOM     92  O   UNL A   1      39.780  37.279  42.083  1.00  0.00    -0.237 OA
ATOM     93  O   UNL A   1      39.936  35.169  43.359  1.00  0.00    -0.237 OA
ATOM     94  O   UNL A   1      41.988  36.315  42.621  1.00  0.00    -0.744 OA
ENDBRANCH  90  91
ENDBRANCH  64  85
ENDBRANCH  38  39
ENDBRANCH  31  33
ENDBRANCH  30  31
ENDBRANCH   1  30
TORSDOF 18
ENDMDL
MODEL 2
REMARK VINA RESULT:     -10.7      1.561      2.024
REMARK SMILES CC(=O)NS(=O)(=O)c1ccc(-c2ccn(C(F)F)c(=O)c2)cc1C(=O)OCCOC(=O)c1ccc(-c2c3nc(c(-c4ccc(S(=O)(=O)[O-])cc4)c4ccc([nH]4)c(-c4ccc(S(=O)(=O)[O-])cc4)c4nc(c(-c5ccc(S(=O)(=O)[O-])cc5)c5ccc2[nH]5)C=C4)C=C3)cc1
REMARK SMILES IDX 28 1 27 2 26 3 24 4 25 5 23 6 8 7 9 8 10 9 22 10 11 11 5 12
REMARK SMILES IDX 6 13 7 14 4 15 1 16 2 17 3 18 12 20 13 21 21 22 14 23 19 24
REMARK SMILES IDX 15 25 20 26 16 27 17 28 18 29 29 30 30 31 31 32 32 33 33 34
REMARK SMILES IDX 91 35 34 36 90 37 35 38 36 39 37 40 84 41 38 42 89 43 83 44
REMARK SMILES IDX 85 45 39 46 88 47 82 48 81 49 40 51 70 52 51 53 69 54 52 55
REMARK SMILES IDX 55 56 68 57 86 58 53 59 54 60 67 62 87 63 56 64 41 65 42 66
REMARK SMILES IDX 50 67 43 68 49 69 44 70 45 71 46 72 47 73 48 74 71 75 72 76
REMARK SMILES IDX 80 77 73 78 79 79 74 80 75 81 76 82 77 83 78 84 57 85 58 86
REMARK SMILES IDX 66 87 59 88 65 89 60 90 61 91 62 92 63 93 64 94
REMARK H PARENT 4 19 85 50 55 61
REMARK Flexibility Score: inf
ROOT
ATOM      1  C   UNL A   1      38.309  22.872  25.380  1.00  0.00     0.275 C 
ENDROOT
BRANCH   1   2
ATOM      2  C   UNL A   1      36.844  23.074  25.003  1.00  0.00     0.275 C 
BRANCH   2   3
ATOM      3  O   UNL A   1      36.070  23.404  26.175  1.00  0.00    -0.458 OA
BRANCH   3   4
ATOM      4  C   UNL A   1      34.856  22.834  26.281  1.00  0.00     0.339 C 
ATOM      5  O   UNL A   1      34.626  21.740  26.776  1.00  0.00    -0.246 OA
BRANCH   4   6
ATOM      6  C   UNL A   1      33.748  23.710  25.812  1.00  0.00     0.081 A 
ATOM      7  C   UNL A   1      32.696  23.356  24.961  1.00  0.00     0.102 A 
ATOM      8  C   UNL A   1      31.593  24.220  24.825  1.00  0.00     0.024 A 
ATOM      9  C   UNL A   1      31.626  25.511  25.355  1.00  0.00     0.010 A 
ATOM     10  C   UNL A   1      33.747  25.007  26.364  1.00  0.00     0.025 A 
ATOM     11  C   UNL A   1      32.742  25.934  26.071  1.00  0.00    -0.017 A 
BRANCH   7  12
ATOM     12  S   UNL A   1      32.786  21.922  23.924  1.00  0.00     0.264 S 
ATOM     13  O   UNL A   1      34.188  21.627  23.718  1.00  0.00    -0.201 OA
ATOM     14  O   UNL A   1      31.847  22.064  22.838  1.00  0.00    -0.201 OA
BRANCH  12  15
ATOM     15  N   UNL A   1      32.198  20.673  24.868  1.00  0.00    -0.249 N 
ATOM     16  C   UNL A   1      32.532  18.716  23.330  1.00  0.00     0.115 C 
ATOM     17  C   UNL A   1      32.531  19.313  24.714  1.00  0.00     0.230 C 
ATOM     18  O   UNL A   1      32.617  18.616  25.716  1.00  0.00    -0.274 OA
ATOM     19  H   UNL A   1      31.570  20.908  25.589  1.00  0.00     0.183 HD
ENDBRANCH  12  15
ENDBRANCH   7  12
BRANCH  11  20
ATOM     20  C   UNL A   1      32.929  27.348  26.440  1.00  0.00    -0.011 A 
ATOM     21  C   UNL A   1      31.796  28.216  26.713  1.00  0.00     0.027 A 
ATOM     22  C   UNL A   1      34.171  27.851  26.524  1.00  0.00     0.080 A 
ATOM     23  C   UNL A   1      31.980  29.514  26.981  1.00  0.00     0.095 A 
ATOM     24  C   UNL A   1      34.393  29.283  26.876  1.00  0.00     0.255 A 
ATOM     25  N   UNL A   1      33.251  30.051  27.040  1.00  0.00    -0.258 N 
ATOM     26  O   UNL A   1      35.550  29.672  26.998  1.00  0.00    -0.269 OA
BRANCH  25  27
ATOM     27  C   UNL A   1      33.436  31.455  27.327  1.00  0.00     0.451 C 
ATOM     28  F   UNL A   1      32.254  32.112  27.237  1.00  0.00    -0.185 F 
ATOM     29  F   UNL A   1      33.920  31.633  28.580  1.00  0.00    -0.185 F 
ENDBRANCH  25  27
ENDBRANCH  11  20
ENDBRANCH   4   6
ENDBRANCH   3   4
ENDBRANCH   2   3
ENDBRANCH   1   2
BRANCH   1  30
ATOM     30  O   UNL A   1      38.557  23.513  26.643  1.00  0.00    -0.458 OA
BRANCH  30  31
ATOM     31  C   UNL A   1      39.785  24.055  26.804  1.00  0.00     0.338 C 
ATOM     32  O   UNL A   1      40.837  23.676  26.320  1.00  0.00    -0.246 OA
BRANCH  31  33
ATOM     33  C   UNL A   1      39.680  25.236  27.678  1.00  0.00     0.060 A 
ATOM     34  C   UNL A   1      40.467  26.357  27.420  1.00  0.00     0.016 A 
ATOM     35  C   UNL A   1      38.875  25.195  28.814  1.00  0.00     0.016 A 
ATOM     36  C   UNL A   1      40.515  27.407  28.336  1.00  0.00     0.010 A 
ATOM     37  C   UNL A   1      38.858  26.288  29.688  1.00  0.00     0.010 A 
ATOM     38  C   UNL A   1      39.709  27.390  29.484  1.00  0.00    -0.014 A 
BRANCH  38  39
ATOM     39  C   UNL A   1      39.795  28.486  30.494  1.00  0.00     0.031 A 
ATOM     40  C   UNL A   1      40.842  28.433  31.581  1.00  0.00     0.074 A 
ATOM     41  C   UNL A   1      38.960  29.545  30.442  1.00  0.00     0.049 A 
ATOM     42  N   UNL A   1      40.973  29.194  32.639  1.00  0.00    -0.248 NA
ATOM     43  C   UNL A   1      41.869  27.385  31.469  1.00  0.00     0.031 C 
ATOM     44  C   UNL A   1      37.926  29.766  29.430  1.00  0.00     0.029 A 
ATOM     45  N   UNL A   1      38.860  30.644  31.261  1.00  0.00    -0.354 N 
ATOM     46  C   UNL A   1      42.041  28.666  33.358  1.00  0.00     0.074 A 
ATOM     47  C   UNL A   1      42.539  27.538  32.603  1.00  0.00     0.031 C 
ATOM     48  C   UNL A   1      37.330  30.947  29.658  1.00  0.00     0.029 A 
ATOM     49  C   UNL A   1      37.875  31.527  30.881  1.00  0.00     0.049 A 
ATOM     50  H   UNL A   1      39.437  30.786  32.047  1.00  0.00     0.167 HD
ATOM     51  C   UNL A   1      42.551  29.074  34.545  1.00  0.00     0.031 A 
ATOM     52  C   UNL A   1      37.425  32.653  31.467  1.00  0.00     0.031 A 
ATOM     53  C   UNL A   1      42.091  30.222  35.280  1.00  0.00     0.049 A 
ATOM     54  C   UNL A   1      38.007  33.091  32.779  1.00  0.00     0.074 A 
ATOM     55  C   UNL A   1      42.554  30.714  36.488  1.00  0.00     0.029 A 
ATOM     56  N   UNL A   1      41.073  31.067  34.870  1.00  0.00    -0.354 N 
ATOM     57  N   UNL A   1      38.967  32.534  33.477  1.00  0.00    -0.248 NA
ATOM     58  C   UNL A   1      37.428  34.294  33.393  1.00  0.00     0.031 C 
ATOM     59  C   UNL A   1      41.800  31.846  36.819  1.00  0.00     0.029 A 
ATOM     60  C   UNL A   1      40.893  32.078  35.798  1.00  0.00     0.049 A 
ATOM     61  H   UNL A   1      40.553  30.964  34.039  1.00  0.00     0.167 HD
ATOM     62  C   UNL A   1      39.100  33.314  34.620  1.00  0.00     0.074 A 
ATOM     63  C   UNL A   1      38.145  34.397  34.506  1.00  0.00     0.031 C 
ATOM     64  C   UNL A   1      39.930  33.140  35.677  1.00  0.00     0.031 A 
BRANCH  51  65
ATOM     65  C   UNL A   1      43.646  28.238  35.149  1.00  0.00    -0.014 A 
ATOM     66  C   UNL A   1      45.002  28.515  34.905  1.00  0.00     0.010 A 
ATOM     67  C   UNL A   1      43.306  27.168  35.999  1.00  0.00     0.010 A 
ATOM     68  C   UNL A   1      45.998  27.711  35.467  1.00  0.00     0.020 A 
ATOM     69  C   UNL A   1      44.299  26.376  36.579  1.00  0.00     0.020 A 
ATOM     70  C   UNL A   1      45.640  26.641  36.293  1.00  0.00     0.054 A 
BRANCH  70  71
ATOM     71  S   UNL A   1      46.948  25.615  37.017  1.00  0.00     0.124 S 
ATOM     72  O   UNL A   1      47.110  26.223  38.335  1.00  0.00    -0.237 OA
ATOM     73  O   UNL A   1      46.355  24.280  37.011  1.00  0.00    -0.237 OA
ATOM     74  O   UNL A   1      48.074  25.797  36.104  1.00  0.00    -0.744 OA
ENDBRANCH  70  71
ENDBRANCH  51  65
BRANCH  52  75
ATOM     75  C   UNL A   1      36.314  33.417  30.835  1.00  0.00    -0.014 A 
ATOM     76  C   UNL A   1      35.029  33.408  31.404  1.00  0.00     0.010 A 
ATOM     77  C   UNL A   1      36.549  34.183  29.679  1.00  0.00     0.010 A 
ATOM     78  C   UNL A   1      33.997  34.155  30.827  1.00  0.00     0.020 A 
ATOM     79  C   UNL A   1      35.527  34.949  29.115  1.00  0.00     0.020 A 
ATOM     80  C   UNL A   1      34.254  34.925  29.688  1.00  0.00     0.054 A 
BRANCH  80  81
ATOM     81  S   UNL A   1      32.931  35.956  28.996  1.00  0.00     0.124 S 
ATOM     82  O   UNL A   1      33.687  36.996  28.306  1.00  0.00    -0.237 OA
ATOM     83  O   UNL A   1      32.208  35.022  28.136  1.00  0.00    -0.237 OA
ATOM     84  O   UNL A   1      32.194  36.395  30.180  1.00  0.00    -0.744 OA
ENDBRANCH  80  81
ENDBRANCH  52  75
BRANCH  64  85
ATOM     85  C   UNL A   1      39.848  34.149  36.787  1.00  0.00    -0.014 A 
ATOM     86  C   UNL A   1      40.439  35.417  36.653  1.00  0.00     0.010 A 
ATOM     87  C   UNL A   1      39.142  33.837  37.963  1.00  0.00     0.010 A 
ATOM     88  C   UNL A   1      40.348  36.350  37.689  1.00  0.00     0.020 A 
ATOM     89  C   UNL A   1      39.034  34.775  38.994  1.00  0.00     0.020 A 
ATOM     90  C   UNL A   1      39.651  36.021  38.856  1.00  0.00     0.054 A 
BRANCH  90  91
ATOM     91  S   UNL A   1      39.514  37.258  40.176  1.00  0.00     0.124 S 
ATOM     92  O   UNL A   1      40.911  37.452  40.555  1.00  0.00    -0.237 OA
ATOM     93  O   UNL A   1      38.883  38.388  39.498  1.00  0.00    -0.237 OA
ATOM     94  O   UNL A   1      38.681  36.598  41.179  1.00  0.00    -0.744 OA
ENDBRANCH  90  91
ENDBRANCH  64  85
ENDBRANCH  38  39
ENDBRANCH  31  33
ENDBRANCH  30  31
ENDBRANCH   1  30
TORSDOF 18
ENDMDL
MODEL 3
REMARK VINA RESULT:     -10.4      4.812      5.853
REMARK SMILES CC(=O)NS(=O)(=O)c1ccc(-c2ccn(C(F)F)c(=O)c2)cc1C(=O)OCCOC(=O)c1ccc(-c2c3nc(c(-c4ccc(S(=O)(=O)[O-])cc4)c4ccc([nH]4)c(-c4ccc(S(=O)(=O)[O-])cc4)c4nc(c(-c5ccc(S(=O)(=O)[O-])cc5)c5ccc2[nH]5)C=C4)C=C3)cc1
REMARK SMILES IDX 28 1 27 2 26 3 24 4 25 5 23 6 8 7 9 8 10 9 22 10 11 11 5 12
REMARK SMILES IDX 6 13 7 14 4 15 1 16 2 17 3 18 12 20 13 21 21 22 14 23 19 24
REMARK SMILES IDX 15 25 20 26 16 27 17 28 18 29 29 30 30 31 31 32 32 33 33 34
REMARK SMILES IDX 91 35 34 36 90 37 35 38 36 39 37 40 84 41 38 42 89 43 83 44
REMARK SMILES IDX 85 45 39 46 88 47 82 48 81 49 40 51 70 52 51 53 69 54 52 55
REMARK SMILES IDX 55 56 68 57 86 58 53 59 54 60 67 62 87 63 56 64 41 65 42 66
REMARK SMILES IDX 50 67 43 68 49 69 44 70 45 71 46 72 47 73 48 74 71 75 72 76
REMARK SMILES IDX 80 77 73 78 79 79 74 80 75 81 76 82 77 83 78 84 57 85 58 86
REMARK SMILES IDX 66 87 59 88 65 89 60 90 61 91 62 92 63 93 64 94
REMARK H PARENT 4 19 85 50 55 61
REMARK Flexibility Score: inf
ROOT
ATOM      1  C   UNL A   1      37.705  21.680  24.980  1.00  0.00     0.275 C 
ENDROOT
BRANCH   1   2
ATOM      2  C   UNL A   1      36.609  22.459  24.258  1.00  0.00     0.275 C 
BRANCH   2   3
ATOM      3  O   UNL A   1      36.193  23.587  25.055  1.00  0.00    -0.458 OA
BRANCH   3   4
ATOM      4  C   UNL A   1      35.011  23.481  25.687  1.00  0.00     0.339 C 
ATOM      5  O   UNL A   1      34.752  22.689  26.582  1.00  0.00    -0.246 OA
BRANCH   4   6
ATOM      6  C   UNL A   1      34.018  24.505  25.262  1.00  0.00     0.081 A 
ATOM      7  C   UNL A   1      32.983  24.343  24.335  1.00  0.00     0.102 A 
ATOM      8  C   UNL A   1      31.977  25.323  24.239  1.00  0.00     0.024 A 
ATOM      9  C   UNL A   1      32.106  26.546  24.899  1.00  0.00     0.010 A 
ATOM     10  C   UNL A   1      34.112  25.736  25.942  1.00  0.00     0.025 A 
ATOM     11  C   UNL A   1      33.218  26.784  25.702  1.00  0.00    -0.017 A 
BRANCH   7  12
ATOM     12  S   UNL A   1      32.990  23.014  23.163  1.00  0.00     0.264 S 
ATOM     13  O   UNL A   1      34.213  23.121  22.397  1.00  0.00    -0.201 OA
ATOM     14  O   UNL A   1      31.687  22.918  22.550  1.00  0.00    -0.201 OA
BRANCH  12  15
ATOM     15  N   UNL A   1      33.158  21.630  24.086  1.00  0.00    -0.249 N 
ATOM     16  C   UNL A   1      31.290  21.931  25.738  1.00  0.00     0.115 C 
ATOM     17  C   UNL A   1      32.139  21.044  24.862  1.00  0.00     0.230 C 
ATOM     18  O   UNL A   1      32.102  19.824  24.953  1.00  0.00    -0.274 OA
ATOM     19  H   UNL A   1      34.038  21.189  24.085  1.00  0.00     0.183 HD
ENDBRANCH  12  15
ENDBRANCH   7  12
BRANCH  11  20
ATOM     20  C   UNL A   1      33.520  28.129  26.220  1.00  0.00    -0.011 A 
ATOM     21  C   UNL A   1      34.860  28.492  26.652  1.00  0.00     0.027 A 
ATOM     22  C   UNL A   1      32.539  29.042  26.301  1.00  0.00     0.080 A 
ATOM     23  C   UNL A   1      35.103  29.696  27.182  1.00  0.00     0.095 A 
ATOM     24  C   UNL A   1      32.808  30.407  26.840  1.00  0.00     0.255 A 
ATOM     25  N   UNL A   1      34.095  30.634  27.300  1.00  0.00    -0.258 N 
ATOM     26  O   UNL A   1      31.888  31.218  26.834  1.00  0.00    -0.269 OA
BRANCH  25  27
ATOM     27  C   UNL A   1      34.369  31.928  27.879  1.00  0.00     0.451 C 
ATOM     28  F   UNL A   1      34.250  31.875  29.228  1.00  0.00    -0.185 F 
ATOM     29  F   UNL A   1      35.629  32.332  27.586  1.00  0.00    -0.185 F 
ENDBRANCH  25  27
ENDBRANCH  11  20
ENDBRANCH   4   6
ENDBRANCH   3   4
ENDBRANCH   2   3
ENDBRANCH   1   2
BRANCH   1  30
ATOM     30  O   UNL A   1      38.136  22.436  26.124  1.00  0.00    -0.458 OA
BRANCH  30  31
ATOM     31  C   UNL A   1      39.449  22.354  26.433  1.00  0.00     0.338 C 
ATOM     32  O   UNL A   1      40.197  21.405  26.267  1.00  0.00    -0.246 OA
BRANCH  31  33
ATOM     33  C   UNL A   1      39.890  23.634  27.013  1.00  0.00     0.060 A 
ATOM     34  C   UNL A   1      39.400  24.832  26.495  1.00  0.00     0.016 A 
ATOM     35  C   UNL A   1      40.870  23.651  28.003  1.00  0.00     0.016 A 
ATOM     36  C   UNL A   1      39.942  26.048  26.906  1.00  0.00     0.010 A 
ATOM     37  C   UNL A   1      41.350  24.877  28.478  1.00  0.00     0.010 A 
ATOM     38  C   UNL A   1      40.924  26.090  27.906  1.00  0.00    -0.014 A 
BRANCH  38  39
ATOM     39  C   UNL A   1      41.545  27.386  28.313  1.00  0.00     0.031 A 
ATOM     40  C   UNL A   1      43.034  27.589  28.170  1.00  0.00     0.074 A 
ATOM     41  C   UNL A   1      40.791  28.397  28.792  1.00  0.00     0.049 A 
ATOM     42  N   UNL A   1      43.780  28.569  28.614  1.00  0.00    -0.248 NA
ATOM     43  C   UNL A   1      43.783  26.554  27.440  1.00  0.00     0.031 C 
ATOM     44  C   UNL A   1      39.335  28.374  28.949  1.00  0.00     0.029 A 
ATOM     45  N   UNL A   1      41.150  29.650  29.227  1.00  0.00    -0.354 N 
ATOM     46  C   UNL A   1      45.090  28.228  28.293  1.00  0.00     0.074 A 
ATOM     47  C   UNL A   1      45.034  26.964  27.591  1.00  0.00     0.031 C 
ATOM     48  C   UNL A   1      38.921  29.569  29.398  1.00  0.00     0.029 A 
ATOM     49  C   UNL A   1      40.084  30.415  29.646  1.00  0.00     0.049 A 
ATOM     50  H   UNL A   1      42.081  29.971  29.239  1.00  0.00     0.167 HD
ATOM     51  C   UNL A   1      46.235  28.897  28.567  1.00  0.00     0.031 A 
ATOM     52  C   UNL A   1      40.042  31.639  30.206  1.00  0.00     0.031 A 
ATOM     53  C   UNL A   1      46.296  30.175  29.225  1.00  0.00     0.049 A 
ATOM     54  C   UNL A   1      41.322  32.366  30.497  1.00  0.00     0.074 A 
ATOM     55  C   UNL A   1      47.413  30.931  29.538  1.00  0.00     0.029 A 
ATOM     56  N   UNL A   1      45.195  30.896  29.656  1.00  0.00    -0.354 N 
ATOM     57  N   UNL A   1      42.554  31.990  30.251  1.00  0.00    -0.248 NA
ATOM     58  C   UNL A   1      41.207  33.670  31.166  1.00  0.00     0.031 C 
ATOM     59  C   UNL A   1      46.986  32.100  30.179  1.00  0.00     0.029 A 
ATOM     60  C   UNL A   1      45.602  32.087  30.231  1.00  0.00     0.049 A 
ATOM     61  H   UNL A   1      44.258  30.604  29.566  1.00  0.00     0.167 HD
ATOM     62  C   UNL A   1      43.362  33.008  30.744  1.00  0.00     0.074 A 
ATOM     63  C   UNL A   1      42.480  34.027  31.275  1.00  0.00     0.031 C 
ATOM     64  C   UNL A   1      44.715  33.085  30.767  1.00  0.00     0.031 A 
BRANCH  51  65
ATOM     65  C   UNL A   1      47.532  28.230  28.194  1.00  0.00    -0.014 A 
ATOM     66  C   UNL A   1      48.211  27.391  29.094  1.00  0.00     0.010 A 
ATOM     67  C   UNL A   1      48.064  28.431  26.907  1.00  0.00     0.010 A 
ATOM     68  C   UNL A   1      49.422  26.797  28.726  1.00  0.00     0.020 A 
ATOM     69  C   UNL A   1      49.262  27.822  26.529  1.00  0.00     0.020 A 
ATOM     70  C   UNL A   1      49.944  27.024  27.449  1.00  0.00     0.054 A 
BRANCH  70  71
ATOM     71  S   UNL A   1      51.514  26.238  26.991  1.00  0.00     0.124 S 
ATOM     72  O   UNL A   1      51.136  24.828  26.936  1.00  0.00    -0.237 OA
ATOM     73  O   UNL A   1      51.822  26.855  25.703  1.00  0.00    -0.237 OA
ATOM     74  O   UNL A   1      52.413  26.602  28.083  1.00  0.00    -0.744 OA
ENDBRANCH  70  71
ENDBRANCH  51  65
BRANCH  52  75
ATOM     75  C   UNL A   1      38.729  32.229  30.584  1.00  0.00    -0.014 A 
ATOM     76  C   UNL A   1      38.135  31.916  31.819  1.00  0.00     0.010 A 
ATOM     77  C   UNL A   1      38.084  33.134  29.722  1.00  0.00     0.010 A 
ATOM     78  C   UNL A   1      36.918  32.500  32.185  1.00  0.00     0.020 A 
ATOM     79  C   UNL A   1      36.882  33.737  30.095  1.00  0.00     0.020 A 
ATOM     80  C   UNL A   1      36.301  33.411  31.322  1.00  0.00     0.054 A 
BRANCH  80  81
ATOM     81  S   UNL A   1      34.766  34.227  31.842  1.00  0.00     0.124 S 
ATOM     82  O   UNL A   1      33.977  33.103  32.333  1.00  0.00    -0.237 OA
ATOM     83  O   UNL A   1      35.228  35.168  32.860  1.00  0.00    -0.237 OA
ATOM     84  O   UNL A   1      34.281  34.846  30.611  1.00  0.00    -0.744 OA
ENDBRANCH  80  81
ENDBRANCH  52  75
BRANCH  64  85
ATOM     85  C   UNL A   1      45.322  34.315  31.377  1.00  0.00    -0.014 A 
ATOM     86  C   UNL A   1      45.594  34.375  32.756  1.00  0.00     0.010 A 
ATOM     87  C   UNL A   1      45.656  35.410  30.560  1.00  0.00     0.010 A 
ATOM     88  C   UNL A   1      46.168  35.522  33.311  1.00  0.00     0.020 A 
ATOM     89  C   UNL A   1      46.245  36.551  31.110  1.00  0.00     0.020 A 
ATOM     90  C   UNL A   1      46.484  36.606  32.485  1.00  0.00     0.054 A 
BRANCH  90  91
ATOM     91  S   UNL A   1      47.260  38.072  33.219  1.00  0.00     0.124 S 
ATOM     92  O   UNL A   1      46.570  39.158  32.527  1.00  0.00    -0.237 OA
ATOM     93  O   UNL A   1      46.944  37.931  34.638  1.00  0.00    -0.237 OA
ATOM     94  O   UNL A   1      48.673  37.917  32.883  1.00  0.00    -0.744 OA
ENDBRANCH  90  91
ENDBRANCH  64  85
ENDBRANCH  38  39
ENDBRANCH  31  33
ENDBRANCH  30  31
ENDBRANCH   1  30
TORSDOF 18
ENDMDL
