MODEL 1
REMARK VINA RESULT:     -10.1      0.000      0.000
REMARK SMILES CC(C)[C@@H]1CCCN1C(=O)N1CCO[C@H](CC(=O)OCCOC(=O)c2ccc(-c3c4nc(c(-c5ccc(S(=O)(=O)[O-])cc5)c5ccc([nH]5)c(-c5ccc(S(=O)(=O)[O-])cc5)c5nc(c(-c6ccc(S(=O)(=O)[O-])cc6)c6ccc3[nH]6)C=C5)C=C4)cc2)C1
REMARK SMILES IDX 20 1 19 2 17 3 18 4 16 5 15 6 11 7 12 8 85 9 13 10 14 11
REMARK SMILES IDX 9 12 10 13 8 14 4 15 5 16 6 17 7 18 2 19 1 20 3 21 21 22
REMARK SMILES IDX 22 23 23 24 24 25 25 26 26 27 84 28 27 29 83 30 28 31 29 32
REMARK SMILES IDX 30 33 77 34 31 35 82 36 76 37 78 38 32 39 81 40 75 41 74 42
REMARK SMILES IDX 33 44 63 45 44 46 62 47 45 48 48 49 61 50 79 51 46 52 47 53
REMARK SMILES IDX 60 55 80 56 49 57 34 58 35 59 43 60 36 61 42 62 37 63 38 64
REMARK SMILES IDX 39 65 40 66 41 67 64 68 65 69 73 70 66 71 72 72 67 73 68 74
REMARK SMILES IDX 69 75 70 76 71 77 50 78 51 79 59 80 52 81 58 82 53 83 54 84
REMARK SMILES IDX 55 85 56 86 57 87
REMARK H PARENT 78 43 48 54
REMARK Flexibility Score: inf
ROOT
ATOM      1  C   UNL A   1      35.574  23.182  25.772  1.00  0.00     0.274 C 
ENDROOT
BRANCH   1   2
ATOM      2  O   UNL A   1      34.517  22.626  24.972  1.00  0.00    -0.462 OA
BRANCH   2   3
ATOM      3  C   UNL A   1      34.312  23.248  23.791  1.00  0.00     0.308 C 
ATOM      4  O   UNL A   1      35.170  23.384  22.922  1.00  0.00    -0.252 OA
BRANCH   3   5
ATOM      5  C   UNL A   1      32.996  23.943  23.682  1.00  0.00     0.156 C 
BRANCH   5   6
ATOM      6  C   UNL A   1      31.640  23.294  23.980  1.00  0.00     0.149 C 
ATOM      7  N   UNL A   1      30.688  25.438  24.519  1.00  0.00    -0.320 N 
ATOM      8  C   UNL A   1      30.263  25.016  25.842  1.00  0.00     0.150 C 
ATOM      9  C   UNL A   1      30.582  24.333  23.566  1.00  0.00     0.154 C 
ATOM     10  C   UNL A   1      31.090  23.806  26.311  1.00  0.00     0.182 C 
ATOM     11  O   UNL A   1      31.362  22.823  25.306  1.00  0.00    -0.374 OA
BRANCH   7  12
ATOM     12  C   UNL A   1      30.532  26.717  24.056  1.00  0.00     0.320 C 
ATOM     13  O   UNL A   1      29.471  27.059  23.533  1.00  0.00    -0.248 OA
BRANCH  12  14
ATOM     14  N   UNL A   1      31.650  27.541  24.055  1.00  0.00    -0.321 N 
ATOM     15  C   UNL A   1      32.445  28.182  25.131  1.00  0.00     0.089 C 
ATOM     16  C   UNL A   1      33.484  29.017  24.369  1.00  0.00     0.027 C 
ATOM     17  C   UNL A   1      33.773  28.143  23.165  1.00  0.00     0.024 C 
ATOM     18  C   UNL A   1      32.396  27.609  22.801  1.00  0.00     0.122 C 
BRANCH  15  19
ATOM     19  C   UNL A   1      31.704  28.992  26.205  1.00  0.00     0.005 C 
ATOM     20  C   UNL A   1      31.566  28.226  27.526  1.00  0.00     0.009 C 
ATOM     21  C   UNL A   1      32.294  30.377  26.464  1.00  0.00     0.009 C 
ENDBRANCH  15  19
ENDBRANCH  12  14
ENDBRANCH   7  12
ENDBRANCH   5   6
ENDBRANCH   3   5
ENDBRANCH   2   3
ENDBRANCH   1   2
BRANCH   1  22
ATOM     22  C   UNL A   1      36.837  22.317  25.733  1.00  0.00     0.275 C 
BRANCH  22  23
ATOM     23  O   UNL A   1      37.994  23.052  25.295  1.00  0.00    -0.458 OA
BRANCH  23  24
ATOM     24  C   UNL A   1      39.084  22.935  26.092  1.00  0.00     0.338 C 
ATOM     25  O   UNL A   1      39.846  21.988  26.167  1.00  0.00    -0.246 OA
BRANCH  24  26
ATOM     26  C   UNL A   1      39.327  24.204  26.792  1.00  0.00     0.060 A 
ATOM     27  C   UNL A   1      40.128  25.170  26.172  1.00  0.00     0.016 A 
ATOM     28  C   UNL A   1      38.846  24.401  28.083  1.00  0.00     0.016 A 
ATOM     29  C   UNL A   1      40.446  26.350  26.831  1.00  0.00     0.010 A 
ATOM     30  C   UNL A   1      39.174  25.580  28.752  1.00  0.00     0.010 A 
ATOM     31  C   UNL A   1      39.979  26.553  28.131  1.00  0.00    -0.014 A 
BRANCH  31  32
ATOM     32  C   UNL A   1      40.400  27.745  28.893  1.00  0.00     0.031 A 
ATOM     33  C   UNL A   1      41.718  27.719  29.606  1.00  0.00     0.074 A 
ATOM     34  C   UNL A   1      39.597  28.821  28.958  1.00  0.00     0.049 A 
ATOM     35  N   UNL A   1      42.190  28.546  30.498  1.00  0.00    -0.248 NA
ATOM     36  C   UNL A   1      42.621  26.606  29.270  1.00  0.00     0.031 C 
ATOM     37  C   UNL A   1      38.342  28.988  28.222  1.00  0.00     0.029 A 
ATOM     38  N   UNL A   1      39.713  29.973  29.691  1.00  0.00    -0.354 N 
ATOM     39  C   UNL A   1      43.428  28.033  30.864  1.00  0.00     0.074 A 
ATOM     40  C   UNL A   1      43.634  26.824  30.096  1.00  0.00     0.031 C 
ATOM     41  C   UNL A   1      37.798  30.172  28.551  1.00  0.00     0.029 A 
ATOM     42  C   UNL A   1      38.629  30.809  29.568  1.00  0.00     0.049 A 
ATOM     43  H   UNL A   1      40.496  30.181  30.250  1.00  0.00     0.167 HD
ATOM     44  C   UNL A   1      44.305  28.526  31.771  1.00  0.00     0.031 A 
ATOM     45  C   UNL A   1      38.323  31.935  30.239  1.00  0.00     0.031 A 
ATOM     46  C   UNL A   1      44.070  29.726  32.528  1.00  0.00     0.049 A 
ATOM     47  C   UNL A   1      39.261  32.410  31.316  1.00  0.00     0.074 A 
ATOM     48  C   UNL A   1      44.874  30.311  33.490  1.00  0.00     0.029 A 
ATOM     49  N   UNL A   1      42.941  30.524  32.406  1.00  0.00    -0.354 N 
ATOM     50  N   UNL A   1      40.407  31.895  31.696  1.00  0.00    -0.248 NA
ATOM     51  C   UNL A   1      38.858  33.606  32.067  1.00  0.00     0.031 C 
ATOM     52  C   UNL A   1      44.209  31.442  33.979  1.00  0.00     0.029 A 
ATOM     53  C   UNL A   1      43.017  31.588  33.285  1.00  0.00     0.049 A 
ATOM     54  H   UNL A   1      42.196  30.357  31.785  1.00  0.00     0.167 HD
ATOM     55  C   UNL A   1      40.877  32.720  32.709  1.00  0.00     0.074 A 
ATOM     56  C   UNL A   1      39.891  33.768  32.884  1.00  0.00     0.031 C 
ATOM     57  C   UNL A   1      42.023  32.624  33.427  1.00  0.00     0.031 A 
BRANCH  44  58
ATOM     58  C   UNL A   1      45.552  27.726  32.029  1.00  0.00    -0.014 A 
ATOM     59  C   UNL A   1      45.541  26.603  32.875  1.00  0.00     0.010 A 
ATOM     60  C   UNL A   1      46.761  28.115  31.424  1.00  0.00     0.010 A 
ATOM     61  C   UNL A   1      46.727  25.916  33.154  1.00  0.00     0.020 A 
ATOM     62  C   UNL A   1      47.943  27.417  31.680  1.00  0.00     0.020 A 
ATOM     63  C   UNL A   1      47.923  26.336  32.563  1.00  0.00     0.054 A 
BRANCH  63  64
ATOM     64  S   UNL A   1      49.452  25.442  32.954  1.00  0.00     0.124 S 
ATOM     65  O   UNL A   1      48.984  24.456  33.925  1.00  0.00    -0.237 OA
ATOM     66  O   UNL A   1      49.853  24.903  31.657  1.00  0.00    -0.237 OA
ATOM     67  O   UNL A   1      50.331  26.477  33.492  1.00  0.00    -0.744 OA
ENDBRANCH  63  64
ENDBRANCH  44  58
BRANCH  45  68
ATOM     68  C   UNL A   1      37.061  32.661  29.935  1.00  0.00    -0.014 A 
ATOM     69  C   UNL A   1      35.900  32.406  30.683  1.00  0.00     0.010 A 
ATOM     70  C   UNL A   1      37.020  33.635  28.919  1.00  0.00     0.010 A 
ATOM     71  C   UNL A   1      34.719  33.108  30.420  1.00  0.00     0.020 A 
ATOM     72  C   UNL A   1      35.850  34.356  28.669  1.00  0.00     0.020 A 
ATOM     73  C   UNL A   1      34.703  34.082  29.417  1.00  0.00     0.054 A 
BRANCH  73  74
ATOM     74  S   UNL A   1      33.179  35.026  29.137  1.00  0.00     0.124 S 
ATOM     75  O   UNL A   1      33.697  36.312  28.679  1.00  0.00    -0.237 OA
ATOM     76  O   UNL A   1      32.491  34.225  28.128  1.00  0.00    -0.237 OA
ATOM     77  O   UNL A   1      32.539  35.041  30.451  1.00  0.00    -0.744 OA
ENDBRANCH  73  74
ENDBRANCH  45  68
BRANCH  57  78
ATOM     78  C   UNL A   1      42.303  33.707  34.431  1.00  0.00    -0.014 A 
ATOM     79  C   UNL A   1      41.979  33.542  35.788  1.00  0.00     0.010 A 
ATOM     80  C   UNL A   1      42.989  34.864  34.019  1.00  0.00     0.010 A 
ATOM     81  C   UNL A   1      42.334  34.523  36.718  1.00  0.00     0.020 A 
ATOM     82  C   UNL A   1      43.364  35.835  34.949  1.00  0.00     0.020 A 
ATOM     83  C   UNL A   1      43.028  35.660  36.293  1.00  0.00     0.054 A 
BRANCH  83  84
ATOM     84  S   UNL A   1      43.554  36.876  37.532  1.00  0.00     0.124 S 
ATOM     85  O   UNL A   1      42.291  37.213  38.182  1.00  0.00    -0.237 OA
ATOM     86  O   UNL A   1      44.499  36.116  38.348  1.00  0.00    -0.237 OA
ATOM     87  O   UNL A   1      44.151  37.946  36.735  1.00  0.00    -0.744 OA
ENDBRANCH  83  84
ENDBRANCH  57  78
ENDBRANCH  31  32
ENDBRANCH  24  26
ENDBRANCH  23  24
ENDBRANCH  22  23
ENDBRANCH   1  22
TORSDOF 18
ENDMDL
MODEL 2
REMARK VINA RESULT:     -10.1      3.265      9.533
REMARK SMILES CC(C)[C@@H]1CCCN1C(=O)N1CCO[C@H](CC(=O)OCCOC(=O)c2ccc(-c3c4nc(c(-c5ccc(S(=O)(=O)[O-])cc5)c5ccc([nH]5)c(-c5ccc(S(=O)(=O)[O-])cc5)c5nc(c(-c6ccc(S(=O)(=O)[O-])cc6)c6ccc3[nH]6)C=C5)C=C4)cc2)C1
REMARK SMILES IDX 20 1 19 2 17 3 18 4 16 5 15 6 11 7 12 8 85 9 13 10 14 11
REMARK SMILES IDX 9 12 10 13 8 14 4 15 5 16 6 17 7 18 2 19 1 20 3 21 21 22
REMARK SMILES IDX 22 23 23 24 24 25 25 26 26 27 84 28 27 29 83 30 28 31 29 32
REMARK SMILES IDX 30 33 77 34 31 35 82 36 76 37 78 38 32 39 81 40 75 41 74 42
REMARK SMILES IDX 33 44 63 45 44 46 62 47 45 48 48 49 61 50 79 51 46 52 47 53
REMARK SMILES IDX 60 55 80 56 49 57 34 58 35 59 43 60 36 61 42 62 37 63 38 64
REMARK SMILES IDX 39 65 40 66 41 67 64 68 65 69 73 70 66 71 72 72 67 73 68 74
REMARK SMILES IDX 69 75 70 76 71 77 50 78 51 79 59 80 52 81 58 82 53 83 54 84
REMARK SMILES IDX 55 85 56 86 57 87
REMARK H PARENT 78 43 48 54
REMARK Flexibility Score: inf
ROOT
ATOM      1  C   UNL A   1      32.100  27.933  26.324  1.00  0.00     0.274 C 
ENDROOT
BRANCH   1   2
ATOM      2  O   UNL A   1      32.864  26.729  26.507  1.00  0.00    -0.462 OA
BRANCH   2   3
ATOM      3  C   UNL A   1      32.225  25.592  26.158  1.00  0.00     0.308 C 
ATOM      4  O   UNL A   1      31.417  25.004  26.873  1.00  0.00    -0.252 OA
BRANCH   3   5
ATOM      5  C   UNL A   1      32.714  24.976  24.891  1.00  0.00     0.156 C 
BRANCH   5   6
ATOM      6  C   UNL A   1      31.853  24.746  23.643  1.00  0.00     0.149 C 
ATOM      7  N   UNL A   1      32.116  22.362  23.852  1.00  0.00    -0.320 N 
ATOM      8  C   UNL A   1      32.654  22.215  22.511  1.00  0.00     0.150 C 
ATOM      9  C   UNL A   1      31.108  23.422  23.890  1.00  0.00     0.154 C 
ATOM     10  C   UNL A   1      33.242  23.548  22.018  1.00  0.00     0.182 C 
ATOM     11  O   UNL A   1      32.480  24.715  22.354  1.00  0.00    -0.374 OA
BRANCH   7  12
ATOM     12  C   UNL A   1      32.000  21.318  24.730  1.00  0.00     0.320 C 
ATOM     13  O   UNL A   1      31.209  21.389  25.671  1.00  0.00    -0.248 OA
BRANCH  12  14
ATOM     14  N   UNL A   1      32.906  20.274  24.609  1.00  0.00    -0.321 N 
ATOM     15  C   UNL A   1      34.251  20.020  25.183  1.00  0.00     0.089 C 
ATOM     16  C   UNL A   1      34.681  18.697  24.534  1.00  0.00     0.027 C 
ATOM     17  C   UNL A   1      33.368  17.945  24.445  1.00  0.00     0.024 C 
ATOM     18  C   UNL A   1      32.386  19.034  24.039  1.00  0.00     0.122 C 
BRANCH  15  19
ATOM     19  C   UNL A   1      35.319  21.117  25.057  1.00  0.00     0.005 C 
ATOM     20  C   UNL A   1      35.236  22.148  26.189  1.00  0.00     0.009 C 
ATOM     21  C   UNL A   1      36.747  20.591  24.933  1.00  0.00     0.009 C 
ENDBRANCH  15  19
ENDBRANCH  12  14
ENDBRANCH   7  12
ENDBRANCH   5   6
ENDBRANCH   3   5
ENDBRANCH   2   3
ENDBRANCH   1   2
BRANCH   1  22
ATOM     22  C   UNL A   1      32.573  29.057  27.250  1.00  0.00     0.275 C 
BRANCH  22  23
ATOM     23  O   UNL A   1      33.989  29.006  27.499  1.00  0.00    -0.458 OA
BRANCH  23  24
ATOM     24  C   UNL A   1      34.544  30.174  27.904  1.00  0.00     0.338 C 
ATOM     25  O   UNL A   1      33.980  31.240  28.073  1.00  0.00    -0.246 OA
BRANCH  24  26
ATOM     26  C   UNL A   1      35.953  29.958  28.261  1.00  0.00     0.060 A 
ATOM     27  C   UNL A   1      36.924  30.067  27.260  1.00  0.00     0.016 A 
ATOM     28  C   UNL A   1      36.301  29.562  29.550  1.00  0.00     0.016 A 
ATOM     29  C   UNL A   1      38.257  29.794  27.539  1.00  0.00     0.010 A 
ATOM     30  C   UNL A   1      37.637  29.276  29.829  1.00  0.00     0.010 A 
ATOM     31  C   UNL A   1      38.616  29.384  28.824  1.00  0.00    -0.014 A 
BRANCH  31  32
ATOM     32  C   UNL A   1      40.005  28.978  29.113  1.00  0.00     0.031 A 
ATOM     33  C   UNL A   1      40.949  29.991  29.687  1.00  0.00     0.074 A 
ATOM     34  C   UNL A   1      40.411  27.725  28.843  1.00  0.00     0.049 A 
ATOM     35  N   UNL A   1      42.246  29.930  29.816  1.00  0.00    -0.248 NA
ATOM     36  C   UNL A   1      40.348  31.243  30.174  1.00  0.00     0.031 C 
ATOM     37  C   UNL A   1      39.549  26.637  28.378  1.00  0.00     0.029 A 
ATOM     38  N   UNL A   1      41.659  27.164  28.907  1.00  0.00    -0.354 N 
ATOM     39  C   UNL A   1      42.625  31.150  30.361  1.00  0.00     0.074 A 
ATOM     40  C   UNL A   1      41.420  31.931  30.538  1.00  0.00     0.031 C 
ATOM     41  C   UNL A   1      40.300  25.539  28.188  1.00  0.00     0.029 A 
ATOM     42  C   UNL A   1      41.697  25.868  28.451  1.00  0.00     0.049 A 
ATOM     43  H   UNL A   1      42.450  27.641  29.247  1.00  0.00     0.167 HD
ATOM     44  C   UNL A   1      43.871  31.579  30.671  1.00  0.00     0.031 A 
ATOM     45  C   UNL A   1      42.750  25.059  28.225  1.00  0.00     0.031 A 
ATOM     46  C   UNL A   1      45.054  30.784  30.475  1.00  0.00     0.049 A 
ATOM     47  C   UNL A   1      44.135  25.591  28.478  1.00  0.00     0.074 A 
ATOM     48  C   UNL A   1      46.371  31.119  30.731  1.00  0.00     0.029 A 
ATOM     49  N   UNL A   1      45.057  29.491  29.972  1.00  0.00    -0.354 N 
ATOM     50  N   UNL A   1      44.493  26.764  28.945  1.00  0.00    -0.248 NA
ATOM     51  C   UNL A   1      45.257  24.699  28.158  1.00  0.00     0.031 C 
ATOM     52  C   UNL A   1      47.175  30.041  30.342  1.00  0.00     0.029 A 
ATOM     53  C   UNL A   1      46.353  29.017  29.893  1.00  0.00     0.049 A 
ATOM     54  H   UNL A   1      44.254  28.985  29.709  1.00  0.00     0.167 HD
ATOM     55  C   UNL A   1      45.881  26.742  29.003  1.00  0.00     0.074 A 
ATOM     56  C   UNL A   1      46.297  25.438  28.524  1.00  0.00     0.031 C 
ATOM     57  C   UNL A   1      46.735  27.708  29.422  1.00  0.00     0.031 A 
BRANCH  44  58
ATOM     58  C   UNL A   1      44.008  32.986  31.185  1.00  0.00    -0.014 A 
ATOM     59  C   UNL A   1      43.653  33.323  32.503  1.00  0.00     0.010 A 
ATOM     60  C   UNL A   1      44.489  33.992  30.327  1.00  0.00     0.010 A 
ATOM     61  C   UNL A   1      43.725  34.651  32.937  1.00  0.00     0.020 A 
ATOM     62  C   UNL A   1      44.587  35.315  30.764  1.00  0.00     0.020 A 
ATOM     63  C   UNL A   1      44.181  35.640  32.060  1.00  0.00     0.054 A 
BRANCH  63  64
ATOM     64  S   UNL A   1      44.249  37.358  32.638  1.00  0.00     0.124 S 
ATOM     65  O   UNL A   1      43.487  37.286  33.883  1.00  0.00    -0.237 OA
ATOM     66  O   UNL A   1      45.683  37.591  32.794  1.00  0.00    -0.237 OA
ATOM     67  O   UNL A   1      43.612  38.112  31.562  1.00  0.00    -0.744 OA
ENDBRANCH  63  64
ENDBRANCH  44  58
BRANCH  45  68
ATOM     68  C   UNL A   1      42.531  23.685  27.700  1.00  0.00    -0.014 A 
ATOM     69  C   UNL A   1      42.568  23.441  26.317  1.00  0.00     0.010 A 
ATOM     70  C   UNL A   1      42.320  22.607  28.580  1.00  0.00     0.010 A 
ATOM     71  C   UNL A   1      42.392  22.144  25.822  1.00  0.00     0.020 A 
ATOM     72  C   UNL A   1      42.169  21.306  28.091  1.00  0.00     0.020 A 
ATOM     73  C   UNL A   1      42.198  21.085  26.713  1.00  0.00     0.054 A 
BRANCH  73  74
ATOM     74  S   UNL A   1      42.039  19.402  26.051  1.00  0.00     0.124 S 
ATOM     75  O   UNL A   1      42.878  19.465  24.858  1.00  0.00    -0.237 OA
ATOM     76  O   UNL A   1      42.554  18.582  27.144  1.00  0.00    -0.237 OA
ATOM     77  O   UNL A   1      40.605  19.267  25.802  1.00  0.00    -0.744 OA
ENDBRANCH  73  74
ENDBRANCH  45  68
BRANCH  57  78
ATOM     78  C   UNL A   1      48.201  27.379  29.431  1.00  0.00    -0.014 A 
ATOM     79  C   UNL A   1      49.007  27.616  28.305  1.00  0.00     0.010 A 
ATOM     80  C   UNL A   1      48.793  26.917  30.621  1.00  0.00     0.010 A 
ATOM     81  C   UNL A   1      50.384  27.389  28.369  1.00  0.00     0.020 A 
ATOM     82  C   UNL A   1      50.171  26.712  30.694  1.00  0.00     0.020 A 
ATOM     83  C   UNL A   1      50.958  26.944  29.564  1.00  0.00     0.054 A 
BRANCH  83  84
ATOM     84  S   UNL A   1      52.759  26.742  29.647  1.00  0.00     0.124 S 
ATOM     85  O   UNL A   1      53.204  28.104  29.930  1.00  0.00    -0.237 OA
ATOM     86  O   UNL A   1      52.925  25.786  30.739  1.00  0.00    -0.237 OA
ATOM     87  O   UNL A   1      53.111  26.234  28.323  1.00  0.00    -0.744 OA
ENDBRANCH  83  84
ENDBRANCH  57  78
ENDBRANCH  31  32
ENDBRANCH  24  26
ENDBRANCH  23  24
ENDBRANCH  22  23
ENDBRANCH   1  22
TORSDOF 18
ENDMDL
MODEL 3
REMARK VINA RESULT:     -10.1      2.944      9.376
REMARK SMILES CC(C)[C@@H]1CCCN1C(=O)N1CCO[C@H](CC(=O)OCCOC(=O)c2ccc(-c3c4nc(c(-c5ccc(S(=O)(=O)[O-])cc5)c5ccc([nH]5)c(-c5ccc(S(=O)(=O)[O-])cc5)c5nc(c(-c6ccc(S(=O)(=O)[O-])cc6)c6ccc3[nH]6)C=C5)C=C4)cc2)C1
REMARK SMILES IDX 20 1 19 2 17 3 18 4 16 5 15 6 11 7 12 8 85 9 13 10 14 11
REMARK SMILES IDX 9 12 10 13 8 14 4 15 5 16 6 17 7 18 2 19 1 20 3 21 21 22
REMARK SMILES IDX 22 23 23 24 24 25 25 26 26 27 84 28 27 29 83 30 28 31 29 32
REMARK SMILES IDX 30 33 77 34 31 35 82 36 76 37 78 38 32 39 81 40 75 41 74 42
REMARK SMILES IDX 33 44 63 45 44 46 62 47 45 48 48 49 61 50 79 51 46 52 47 53
REMARK SMILES IDX 60 55 80 56 49 57 34 58 35 59 43 60 36 61 42 62 37 63 38 64
REMARK SMILES IDX 39 65 40 66 41 67 64 68 65 69 73 70 66 71 72 72 67 73 68 74
REMARK SMILES IDX 69 75 70 76 71 77 50 78 51 79 59 80 52 81 58 82 53 83 54 84
REMARK SMILES IDX 55 85 56 86 57 87
REMARK H PARENT 78 43 48 54
REMARK Flexibility Score: inf
ROOT
ATOM      1  C   UNL A   1      32.025  28.724  26.046  1.00  0.00     0.274 C 
ENDROOT
BRANCH   1   2
ATOM      2  O   UNL A   1      32.503  29.091  24.741  1.00  0.00    -0.462 OA
BRANCH   2   3
ATOM      3  C   UNL A   1      31.873  28.482  23.714  1.00  0.00     0.308 C 
ATOM      4  O   UNL A   1      31.499  29.055  22.693  1.00  0.00    -0.252 OA
BRANCH   3   5
ATOM      5  C   UNL A   1      31.480  27.069  23.985  1.00  0.00     0.156 C 
BRANCH   5   6
ATOM      6  C   UNL A   1      30.937  26.097  22.931  1.00  0.00     0.149 C 
ATOM      7  N   UNL A   1      32.271  24.309  23.834  1.00  0.00    -0.320 N 
ATOM      8  C   UNL A   1      32.926  24.037  22.566  1.00  0.00     0.150 C 
ATOM      9  C   UNL A   1      30.884  24.722  23.621  1.00  0.00     0.154 C 
ATOM     10  C   UNL A   1      32.855  25.272  21.651  1.00  0.00     0.182 C 
ATOM     11  O   UNL A   1      31.610  25.980  21.670  1.00  0.00    -0.374 OA
BRANCH   7  12
ATOM     12  C   UNL A   1      32.587  23.653  24.994  1.00  0.00     0.320 C 
ATOM     13  O   UNL A   1      32.249  24.123  26.080  1.00  0.00    -0.248 OA
BRANCH  12  14
ATOM     14  N   UNL A   1      33.424  22.550  24.900  1.00  0.00    -0.321 N 
ATOM     15  C   UNL A   1      34.859  22.330  25.209  1.00  0.00     0.089 C 
ATOM     16  C   UNL A   1      35.109  20.879  24.772  1.00  0.00     0.027 C 
ATOM     17  C   UNL A   1      33.796  20.210  25.127  1.00  0.00     0.024 C 
ATOM     18  C   UNL A   1      32.768  21.257  24.726  1.00  0.00     0.122 C 
BRANCH  15  19
ATOM     19  C   UNL A   1      35.891  23.310  24.631  1.00  0.00     0.005 C 
ATOM     20  C   UNL A   1      36.841  23.860  25.701  1.00  0.00     0.009 C 
ATOM     21  C   UNL A   1      36.693  22.755  23.456  1.00  0.00     0.009 C 
ENDBRANCH  15  19
ENDBRANCH  12  14
ENDBRANCH   7  12
ENDBRANCH   5   6
ENDBRANCH   3   5
ENDBRANCH   2   3
ENDBRANCH   1   2
BRANCH   1  22
ATOM     22  C   UNL A   1      32.548  29.668  27.133  1.00  0.00     0.275 C 
BRANCH  22  23
ATOM     23  O   UNL A   1      33.884  30.130  26.864  1.00  0.00    -0.458 OA
BRANCH  23  24
ATOM     24  C   UNL A   1      34.467  30.820  27.875  1.00  0.00     0.338 C 
ATOM     25  O   UNL A   1      33.967  31.696  28.557  1.00  0.00    -0.246 OA
BRANCH  24  26
ATOM     26  C   UNL A   1      35.799  30.264  28.152  1.00  0.00     0.060 A 
ATOM     27  C   UNL A   1      36.115  29.902  29.466  1.00  0.00     0.016 A 
ATOM     28  C   UNL A   1      36.755  30.187  27.143  1.00  0.00     0.016 A 
ATOM     29  C   UNL A   1      37.388  29.445  29.784  1.00  0.00     0.010 A 
ATOM     30  C   UNL A   1      38.038  29.740  27.463  1.00  0.00     0.010 A 
ATOM     31  C   UNL A   1      38.358  29.375  28.783  1.00  0.00    -0.014 A 
BRANCH  31  32
ATOM     32  C   UNL A   1      39.747  29.005  29.120  1.00  0.00     0.031 A 
ATOM     33  C   UNL A   1      40.642  30.039  29.732  1.00  0.00     0.074 A 
ATOM     34  C   UNL A   1      40.196  27.765  28.859  1.00  0.00     0.049 A 
ATOM     35  N   UNL A   1      41.935  30.012  29.908  1.00  0.00    -0.248 NA
ATOM     36  C   UNL A   1      39.990  31.272  30.203  1.00  0.00     0.031 C 
ATOM     37  C   UNL A   1      39.381  26.657  28.358  1.00  0.00     0.029 A 
ATOM     38  N   UNL A   1      41.455  27.236  28.965  1.00  0.00    -0.354 N 
ATOM     39  C   UNL A   1      42.261  31.239  30.471  1.00  0.00     0.074 A 
ATOM     40  C   UNL A   1      41.030  31.987  30.608  1.00  0.00     0.031 C 
ATOM     41  C   UNL A   1      40.167  25.580  28.190  1.00  0.00     0.029 A 
ATOM     42  C   UNL A   1      41.545  25.945  28.504  1.00  0.00     0.049 A 
ATOM     43  H   UNL A   1      42.220  27.733  29.335  1.00  0.00     0.167 HD
ATOM     44  C   UNL A   1      43.483  31.699  30.827  1.00  0.00     0.031 A 
ATOM     45  C   UNL A   1      42.626  25.166  28.312  1.00  0.00     0.031 A 
ATOM     46  C   UNL A   1      44.693  30.938  30.669  1.00  0.00     0.049 A 
ATOM     47  C   UNL A   1      43.986  25.733  28.617  1.00  0.00     0.074 A 
ATOM     48  C   UNL A   1      45.992  31.306  30.974  1.00  0.00     0.029 A 
ATOM     49  N   UNL A   1      44.749  29.648  30.161  1.00  0.00    -0.354 N 
ATOM     50  N   UNL A   1      44.296  26.913  29.102  1.00  0.00    -0.248 NA
ATOM     51  C   UNL A   1      45.142  24.873  28.333  1.00  0.00     0.031 C 
ATOM     52  C   UNL A   1      46.837  30.252  30.609  1.00  0.00     0.029 A 
ATOM     53  C   UNL A   1      46.060  29.209  30.126  1.00  0.00     0.049 A 
ATOM     54  H   UNL A   1      43.970  29.122  29.867  1.00  0.00     0.167 HD
ATOM     55  C   UNL A   1      45.681  26.927  29.210  1.00  0.00     0.074 A 
ATOM     56  C   UNL A   1      46.149  25.638  28.739  1.00  0.00     0.031 C 
ATOM     57  C   UNL A   1      46.493  27.914  29.663  1.00  0.00     0.031 A 
BRANCH  44  58
ATOM     58  C   UNL A   1      43.565  33.107  31.352  1.00  0.00    -0.014 A 
ATOM     59  C   UNL A   1      43.713  34.205  30.487  1.00  0.00     0.010 A 
ATOM     60  C   UNL A   1      43.505  33.331  32.739  1.00  0.00     0.010 A 
ATOM     61  C   UNL A   1      43.854  35.497  31.004  1.00  0.00     0.020 A 
ATOM     62  C   UNL A   1      43.621  34.623  33.258  1.00  0.00     0.020 A 
ATOM     63  C   UNL A   1      43.819  35.696  32.387  1.00  0.00     0.054 A 
BRANCH  63  64
ATOM     64  S   UNL A   1      44.023  37.378  33.035  1.00  0.00     0.124 S 
ATOM     65  O   UNL A   1      42.898  37.482  33.960  1.00  0.00    -0.237 OA
ATOM     66  O   UNL A   1      45.344  37.327  33.657  1.00  0.00    -0.237 OA
ATOM     67  O   UNL A   1      43.931  38.221  31.846  1.00  0.00    -0.744 OA
ENDBRANCH  63  64
ENDBRANCH  44  58
BRANCH  45  68
ATOM     68  C   UNL A   1      42.463  23.789  27.773  1.00  0.00    -0.014 A 
ATOM     69  C   UNL A   1      42.567  23.552  26.393  1.00  0.00     0.010 A 
ATOM     70  C   UNL A   1      42.238  22.702  28.639  1.00  0.00     0.010 A 
ATOM     71  C   UNL A   1      42.444  22.254  25.886  1.00  0.00     0.020 A 
ATOM     72  C   UNL A   1      42.140  21.401  28.139  1.00  0.00     0.020 A 
ATOM     73  C   UNL A   1      42.236  21.186  26.763  1.00  0.00     0.054 A 
BRANCH  73  74
ATOM     74  S   UNL A   1      42.146  19.504  26.089  1.00  0.00     0.124 S 
ATOM     75  O   UNL A   1      42.576  18.697  27.226  1.00  0.00    -0.237 OA
ATOM     76  O   UNL A   1      40.736  19.384  25.724  1.00  0.00    -0.237 OA
ATOM     77  O   UNL A   1      43.072  19.537  24.959  1.00  0.00    -0.744 OA
ENDBRANCH  73  74
ENDBRANCH  45  68
BRANCH  57  78
ATOM     78  C   UNL A   1      47.966  27.624  29.723  1.00  0.00    -0.014 A 
ATOM     79  C   UNL A   1      48.795  27.833  28.608  1.00  0.00     0.010 A 
ATOM     80  C   UNL A   1      48.539  27.228  30.946  1.00  0.00     0.010 A 
ATOM     81  C   UNL A   1      50.175  27.646  28.715  1.00  0.00     0.020 A 
ATOM     82  C   UNL A   1      49.920  27.062  31.061  1.00  0.00     0.020 A 
ATOM     83  C   UNL A   1      50.729  27.267  29.943  1.00  0.00     0.054 A 
BRANCH  83  84
ATOM     84  S   UNL A   1      52.532  27.117  30.079  1.00  0.00     0.124 S 
ATOM     85  O   UNL A   1      52.871  28.274  30.903  1.00  0.00    -0.237 OA
ATOM     86  O   UNL A   1      52.698  25.816  30.723  1.00  0.00    -0.237 OA
ATOM     87  O   UNL A   1      52.990  27.182  28.693  1.00  0.00    -0.744 OA
ENDBRANCH  83  84
ENDBRANCH  57  78
ENDBRANCH  31  32
ENDBRANCH  24  26
ENDBRANCH  23  24
ENDBRANCH  22  23
ENDBRANCH   1  22
TORSDOF 18
ENDMDL
