MODEL 1
REMARK VINA RESULT:     -10.3      0.000      0.000
REMARK SMILES C[C@H]1[C@H](C(=O)OCCOC(=O)c2ccc(-c3c4nc(c(-c5ccc(S(=O)(=O)[O-])cc5)c5ccc([nH]5)c(-c5ccc(S(=O)(=O)[O-])cc5)c5nc(c(-c6ccc(S(=O)(=O)[O-])cc6)c6ccc3[nH]6)C=C5)C=C4)cc2)CC[N@@H+]1CC(=O)N1CCCC1
REMARK SMILES IDX 8 1 7 2 6 3 4 4 5 5 3 6 1 7 2 8 74 9 72 10 73 11 75 13 76 14
REMARK SMILES IDX 77 15 78 16 79 17 82 18 80 19 81 20 9 21 10 22 11 23 12 24
REMARK SMILES IDX 13 25 71 26 14 27 70 28 15 29 16 30 17 31 64 32 18 33 69 34
REMARK SMILES IDX 63 35 65 36 19 37 68 38 62 39 61 40 20 42 50 43 31 44 49 45
REMARK SMILES IDX 32 46 35 47 48 48 66 49 33 50 34 51 47 53 67 54 36 55 21 56
REMARK SMILES IDX 22 57 30 58 23 59 29 60 24 61 25 62 26 63 27 64 28 65 51 66
REMARK SMILES IDX 52 67 60 68 53 69 59 70 54 71 55 72 56 73 57 74 58 75 37 76
REMARK SMILES IDX 38 77 46 78 39 79 45 80 40 81 41 82 42 83 43 84 44 85
REMARK H PARENT 74 12 65 41 35 52
REMARK Flexibility Score: inf
ROOT
ATOM      1  C   UNL A   1      32.771  28.988  27.117  1.00  0.00     0.275 C 
ENDROOT
BRANCH   1   2
ATOM      2  C   UNL A   1      32.652  29.326  25.630  1.00  0.00     0.274 C 
BRANCH   2   3
ATOM      3  O   UNL A   1      31.960  28.291  24.896  1.00  0.00    -0.462 OA
BRANCH   3   4
ATOM      4  C   UNL A   1      32.558  27.840  23.764  1.00  0.00     0.315 C 
ATOM      5  O   UNL A   1      33.637  28.247  23.344  1.00  0.00    -0.252 OA
BRANCH   4   6
ATOM      6  C   UNL A   1      31.734  26.822  22.998  1.00  0.00     0.162 C 
ATOM      7  C   UNL A   1      32.590  25.559  20.932  1.00  0.00     0.076 C 
ATOM      8  C   UNL A   1      32.469  25.585  22.461  1.00  0.00     0.195 C 
ATOM      9  N   UNL A   1      31.648  24.426  22.828  1.00  0.00    -0.324 N 
ATOM     10  C   UNL A   1      30.638  26.274  23.899  1.00  0.00     0.083 C 
ATOM     11  C   UNL A   1      30.368  24.897  23.337  1.00  0.00     0.264 C 
ATOM     12  H   UNL A   1      31.467  23.890  21.979  1.00  0.00     0.348 HD
BRANCH   9  13
ATOM     13  C   UNL A   1      32.315  23.377  23.610  1.00  0.00     0.364 C 
BRANCH  13  14
ATOM     14  C   UNL A   1      33.336  23.832  24.667  1.00  0.00     0.277 C 
ATOM     15  O   UNL A   1      32.958  24.374  25.712  1.00  0.00    -0.268 OA
ATOM     16  N   UNL A   1      34.669  23.524  24.468  1.00  0.00    -0.338 N 
ATOM     17  C   UNL A   1      35.324  23.222  23.210  1.00  0.00     0.119 C 
ATOM     18  C   UNL A   1      35.645  23.652  25.535  1.00  0.00     0.119 C 
ATOM     19  C   UNL A   1      36.713  22.745  23.581  1.00  0.00     0.023 C 
ATOM     20  C   UNL A   1      37.006  23.516  24.862  1.00  0.00     0.023 C 
ENDBRANCH  13  14
ENDBRANCH   9  13
ENDBRANCH   4   6
ENDBRANCH   3   4
ENDBRANCH   2   3
ENDBRANCH   1   2
BRANCH   1  21
ATOM     21  O   UNL A   1      34.145  28.961  27.519  1.00  0.00    -0.458 OA
BRANCH  21  22
ATOM     22  C   UNL A   1      34.666  30.137  27.933  1.00  0.00     0.338 C 
ATOM     23  O   UNL A   1      34.098  31.193  28.142  1.00  0.00    -0.246 OA
BRANCH  22  24
ATOM     24  C   UNL A   1      36.063  29.880  28.258  1.00  0.00     0.060 A 
ATOM     25  C   UNL A   1      36.374  29.432  29.544  1.00  0.00     0.016 A 
ATOM     26  C   UNL A   1      37.039  30.022  27.277  1.00  0.00     0.016 A 
ATOM     27  C   UNL A   1      37.674  29.089  29.863  1.00  0.00     0.010 A 
ATOM     28  C   UNL A   1      38.342  29.669  27.590  1.00  0.00     0.010 A 
ATOM     29  C   UNL A   1      38.654  29.193  28.877  1.00  0.00    -0.014 A 
BRANCH  29  30
ATOM     30  C   UNL A   1      40.044  28.834  29.177  1.00  0.00     0.031 A 
ATOM     31  C   UNL A   1      40.954  29.910  29.663  1.00  0.00     0.074 A 
ATOM     32  C   UNL A   1      40.461  27.583  28.917  1.00  0.00     0.049 A 
ATOM     33  N   UNL A   1      42.253  29.911  29.745  1.00  0.00    -0.248 NA
ATOM     34  C   UNL A   1      40.312  31.165  30.093  1.00  0.00     0.031 C 
ATOM     35  C   UNL A   1      39.600  26.474  28.493  1.00  0.00     0.029 A 
ATOM     36  N   UNL A   1      41.718  27.046  28.934  1.00  0.00    -0.354 N 
ATOM     37  C   UNL A   1      42.592  31.180  30.195  1.00  0.00     0.074 A 
ATOM     38  C   UNL A   1      41.364  31.923  30.363  1.00  0.00     0.031 C 
ATOM     39  C   UNL A   1      40.362  25.394  28.262  1.00  0.00     0.029 A 
ATOM     40  C   UNL A   1      41.761  25.755  28.463  1.00  0.00     0.049 A 
ATOM     41  H   UNL A   1      42.511  27.534  29.254  1.00  0.00     0.167 HD
ATOM     42  C   UNL A   1      43.830  31.668  30.428  1.00  0.00     0.031 A 
ATOM     43  C   UNL A   1      42.824  24.981  28.177  1.00  0.00     0.031 A 
ATOM     44  C   UNL A   1      45.021  30.890  30.224  1.00  0.00     0.049 A 
ATOM     45  C   UNL A   1      44.194  25.565  28.394  1.00  0.00     0.074 A 
ATOM     46  C   UNL A   1      46.338  31.258  30.421  1.00  0.00     0.029 A 
ATOM     47  N   UNL A   1      45.030  29.575  29.771  1.00  0.00    -0.354 N 
ATOM     48  N   UNL A   1      44.515  26.767  28.815  1.00  0.00    -0.248 NA
ATOM     49  C   UNL A   1      45.342  24.699  28.103  1.00  0.00     0.031 C 
ATOM     50  C   UNL A   1      47.144  30.181  30.041  1.00  0.00     0.029 A 
ATOM     51  C   UNL A   1      46.330  29.120  29.670  1.00  0.00     0.049 A 
ATOM     52  H   UNL A   1      44.228  29.048  29.555  1.00  0.00     0.167 HD
ATOM     53  C   UNL A   1      45.902  26.791  28.876  1.00  0.00     0.074 A 
ATOM     54  C   UNL A   1      46.357  25.482  28.447  1.00  0.00     0.031 C 
ATOM     55  C   UNL A   1      46.728  27.795  29.258  1.00  0.00     0.031 A 
BRANCH  42  56
ATOM     56  C   UNL A   1      43.943  33.102  30.868  1.00  0.00    -0.014 A 
ATOM     57  C   UNL A   1      43.921  33.454  32.230  1.00  0.00     0.010 A 
ATOM     58  C   UNL A   1      44.078  34.116  29.903  1.00  0.00     0.010 A 
ATOM     59  C   UNL A   1      43.989  34.795  32.616  1.00  0.00     0.020 A 
ATOM     60  C   UNL A   1      44.175  35.457  30.286  1.00  0.00     0.020 A 
ATOM     61  C   UNL A   1      44.113  35.789  31.641  1.00  0.00     0.054 A 
BRANCH  61  62
ATOM     62  S   UNL A   1      44.216  37.521  32.172  1.00  0.00     0.124 S 
ATOM     63  O   UNL A   1      43.772  38.230  30.974  1.00  0.00    -0.237 OA
ATOM     64  O   UNL A   1      43.293  37.563  33.304  1.00  0.00    -0.237 OA
ATOM     65  O   UNL A   1      45.626  37.696  32.513  1.00  0.00    -0.744 OA
ENDBRANCH  61  62
ENDBRANCH  42  56
BRANCH  43  66
ATOM     66  C   UNL A   1      42.627  23.605  27.644  1.00  0.00    -0.014 A 
ATOM     67  C   UNL A   1      42.758  23.349  26.269  1.00  0.00     0.010 A 
ATOM     68  C   UNL A   1      42.344  22.533  28.512  1.00  0.00     0.010 A 
ATOM     69  C   UNL A   1      42.595  22.054  25.769  1.00  0.00     0.020 A 
ATOM     70  C   UNL A   1      42.208  21.231  28.020  1.00  0.00     0.020 A 
ATOM     71  C   UNL A   1      42.323  21.001  26.649  1.00  0.00     0.054 A 
BRANCH  71  72
ATOM     72  S   UNL A   1      42.163  19.321  25.979  1.00  0.00     0.124 S 
ATOM     73  O   UNL A   1      42.686  18.508  27.072  1.00  0.00    -0.237 OA
ATOM     74  O   UNL A   1      40.726  19.213  25.742  1.00  0.00    -0.237 OA
ATOM     75  O   UNL A   1      42.985  19.353  24.772  1.00  0.00    -0.744 OA
ENDBRANCH  71  72
ENDBRANCH  43  66
BRANCH  55  76
ATOM     76  C   UNL A   1      48.200  27.501  29.298  1.00  0.00    -0.014 A 
ATOM     77  C   UNL A   1      49.046  27.867  28.238  1.00  0.00     0.010 A 
ATOM     78  C   UNL A   1      48.753  26.960  30.473  1.00  0.00     0.010 A 
ATOM     79  C   UNL A   1      50.427  27.699  28.356  1.00  0.00     0.020 A 
ATOM     80  C   UNL A   1      50.133  26.816  30.605  1.00  0.00     0.020 A 
ATOM     81  C   UNL A   1      50.962  27.185  29.543  1.00  0.00     0.054 A 
BRANCH  81  82
ATOM     82  S   UNL A   1      52.764  27.076  29.710  1.00  0.00     0.124 S 
ATOM     83  O   UNL A   1      52.910  26.504  31.046  1.00  0.00    -0.237 OA
ATOM     84  O   UNL A   1      53.133  26.197  28.604  1.00  0.00    -0.237 OA
ATOM     85  O   UNL A   1      53.208  28.461  29.573  1.00  0.00    -0.744 OA
ENDBRANCH  81  82
ENDBRANCH  55  76
ENDBRANCH  29  30
ENDBRANCH  22  24
ENDBRANCH  21  22
ENDBRANCH   1  21
TORSDOF 16
ENDMDL
MODEL 2
REMARK VINA RESULT:     -10.2      1.742      2.400
REMARK SMILES C[C@H]1[C@H](C(=O)OCCOC(=O)c2ccc(-c3c4nc(c(-c5ccc(S(=O)(=O)[O-])cc5)c5ccc([nH]5)c(-c5ccc(S(=O)(=O)[O-])cc5)c5nc(c(-c6ccc(S(=O)(=O)[O-])cc6)c6ccc3[nH]6)C=C5)C=C4)cc2)CC[N@@H+]1CC(=O)N1CCCC1
REMARK SMILES IDX 8 1 7 2 6 3 4 4 5 5 3 6 1 7 2 8 74 9 72 10 73 11 75 13 76 14
REMARK SMILES IDX 77 15 78 16 79 17 82 18 80 19 81 20 9 21 10 22 11 23 12 24
REMARK SMILES IDX 13 25 71 26 14 27 70 28 15 29 16 30 17 31 64 32 18 33 69 34
REMARK SMILES IDX 63 35 65 36 19 37 68 38 62 39 61 40 20 42 50 43 31 44 49 45
REMARK SMILES IDX 32 46 35 47 48 48 66 49 33 50 34 51 47 53 67 54 36 55 21 56
REMARK SMILES IDX 22 57 30 58 23 59 29 60 24 61 25 62 26 63 27 64 28 65 51 66
REMARK SMILES IDX 52 67 60 68 53 69 59 70 54 71 55 72 56 73 57 74 58 75 37 76
REMARK SMILES IDX 38 77 46 78 39 79 45 80 40 81 41 82 42 83 43 84 44 85
REMARK H PARENT 74 12 65 41 35 52
REMARK Flexibility Score: inf
ROOT
ATOM      1  C   UNL A   1      33.108  29.101  26.645  1.00  0.00     0.275 C 
ENDROOT
BRANCH   1   2
ATOM      2  C   UNL A   1      33.471  28.169  25.486  1.00  0.00     0.274 C 
BRANCH   2   3
ATOM      3  O   UNL A   1      32.802  26.892  25.593  1.00  0.00    -0.462 OA
BRANCH   3   4
ATOM      4  C   UNL A   1      33.346  25.857  24.903  1.00  0.00     0.315 C 
ATOM      5  O   UNL A   1      33.350  25.770  23.680  1.00  0.00    -0.252 OA
BRANCH   4   6
ATOM      6  C   UNL A   1      33.897  24.753  25.787  1.00  0.00     0.162 C 
ATOM      7  C   UNL A   1      32.427  23.183  27.188  1.00  0.00     0.076 C 
ATOM      8  C   UNL A   1      33.109  23.437  25.838  1.00  0.00     0.195 C 
ATOM      9  N   UNL A   1      34.090  22.361  25.665  1.00  0.00    -0.324 N 
ATOM     10  C   UNL A   1      35.288  24.366  25.308  1.00  0.00     0.083 C 
ATOM     11  C   UNL A   1      35.430  22.926  25.747  1.00  0.00     0.264 C 
ATOM     12  H   UNL A   1      33.980  21.709  26.441  1.00  0.00     0.348 HD
BRANCH   9  13
ATOM     13  C   UNL A   1      33.844  21.427  24.559  1.00  0.00     0.364 C 
BRANCH  13  14
ATOM     14  C   UNL A   1      32.862  20.271  24.823  1.00  0.00     0.277 C 
ATOM     15  O   UNL A   1      31.695  20.504  25.157  1.00  0.00    -0.268 OA
ATOM     16  N   UNL A   1      33.287  18.979  24.573  1.00  0.00    -0.338 N 
ATOM     17  C   UNL A   1      34.654  18.498  24.518  1.00  0.00     0.119 C 
ATOM     18  C   UNL A   1      32.351  17.871  24.513  1.00  0.00     0.119 C 
ATOM     19  C   UNL A   1      34.562  17.078  23.998  1.00  0.00     0.023 C 
ATOM     20  C   UNL A   1      33.210  16.611  24.522  1.00  0.00     0.023 C 
ENDBRANCH  13  14
ENDBRANCH   9  13
ENDBRANCH   4   6
ENDBRANCH   3   4
ENDBRANCH   2   3
ENDBRANCH   1   2
BRANCH   1  21
ATOM     21  O   UNL A   1      34.080  29.004  27.691  1.00  0.00    -0.458 OA
BRANCH  21  22
ATOM     22  C   UNL A   1      34.582  30.173  28.146  1.00  0.00     0.338 C 
ATOM     23  O   UNL A   1      33.991  31.195  28.441  1.00  0.00    -0.246 OA
BRANCH  22  24
ATOM     24  C   UNL A   1      36.002  29.949  28.388  1.00  0.00     0.060 A 
ATOM     25  C   UNL A   1      36.405  29.570  29.671  1.00  0.00     0.016 A 
ATOM     26  C   UNL A   1      36.907  30.051  27.337  1.00  0.00     0.016 A 
ATOM     27  C   UNL A   1      37.728  29.258  29.917  1.00  0.00     0.010 A 
ATOM     28  C   UNL A   1      38.233  29.730  27.578  1.00  0.00     0.010 A 
ATOM     29  C   UNL A   1      38.638  29.323  28.863  1.00  0.00    -0.014 A 
BRANCH  29  30
ATOM     30  C   UNL A   1      40.050  28.996  29.086  1.00  0.00     0.031 A 
ATOM     31  C   UNL A   1      40.969  30.099  29.484  1.00  0.00     0.074 A 
ATOM     32  C   UNL A   1      40.473  27.744  28.835  1.00  0.00     0.049 A 
ATOM     33  N   UNL A   1      42.271  30.124  29.484  1.00  0.00    -0.248 NA
ATOM     34  C   UNL A   1      40.332  31.357  29.918  1.00  0.00     0.031 C 
ATOM     35  C   UNL A   1      39.607  26.610  28.497  1.00  0.00     0.029 A 
ATOM     36  N   UNL A   1      41.737  27.229  28.789  1.00  0.00    -0.354 N 
ATOM     37  C   UNL A   1      42.614  31.410  29.877  1.00  0.00     0.074 A 
ATOM     38  C   UNL A   1      41.385  32.139  30.101  1.00  0.00     0.031 C 
ATOM     39  C   UNL A   1      40.373  25.536  28.249  1.00  0.00     0.029 A 
ATOM     40  C   UNL A   1      41.775  25.926  28.352  1.00  0.00     0.049 A 
ATOM     41  H   UNL A   1      42.540  27.738  29.044  1.00  0.00     0.167 HD
ATOM     42  C   UNL A   1      43.855  31.925  30.019  1.00  0.00     0.031 A 
ATOM     43  C   UNL A   1      42.832  25.160  28.022  1.00  0.00     0.031 A 
ATOM     44  C   UNL A   1      45.045  31.161  29.763  1.00  0.00     0.049 A 
ATOM     45  C   UNL A   1      44.201  25.773  28.137  1.00  0.00     0.074 A 
ATOM     46  C   UNL A   1      46.364  31.556  29.867  1.00  0.00     0.029 A 
ATOM     47  N   UNL A   1      45.049  29.834  29.347  1.00  0.00    -0.354 N 
ATOM     48  N   UNL A   1      44.527  26.992  28.503  1.00  0.00    -0.248 NA
ATOM     49  C   UNL A   1      45.344  24.917  27.799  1.00  0.00     0.031 C 
ATOM     50  C   UNL A   1      47.165  30.482  29.467  1.00  0.00     0.029 A 
ATOM     51  C   UNL A   1      46.348  29.398  29.178  1.00  0.00     0.049 A 
ATOM     52  H   UNL A   1      44.245  29.288  29.196  1.00  0.00     0.167 HD
ATOM     53  C   UNL A   1      45.914  27.039  28.476  1.00  0.00     0.074 A 
ATOM     54  C   UNL A   1      46.365  25.726  28.057  1.00  0.00     0.031 C 
ATOM     55  C   UNL A   1      46.744  28.068  28.779  1.00  0.00     0.031 A 
BRANCH  42  56
ATOM     56  C   UNL A   1      43.969  33.373  30.411  1.00  0.00    -0.014 A 
ATOM     57  C   UNL A   1      44.047  33.762  31.761  1.00  0.00     0.010 A 
ATOM     58  C   UNL A   1      44.004  34.362  29.413  1.00  0.00     0.010 A 
ATOM     59  C   UNL A   1      44.114  35.115  32.105  1.00  0.00     0.020 A 
ATOM     60  C   UNL A   1      44.100  35.715  29.751  1.00  0.00     0.020 A 
ATOM     61  C   UNL A   1      44.137  36.083  31.097  1.00  0.00     0.054 A 
BRANCH  61  62
ATOM     62  S   UNL A   1      44.242  37.831  31.573  1.00  0.00     0.124 S 
ATOM     63  O   UNL A   1      43.492  37.847  32.827  1.00  0.00    -0.237 OA
ATOM     64  O   UNL A   1      45.682  38.042  31.701  1.00  0.00    -0.237 OA
ATOM     65  O   UNL A   1      43.607  38.533  30.460  1.00  0.00    -0.744 OA
ENDBRANCH  61  62
ENDBRANCH  42  56
BRANCH  43  66
ATOM     66  C   UNL A   1      42.626  23.767  27.541  1.00  0.00    -0.014 A 
ATOM     67  C   UNL A   1      42.605  23.485  26.165  1.00  0.00     0.010 A 
ATOM     68  C   UNL A   1      42.490  22.705  28.455  1.00  0.00     0.010 A 
ATOM     69  C   UNL A   1      42.434  22.174  25.711  1.00  0.00     0.020 A 
ATOM     70  C   UNL A   1      42.348  21.388  28.006  1.00  0.00     0.020 A 
ATOM     71  C   UNL A   1      42.309  21.132  26.635  1.00  0.00     0.054 A 
BRANCH  71  72
ATOM     72  S   UNL A   1      42.136  19.433  26.019  1.00  0.00     0.124 S 
ATOM     73  O   UNL A   1      42.644  18.651  27.142  1.00  0.00    -0.237 OA
ATOM     74  O   UNL A   1      40.700  19.331  25.776  1.00  0.00    -0.237 OA
ATOM     75  O   UNL A   1      42.967  19.417  24.818  1.00  0.00    -0.744 OA
ENDBRANCH  71  72
ENDBRANCH  43  66
BRANCH  55  76
ATOM     76  C   UNL A   1      48.221  27.798  28.735  1.00  0.00    -0.014 A 
ATOM     77  C   UNL A   1      48.862  27.078  29.757  1.00  0.00     0.010 A 
ATOM     78  C   UNL A   1      48.944  28.168  27.586  1.00  0.00     0.010 A 
ATOM     79  C   UNL A   1      50.207  26.731  29.627  1.00  0.00     0.020 A 
ATOM     80  C   UNL A   1      50.280  27.798  27.442  1.00  0.00     0.020 A 
ATOM     81  C   UNL A   1      50.905  27.083  28.466  1.00  0.00     0.054 A 
BRANCH  81  82
ATOM     82  S   UNL A   1      52.620  26.526  28.277  1.00  0.00     0.124 S 
ATOM     83  O   UNL A   1      53.004  26.254  29.660  1.00  0.00    -0.237 OA
ATOM     84  O   UNL A   1      52.480  25.352  27.420  1.00  0.00    -0.237 OA
ATOM     85  O   UNL A   1      53.288  27.668  27.658  1.00  0.00    -0.744 OA
ENDBRANCH  81  82
ENDBRANCH  55  76
ENDBRANCH  29  30
ENDBRANCH  22  24
ENDBRANCH  21  22
ENDBRANCH   1  21
TORSDOF 16
ENDMDL
MODEL 3
REMARK VINA RESULT:     -10.0      2.127      2.958
REMARK SMILES C[C@H]1[C@H](C(=O)OCCOC(=O)c2ccc(-c3c4nc(c(-c5ccc(S(=O)(=O)[O-])cc5)c5ccc([nH]5)c(-c5ccc(S(=O)(=O)[O-])cc5)c5nc(c(-c6ccc(S(=O)(=O)[O-])cc6)c6ccc3[nH]6)C=C5)C=C4)cc2)CC[N@@H+]1CC(=O)N1CCCC1
REMARK SMILES IDX 8 1 7 2 6 3 4 4 5 5 3 6 1 7 2 8 74 9 72 10 73 11 75 13 76 14
REMARK SMILES IDX 77 15 78 16 79 17 82 18 80 19 81 20 9 21 10 22 11 23 12 24
REMARK SMILES IDX 13 25 71 26 14 27 70 28 15 29 16 30 17 31 64 32 18 33 69 34
REMARK SMILES IDX 63 35 65 36 19 37 68 38 62 39 61 40 20 42 50 43 31 44 49 45
REMARK SMILES IDX 32 46 35 47 48 48 66 49 33 50 34 51 47 53 67 54 36 55 21 56
REMARK SMILES IDX 22 57 30 58 23 59 29 60 24 61 25 62 26 63 27 64 28 65 51 66
REMARK SMILES IDX 52 67 60 68 53 69 59 70 54 71 55 72 56 73 57 74 58 75 37 76
REMARK SMILES IDX 38 77 46 78 39 79 45 80 40 81 41 82 42 83 43 84 44 85
REMARK H PARENT 74 12 65 41 35 52
REMARK Flexibility Score: inf
ROOT
ATOM      1  C   UNL A   1      34.556  30.848  27.528  1.00  0.00     0.275 C 
ENDROOT
BRANCH   1   2
ATOM      2  C   UNL A   1      33.526  29.763  27.206  1.00  0.00     0.274 C 
BRANCH   2   3
ATOM      3  O   UNL A   1      33.151  29.775  25.810  1.00  0.00    -0.462 OA
BRANCH   3   4
ATOM      4  C   UNL A   1      31.849  30.037  25.529  1.00  0.00     0.315 C 
ATOM      5  O   UNL A   1      31.225  30.993  25.978  1.00  0.00    -0.252 OA
BRANCH   4   6
ATOM      6  C   UNL A   1      31.187  28.989  24.654  1.00  0.00     0.162 C 
ATOM      7  C   UNL A   1      30.794  29.278  22.133  1.00  0.00     0.076 C 
ATOM      8  C   UNL A   1      31.747  28.803  23.237  1.00  0.00     0.195 C 
ATOM      9  N   UNL A   1      31.910  27.358  23.044  1.00  0.00    -0.324 N 
ATOM     10  C   UNL A   1      31.311  27.624  25.314  1.00  0.00     0.083 C 
ATOM     11  C   UNL A   1      31.271  26.659  24.151  1.00  0.00     0.264 C 
ATOM     12  H   UNL A   1      31.418  27.099  22.188  1.00  0.00     0.348 HD
BRANCH   9  13
ATOM     13  C   UNL A   1      33.253  26.898  22.670  1.00  0.00     0.364 C 
BRANCH  13  14
ATOM     14  C   UNL A   1      33.437  25.390  22.431  1.00  0.00     0.277 C 
ATOM     15  O   UNL A   1      33.039  24.868  21.383  1.00  0.00    -0.268 OA
ATOM     16  N   UNL A   1      34.149  24.658  23.363  1.00  0.00    -0.338 N 
ATOM     17  C   UNL A   1      34.381  24.996  24.754  1.00  0.00     0.119 C 
ATOM     18  C   UNL A   1      34.616  23.314  23.078  1.00  0.00     0.119 C 
ATOM     19  C   UNL A   1      35.392  23.983  25.253  1.00  0.00     0.023 C 
ATOM     20  C   UNL A   1      35.078  22.749  24.417  1.00  0.00     0.023 C 
ENDBRANCH  13  14
ENDBRANCH   9  13
ENDBRANCH   4   6
ENDBRANCH   3   4
ENDBRANCH   2   3
ENDBRANCH   1   2
BRANCH   1  21
ATOM     21  O   UNL A   1      35.847  30.268  27.743  1.00  0.00    -0.458 OA
BRANCH  21  22
ATOM     22  C   UNL A   1      36.377  30.439  28.974  1.00  0.00     0.338 C 
ATOM     23  O   UNL A   1      35.837  30.833  29.991  1.00  0.00    -0.246 OA
BRANCH  22  24
ATOM     24  C   UNL A   1      37.731  29.899  28.922  1.00  0.00     0.060 A 
ATOM     25  C   UNL A   1      38.320  29.707  27.670  1.00  0.00     0.016 A 
ATOM     26  C   UNL A   1      38.422  29.650  30.103  1.00  0.00     0.016 A 
ATOM     27  C   UNL A   1      39.633  29.285  27.580  1.00  0.00     0.010 A 
ATOM     28  C   UNL A   1      39.742  29.237  30.016  1.00  0.00     0.010 A 
ATOM     29  C   UNL A   1      40.347  29.067  28.757  1.00  0.00    -0.014 A 
BRANCH  29  30
ATOM     30  C   UNL A   1      41.743  28.622  28.702  1.00  0.00     0.031 A 
ATOM     31  C   UNL A   1      42.811  29.656  28.811  1.00  0.00     0.074 A 
ATOM     32  C   UNL A   1      42.001  27.324  28.466  1.00  0.00     0.049 A 
ATOM     33  N   UNL A   1      44.080  29.559  28.536  1.00  0.00    -0.248 NA
ATOM     34  C   UNL A   1      42.385  30.991  29.270  1.00  0.00     0.031 C 
ATOM     35  C   UNL A   1      40.997  26.258  28.406  1.00  0.00     0.029 A 
ATOM     36  N   UNL A   1      43.181  26.690  28.195  1.00  0.00    -0.354 N 
ATOM     37  C   UNL A   1      44.601  30.828  28.747  1.00  0.00     0.074 A 
ATOM     38  C   UNL A   1      43.511  31.680  29.166  1.00  0.00     0.031 C 
ATOM     39  C   UNL A   1      41.603  25.104  28.087  1.00  0.00     0.029 A 
ATOM     40  C   UNL A   1      43.020  25.366  27.862  1.00  0.00     0.049 A 
ATOM     41  H   UNL A   1      44.058  27.136  28.235  1.00  0.00     0.167 HD
ATOM     42  C   UNL A   1      45.880  31.231  28.583  1.00  0.00     0.031 A 
ATOM     43  C   UNL A   1      43.917  24.486  27.378  1.00  0.00     0.031 A 
ATOM     44  C   UNL A   1      46.922  30.345  28.143  1.00  0.00     0.049 A 
ATOM     45  C   UNL A   1      45.323  24.973  27.154  1.00  0.00     0.074 A 
ATOM     46  C   UNL A   1      48.259  30.619  27.936  1.00  0.00     0.029 A 
ATOM     47  N   UNL A   1      46.731  29.001  27.839  1.00  0.00    -0.354 N 
ATOM     48  N   UNL A   1      45.815  26.176  27.347  1.00  0.00    -0.248 NA
ATOM     49  C   UNL A   1      46.294  23.996  26.650  1.00  0.00     0.031 C 
ATOM     50  C   UNL A   1      48.867  29.454  27.461  1.00  0.00     0.029 A 
ATOM     51  C   UNL A   1      47.924  28.436  27.435  1.00  0.00     0.049 A 
ATOM     52  H   UNL A   1      45.873  28.525  27.904  1.00  0.00     0.167 HD
ATOM     53  C   UNL A   1      47.163  26.091  27.026  1.00  0.00     0.074 A 
ATOM     54  C   UNL A   1      47.407  24.719  26.624  1.00  0.00     0.031 C 
ATOM     55  C   UNL A   1      48.117  27.054  27.066  1.00  0.00     0.031 A 
BRANCH  42  56
ATOM     56  C   UNL A   1      46.190  32.682  28.829  1.00  0.00    -0.014 A 
ATOM     57  C   UNL A   1      46.573  33.144  30.102  1.00  0.00     0.010 A 
ATOM     58  C   UNL A   1      46.102  33.601  27.768  1.00  0.00     0.010 A 
ATOM     59  C   UNL A   1      46.820  34.503  30.317  1.00  0.00     0.020 A 
ATOM     60  C   UNL A   1      46.376  34.956  27.973  1.00  0.00     0.020 A 
ATOM     61  C   UNL A   1      46.717  35.401  29.251  1.00  0.00     0.054 A 
BRANCH  61  62
ATOM     62  S   UNL A   1      47.060  37.156  29.557  1.00  0.00     0.124 S 
ATOM     63  O   UNL A   1      47.418  37.151  30.974  1.00  0.00    -0.237 OA
ATOM     64  O   UNL A   1      48.158  37.433  28.633  1.00  0.00    -0.237 OA
ATOM     65  O   UNL A   1      45.797  37.818  29.237  1.00  0.00    -0.744 OA
ENDBRANCH  61  62
ENDBRANCH  42  56
BRANCH  43  66
ATOM     66  C   UNL A   1      43.503  23.093  27.060  1.00  0.00    -0.014 A 
ATOM     67  C   UNL A   1      43.826  22.520  25.819  1.00  0.00     0.010 A 
ATOM     68  C   UNL A   1      42.816  22.314  28.011  1.00  0.00     0.010 A 
ATOM     69  C   UNL A   1      43.457  21.203  25.527  1.00  0.00     0.020 A 
ATOM     70  C   UNL A   1      42.469  20.988  27.735  1.00  0.00     0.020 A 
ATOM     71  C   UNL A   1      42.782  20.443  26.488  1.00  0.00     0.054 A 
BRANCH  71  72
ATOM     72  S   UNL A   1      42.357  18.722  26.101  1.00  0.00     0.124 S 
ATOM     73  O   UNL A   1      43.311  18.404  25.044  1.00  0.00    -0.237 OA
ATOM     74  O   UNL A   1      42.580  18.048  27.378  1.00  0.00    -0.237 OA
ATOM     75  O   UNL A   1      40.960  18.799  25.682  1.00  0.00    -0.744 OA
ENDBRANCH  71  72
ENDBRANCH  43  66
BRANCH  55  76
ATOM     76  C   UNL A   1      49.524  26.644  26.733  1.00  0.00    -0.014 A 
ATOM     77  C   UNL A   1      50.371  26.087  27.706  1.00  0.00     0.010 A 
ATOM     78  C   UNL A   1      49.950  26.707  25.394  1.00  0.00     0.010 A 
ATOM     79  C   UNL A   1      51.625  25.597  27.340  1.00  0.00     0.020 A 
ATOM     80  C   UNL A   1      51.191  26.194  25.022  1.00  0.00     0.020 A 
ATOM     81  C   UNL A   1      52.023  25.643  25.999  1.00  0.00     0.054 A 
BRANCH  81  82
ATOM     82  S   UNL A   1      53.611  24.903  25.535  1.00  0.00     0.124 S 
ATOM     83  O   UNL A   1      54.359  24.982  26.787  1.00  0.00    -0.237 OA
ATOM     84  O   UNL A   1      53.225  23.558  25.116  1.00  0.00    -0.237 OA
ATOM     85  O   UNL A   1      54.097  25.769  24.463  1.00  0.00    -0.744 OA
ENDBRANCH  81  82
ENDBRANCH  55  76
ENDBRANCH  29  30
ENDBRANCH  22  24
ENDBRANCH  21  22
ENDBRANCH   1  21
TORSDOF 16
ENDMDL
