MODEL 1
REMARK VINA RESULT:     -11.0      0.000      0.000
REMARK SMILES Cc1c(Cl)cc2c(c1C)O[C@H](C(F)(F)F)C(C(=O)OCCOC(=O)c1ccc(-c3c4nc(c(-c5ccc(S(=O)(=O)[O-])cc5)c5ccc([nH]5)c(-c5ccc(S(=O)(=O)[O-])cc5)c5nc(c(-c6ccc(S(=O)(=O)[O-])cc6)c6ccc3[nH]6)C=C5)C=C4)cc1)=C2
REMARK SMILES IDX 21 1 20 2 19 3 17 4 18 5 16 6 1 7 2 8 3 9 8 10 4 11 5 12
REMARK SMILES IDX 7 13 9 14 6 15 10 16 85 17 11 18 12 19 13 20 14 21 15 22
REMARK SMILES IDX 22 23 23 24 24 25 25 26 26 27 84 28 27 29 83 30 28 31 29 32
REMARK SMILES IDX 30 33 77 34 31 35 82 36 76 37 78 38 32 39 81 40 75 41 74 42
REMARK SMILES IDX 33 44 63 45 44 46 62 47 45 48 48 49 61 50 79 51 46 52 47 53
REMARK SMILES IDX 60 55 80 56 49 57 34 58 35 59 43 60 36 61 42 62 37 63 38 64
REMARK SMILES IDX 39 65 40 66 41 67 64 68 65 69 73 70 66 71 72 72 67 73 68 74
REMARK SMILES IDX 69 75 70 76 71 77 50 78 51 79 59 80 52 81 58 82 53 83 54 84
REMARK SMILES IDX 55 85 56 86 57 87
REMARK H PARENT 78 43 48 54
REMARK Flexibility Score: inf
ROOT
ATOM      1  C   UNL A   1      33.841  28.309  25.714  1.00  0.00     0.275 C 
ENDROOT
BRANCH   1   2
ATOM      2  C   UNL A   1      32.371  27.979  25.454  1.00  0.00     0.275 C 
BRANCH   2   3
ATOM      3  O   UNL A   1      32.204  26.632  24.957  1.00  0.00    -0.459 OA
BRANCH   3   4
ATOM      4  C   UNL A   1      31.828  25.717  25.880  1.00  0.00     0.338 C 
ATOM      5  O   UNL A   1      30.948  25.849  26.718  1.00  0.00    -0.246 OA
BRANCH   4   6
ATOM      6  C   UNL A   1      32.619  24.479  25.743  1.00  0.00     0.087 C 
ATOM      7  C   UNL A   1      37.349  20.031  24.917  1.00  0.00     0.046 C 
ATOM      8  C   UNL A   1      36.402  21.168  25.207  1.00  0.00    -0.026 A 
ATOM      9  C   UNL A   1      36.934  22.354  25.760  1.00  0.00     0.045 A 
ATOM     10  C   UNL A   1      35.001  21.092  24.983  1.00  0.00    -0.004 A 
ATOM     11  Cl  UNL A   1      38.619  22.526  26.121  1.00  0.00    -0.084 Cl
ATOM     12  C   UNL A   1      36.120  23.448  26.037  1.00  0.00     0.032 A 
ATOM     13  C   UNL A   1      34.188  22.213  25.278  1.00  0.00     0.131 A 
ATOM     14  C   UNL A   1      34.310  19.871  24.430  1.00  0.00     0.049 C 
ATOM     15  C   UNL A   1      34.752  23.382  25.780  1.00  0.00     0.019 A 
ATOM     16  O   UNL A   1      32.837  22.085  25.066  1.00  0.00    -0.475 OA
ATOM     17  C   UNL A   1      33.926  24.547  26.011  1.00  0.00     0.027 C 
ATOM     18  C   UNL A   1      31.971  23.252  25.177  1.00  0.00     0.316 C 
BRANCH  18  19
ATOM     19  C   UNL A   1      31.359  23.540  23.798  1.00  0.00     0.430 C 
ATOM     20  F   UNL A   1      32.167  24.333  23.054  1.00  0.00    -0.167 F 
ATOM     21  F   UNL A   1      31.177  22.402  23.084  1.00  0.00    -0.167 F 
ATOM     22  F   UNL A   1      30.158  24.157  23.886  1.00  0.00    -0.167 F 
ENDBRANCH  18  19
ENDBRANCH   4   6
ENDBRANCH   3   4
ENDBRANCH   2   3
ENDBRANCH   1   2
BRANCH   1  23
ATOM     23  O   UNL A   1      34.094  28.418  27.127  1.00  0.00    -0.458 OA
BRANCH  23  24
ATOM     24  C   UNL A   1      34.268  29.684  27.571  1.00  0.00     0.338 C 
ATOM     25  O   UNL A   1      33.427  30.565  27.631  1.00  0.00    -0.246 OA
BRANCH  24  26
ATOM     26  C   UNL A   1      35.628  29.874  28.098  1.00  0.00     0.060 A 
ATOM     27  C   UNL A   1      36.610  30.319  27.226  1.00  0.00     0.016 A 
ATOM     28  C   UNL A   1      35.983  29.352  29.339  1.00  0.00     0.016 A 
ATOM     29  C   UNL A   1      37.948  30.040  27.489  1.00  0.00     0.010 A 
ATOM     30  C   UNL A   1      37.337  29.235  29.671  1.00  0.00     0.010 A 
ATOM     31  C   UNL A   1      38.342  29.500  28.721  1.00  0.00    -0.014 A 
BRANCH  31  32
ATOM     32  C   UNL A   1      39.770  29.158  28.999  1.00  0.00     0.031 A 
ATOM     33  C   UNL A   1      40.699  30.199  29.587  1.00  0.00     0.074 A 
ATOM     34  C   UNL A   1      40.255  27.921  28.751  1.00  0.00     0.049 A 
ATOM     35  N   UNL A   1      42.007  30.208  29.642  1.00  0.00    -0.248 NA
ATOM     36  C   UNL A   1      40.072  31.396  30.175  1.00  0.00     0.031 C 
ATOM     37  C   UNL A   1      39.479  26.772  28.276  1.00  0.00     0.029 A 
ATOM     38  N   UNL A   1      41.532  27.422  28.868  1.00  0.00    -0.354 N 
ATOM     39  C   UNL A   1      42.359  31.435  30.200  1.00  0.00     0.074 A 
ATOM     40  C   UNL A   1      41.126  32.145  30.464  1.00  0.00     0.031 C 
ATOM     41  C   UNL A   1      40.277  25.699  28.195  1.00  0.00     0.029 A 
ATOM     42  C   UNL A   1      41.646  26.108  28.473  1.00  0.00     0.049 A 
ATOM     43  H   UNL A   1      42.290  27.952  29.202  1.00  0.00     0.167 HD
ATOM     44  C   UNL A   1      43.595  31.924  30.464  1.00  0.00     0.031 A 
ATOM     45  C   UNL A   1      42.728  25.330  28.280  1.00  0.00     0.031 A 
ATOM     46  C   UNL A   1      44.815  31.187  30.246  1.00  0.00     0.049 A 
ATOM     47  C   UNL A   1      44.092  25.920  28.489  1.00  0.00     0.074 A 
ATOM     48  C   UNL A   1      46.119  31.592  30.472  1.00  0.00     0.029 A 
ATOM     49  N   UNL A   1      44.879  29.883  29.776  1.00  0.00    -0.354 N 
ATOM     50  N   UNL A   1      44.416  27.119  28.910  1.00  0.00    -0.248 NA
ATOM     51  C   UNL A   1      45.237  25.057  28.174  1.00  0.00     0.031 C 
ATOM     52  C   UNL A   1      46.974  30.553  30.086  1.00  0.00     0.029 A 
ATOM     53  C   UNL A   1      46.200  29.477  29.682  1.00  0.00     0.049 A 
ATOM     54  H   UNL A   1      44.100  29.327  29.544  1.00  0.00     0.167 HD
ATOM     55  C   UNL A   1      45.806  27.152  28.918  1.00  0.00     0.074 A 
ATOM     56  C   UNL A   1      46.257  25.842  28.491  1.00  0.00     0.031 C 
ATOM     57  C   UNL A   1      46.633  28.177  29.239  1.00  0.00     0.031 A 
BRANCH  44  58
ATOM     58  C   UNL A   1      43.705  33.339  30.976  1.00  0.00    -0.014 A 
ATOM     59  C   UNL A   1      43.768  33.628  32.351  1.00  0.00     0.010 A 
ATOM     60  C   UNL A   1      43.811  34.399  30.053  1.00  0.00     0.010 A 
ATOM     61  C   UNL A   1      43.904  34.949  32.792  1.00  0.00     0.020 A 
ATOM     62  C   UNL A   1      43.977  35.717  30.490  1.00  0.00     0.020 A 
ATOM     63  C   UNL A   1      44.010  35.986  31.859  1.00  0.00     0.054 A 
BRANCH  63  64
ATOM     64  S   UNL A   1      44.221  37.684  32.462  1.00  0.00     0.124 S 
ATOM     65  O   UNL A   1      43.967  38.468  31.257  1.00  0.00    -0.237 OA
ATOM     66  O   UNL A   1      43.200  37.781  33.503  1.00  0.00    -0.237 OA
ATOM     67  O   UNL A   1      45.601  37.714  32.943  1.00  0.00    -0.744 OA
ENDBRANCH  63  64
ENDBRANCH  44  58
BRANCH  45  68
ATOM     68  C   UNL A   1      42.560  23.932  27.790  1.00  0.00    -0.014 A 
ATOM     69  C   UNL A   1      42.385  22.874  28.697  1.00  0.00     0.010 A 
ATOM     70  C   UNL A   1      42.544  23.656  26.408  1.00  0.00     0.010 A 
ATOM     71  C   UNL A   1      42.200  21.568  28.234  1.00  0.00     0.020 A 
ATOM     72  C   UNL A   1      42.322  22.359  25.941  1.00  0.00     0.020 A 
ATOM     73  C   UNL A   1      42.160  21.320  26.859  1.00  0.00     0.054 A 
BRANCH  73  74
ATOM     74  S   UNL A   1      41.847  19.629  26.285  1.00  0.00     0.124 S 
ATOM     75  O   UNL A   1      42.365  18.832  27.392  1.00  0.00    -0.237 OA
ATOM     76  O   UNL A   1      40.395  19.617  26.120  1.00  0.00    -0.237 OA
ATOM     77  O   UNL A   1      42.608  19.541  25.040  1.00  0.00    -0.744 OA
ENDBRANCH  73  74
ENDBRANCH  45  68
BRANCH  57  78
ATOM     78  C   UNL A   1      48.113  27.909  29.156  1.00  0.00    -0.014 A 
ATOM     79  C   UNL A   1      48.812  27.355  30.243  1.00  0.00     0.010 A 
ATOM     80  C   UNL A   1      48.809  28.201  27.969  1.00  0.00     0.010 A 
ATOM     81  C   UNL A   1      50.191  27.148  30.164  1.00  0.00     0.020 A 
ATOM     82  C   UNL A   1      50.182  27.964  27.875  1.00  0.00     0.020 A 
ATOM     83  C   UNL A   1      50.868  27.458  28.981  1.00  0.00     0.054 A 
BRANCH  83  84
ATOM     84  S   UNL A   1      52.657  27.175  28.905  1.00  0.00     0.124 S 
ATOM     85  O   UNL A   1      52.775  26.286  27.752  1.00  0.00    -0.237 OA
ATOM     86  O   UNL A   1      53.186  28.523  28.717  1.00  0.00    -0.237 OA
ATOM     87  O   UNL A   1      52.967  26.563  30.196  1.00  0.00    -0.744 OA
ENDBRANCH  83  84
ENDBRANCH  57  78
ENDBRANCH  31  32
ENDBRANCH  24  26
ENDBRANCH  23  24
ENDBRANCH   1  23
TORSDOF 15
ENDMDL
MODEL 2
REMARK VINA RESULT:     -10.8      2.190      3.263
REMARK SMILES Cc1c(Cl)cc2c(c1C)O[C@H](C(F)(F)F)C(C(=O)OCCOC(=O)c1ccc(-c3c4nc(c(-c5ccc(S(=O)(=O)[O-])cc5)c5ccc([nH]5)c(-c5ccc(S(=O)(=O)[O-])cc5)c5nc(c(-c6ccc(S(=O)(=O)[O-])cc6)c6ccc3[nH]6)C=C5)C=C4)cc1)=C2
REMARK SMILES IDX 21 1 20 2 19 3 17 4 18 5 16 6 1 7 2 8 3 9 8 10 4 11 5 12
REMARK SMILES IDX 7 13 9 14 6 15 10 16 85 17 11 18 12 19 13 20 14 21 15 22
REMARK SMILES IDX 22 23 23 24 24 25 25 26 26 27 84 28 27 29 83 30 28 31 29 32
REMARK SMILES IDX 30 33 77 34 31 35 82 36 76 37 78 38 32 39 81 40 75 41 74 42
REMARK SMILES IDX 33 44 63 45 44 46 62 47 45 48 48 49 61 50 79 51 46 52 47 53
REMARK SMILES IDX 60 55 80 56 49 57 34 58 35 59 43 60 36 61 42 62 37 63 38 64
REMARK SMILES IDX 39 65 40 66 41 67 64 68 65 69 73 70 66 71 72 72 67 73 68 74
REMARK SMILES IDX 69 75 70 76 71 77 50 78 51 79 59 80 52 81 58 82 53 83 54 84
REMARK SMILES IDX 55 85 56 86 57 87
REMARK H PARENT 78 43 48 54
REMARK Flexibility Score: inf
ROOT
ATOM      1  C   UNL A   1      34.259  31.134  27.630  1.00  0.00     0.275 C 
ENDROOT
BRANCH   1   2
ATOM      2  C   UNL A   1      34.021  29.714  27.115  1.00  0.00     0.275 C 
BRANCH   2   3
ATOM      3  O   UNL A   1      33.035  29.687  26.059  1.00  0.00    -0.459 OA
BRANCH   3   4
ATOM      4  C   UNL A   1      33.300  28.838  25.039  1.00  0.00     0.338 C 
ATOM      5  O   UNL A   1      33.700  29.145  23.925  1.00  0.00    -0.246 OA
BRANCH   4   6
ATOM      6  C   UNL A   1      33.062  27.440  25.445  1.00  0.00     0.087 C 
ATOM      7  C   UNL A   1      33.287  20.955  26.294  1.00  0.00     0.046 C 
ATOM      8  C   UNL A   1      33.442  22.442  26.097  1.00  0.00    -0.026 A 
ATOM      9  C   UNL A   1      34.734  22.947  25.831  1.00  0.00     0.045 A 
ATOM     10  C   UNL A   1      32.361  23.358  26.197  1.00  0.00    -0.004 A 
ATOM     11  Cl  UNL A   1      36.125  21.919  25.743  1.00  0.00    -0.084 Cl
ATOM     12  C   UNL A   1      34.946  24.307  25.622  1.00  0.00     0.032 A 
ATOM     13  C   UNL A   1      32.598  24.739  25.989  1.00  0.00     0.131 A 
ATOM     14  C   UNL A   1      30.945  22.946  26.510  1.00  0.00     0.049 C 
ATOM     15  C   UNL A   1      33.877  25.197  25.684  1.00  0.00     0.019 A 
ATOM     16  O   UNL A   1      31.528  25.589  26.118  1.00  0.00    -0.475 OA
ATOM     17  C   UNL A   1      34.098  26.598  25.402  1.00  0.00     0.027 C 
ATOM     18  C   UNL A   1      31.664  26.990  25.742  1.00  0.00     0.316 C 
BRANCH  18  19
ATOM     19  C   UNL A   1      30.731  27.271  24.554  1.00  0.00     0.430 C 
ATOM     20  F   UNL A   1      29.595  26.538  24.634  1.00  0.00    -0.167 F 
ATOM     21  F   UNL A   1      30.347  28.570  24.516  1.00  0.00    -0.167 F 
ATOM     22  F   UNL A   1      31.312  26.987  23.365  1.00  0.00    -0.167 F 
ENDBRANCH  18  19
ENDBRANCH   4   6
ENDBRANCH   3   4
ENDBRANCH   2   3
ENDBRANCH   1   2
BRANCH   1  23
ATOM     23  O   UNL A   1      35.666  31.377  27.817  1.00  0.00    -0.458 OA
BRANCH  23  24
ATOM     24  C   UNL A   1      36.161  30.939  28.997  1.00  0.00     0.338 C 
ATOM     25  O   UNL A   1      35.721  31.171  30.111  1.00  0.00    -0.246 OA
BRANCH  24  26
ATOM     26  C   UNL A   1      37.288  30.019  28.786  1.00  0.00     0.060 A 
ATOM     27  C   UNL A   1      37.929  29.504  29.904  1.00  0.00     0.016 A 
ATOM     28  C   UNL A   1      37.876  29.899  27.530  1.00  0.00     0.016 A 
ATOM     29  C   UNL A   1      39.249  29.074  29.808  1.00  0.00     0.010 A 
ATOM     30  C   UNL A   1      39.137  29.304  27.417  1.00  0.00     0.010 A 
ATOM     31  C   UNL A   1      39.879  28.955  28.562  1.00  0.00    -0.014 A 
BRANCH  31  32
ATOM     32  C   UNL A   1      41.310  28.535  28.450  1.00  0.00     0.031 A 
ATOM     33  C   UNL A   1      42.416  29.550  28.646  1.00  0.00     0.074 A 
ATOM     34  C   UNL A   1      41.644  27.252  28.191  1.00  0.00     0.049 A 
ATOM     35  N   UNL A   1      43.681  29.471  28.322  1.00  0.00    -0.248 NA
ATOM     36  C   UNL A   1      42.042  30.830  29.274  1.00  0.00     0.031 C 
ATOM     37  C   UNL A   1      40.712  26.127  28.070  1.00  0.00     0.029 A 
ATOM     38  N   UNL A   1      42.875  26.674  27.983  1.00  0.00    -0.354 N 
ATOM     39  C   UNL A   1      44.236  30.709  28.637  1.00  0.00     0.074 A 
ATOM     40  C   UNL A   1      43.168  31.523  29.175  1.00  0.00     0.031 C 
ATOM     41  C   UNL A   1      41.401  24.997  27.865  1.00  0.00     0.029 A 
ATOM     42  C   UNL A   1      42.809  25.329  27.698  1.00  0.00     0.049 A 
ATOM     43  H   UNL A   1      43.721  27.173  28.034  1.00  0.00     0.167 HD
ATOM     44  C   UNL A   1      45.517  31.128  28.488  1.00  0.00     0.031 A 
ATOM     45  C   UNL A   1      43.751  24.464  27.277  1.00  0.00     0.031 A 
ATOM     46  C   UNL A   1      46.585  30.292  28.000  1.00  0.00     0.049 A 
ATOM     47  C   UNL A   1      45.142  24.969  27.030  1.00  0.00     0.074 A 
ATOM     48  C   UNL A   1      47.915  30.619  27.802  1.00  0.00     0.029 A 
ATOM     49  N   UNL A   1      46.449  28.954  27.657  1.00  0.00    -0.354 N 
ATOM     50  N   UNL A   1      45.629  26.171  27.224  1.00  0.00    -0.248 NA
ATOM     51  C   UNL A   1      46.105  24.006  26.482  1.00  0.00     0.031 C 
ATOM     52  C   UNL A   1      48.572  29.496  27.288  1.00  0.00     0.029 A 
ATOM     53  C   UNL A   1      47.666  28.450  27.226  1.00  0.00     0.049 A 
ATOM     54  H   UNL A   1      45.613  28.439  27.711  1.00  0.00     0.167 HD
ATOM     55  C   UNL A   1      46.961  26.106  26.831  1.00  0.00     0.074 A 
ATOM     56  C   UNL A   1      47.208  24.739  26.418  1.00  0.00     0.031 C 
ATOM     57  C   UNL A   1      47.892  27.092  26.802  1.00  0.00     0.031 A 
BRANCH  44  58
ATOM     58  C   UNL A   1      45.836  32.567  28.811  1.00  0.00    -0.014 A 
ATOM     59  C   UNL A   1      45.659  33.596  27.869  1.00  0.00     0.010 A 
ATOM     60  C   UNL A   1      46.265  32.903  30.111  1.00  0.00     0.010 A 
ATOM     61  C   UNL A   1      45.931  34.925  28.211  1.00  0.00     0.020 A 
ATOM     62  C   UNL A   1      46.510  34.234  30.465  1.00  0.00     0.020 A 
ATOM     63  C   UNL A   1      46.353  35.236  29.507  1.00  0.00     0.054 A 
BRANCH  63  64
ATOM     64  S   UNL A   1      46.665  36.973  29.929  1.00  0.00     0.124 S 
ATOM     65  O   UNL A   1      46.143  37.054  31.291  1.00  0.00    -0.237 OA
ATOM     66  O   UNL A   1      48.117  37.075  29.805  1.00  0.00    -0.237 OA
ATOM     67  O   UNL A   1      45.903  37.717  28.928  1.00  0.00    -0.744 OA
ENDBRANCH  63  64
ENDBRANCH  44  58
BRANCH  45  68
ATOM     68  C   UNL A   1      43.384  23.047  26.990  1.00  0.00    -0.014 A 
ATOM     69  C   UNL A   1      43.697  22.466  25.750  1.00  0.00     0.010 A 
ATOM     70  C   UNL A   1      42.744  22.262  27.970  1.00  0.00     0.010 A 
ATOM     71  C   UNL A   1      43.376  21.130  25.494  1.00  0.00     0.020 A 
ATOM     72  C   UNL A   1      42.456  20.917  27.731  1.00  0.00     0.020 A 
ATOM     73  C   UNL A   1      42.767  20.361  26.490  1.00  0.00     0.054 A 
BRANCH  73  74
ATOM     74  S   UNL A   1      42.427  18.611  26.156  1.00  0.00     0.124 S 
ATOM     75  O   UNL A   1      42.700  17.996  27.451  1.00  0.00    -0.237 OA
ATOM     76  O   UNL A   1      41.024  18.637  25.749  1.00  0.00    -0.237 OA
ATOM     77  O   UNL A   1      43.370  18.274  25.091  1.00  0.00    -0.744 OA
ENDBRANCH  73  74
ENDBRANCH  45  68
BRANCH  57  78
ATOM     78  C   UNL A   1      49.269  26.714  26.324  1.00  0.00    -0.014 A 
ATOM     79  C   UNL A   1      49.686  27.001  25.012  1.00  0.00     0.010 A 
ATOM     80  C   UNL A   1      50.162  26.077  27.204  1.00  0.00     0.010 A 
ATOM     81  C   UNL A   1      50.952  26.610  24.573  1.00  0.00     0.020 A 
ATOM     82  C   UNL A   1      51.442  25.715  26.778  1.00  0.00     0.020 A 
ATOM     83  C   UNL A   1      51.821  25.965  25.458  1.00  0.00     0.054 A 
BRANCH  83  84
ATOM     84  S   UNL A   1      53.461  25.473  24.861  1.00  0.00     0.124 S 
ATOM     85  O   UNL A   1      54.342  26.309  25.672  1.00  0.00    -0.237 OA
ATOM     86  O   UNL A   1      53.495  24.045  25.164  1.00  0.00    -0.237 OA
ATOM     87  O   UNL A   1      53.426  25.803  23.438  1.00  0.00    -0.744 OA
ENDBRANCH  83  84
ENDBRANCH  57  78
ENDBRANCH  31  32
ENDBRANCH  24  26
ENDBRANCH  23  24
ENDBRANCH   1  23
TORSDOF 15
ENDMDL
MODEL 3
REMARK VINA RESULT:     -10.7      1.195      2.006
REMARK SMILES Cc1c(Cl)cc2c(c1C)O[C@H](C(F)(F)F)C(C(=O)OCCOC(=O)c1ccc(-c3c4nc(c(-c5ccc(S(=O)(=O)[O-])cc5)c5ccc([nH]5)c(-c5ccc(S(=O)(=O)[O-])cc5)c5nc(c(-c6ccc(S(=O)(=O)[O-])cc6)c6ccc3[nH]6)C=C5)C=C4)cc1)=C2
REMARK SMILES IDX 21 1 20 2 19 3 17 4 18 5 16 6 1 7 2 8 3 9 8 10 4 11 5 12
REMARK SMILES IDX 7 13 9 14 6 15 10 16 85 17 11 18 12 19 13 20 14 21 15 22
REMARK SMILES IDX 22 23 23 24 24 25 25 26 26 27 84 28 27 29 83 30 28 31 29 32
REMARK SMILES IDX 30 33 77 34 31 35 82 36 76 37 78 38 32 39 81 40 75 41 74 42
REMARK SMILES IDX 33 44 63 45 44 46 62 47 45 48 48 49 61 50 79 51 46 52 47 53
REMARK SMILES IDX 60 55 80 56 49 57 34 58 35 59 43 60 36 61 42 62 37 63 38 64
REMARK SMILES IDX 39 65 40 66 41 67 64 68 65 69 73 70 66 71 72 72 67 73 68 74
REMARK SMILES IDX 69 75 70 76 71 77 50 78 51 79 59 80 52 81 58 82 53 83 54 84
REMARK SMILES IDX 55 85 56 86 57 87
REMARK H PARENT 78 43 48 54
REMARK Flexibility Score: inf
ROOT
ATOM      1  C   UNL A   1      32.886  30.700  27.230  1.00  0.00     0.275 C 
ENDROOT
BRANCH   1   2
ATOM      2  C   UNL A   1      32.745  29.179  27.285  1.00  0.00     0.275 C 
BRANCH   2   3
ATOM      3  O   UNL A   1      31.954  28.675  26.185  1.00  0.00    -0.459 OA
BRANCH   3   4
ATOM      4  C   UNL A   1      32.660  28.180  25.142  1.00  0.00     0.338 C 
ATOM      5  O   UNL A   1      33.150  28.824  24.225  1.00  0.00    -0.246 OA
BRANCH   4   6
ATOM      6  C   UNL A   1      32.797  26.715  25.249  1.00  0.00     0.087 C 
ATOM      7  C   UNL A   1      34.823  20.497  24.998  1.00  0.00     0.046 C 
ATOM      8  C   UNL A   1      34.554  21.978  25.092  1.00  0.00    -0.026 A 
ATOM      9  C   UNL A   1      35.661  22.852  25.163  1.00  0.00     0.045 A 
ATOM     10  C   UNL A   1      33.247  22.531  25.144  1.00  0.00    -0.004 A 
ATOM     11  Cl  UNL A   1      37.293  22.274  25.161  1.00  0.00    -0.084 Cl
ATOM     12  C   UNL A   1      35.486  24.231  25.234  1.00  0.00     0.032 A 
ATOM     13  C   UNL A   1      33.089  23.936  25.225  1.00  0.00     0.131 A 
ATOM     14  C   UNL A   1      31.988  21.701  25.111  1.00  0.00     0.049 C 
ATOM     15  C   UNL A   1      34.202  24.771  25.248  1.00  0.00     0.019 A 
ATOM     16  O   UNL A   1      31.807  24.423  25.295  1.00  0.00    -0.475 OA
ATOM     17  C   UNL A   1      34.032  26.208  25.257  1.00  0.00     0.027 C 
ATOM     18  C   UNL A   1      31.569  25.858  25.198  1.00  0.00     0.316 C 
BRANCH  18  19
ATOM     19  C   UNL A   1      30.758  26.134  23.922  1.00  0.00     0.430 C 
ATOM     20  F   UNL A   1      29.928  25.104  23.632  1.00  0.00    -0.167 F 
ATOM     21  F   UNL A   1      29.974  27.232  24.056  1.00  0.00    -0.167 F 
ATOM     22  F   UNL A   1      31.549  26.332  22.842  1.00  0.00    -0.167 F 
ENDBRANCH  18  19
ENDBRANCH   4   6
ENDBRANCH   3   4
ENDBRANCH   2   3
ENDBRANCH   1   2
BRANCH   1  23
ATOM     23  O   UNL A   1      34.274  31.081  27.209  1.00  0.00    -0.458 OA
BRANCH  23  24
ATOM     24  C   UNL A   1      34.867  31.114  28.424  1.00  0.00     0.338 C 
ATOM     25  O   UNL A   1      34.474  31.703  29.418  1.00  0.00    -0.246 OA
BRANCH  24  26
ATOM     26  C   UNL A   1      36.047  30.239  28.459  1.00  0.00     0.060 A 
ATOM     27  C   UNL A   1      36.562  29.885  29.697  1.00  0.00     0.016 A 
ATOM     28  C   UNL A   1      36.793  30.014  27.305  1.00  0.00     0.016 A 
ATOM     29  C   UNL A   1      37.900  29.518  29.811  1.00  0.00     0.010 A 
ATOM     30  C   UNL A   1      38.081  29.479  27.414  1.00  0.00     0.010 A 
ATOM     31  C   UNL A   1      38.686  29.298  28.673  1.00  0.00    -0.014 A 
BRANCH  31  32
ATOM     32  C   UNL A   1      40.135  28.945  28.784  1.00  0.00     0.031 A 
ATOM     33  C   UNL A   1      41.137  29.989  29.229  1.00  0.00     0.074 A 
ATOM     34  C   UNL A   1      40.575  27.698  28.507  1.00  0.00     0.049 A 
ATOM     35  N   UNL A   1      42.442  29.984  29.124  1.00  0.00    -0.248 NA
ATOM     36  C   UNL A   1      40.597  31.206  29.861  1.00  0.00     0.031 C 
ATOM     37  C   UNL A   1      39.737  26.548  28.158  1.00  0.00     0.029 A 
ATOM     38  N   UNL A   1      41.852  27.187  28.480  1.00  0.00    -0.354 N 
ATOM     39  C   UNL A   1      42.870  31.219  29.606  1.00  0.00     0.074 A 
ATOM     40  C   UNL A   1      41.685  31.949  30.001  1.00  0.00     0.031 C 
ATOM     41  C   UNL A   1      40.510  25.464  28.006  1.00  0.00     0.029 A 
ATOM     42  C   UNL A   1      41.906  25.864  28.105  1.00  0.00     0.049 A 
ATOM     43  H   UNL A   1      42.650  27.716  28.707  1.00  0.00     0.167 HD
ATOM     44  C   UNL A   1      44.134  31.699  29.707  1.00  0.00     0.031 A 
ATOM     45  C   UNL A   1      42.950  25.069  27.800  1.00  0.00     0.031 A 
ATOM     46  C   UNL A   1      45.311  30.944  29.359  1.00  0.00     0.049 A 
ATOM     47  C   UNL A   1      44.334  25.648  27.828  1.00  0.00     0.074 A 
ATOM     48  C   UNL A   1      46.637  31.339  29.415  1.00  0.00     0.029 A 
ATOM     49  N   UNL A   1      45.306  29.629  28.916  1.00  0.00    -0.354 N 
ATOM     50  N   UNL A   1      44.717  26.852  28.178  1.00  0.00    -0.248 NA
ATOM     51  C   UNL A   1      45.425  24.765  27.396  1.00  0.00     0.031 C 
ATOM     52  C   UNL A   1      47.429  30.282  28.953  1.00  0.00     0.029 A 
ATOM     53  C   UNL A   1      46.603  29.207  28.671  1.00  0.00     0.049 A 
ATOM     54  H   UNL A   1      44.500  29.078  28.793  1.00  0.00     0.167 HD
ATOM     55  C   UNL A   1      46.098  26.869  28.016  1.00  0.00     0.074 A 
ATOM     56  C   UNL A   1      46.482  25.545  27.569  1.00  0.00     0.031 C 
ATOM     57  C   UNL A   1      46.967  27.892  28.209  1.00  0.00     0.031 A 
BRANCH  44  58
ATOM     58  C   UNL A   1      44.318  33.125  30.168  1.00  0.00    -0.014 A 
ATOM     59  C   UNL A   1      44.294  34.205  29.268  1.00  0.00     0.010 A 
ATOM     60  C   UNL A   1      44.455  33.391  31.545  1.00  0.00     0.010 A 
ATOM     61  C   UNL A   1      44.434  35.518  29.732  1.00  0.00     0.020 A 
ATOM     62  C   UNL A   1      44.565  34.703  32.015  1.00  0.00     0.020 A 
ATOM     63  C   UNL A   1      44.566  35.759  31.103  1.00  0.00     0.054 A 
BRANCH  63  64
ATOM     64  S   UNL A   1      44.710  37.475  31.676  1.00  0.00     0.124 S 
ATOM     65  O   UNL A   1      43.856  37.472  32.860  1.00  0.00    -0.237 OA
ATOM     66  O   UNL A   1      46.142  37.605  31.933  1.00  0.00    -0.237 OA
ATOM     67  O   UNL A   1      44.208  38.261  30.551  1.00  0.00    -0.744 OA
ENDBRANCH  63  64
ENDBRANCH  44  58
BRANCH  45  68
ATOM     68  C   UNL A   1      42.711  23.663  27.367  1.00  0.00    -0.014 A 
ATOM     69  C   UNL A   1      42.876  23.292  26.023  1.00  0.00     0.010 A 
ATOM     70  C   UNL A   1      42.344  22.678  28.307  1.00  0.00     0.010 A 
ATOM     71  C   UNL A   1      42.678  21.967  25.625  1.00  0.00     0.020 A 
ATOM     72  C   UNL A   1      42.183  21.346  27.919  1.00  0.00     0.020 A 
ATOM     73  C   UNL A   1      42.343  21.000  26.577  1.00  0.00     0.054 A 
BRANCH  73  74
ATOM     74  S   UNL A   1      42.163  19.276  26.046  1.00  0.00     0.124 S 
ATOM     75  O   UNL A   1      42.647  18.546  27.213  1.00  0.00    -0.237 OA
ATOM     76  O   UNL A   1      40.729  19.176  25.785  1.00  0.00    -0.237 OA
ATOM     77  O   UNL A   1      43.010  19.191  24.858  1.00  0.00    -0.744 OA
ENDBRANCH  73  74
ENDBRANCH  45  68
BRANCH  57  78
ATOM     78  C   UNL A   1      48.423  27.605  27.954  1.00  0.00    -0.014 A 
ATOM     79  C   UNL A   1      49.029  27.957  26.735  1.00  0.00     0.010 A 
ATOM     80  C   UNL A   1      49.199  26.988  28.952  1.00  0.00     0.010 A 
ATOM     81  C   UNL A   1      50.371  27.650  26.499  1.00  0.00     0.020 A 
ATOM     82  C   UNL A   1      50.550  26.710  28.732  1.00  0.00     0.020 A 
ATOM     83  C   UNL A   1      51.121  27.024  27.498  1.00  0.00     0.054 A 
BRANCH  83  84
ATOM     84  S   UNL A   1      52.862  26.642  27.165  1.00  0.00     0.124 S 
ATOM     85  O   UNL A   1      52.815  25.203  26.920  1.00  0.00    -0.237 OA
ATOM     86  O   UNL A   1      53.154  27.470  25.998  1.00  0.00    -0.237 OA
ATOM     87  O   UNL A   1      53.547  27.042  28.393  1.00  0.00    -0.744 OA
ENDBRANCH  83  84
ENDBRANCH  57  78
ENDBRANCH  31  32
ENDBRANCH  24  26
ENDBRANCH  23  24
ENDBRANCH   1  23
TORSDOF 15
ENDMDL
