MODEL 1
REMARK VINA RESULT:      -9.5      0.000      0.000
REMARK SMILES C#CCN(CC(=O)OCCOC(=O)c1ccc(-c2c3nc(c(-c4ccc(S(=O)(=O)[O-])cc4)c4ccc([nH]4)c(-c4ccc(S(=O)(=O)[O-])cc4)c4nc(c(-c5ccc(S(=O)(=O)[O-])cc5)c5ccc2[nH]5)C=C4)C=C3)cc1)C(=O)CCOc1ccc(C)cc1
REMARK SMILES IDX 8 1 6 2 7 3 5 4 4 5 3 6 2 7 1 8 74 9 75 10 76 11 77 12 78 13
REMARK SMILES IDX 79 14 80 15 85 16 81 17 84 18 82 19 83 20 9 21 10 22 11 23
REMARK SMILES IDX 12 24 13 25 14 26 15 27 73 28 16 29 72 30 17 31 18 32 19 33
REMARK SMILES IDX 66 34 20 35 71 36 65 37 67 38 21 39 70 40 64 41 63 42 22 44
REMARK SMILES IDX 52 45 33 46 51 47 34 48 37 49 50 50 68 51 35 52 36 53 49 55
REMARK SMILES IDX 69 56 38 57 23 58 24 59 32 60 25 61 31 62 26 63 27 64 28 65
REMARK SMILES IDX 29 66 30 67 53 68 54 69 62 70 55 71 61 72 56 73 57 74 58 75
REMARK SMILES IDX 59 76 60 77 39 78 40 79 48 80 41 81 47 82 42 83 43 84 44 85
REMARK SMILES IDX 45 86 46 87
REMARK H PARENT 67 43 37 54
REMARK Flexibility Score: inf
ROOT
ATOM      1  O   UNL A   1      35.611  22.325  25.950  1.00  0.00    -0.461 OA
ENDROOT
BRANCH   1   2
ATOM      2  C   UNL A   1      34.474  22.373  26.695  1.00  0.00     0.325 C 
ATOM      3  O   UNL A   1      34.397  22.903  27.801  1.00  0.00    -0.250 OA
BRANCH   2   4
ATOM      4  C   UNL A   1      33.242  21.756  26.032  1.00  0.00     0.243 C 
BRANCH   4   5
ATOM      5  N   UNL A   1      32.238  22.599  25.372  1.00  0.00    -0.320 N 
BRANCH   5   6
ATOM      6  C   UNL A   1      32.359  22.816  23.931  1.00  0.00     0.210 C 
BRANCH   6   7
ATOM      7  C   UNL A   1      32.278  21.462  23.245  1.00  0.00    -0.085 C 
ATOM      8  C   UNL A   1      32.209  20.300  22.657  1.00  0.00     0.006 C 
ENDBRANCH   6   7
ENDBRANCH   5   6
BRANCH   5   9
ATOM      9  C   UNL A   1      31.173  23.218  26.019  1.00  0.00     0.227 C 
ATOM     10  O   UNL A   1      30.174  22.593  26.384  1.00  0.00    -0.275 OA
BRANCH   9  11
ATOM     11  C   UNL A   1      31.296  24.681  26.370  1.00  0.00     0.141 C 
BRANCH  11  12
ATOM     12  C   UNL A   1      32.535  25.365  25.780  1.00  0.00     0.239 C 
BRANCH  12  13
ATOM     13  O   UNL A   1      32.299  26.732  25.396  1.00  0.00    -0.493 OA
BRANCH  13  14
ATOM     14  C   UNL A   1      32.823  27.757  26.132  1.00  0.00     0.119 A 
ATOM     15  C   UNL A   1      31.905  28.695  26.610  1.00  0.00     0.046 A 
ATOM     16  C   UNL A   1      34.169  27.970  26.386  1.00  0.00     0.046 A 
ATOM     17  C   UNL A   1      32.341  29.889  27.200  1.00  0.00     0.007 A 
ATOM     18  C   UNL A   1      34.615  29.175  26.941  1.00  0.00     0.007 A 
ATOM     19  C   UNL A   1      33.706  30.166  27.309  1.00  0.00    -0.051 A 
ATOM     20  C   UNL A   1      34.203  31.479  27.836  1.00  0.00     0.044 C 
ENDBRANCH  13  14
ENDBRANCH  12  13
ENDBRANCH  11  12
ENDBRANCH   9  11
ENDBRANCH   5   9
ENDBRANCH   4   5
ENDBRANCH   2   4
ENDBRANCH   1   2
BRANCH   1  21
ATOM     21  C   UNL A   1      36.541  23.404  26.192  1.00  0.00     0.274 C 
BRANCH  21  22
ATOM     22  C   UNL A   1      37.996  22.943  26.123  1.00  0.00     0.275 C 
BRANCH  22  23
ATOM     23  O   UNL A   1      38.872  24.046  25.830  1.00  0.00    -0.458 OA
BRANCH  23  24
ATOM     24  C   UNL A   1      39.874  24.212  26.717  1.00  0.00     0.338 C 
ATOM     25  O   UNL A   1      40.829  23.457  26.898  1.00  0.00    -0.246 OA
BRANCH  24  26
ATOM     26  C   UNL A   1      39.736  25.466  27.473  1.00  0.00     0.060 A 
ATOM     27  C   UNL A   1      40.451  26.602  27.098  1.00  0.00     0.016 A 
ATOM     28  C   UNL A   1      39.067  25.432  28.698  1.00  0.00     0.016 A 
ATOM     29  C   UNL A   1      40.640  27.626  28.029  1.00  0.00     0.010 A 
ATOM     30  C   UNL A   1      39.141  26.527  29.562  1.00  0.00     0.010 A 
ATOM     31  C   UNL A   1      39.971  27.619  29.266  1.00  0.00    -0.014 A 
BRANCH  31  32
ATOM     32  C   UNL A   1      40.115  28.739  30.243  1.00  0.00     0.031 A 
ATOM     33  C   UNL A   1      41.150  28.689  31.346  1.00  0.00     0.074 A 
ATOM     34  C   UNL A   1      39.275  29.792  30.187  1.00  0.00     0.049 A 
ATOM     35  N   UNL A   1      41.239  29.425  32.427  1.00  0.00    -0.248 NA
ATOM     36  C   UNL A   1      42.205  27.668  31.232  1.00  0.00     0.031 C 
ATOM     37  C   UNL A   1      38.241  30.006  29.172  1.00  0.00     0.029 A 
ATOM     38  N   UNL A   1      39.146  30.879  31.018  1.00  0.00    -0.354 N 
ATOM     39  C   UNL A   1      42.312  28.915  33.153  1.00  0.00     0.074 A 
ATOM     40  C   UNL A   1      42.850  27.813  32.383  1.00  0.00     0.031 C 
ATOM     41  C   UNL A   1      37.609  31.160  29.419  1.00  0.00     0.029 A 
ATOM     42  C   UNL A   1      38.111  31.713  30.669  1.00  0.00     0.049 A 
ATOM     43  H   UNL A   1      39.736  31.044  31.789  1.00  0.00     0.167 HD
ATOM     44  C   UNL A   1      42.794  29.318  34.355  1.00  0.00     0.031 A 
ATOM     45  C   UNL A   1      37.565  32.767  31.303  1.00  0.00     0.031 A 
ATOM     46  C   UNL A   1      42.290  30.448  35.097  1.00  0.00     0.049 A 
ATOM     47  C   UNL A   1      38.094  33.184  32.639  1.00  0.00     0.074 A 
ATOM     48  C   UNL A   1      42.746  30.957  36.302  1.00  0.00     0.029 A 
ATOM     49  N   UNL A   1      41.232  31.250  34.702  1.00  0.00    -0.354 N 
ATOM     50  N   UNL A   1      39.071  32.656  33.333  1.00  0.00    -0.248 NA
ATOM     51  C   UNL A   1      37.433  34.324  33.285  1.00  0.00     0.031 C 
ATOM     52  C   UNL A   1      41.934  32.040  36.657  1.00  0.00     0.029 A 
ATOM     53  C   UNL A   1      41.005  32.235  35.649  1.00  0.00     0.049 A 
ATOM     54  H   UNL A   1      40.717  31.136  33.871  1.00  0.00     0.167 HD
ATOM     55  C   UNL A   1      39.145  33.401  34.503  1.00  0.00     0.074 A 
ATOM     56  C   UNL A   1      38.127  34.429  34.411  1.00  0.00     0.031 C 
ATOM     57  C   UNL A   1      39.979  33.242  35.558  1.00  0.00     0.031 A 
BRANCH  44  58
ATOM     58  C   UNL A   1      43.897  28.506  34.983  1.00  0.00    -0.014 A 
ATOM     59  C   UNL A   1      45.252  28.823  34.790  1.00  0.00     0.010 A 
ATOM     60  C   UNL A   1      43.561  27.441  35.842  1.00  0.00     0.010 A 
ATOM     61  C   UNL A   1      46.251  28.071  35.418  1.00  0.00     0.020 A 
ATOM     62  C   UNL A   1      44.554  26.700  36.488  1.00  0.00     0.020 A 
ATOM     63  C   UNL A   1      45.896  27.010  36.260  1.00  0.00     0.054 A 
BRANCH  63  64
ATOM     64  S   UNL A   1      47.207  26.066  37.086  1.00  0.00     0.124 S 
ATOM     65  O   UNL A   1      48.397  26.842  36.746  1.00  0.00    -0.237 OA
ATOM     66  O   UNL A   1      46.805  26.114  38.489  1.00  0.00    -0.237 OA
ATOM     67  O   UNL A   1      47.127  24.746  36.465  1.00  0.00    -0.744 OA
ENDBRANCH  63  64
ENDBRANCH  44  58
BRANCH  45  68
ATOM     68  C   UNL A   1      36.394  33.447  30.688  1.00  0.00    -0.014 A 
ATOM     69  C   UNL A   1      35.177  33.536  31.381  1.00  0.00     0.010 A 
ATOM     70  C   UNL A   1      36.526  34.084  29.439  1.00  0.00     0.010 A 
ATOM     71  C   UNL A   1      34.115  34.265  30.844  1.00  0.00     0.020 A 
ATOM     72  C   UNL A   1      35.476  34.837  28.913  1.00  0.00     0.020 A 
ATOM     73  C   UNL A   1      34.273  34.920  29.617  1.00  0.00     0.054 A 
BRANCH  73  74
ATOM     74  S   UNL A   1      32.924  35.956  28.989  1.00  0.00     0.124 S 
ATOM     75  O   UNL A   1      32.231  35.040  28.090  1.00  0.00    -0.237 OA
ATOM     76  O   UNL A   1      32.202  36.315  30.208  1.00  0.00    -0.237 OA
ATOM     77  O   UNL A   1      33.621  37.065  28.343  1.00  0.00    -0.744 OA
ENDBRANCH  73  74
ENDBRANCH  45  68
BRANCH  57  78
ATOM     78  C   UNL A   1      39.833  34.215  36.695  1.00  0.00    -0.014 A 
ATOM     79  C   UNL A   1      40.455  35.476  36.651  1.00  0.00     0.010 A 
ATOM     80  C   UNL A   1      39.048  33.872  37.810  1.00  0.00     0.010 A 
ATOM     81  C   UNL A   1      40.319  36.366  37.719  1.00  0.00     0.020 A 
ATOM     82  C   UNL A   1      38.894  34.768  38.871  1.00  0.00     0.020 A 
ATOM     83  C   UNL A   1      39.543  36.003  38.825  1.00  0.00     0.054 A 
BRANCH  83  84
ATOM     84  S   UNL A   1      39.357  37.185  40.190  1.00  0.00     0.124 S 
ATOM     85  O   UNL A   1      38.604  36.404  41.166  1.00  0.00    -0.237 OA
ATOM     86  O   UNL A   1      40.741  37.481  40.553  1.00  0.00    -0.237 OA
ATOM     87  O   UNL A   1      38.628  38.298  39.585  1.00  0.00    -0.744 OA
ENDBRANCH  83  84
ENDBRANCH  57  78
ENDBRANCH  31  32
ENDBRANCH  24  26
ENDBRANCH  23  24
ENDBRANCH  22  23
ENDBRANCH  21  22
ENDBRANCH   1  21
TORSDOF 22
ENDMDL
MODEL 2
REMARK VINA RESULT:      -9.5      6.485     11.941
REMARK SMILES C#CCN(CC(=O)OCCOC(=O)c1ccc(-c2c3nc(c(-c4ccc(S(=O)(=O)[O-])cc4)c4ccc([nH]4)c(-c4ccc(S(=O)(=O)[O-])cc4)c4nc(c(-c5ccc(S(=O)(=O)[O-])cc5)c5ccc2[nH]5)C=C4)C=C3)cc1)C(=O)CCOc1ccc(C)cc1
REMARK SMILES IDX 8 1 6 2 7 3 5 4 4 5 3 6 2 7 1 8 74 9 75 10 76 11 77 12 78 13
REMARK SMILES IDX 79 14 80 15 85 16 81 17 84 18 82 19 83 20 9 21 10 22 11 23
REMARK SMILES IDX 12 24 13 25 14 26 15 27 73 28 16 29 72 30 17 31 18 32 19 33
REMARK SMILES IDX 66 34 20 35 71 36 65 37 67 38 21 39 70 40 64 41 63 42 22 44
REMARK SMILES IDX 52 45 33 46 51 47 34 48 37 49 50 50 68 51 35 52 36 53 49 55
REMARK SMILES IDX 69 56 38 57 23 58 24 59 32 60 25 61 31 62 26 63 27 64 28 65
REMARK SMILES IDX 29 66 30 67 53 68 54 69 62 70 55 71 61 72 56 73 57 74 58 75
REMARK SMILES IDX 59 76 60 77 39 78 40 79 48 80 41 81 47 82 42 83 43 84 44 85
REMARK SMILES IDX 45 86 46 87
REMARK H PARENT 67 43 37 54
REMARK Flexibility Score: inf
ROOT
ATOM      1  O   UNL A   1      32.538  28.192  27.600  1.00  0.00    -0.461 OA
ENDROOT
BRANCH   1   2
ATOM      2  C   UNL A   1      31.846  27.460  26.686  1.00  0.00     0.325 C 
ATOM      3  O   UNL A   1      31.438  26.317  26.885  1.00  0.00    -0.250 OA
BRANCH   2   4
ATOM      4  C   UNL A   1      31.547  28.183  25.372  1.00  0.00     0.243 C 
BRANCH   4   5
ATOM      5  N   UNL A   1      31.442  27.443  24.109  1.00  0.00    -0.320 N 
BRANCH   5   6
ATOM      6  C   UNL A   1      30.150  27.428  23.424  1.00  0.00     0.210 C 
BRANCH   6   7
ATOM      7  C   UNL A   1      30.015  28.730  22.651  1.00  0.00    -0.085 C 
ATOM      8  C   UNL A   1      29.900  29.847  21.988  1.00  0.00     0.006 C 
ENDBRANCH   6   7
ENDBRANCH   5   6
BRANCH   5   9
ATOM      9  C   UNL A   1      32.485  26.743  23.511  1.00  0.00     0.227 C 
ATOM     10  O   UNL A   1      33.664  27.081  23.647  1.00  0.00    -0.275 OA
BRANCH   9  11
ATOM     11  C   UNL A   1      32.163  25.475  22.758  1.00  0.00     0.141 C 
BRANCH  11  12
ATOM     12  C   UNL A   1      32.196  24.209  23.622  1.00  0.00     0.239 C 
BRANCH  12  13
ATOM     13  O   UNL A   1      32.984  23.150  23.046  1.00  0.00    -0.493 OA
BRANCH  13  14
ATOM     14  C   UNL A   1      34.088  22.678  23.696  1.00  0.00     0.119 A 
ATOM     15  C   UNL A   1      35.284  23.352  23.434  1.00  0.00     0.046 A 
ATOM     16  C   UNL A   1      34.130  21.570  24.529  1.00  0.00     0.046 A 
ATOM     17  C   UNL A   1      36.509  22.839  23.881  1.00  0.00     0.007 A 
ATOM     18  C   UNL A   1      35.351  21.031  24.949  1.00  0.00     0.007 A 
ATOM     19  C   UNL A   1      36.556  21.634  24.586  1.00  0.00    -0.051 A 
ATOM     20  C   UNL A   1      37.857  21.004  24.984  1.00  0.00     0.044 C 
ENDBRANCH  13  14
ENDBRANCH  12  13
ENDBRANCH  11  12
ENDBRANCH   9  11
ENDBRANCH   5   9
ENDBRANCH   4   5
ENDBRANCH   2   4
ENDBRANCH   1   2
BRANCH   1  21
ATOM     21  C   UNL A   1      33.023  29.464  27.116  1.00  0.00     0.274 C 
BRANCH  21  22
ATOM     22  C   UNL A   1      34.531  29.455  26.869  1.00  0.00     0.275 C 
BRANCH  22  23
ATOM     23  O   UNL A   1      35.245  29.079  28.059  1.00  0.00    -0.458 OA
BRANCH  23  24
ATOM     24  C   UNL A   1      35.835  30.106  28.703  1.00  0.00     0.338 C 
ATOM     25  O   UNL A   1      35.270  31.013  29.316  1.00  0.00    -0.246 OA
BRANCH  24  26
ATOM     26  C   UNL A   1      37.302  30.031  28.631  1.00  0.00     0.060 A 
ATOM     27  C   UNL A   1      37.946  29.948  27.397  1.00  0.00     0.016 A 
ATOM     28  C   UNL A   1      38.015  29.805  29.809  1.00  0.00     0.016 A 
ATOM     29  C   UNL A   1      39.257  29.467  27.344  1.00  0.00     0.010 A 
ATOM     30  C   UNL A   1      39.369  29.468  29.751  1.00  0.00     0.010 A 
ATOM     31  C   UNL A   1      39.998  29.240  28.517  1.00  0.00    -0.014 A 
BRANCH  31  32
ATOM     32  C   UNL A   1      41.420  28.785  28.473  1.00  0.00     0.031 A 
ATOM     33  C   UNL A   1      42.561  29.767  28.628  1.00  0.00     0.074 A 
ATOM     34  C   UNL A   1      41.705  27.489  28.232  1.00  0.00     0.049 A 
ATOM     35  N   UNL A   1      43.832  29.603  28.352  1.00  0.00    -0.248 NA
ATOM     36  C   UNL A   1      42.230  31.108  29.137  1.00  0.00     0.031 C 
ATOM     37  C   UNL A   1      40.722  26.413  28.086  1.00  0.00     0.029 A 
ATOM     38  N   UNL A   1      42.911  26.857  28.050  1.00  0.00    -0.354 N 
ATOM     39  C   UNL A   1      44.438  30.835  28.585  1.00  0.00     0.074 A 
ATOM     40  C   UNL A   1      43.397  31.733  29.038  1.00  0.00     0.031 C 
ATOM     41  C   UNL A   1      41.361  25.256  27.870  1.00  0.00     0.029 A 
ATOM     42  C   UNL A   1      42.787  25.522  27.749  1.00  0.00     0.049 A 
ATOM     43  H   UNL A   1      43.779  27.315  28.127  1.00  0.00     0.167 HD
ATOM     44  C   UNL A   1      45.738  31.187  28.424  1.00  0.00     0.031 A 
ATOM     45  C   UNL A   1      43.695  24.612  27.349  1.00  0.00     0.031 A 
ATOM     46  C   UNL A   1      46.784  30.278  28.023  1.00  0.00     0.049 A 
ATOM     47  C   UNL A   1      45.120  25.024  27.154  1.00  0.00     0.074 A 
ATOM     48  C   UNL A   1      48.137  30.537  27.876  1.00  0.00     0.029 A 
ATOM     49  N   UNL A   1      46.600  28.940  27.718  1.00  0.00    -0.354 N 
ATOM     50  N   UNL A   1      45.663  26.204  27.327  1.00  0.00    -0.248 NA
ATOM     51  C   UNL A   1      46.050  23.988  26.690  1.00  0.00     0.031 C 
ATOM     52  C   UNL A   1      48.764  29.364  27.440  1.00  0.00     0.029 A 
ATOM     53  C   UNL A   1      47.810  28.365  27.362  1.00  0.00     0.049 A 
ATOM     54  H   UNL A   1      45.737  28.467  27.749  1.00  0.00     0.167 HD
ATOM     55  C   UNL A   1      47.002  26.053  26.992  1.00  0.00     0.074 A 
ATOM     56  C   UNL A   1      47.190  24.662  26.628  1.00  0.00     0.031 C 
ATOM     57  C   UNL A   1      47.984  26.985  26.984  1.00  0.00     0.031 A 
BRANCH  44  58
ATOM     58  C   UNL A   1      46.110  32.633  28.631  1.00  0.00    -0.014 A 
ATOM     59  C   UNL A   1      45.961  33.589  27.612  1.00  0.00     0.010 A 
ATOM     60  C   UNL A   1      46.555  33.052  29.900  1.00  0.00     0.010 A 
ATOM     61  C   UNL A   1      46.280  34.930  27.849  1.00  0.00     0.020 A 
ATOM     62  C   UNL A   1      46.854  34.394  30.147  1.00  0.00     0.020 A 
ATOM     63  C   UNL A   1      46.730  35.324  29.114  1.00  0.00     0.054 A 
BRANCH  63  64
ATOM     64  S   UNL A   1      47.113  37.074  29.407  1.00  0.00     0.124 S 
ATOM     65  O   UNL A   1      47.247  37.113  30.861  1.00  0.00    -0.237 OA
ATOM     66  O   UNL A   1      48.352  37.264  28.658  1.00  0.00    -0.237 OA
ATOM     67  O   UNL A   1      45.951  37.777  28.870  1.00  0.00    -0.744 OA
ENDBRANCH  63  64
ENDBRANCH  44  58
BRANCH  45  68
ATOM     68  C   UNL A   1      43.238  23.232  27.039  1.00  0.00    -0.014 A 
ATOM     69  C   UNL A   1      43.207  22.774  25.712  1.00  0.00     0.010 A 
ATOM     70  C   UNL A   1      42.919  22.344  28.084  1.00  0.00     0.010 A 
ATOM     71  C   UNL A   1      42.878  21.445  25.436  1.00  0.00     0.020 A 
ATOM     72  C   UNL A   1      42.618  21.009  27.813  1.00  0.00     0.020 A 
ATOM     73  C   UNL A   1      42.595  20.568  26.488  1.00  0.00     0.054 A 
BRANCH  73  74
ATOM     74  S   UNL A   1      42.283  18.820  26.120  1.00  0.00     0.124 S 
ATOM     75  O   UNL A   1      42.549  18.187  27.408  1.00  0.00    -0.237 OA
ATOM     76  O   UNL A   1      40.885  18.827  25.695  1.00  0.00    -0.237 OA
ATOM     77  O   UNL A   1      43.243  18.520  25.061  1.00  0.00    -0.744 OA
ENDBRANCH  73  74
ENDBRANCH  45  68
BRANCH  57  78
ATOM     78  C   UNL A   1      49.358  26.527  26.581  1.00  0.00    -0.014 A 
ATOM     79  C   UNL A   1      50.241  25.972  27.526  1.00  0.00     0.010 A 
ATOM     80  C   UNL A   1      49.762  26.631  25.238  1.00  0.00     0.010 A 
ATOM     81  C   UNL A   1      51.517  25.559  27.138  1.00  0.00     0.020 A 
ATOM     82  C   UNL A   1      51.031  26.199  24.844  1.00  0.00     0.020 A 
ATOM     83  C   UNL A   1      51.906  25.680  25.800  1.00  0.00     0.054 A 
BRANCH  83  84
ATOM     84  S   UNL A   1      53.559  25.112  25.313  1.00  0.00     0.124 S 
ATOM     85  O   UNL A   1      53.404  23.661  25.349  1.00  0.00    -0.237 OA
ATOM     86  O   UNL A   1      53.724  25.695  23.984  1.00  0.00    -0.237 OA
ATOM     87  O   UNL A   1      54.433  25.671  26.343  1.00  0.00    -0.744 OA
ENDBRANCH  83  84
ENDBRANCH  57  78
ENDBRANCH  31  32
ENDBRANCH  24  26
ENDBRANCH  23  24
ENDBRANCH  22  23
ENDBRANCH  21  22
ENDBRANCH   1  21
TORSDOF 22
ENDMDL
MODEL 3
REMARK VINA RESULT:      -8.9      5.040      6.135
REMARK SMILES C#CCN(CC(=O)OCCOC(=O)c1ccc(-c2c3nc(c(-c4ccc(S(=O)(=O)[O-])cc4)c4ccc([nH]4)c(-c4ccc(S(=O)(=O)[O-])cc4)c4nc(c(-c5ccc(S(=O)(=O)[O-])cc5)c5ccc2[nH]5)C=C4)C=C3)cc1)C(=O)CCOc1ccc(C)cc1
REMARK SMILES IDX 8 1 6 2 7 3 5 4 4 5 3 6 2 7 1 8 74 9 75 10 76 11 77 12 78 13
REMARK SMILES IDX 79 14 80 15 85 16 81 17 84 18 82 19 83 20 9 21 10 22 11 23
REMARK SMILES IDX 12 24 13 25 14 26 15 27 73 28 16 29 72 30 17 31 18 32 19 33
REMARK SMILES IDX 66 34 20 35 71 36 65 37 67 38 21 39 70 40 64 41 63 42 22 44
REMARK SMILES IDX 52 45 33 46 51 47 34 48 37 49 50 50 68 51 35 52 36 53 49 55
REMARK SMILES IDX 69 56 38 57 23 58 24 59 32 60 25 61 31 62 26 63 27 64 28 65
REMARK SMILES IDX 29 66 30 67 53 68 54 69 62 70 55 71 61 72 56 73 57 74 58 75
REMARK SMILES IDX 59 76 60 77 39 78 40 79 48 80 41 81 47 82 42 83 43 84 44 85
REMARK SMILES IDX 45 86 46 87
REMARK H PARENT 67 43 37 54
REMARK Flexibility Score: inf
ROOT
ATOM      1  O   UNL A   1      35.150  21.601  24.810  1.00  0.00    -0.461 OA
ENDROOT
BRANCH   1   2
ATOM      2  C   UNL A   1      33.939  21.265  25.331  1.00  0.00     0.325 C 
ATOM      3  O   UNL A   1      33.765  20.906  26.493  1.00  0.00    -0.250 OA
BRANCH   2   4
ATOM      4  C   UNL A   1      32.759  21.418  24.370  1.00  0.00     0.243 C 
BRANCH   4   5
ATOM      5  N   UNL A   1      31.777  22.495  24.545  1.00  0.00    -0.320 N 
BRANCH   5   6
ATOM      6  C   UNL A   1      31.608  23.457  23.456  1.00  0.00     0.210 C 
BRANCH   6   7
ATOM      7  C   UNL A   1      32.953  24.118  23.203  1.00  0.00    -0.085 C 
ATOM      8  C   UNL A   1      34.107  24.685  22.986  1.00  0.00     0.006 C 
ENDBRANCH   6   7
ENDBRANCH   5   6
BRANCH   5   9
ATOM      9  C   UNL A   1      30.993  22.678  25.680  1.00  0.00     0.227 C 
ATOM     10  O   UNL A   1      30.146  21.853  26.030  1.00  0.00    -0.275 OA
BRANCH   9  11
ATOM     11  C   UNL A   1      31.265  23.875  26.558  1.00  0.00     0.141 C 
BRANCH  11  12
ATOM     12  C   UNL A   1      30.290  25.039  26.349  1.00  0.00     0.239 C 
BRANCH  12  13
ATOM     13  O   UNL A   1      30.833  26.312  26.746  1.00  0.00    -0.493 OA
BRANCH  13  14
ATOM     14  C   UNL A   1      31.610  27.031  25.883  1.00  0.00     0.119 A 
ATOM     15  C   UNL A   1      31.096  27.198  24.595  1.00  0.00     0.046 A 
ATOM     16  C   UNL A   1      32.869  27.545  26.157  1.00  0.00     0.046 A 
ATOM     17  C   UNL A   1      31.886  27.739  23.571  1.00  0.00     0.007 A 
ATOM     18  C   UNL A   1      33.678  28.052  25.134  1.00  0.00     0.007 A 
ATOM     19  C   UNL A   1      33.210  28.108  23.821  1.00  0.00    -0.051 A 
ATOM     20  C   UNL A   1      34.113  28.589  22.724  1.00  0.00     0.044 C 
ENDBRANCH  13  14
ENDBRANCH  12  13
ENDBRANCH  11  12
ENDBRANCH   9  11
ENDBRANCH   5   9
ENDBRANCH   4   5
ENDBRANCH   2   4
ENDBRANCH   1   2
BRANCH   1  21
ATOM     21  C   UNL A   1      36.206  21.762  25.784  1.00  0.00     0.274 C 
BRANCH  21  22
ATOM     22  C   UNL A   1      37.504  21.083  25.350  1.00  0.00     0.275 C 
BRANCH  22  23
ATOM     23  O   UNL A   1      38.602  22.011  25.370  1.00  0.00    -0.458 OA
BRANCH  23  24
ATOM     24  C   UNL A   1      39.408  21.898  26.446  1.00  0.00     0.338 C 
ATOM     25  O   UNL A   1      39.845  20.855  26.931  1.00  0.00    -0.246 OA
BRANCH  24  26
ATOM     26  C   UNL A   1      39.765  23.211  27.005  1.00  0.00     0.060 A 
ATOM     27  C   UNL A   1      39.141  24.369  26.545  1.00  0.00     0.016 A 
ATOM     28  C   UNL A   1      40.891  23.300  27.823  1.00  0.00     0.016 A 
ATOM     29  C   UNL A   1      39.756  25.605  26.761  1.00  0.00     0.010 A 
ATOM     30  C   UNL A   1      41.413  24.552  28.157  1.00  0.00     0.010 A 
ATOM     31  C   UNL A   1      40.887  25.722  27.588  1.00  0.00    -0.014 A 
BRANCH  31  32
ATOM     32  C   UNL A   1      41.515  27.046  27.878  1.00  0.00     0.031 A 
ATOM     33  C   UNL A   1      42.992  27.279  27.647  1.00  0.00     0.074 A 
ATOM     34  C   UNL A   1      40.775  28.039  28.410  1.00  0.00     0.049 A 
ATOM     35  N   UNL A   1      43.751  28.254  28.085  1.00  0.00    -0.248 NA
ATOM     36  C   UNL A   1      43.713  26.281  26.840  1.00  0.00     0.031 C 
ATOM     37  C   UNL A   1      39.335  27.985  28.669  1.00  0.00     0.029 A 
ATOM     38  N   UNL A   1      41.138  29.290  28.847  1.00  0.00    -0.354 N 
ATOM     39  C   UNL A   1      45.045  27.952  27.670  1.00  0.00     0.074 A 
ATOM     40  C   UNL A   1      44.966  26.708  26.932  1.00  0.00     0.031 C 
ATOM     41  C   UNL A   1      38.933  29.153  29.186  1.00  0.00     0.029 A 
ATOM     42  C   UNL A   1      40.099  29.997  29.403  1.00  0.00     0.049 A 
ATOM     43  H   UNL A   1      42.053  29.646  28.771  1.00  0.00     0.167 HD
ATOM     44  C   UNL A   1      46.193  28.639  27.893  1.00  0.00     0.031 A 
ATOM     45  C   UNL A   1      40.075  31.162  30.076  1.00  0.00     0.031 A 
ATOM     46  C   UNL A   1      46.263  29.904  28.583  1.00  0.00     0.049 A 
ATOM     47  C   UNL A   1      41.354  31.895  30.334  1.00  0.00     0.074 A 
ATOM     48  C   UNL A   1      47.376  30.694  28.818  1.00  0.00     0.029 A 
ATOM     49  N   UNL A   1      45.181  30.568  29.136  1.00  0.00    -0.354 N 
ATOM     50  N   UNL A   1      42.572  31.566  29.981  1.00  0.00    -0.248 NA
ATOM     51  C   UNL A   1      41.257  33.144  31.099  1.00  0.00     0.031 C 
ATOM     52  C   UNL A   1      46.973  31.816  29.551  1.00  0.00     0.029 A 
ATOM     53  C   UNL A   1      45.602  31.747  29.731  1.00  0.00     0.049 A 
ATOM     54  H   UNL A   1      44.250  30.250  29.111  1.00  0.00     0.167 HD
ATOM     55  C   UNL A   1      43.390  32.570  30.481  1.00  0.00     0.074 A 
ATOM     56  C   UNL A   1      42.525  33.528  31.142  1.00  0.00     0.031 C 
ATOM     57  C   UNL A   1      44.737  32.684  30.402  1.00  0.00     0.031 A 
BRANCH  44  58
ATOM     58  C   UNL A   1      47.488  28.021  27.434  1.00  0.00    -0.014 A 
ATOM     59  C   UNL A   1      48.026  28.286  26.163  1.00  0.00     0.010 A 
ATOM     60  C   UNL A   1      48.215  27.209  28.327  1.00  0.00     0.010 A 
ATOM     61  C   UNL A   1      49.250  27.726  25.782  1.00  0.00     0.020 A 
ATOM     62  C   UNL A   1      49.448  26.664  27.958  1.00  0.00     0.020 A 
ATOM     63  C   UNL A   1      49.951  26.914  26.680  1.00  0.00     0.054 A 
BRANCH  63  64
ATOM     64  S   UNL A   1      51.550  26.219  26.175  1.00  0.00     0.124 S 
ATOM     65  O   UNL A   1      51.550  26.477  24.737  1.00  0.00    -0.237 OA
ATOM     66  O   UNL A   1      52.505  27.005  26.953  1.00  0.00    -0.237 OA
ATOM     67  O   UNL A   1      51.453  24.812  26.555  1.00  0.00    -0.744 OA
ENDBRANCH  63  64
ENDBRANCH  44  58
BRANCH  45  68
ATOM     68  C   UNL A   1      38.779  31.653  30.614  1.00  0.00    -0.014 A 
ATOM     69  C   UNL A   1      38.384  31.332  31.923  1.00  0.00     0.010 A 
ATOM     70  C   UNL A   1      37.979  32.518  29.843  1.00  0.00     0.010 A 
ATOM     71  C   UNL A   1      37.217  31.882  32.458  1.00  0.00     0.020 A 
ATOM     72  C   UNL A   1      36.828  33.090  30.385  1.00  0.00     0.020 A 
ATOM     73  C   UNL A   1      36.451  32.766  31.690  1.00  0.00     0.054 A 
BRANCH  73  74
ATOM     74  S   UNL A   1      35.003  33.559  32.439  1.00  0.00     0.124 S 
ATOM     75  O   UNL A   1      35.448  33.768  33.813  1.00  0.00    -0.237 OA
ATOM     76  O   UNL A   1      34.847  34.769  31.633  1.00  0.00    -0.237 OA
ATOM     77  O   UNL A   1      33.944  32.567  32.264  1.00  0.00    -0.744 OA
ENDBRANCH  73  74
ENDBRANCH  45  68
BRANCH  57  78
ATOM     78  C   UNL A   1      45.359  33.897  31.036  1.00  0.00    -0.014 A 
ATOM     79  C   UNL A   1      45.575  35.071  30.292  1.00  0.00     0.010 A 
ATOM     80  C   UNL A   1      45.710  33.870  32.398  1.00  0.00     0.010 A 
ATOM     81  C   UNL A   1      46.162  36.187  30.892  1.00  0.00     0.020 A 
ATOM     82  C   UNL A   1      46.278  34.992  33.006  1.00  0.00     0.020 A 
ATOM     83  C   UNL A   1      46.515  36.138  32.245  1.00  0.00     0.054 A 
BRANCH  83  84
ATOM     84  S   UNL A   1      47.251  37.608  33.012  1.00  0.00     0.124 S 
ATOM     85  O   UNL A   1      47.879  37.046  34.204  1.00  0.00    -0.237 OA
ATOM     86  O   UNL A   1      48.171  38.085  31.982  1.00  0.00    -0.237 OA
ATOM     87  O   UNL A   1      46.104  38.478  33.262  1.00  0.00    -0.744 OA
ENDBRANCH  83  84
ENDBRANCH  57  78
ENDBRANCH  31  32
ENDBRANCH  24  26
ENDBRANCH  23  24
ENDBRANCH  22  23
ENDBRANCH  21  22
ENDBRANCH   1  21
TORSDOF 22
ENDMDL
