MODEL 1
REMARK VINA RESULT:     -10.6      0.000      0.000
REMARK SMILES CCCc1c(C(=O)OCCOC(=O)c2ccc(-c3c4nc(c(-c5ccc(S(=O)(=O)[O-])cc5)c5ccc([nH]5)c(-c5ccc(S(=O)(=O)[O-])cc5)c5nc(c(-c6ccc(S(=O)(=O)[O-])cc6)c6ccc3[nH]6)C=C5)C=C4)cc2)nnn1-c1ccccc1[N+](=O)[O-]
REMARK SMILES IDX 10 1 9 2 8 3 6 4 7 5 5 6 4 7 76 8 74 9 75 10 3 11 2 12 1 13
REMARK SMILES IDX 77 14 78 15 82 16 79 17 81 18 80 19 83 20 84 21 85 22 11 23
REMARK SMILES IDX 12 24 13 25 14 26 15 27 73 28 16 29 72 30 17 31 18 32 19 33
REMARK SMILES IDX 66 34 20 35 71 36 65 37 67 38 21 39 70 40 64 41 63 42 22 44
REMARK SMILES IDX 52 45 33 46 51 47 34 48 37 49 50 50 68 51 35 52 36 53 49 55
REMARK SMILES IDX 69 56 38 57 23 58 24 59 32 60 25 61 31 62 26 63 27 64 28 65
REMARK SMILES IDX 29 66 30 67 53 68 54 69 62 70 55 71 61 72 56 73 57 74 58 75
REMARK SMILES IDX 59 76 60 77 39 78 40 79 48 80 41 81 47 82 42 83 43 84 44 85
REMARK SMILES IDX 45 86 46 87
REMARK H PARENT 67 43 37 54
REMARK Flexibility Score: inf
ROOT
ATOM      1  C   UNL A   1      41.334  20.515  25.839  1.00  0.00     0.275 C 
ENDROOT
BRANCH   1   2
ATOM      2  C   UNL A   1      42.747  20.976  26.176  1.00  0.00     0.275 C 
BRANCH   2   3
ATOM      3  O   UNL A   1      43.152  22.066  25.331  1.00  0.00    -0.457 OA
BRANCH   3   4
ATOM      4  C   UNL A   1      44.328  21.885  24.663  1.00  0.00     0.360 C 
ATOM      5  O   UNL A   1      44.582  20.882  24.002  1.00  0.00    -0.244 OA
BRANCH   4   6
ATOM      6  C   UNL A   1      45.226  23.029  24.758  1.00  0.00     0.194 A 
ATOM      7  C   UNL A   1      45.284  24.081  25.673  1.00  0.00     0.080 A 
ATOM      8  N   UNL A   1      46.432  24.760  25.278  1.00  0.00    -0.210 N 
ATOM      9  N   UNL A   1      46.181  23.224  23.789  1.00  0.00    -0.122 NA
ATOM     10  N   UNL A   1      46.821  24.347  24.055  1.00  0.00    -0.061 NA
BRANCH   7  11
ATOM     11  C   UNL A   1      44.417  24.462  26.835  1.00  0.00     0.059 C 
BRANCH  11  12
ATOM     12  C   UNL A   1      44.640  23.650  28.118  1.00  0.00     0.003 C 
ATOM     13  C   UNL A   1      44.903  24.487  29.356  1.00  0.00     0.004 C 
ENDBRANCH  11  12
ENDBRANCH   7  11
BRANCH   8  14
ATOM     14  C   UNL A   1      47.235  25.710  25.949  1.00  0.00     0.144 A 
ATOM     15  C   UNL A   1      47.739  25.358  27.213  1.00  0.00     0.036 A 
ATOM     16  C   UNL A   1      47.480  27.001  25.460  1.00  0.00     0.294 A 
ATOM     17  C   UNL A   1      48.536  26.254  27.931  1.00  0.00     0.003 A 
ATOM     18  C   UNL A   1      48.284  27.898  26.182  1.00  0.00     0.088 A 
ATOM     19  C   UNL A   1      48.819  27.516  27.411  1.00  0.00     0.007 A 
BRANCH  16  20
ATOM     20  N   UNL A   1      46.788  27.546  24.297  1.00  0.00     0.065 N 
ATOM     21  O   UNL A   1      45.629  27.950  24.471  1.00  0.00    -0.258 OA
ATOM     22  O   UNL A   1      47.387  27.551  23.216  1.00  0.00    -0.258 OA
ENDBRANCH  16  20
ENDBRANCH   8  14
ENDBRANCH   4   6
ENDBRANCH   3   4
ENDBRANCH   2   3
ENDBRANCH   1   2
BRANCH   1  23
ATOM     23  O   UNL A   1      40.385  20.924  26.824  1.00  0.00    -0.458 OA
BRANCH  23  24
ATOM     24  C   UNL A   1      39.482  21.847  26.418  1.00  0.00     0.338 C 
ATOM     25  O   UNL A   1      38.720  21.765  25.471  1.00  0.00    -0.246 OA
BRANCH  24  26
ATOM     26  C   UNL A   1      39.709  23.094  27.152  1.00  0.00     0.060 A 
ATOM     27  C   UNL A   1      38.963  24.224  26.810  1.00  0.00     0.016 A 
ATOM     28  C   UNL A   1      40.810  23.171  28.017  1.00  0.00     0.016 A 
ATOM     29  C   UNL A   1      39.371  25.458  27.289  1.00  0.00     0.010 A 
ATOM     30  C   UNL A   1      41.225  24.399  28.476  1.00  0.00     0.010 A 
ATOM     31  C   UNL A   1      40.525  25.536  28.079  1.00  0.00    -0.014 A 
BRANCH  31  32
ATOM     32  C   UNL A   1      40.899  26.816  28.651  1.00  0.00     0.031 A 
ATOM     33  C   UNL A   1      42.114  27.385  28.029  1.00  0.00     0.074 A 
ATOM     34  C   UNL A   1      40.122  27.513  29.501  1.00  0.00     0.049 A 
ATOM     35  N   UNL A   1      43.293  27.481  28.545  1.00  0.00    -0.248 NA
ATOM     36  C   UNL A   1      42.053  27.727  26.595  1.00  0.00     0.031 C 
ATOM     37  C   UNL A   1      38.745  27.198  29.894  1.00  0.00     0.029 A 
ATOM     38  N   UNL A   1      40.351  28.716  30.103  1.00  0.00    -0.354 N 
ATOM     39  C   UNL A   1      44.048  28.152  27.590  1.00  0.00     0.074 A 
ATOM     40  C   UNL A   1      43.322  28.051  26.351  1.00  0.00     0.031 C 
ATOM     41  C   UNL A   1      38.190  28.284  30.478  1.00  0.00     0.029 A 
ATOM     42  C   UNL A   1      39.212  29.306  30.637  1.00  0.00     0.049 A 
ATOM     43  H   UNL A   1      41.243  29.130  30.152  1.00  0.00     0.167 HD
ATOM     44  C   UNL A   1      45.001  29.047  27.968  1.00  0.00     0.031 A 
ATOM     45  C   UNL A   1      39.103  30.556  31.149  1.00  0.00     0.031 A 
ATOM     46  C   UNL A   1      45.302  28.938  29.371  1.00  0.00     0.049 A 
ATOM     47  C   UNL A   1      40.458  31.008  31.539  1.00  0.00     0.074 A 
ATOM     48  C   UNL A   1      45.994  28.079  30.193  1.00  0.00     0.029 A 
ATOM     49  N   UNL A   1      44.482  29.698  30.164  1.00  0.00    -0.354 N 
ATOM     50  N   UNL A   1      41.150  30.446  32.492  1.00  0.00    -0.248 NA
ATOM     51  C   UNL A   1      41.212  31.887  30.654  1.00  0.00     0.031 C 
ATOM     52  C   UNL A   1      45.444  28.247  31.499  1.00  0.00     0.029 A 
ATOM     53  C   UNL A   1      44.453  29.226  31.449  1.00  0.00     0.049 A 
ATOM     54  H   UNL A   1      43.980  30.483  29.851  1.00  0.00     0.167 HD
ATOM     55  C   UNL A   1      42.460  30.558  32.072  1.00  0.00     0.074 A 
ATOM     56  C   UNL A   1      42.453  31.589  31.046  1.00  0.00     0.031 C 
ATOM     57  C   UNL A   1      43.373  29.583  32.348  1.00  0.00     0.031 A 
BRANCH  44  58
ATOM     58  C   UNL A   1      45.245  30.352  27.237  1.00  0.00    -0.014 A 
ATOM     59  C   UNL A   1      46.574  30.791  27.072  1.00  0.00     0.010 A 
ATOM     60  C   UNL A   1      44.227  31.296  26.982  1.00  0.00     0.010 A 
ATOM     61  C   UNL A   1      46.866  32.117  26.721  1.00  0.00     0.020 A 
ATOM     62  C   UNL A   1      44.505  32.607  26.594  1.00  0.00     0.020 A 
ATOM     63  C   UNL A   1      45.826  33.018  26.493  1.00  0.00     0.054 A 
BRANCH  63  64
ATOM     64  S   UNL A   1      46.207  34.748  26.126  1.00  0.00     0.124 S 
ATOM     65  O   UNL A   1      47.009  34.627  24.913  1.00  0.00    -0.237 OA
ATOM     66  O   UNL A   1      44.878  35.327  25.956  1.00  0.00    -0.237 OA
ATOM     67  O   UNL A   1      46.929  35.197  27.314  1.00  0.00    -0.744 OA
ENDBRANCH  63  64
ENDBRANCH  44  58
BRANCH  45  68
ATOM     68  C   UNL A   1      37.937  31.469  31.131  1.00  0.00    -0.014 A 
ATOM     69  C   UNL A   1      36.623  30.969  31.176  1.00  0.00     0.010 A 
ATOM     70  C   UNL A   1      38.127  32.847  31.360  1.00  0.00     0.010 A 
ATOM     71  C   UNL A   1      35.543  31.805  31.502  1.00  0.00     0.020 A 
ATOM     72  C   UNL A   1      37.053  33.689  31.680  1.00  0.00     0.020 A 
ATOM     73  C   UNL A   1      35.768  33.157  31.773  1.00  0.00     0.054 A 
BRANCH  73  74
ATOM     74  S   UNL A   1      34.394  34.189  32.367  1.00  0.00     0.124 S 
ATOM     75  O   UNL A   1      35.093  35.282  33.036  1.00  0.00    -0.237 OA
ATOM     76  O   UNL A   1      33.705  34.544  31.129  1.00  0.00    -0.237 OA
ATOM     77  O   UNL A   1      33.650  33.295  33.254  1.00  0.00    -0.744 OA
ENDBRANCH  73  74
ENDBRANCH  45  68
BRANCH  57  78
ATOM     78  C   UNL A   1      43.160  28.740  33.573  1.00  0.00    -0.014 A 
ATOM     79  C   UNL A   1      42.306  27.624  33.638  1.00  0.00     0.010 A 
ATOM     80  C   UNL A   1      43.926  29.072  34.704  1.00  0.00     0.010 A 
ATOM     81  C   UNL A   1      42.212  26.869  34.818  1.00  0.00     0.020 A 
ATOM     82  C   UNL A   1      43.851  28.317  35.873  1.00  0.00     0.020 A 
ATOM     83  C   UNL A   1      42.988  27.223  35.929  1.00  0.00     0.054 A 
BRANCH  83  84
ATOM     84  S   UNL A   1      42.892  26.228  37.443  1.00  0.00     0.124 S 
ATOM     85  O   UNL A   1      41.465  26.249  37.749  1.00  0.00    -0.237 OA
ATOM     86  O   UNL A   1      43.426  24.936  37.017  1.00  0.00    -0.237 OA
ATOM     87  O   UNL A   1      43.737  26.954  38.391  1.00  0.00    -0.744 OA
ENDBRANCH  83  84
ENDBRANCH  57  78
ENDBRANCH  31  32
ENDBRANCH  24  26
ENDBRANCH  23  24
ENDBRANCH   1  23
TORSDOF 18
ENDMDL
MODEL 2
REMARK VINA RESULT:     -10.5      4.496     11.554
REMARK SMILES CCCc1c(C(=O)OCCOC(=O)c2ccc(-c3c4nc(c(-c5ccc(S(=O)(=O)[O-])cc5)c5ccc([nH]5)c(-c5ccc(S(=O)(=O)[O-])cc5)c5nc(c(-c6ccc(S(=O)(=O)[O-])cc6)c6ccc3[nH]6)C=C5)C=C4)cc2)nnn1-c1ccccc1[N+](=O)[O-]
REMARK SMILES IDX 10 1 9 2 8 3 6 4 7 5 5 6 4 7 76 8 74 9 75 10 3 11 2 12 1 13
REMARK SMILES IDX 77 14 78 15 82 16 79 17 81 18 80 19 83 20 84 21 85 22 11 23
REMARK SMILES IDX 12 24 13 25 14 26 15 27 73 28 16 29 72 30 17 31 18 32 19 33
REMARK SMILES IDX 66 34 20 35 71 36 65 37 67 38 21 39 70 40 64 41 63 42 22 44
REMARK SMILES IDX 52 45 33 46 51 47 34 48 37 49 50 50 68 51 35 52 36 53 49 55
REMARK SMILES IDX 69 56 38 57 23 58 24 59 32 60 25 61 31 62 26 63 27 64 28 65
REMARK SMILES IDX 29 66 30 67 53 68 54 69 62 70 55 71 61 72 56 73 57 74 58 75
REMARK SMILES IDX 59 76 60 77 39 78 40 79 48 80 41 81 47 82 42 83 43 84 44 85
REMARK SMILES IDX 45 86 46 87
REMARK H PARENT 67 43 37 54
REMARK Flexibility Score: inf
ROOT
ATOM      1  C   UNL A   1      32.531  31.152  26.870  1.00  0.00     0.275 C 
ENDROOT
BRANCH   1   2
ATOM      2  C   UNL A   1      31.857  30.034  26.082  1.00  0.00     0.275 C 
BRANCH   2   3
ATOM      3  O   UNL A   1      32.485  28.768  26.337  1.00  0.00    -0.457 OA
BRANCH   3   4
ATOM      4  C   UNL A   1      31.738  27.874  27.048  1.00  0.00     0.360 C 
ATOM      5  O   UNL A   1      31.208  28.141  28.123  1.00  0.00    -0.244 OA
BRANCH   4   6
ATOM      6  C   UNL A   1      31.575  26.593  26.372  1.00  0.00     0.194 A 
ATOM      7  C   UNL A   1      32.448  25.857  25.571  1.00  0.00     0.080 A 
ATOM      8  N   UNL A   1      31.733  24.685  25.344  1.00  0.00    -0.210 N 
ATOM      9  N   UNL A   1      30.363  25.947  26.427  1.00  0.00    -0.122 NA
ATOM     10  N   UNL A   1      30.442  24.852  25.695  1.00  0.00    -0.061 NA
BRANCH   7  11
ATOM     11  C   UNL A   1      33.828  26.135  25.055  1.00  0.00     0.059 C 
BRANCH  11  12
ATOM     12  C   UNL A   1      33.896  26.963  23.766  1.00  0.00     0.003 C 
ATOM     13  C   UNL A   1      33.264  26.299  22.556  1.00  0.00     0.004 C 
ENDBRANCH  11  12
ENDBRANCH   7  11
BRANCH   8  14
ATOM     14  C   UNL A   1      32.144  23.411  24.892  1.00  0.00     0.144 A 
ATOM     15  C   UNL A   1      31.740  23.019  23.603  1.00  0.00     0.036 A 
ATOM     16  C   UNL A   1      32.850  22.497  25.686  1.00  0.00     0.294 A 
ATOM     17  C   UNL A   1      32.108  21.769  23.098  1.00  0.00     0.003 A 
ATOM     18  C   UNL A   1      33.222  21.243  25.174  1.00  0.00     0.088 A 
ATOM     19  C   UNL A   1      32.858  20.888  23.876  1.00  0.00     0.007 A 
BRANCH  16  20
ATOM     20  N   UNL A   1      33.079  22.707  27.111  1.00  0.00     0.065 N 
ATOM     21  O   UNL A   1      34.253  22.876  27.473  1.00  0.00    -0.258 OA
ATOM     22  O   UNL A   1      32.101  22.681  27.866  1.00  0.00    -0.258 OA
ENDBRANCH  16  20
ENDBRANCH   8  14
ENDBRANCH   4   6
ENDBRANCH   3   4
ENDBRANCH   2   3
ENDBRANCH   1   2
BRANCH   1  23
ATOM     23  O   UNL A   1      33.876  30.826  27.222  1.00  0.00    -0.458 OA
BRANCH  23  24
ATOM     24  C   UNL A   1      34.528  31.754  27.960  1.00  0.00     0.338 C 
ATOM     25  O   UNL A   1      34.261  32.939  28.058  1.00  0.00    -0.246 OA
BRANCH  24  26
ATOM     26  C   UNL A   1      35.777  31.175  28.459  1.00  0.00     0.060 A 
ATOM     27  C   UNL A   1      36.764  32.028  28.959  1.00  0.00     0.016 A 
ATOM     28  C   UNL A   1      36.028  29.816  28.222  1.00  0.00     0.016 A 
ATOM     29  C   UNL A   1      38.039  31.524  29.156  1.00  0.00     0.010 A 
ATOM     30  C   UNL A   1      37.300  29.322  28.400  1.00  0.00     0.010 A 
ATOM     31  C   UNL A   1      38.302  30.187  28.830  1.00  0.00    -0.014 A 
BRANCH  31  32
ATOM     32  C   UNL A   1      39.614  29.639  29.120  1.00  0.00     0.031 A 
ATOM     33  C   UNL A   1      39.878  29.531  30.572  1.00  0.00     0.074 A 
ATOM     34  C   UNL A   1      40.422  29.095  28.191  1.00  0.00     0.049 A 
ATOM     35  N   UNL A   1      40.676  30.252  31.284  1.00  0.00    -0.248 NA
ATOM     36  C   UNL A   1      39.018  28.626  31.357  1.00  0.00     0.031 C 
ATOM     37  C   UNL A   1      40.095  28.833  26.786  1.00  0.00     0.029 A 
ATOM     38  N   UNL A   1      41.664  28.548  28.330  1.00  0.00    -0.354 N 
ATOM     39  C   UNL A   1      40.617  29.699  32.558  1.00  0.00     0.074 A 
ATOM     40  C   UNL A   1      39.426  28.892  32.598  1.00  0.00     0.031 C 
ATOM     41  C   UNL A   1      41.012  27.986  26.266  1.00  0.00     0.029 A 
ATOM     42  C   UNL A   1      42.064  27.774  27.247  1.00  0.00     0.049 A 
ATOM     43  H   UNL A   1      42.226  28.688  29.126  1.00  0.00     0.167 HD
ATOM     44  C   UNL A   1      41.731  29.643  33.338  1.00  0.00     0.031 A 
ATOM     45  C   UNL A   1      43.166  26.989  27.167  1.00  0.00     0.031 A 
ATOM     46  C   UNL A   1      42.784  30.474  32.817  1.00  0.00     0.049 A 
ATOM     47  C   UNL A   1      44.142  27.471  28.171  1.00  0.00     0.074 A 
ATOM     48  C   UNL A   1      43.075  31.817  32.754  1.00  0.00     0.029 A 
ATOM     49  N   UNL A   1      43.575  29.837  31.897  1.00  0.00    -0.354 N 
ATOM     50  N   UNL A   1      44.711  28.643  28.106  1.00  0.00    -0.248 NA
ATOM     51  C   UNL A   1      44.261  26.789  29.454  1.00  0.00     0.031 C 
ATOM     52  C   UNL A   1      43.965  31.981  31.651  1.00  0.00     0.029 A 
ATOM     53  C   UNL A   1      44.219  30.732  31.086  1.00  0.00     0.049 A 
ATOM     54  H   UNL A   1      43.669  28.861  31.828  1.00  0.00     0.167 HD
ATOM     55  C   UNL A   1      44.874  29.016  29.425  1.00  0.00     0.074 A 
ATOM     56  C   UNL A   1      44.747  27.787  30.195  1.00  0.00     0.031 C 
ATOM     57  C   UNL A   1      44.763  30.320  29.807  1.00  0.00     0.031 A 
BRANCH  44  58
ATOM     58  C   UNL A   1      42.064  28.455  34.218  1.00  0.00    -0.014 A 
ATOM     59  C   UNL A   1      42.257  28.674  35.597  1.00  0.00     0.010 A 
ATOM     60  C   UNL A   1      42.490  27.211  33.706  1.00  0.00     0.010 A 
ATOM     61  C   UNL A   1      42.887  27.717  36.406  1.00  0.00     0.020 A 
ATOM     62  C   UNL A   1      43.083  26.236  34.509  1.00  0.00     0.020 A 
ATOM     63  C   UNL A   1      43.304  26.507  35.851  1.00  0.00     0.054 A 
BRANCH  63  64
ATOM     64  S   UNL A   1      44.195  25.314  36.878  1.00  0.00     0.124 S 
ATOM     65  O   UNL A   1      45.583  25.698  36.649  1.00  0.00    -0.237 OA
ATOM     66  O   UNL A   1      43.666  25.597  38.209  1.00  0.00    -0.237 OA
ATOM     67  O   UNL A   1      43.800  24.022  36.319  1.00  0.00    -0.744 OA
ENDBRANCH  63  64
ENDBRANCH  44  58
BRANCH  45  68
ATOM     68  C   UNL A   1      43.351  25.718  26.429  1.00  0.00    -0.014 A 
ATOM     69  C   UNL A   1      44.270  25.623  25.368  1.00  0.00     0.010 A 
ATOM     70  C   UNL A   1      42.827  24.521  26.957  1.00  0.00     0.010 A 
ATOM     71  C   UNL A   1      44.700  24.373  24.896  1.00  0.00     0.020 A 
ATOM     72  C   UNL A   1      43.247  23.270  26.487  1.00  0.00     0.020 A 
ATOM     73  C   UNL A   1      44.201  23.203  25.474  1.00  0.00     0.054 A 
BRANCH  73  74
ATOM     74  S   UNL A   1      44.896  21.597  24.979  1.00  0.00     0.124 S 
ATOM     75  O   UNL A   1      44.797  21.652  23.523  1.00  0.00    -0.237 OA
ATOM     76  O   UNL A   1      46.250  21.654  25.523  1.00  0.00    -0.237 OA
ATOM     77  O   UNL A   1      44.012  20.626  25.623  1.00  0.00    -0.744 OA
ENDBRANCH  73  74
ENDBRANCH  45  68
BRANCH  57  78
ATOM     78  C   UNL A   1      45.081  31.384  28.794  1.00  0.00    -0.014 A 
ATOM     79  C   UNL A   1      46.381  31.756  28.407  1.00  0.00     0.010 A 
ATOM     80  C   UNL A   1      43.985  31.993  28.158  1.00  0.00     0.010 A 
ATOM     81  C   UNL A   1      46.574  32.729  27.414  1.00  0.00     0.020 A 
ATOM     82  C   UNL A   1      44.170  32.947  27.159  1.00  0.00     0.020 A 
ATOM     83  C   UNL A   1      45.464  33.318  26.797  1.00  0.00     0.054 A 
BRANCH  83  84
ATOM     84  S   UNL A   1      45.714  34.552  25.490  1.00  0.00     0.124 S 
ATOM     85  O   UNL A   1      44.832  34.076  24.429  1.00  0.00    -0.237 OA
ATOM     86  O   UNL A   1      45.307  35.797  26.137  1.00  0.00    -0.237 OA
ATOM     87  O   UNL A   1      47.144  34.459  25.192  1.00  0.00    -0.744 OA
ENDBRANCH  83  84
ENDBRANCH  57  78
ENDBRANCH  31  32
ENDBRANCH  24  26
ENDBRANCH  23  24
ENDBRANCH   1  23
TORSDOF 18
ENDMDL
MODEL 3
REMARK VINA RESULT:     -10.5      4.279      7.077
REMARK SMILES CCCc1c(C(=O)OCCOC(=O)c2ccc(-c3c4nc(c(-c5ccc(S(=O)(=O)[O-])cc5)c5ccc([nH]5)c(-c5ccc(S(=O)(=O)[O-])cc5)c5nc(c(-c6ccc(S(=O)(=O)[O-])cc6)c6ccc3[nH]6)C=C5)C=C4)cc2)nnn1-c1ccccc1[N+](=O)[O-]
REMARK SMILES IDX 10 1 9 2 8 3 6 4 7 5 5 6 4 7 76 8 74 9 75 10 3 11 2 12 1 13
REMARK SMILES IDX 77 14 78 15 82 16 79 17 81 18 80 19 83 20 84 21 85 22 11 23
REMARK SMILES IDX 12 24 13 25 14 26 15 27 73 28 16 29 72 30 17 31 18 32 19 33
REMARK SMILES IDX 66 34 20 35 71 36 65 37 67 38 21 39 70 40 64 41 63 42 22 44
REMARK SMILES IDX 52 45 33 46 51 47 34 48 37 49 50 50 68 51 35 52 36 53 49 55
REMARK SMILES IDX 69 56 38 57 23 58 24 59 32 60 25 61 31 62 26 63 27 64 28 65
REMARK SMILES IDX 29 66 30 67 53 68 54 69 62 70 55 71 61 72 56 73 57 74 58 75
REMARK SMILES IDX 59 76 60 77 39 78 40 79 48 80 41 81 47 82 42 83 43 84 44 85
REMARK SMILES IDX 45 86 46 87
REMARK H PARENT 67 43 37 54
REMARK Flexibility Score: inf
ROOT
ATOM      1  C   UNL A   1      37.867  21.582  25.176  1.00  0.00     0.275 C 
ENDROOT
BRANCH   1   2
ATOM      2  C   UNL A   1      36.452  21.131  25.519  1.00  0.00     0.275 C 
BRANCH   2   3
ATOM      3  O   UNL A   1      35.516  21.546  24.511  1.00  0.00    -0.457 OA
BRANCH   3   4
ATOM      4  C   UNL A   1      34.236  21.105  24.681  1.00  0.00     0.360 C 
ATOM      5  O   UNL A   1      33.954  20.047  25.236  1.00  0.00    -0.244 OA
BRANCH   4   6
ATOM      6  C   UNL A   1      33.233  22.046  24.197  1.00  0.00     0.194 A 
ATOM      7  C   UNL A   1      32.817  23.283  24.691  1.00  0.00     0.080 A 
ATOM      8  N   UNL A   1      31.927  23.713  23.712  1.00  0.00    -0.210 N 
ATOM      9  N   UNL A   1      32.471  21.720  23.101  1.00  0.00    -0.122 NA
ATOM     10  N   UNL A   1      31.600  22.690  22.896  1.00  0.00    -0.061 NA
BRANCH   7  11
ATOM     11  C   UNL A   1      33.185  24.059  25.919  1.00  0.00     0.059 C 
BRANCH  11  12
ATOM     12  C   UNL A   1      34.285  25.111  25.729  1.00  0.00     0.003 C 
ATOM     13  C   UNL A   1      33.801  26.548  25.792  1.00  0.00     0.004 C 
ENDBRANCH  11  12
ENDBRANCH   7  11
BRANCH   8  14
ATOM     14  C   UNL A   1      31.400  24.992  23.423  1.00  0.00     0.144 A 
ATOM     15  C   UNL A   1      30.157  25.324  23.990  1.00  0.00     0.036 A 
ATOM     16  C   UNL A   1      32.005  25.900  22.543  1.00  0.00     0.294 A 
ATOM     17  C   UNL A   1      29.577  26.572  23.740  1.00  0.00     0.003 A 
ATOM     18  C   UNL A   1      31.423  27.154  22.297  1.00  0.00     0.088 A 
ATOM     19  C   UNL A   1      30.214  27.489  22.906  1.00  0.00     0.007 A 
BRANCH  16  20
ATOM     20  N   UNL A   1      33.148  25.544  21.709  1.00  0.00     0.065 N 
ATOM     21  O   UNL A   1      32.931  25.382  20.499  1.00  0.00    -0.258 OA
ATOM     22  O   UNL A   1      34.246  25.405  22.259  1.00  0.00    -0.258 OA
ENDBRANCH  16  20
ENDBRANCH   8  14
ENDBRANCH   4   6
ENDBRANCH   3   4
ENDBRANCH   2   3
ENDBRANCH   1   2
BRANCH   1  23
ATOM     23  O   UNL A   1      38.281  22.698  25.965  1.00  0.00    -0.458 OA
BRANCH  23  24
ATOM     24  C   UNL A   1      39.488  22.575  26.565  1.00  0.00     0.338 C 
ATOM     25  O   UNL A   1      40.072  21.541  26.838  1.00  0.00    -0.246 OA
BRANCH  24  26
ATOM     26  C   UNL A   1      39.907  23.884  27.070  1.00  0.00     0.060 A 
ATOM     27  C   UNL A   1      41.084  23.974  27.817  1.00  0.00     0.016 A 
ATOM     28  C   UNL A   1      39.011  24.958  26.973  1.00  0.00     0.016 A 
ATOM     29  C   UNL A   1      41.327  25.135  28.533  1.00  0.00     0.010 A 
ATOM     30  C   UNL A   1      39.245  26.102  27.700  1.00  0.00     0.010 A 
ATOM     31  C   UNL A   1      40.381  26.167  28.502  1.00  0.00    -0.014 A 
BRANCH  31  32
ATOM     32  C   UNL A   1      40.681  27.414  29.181  1.00  0.00     0.031 A 
ATOM     33  C   UNL A   1      41.776  28.167  28.532  1.00  0.00     0.074 A 
ATOM     34  C   UNL A   1      39.920  27.936  30.162  1.00  0.00     0.049 A 
ATOM     35  N   UNL A   1      42.981  28.333  28.961  1.00  0.00    -0.248 NA
ATOM     36  C   UNL A   1      41.553  28.647  27.155  1.00  0.00     0.031 C 
ATOM     37  C   UNL A   1      38.621  27.439  30.625  1.00  0.00     0.029 A 
ATOM     38  N   UNL A   1      40.086  29.088  30.874  1.00  0.00    -0.354 N 
ATOM     39  C   UNL A   1      43.580  29.174  28.030  1.00  0.00     0.074 A 
ATOM     40  C   UNL A   1      42.758  29.125  26.848  1.00  0.00     0.031 C 
ATOM     41  C   UNL A   1      38.018  28.396  31.368  1.00  0.00     0.029 A 
ATOM     42  C   UNL A   1      38.948  29.497  31.558  1.00  0.00     0.049 A 
ATOM     43  H   UNL A   1      40.936  29.585  30.898  1.00  0.00     0.167 HD
ATOM     44  C   UNL A   1      44.473  30.120  28.428  1.00  0.00     0.031 A 
ATOM     45  C   UNL A   1      38.767  30.670  32.213  1.00  0.00     0.031 A 
ATOM     46  C   UNL A   1      44.908  29.900  29.782  1.00  0.00     0.049 A 
ATOM     47  C   UNL A   1      40.102  31.219  32.542  1.00  0.00     0.074 A 
ATOM     48  C   UNL A   1      45.749  29.038  30.447  1.00  0.00     0.029 A 
ATOM     49  N   UNL A   1      44.094  30.484  30.717  1.00  0.00    -0.354 N 
ATOM     50  N   UNL A   1      40.927  30.638  33.369  1.00  0.00    -0.248 NA
ATOM     51  C   UNL A   1      40.687  32.258  31.703  1.00  0.00     0.031 C 
ATOM     52  C   UNL A   1      45.305  29.013  31.803  1.00  0.00     0.029 A 
ATOM     53  C   UNL A   1      44.225  29.883  31.940  1.00  0.00     0.049 A 
ATOM     54  H   UNL A   1      43.493  31.241  30.534  1.00  0.00     0.167 HD
ATOM     55  C   UNL A   1      42.178  30.928  32.863  1.00  0.00     0.074 A 
ATOM     56  C   UNL A   1      41.980  32.053  31.961  1.00  0.00     0.031 C 
ATOM     57  C   UNL A   1      43.201  30.031  32.955  1.00  0.00     0.031 A 
BRANCH  44  58
ATOM     58  C   UNL A   1      44.524  31.512  27.830  1.00  0.00    -0.014 A 
ATOM     59  C   UNL A   1      45.612  31.844  26.997  1.00  0.00     0.010 A 
ATOM     60  C   UNL A   1      43.726  32.580  28.291  1.00  0.00     0.010 A 
ATOM     61  C   UNL A   1      45.910  33.178  26.685  1.00  0.00     0.020 A 
ATOM     62  C   UNL A   1      43.990  33.909  27.955  1.00  0.00     0.020 A 
ATOM     63  C   UNL A   1      45.100  34.202  27.177  1.00  0.00     0.054 A 
BRANCH  63  64
ATOM     64  S   UNL A   1      45.539  35.926  26.845  1.00  0.00     0.124 S 
ATOM     65  O   UNL A   1      46.348  35.802  25.637  1.00  0.00    -0.237 OA
ATOM     66  O   UNL A   1      44.231  36.550  26.675  1.00  0.00    -0.237 OA
ATOM     67  O   UNL A   1      46.266  36.330  28.048  1.00  0.00    -0.744 OA
ENDBRANCH  63  64
ENDBRANCH  44  58
BRANCH  45  68
ATOM     68  C   UNL A   1      37.523  31.454  32.389  1.00  0.00    -0.014 A 
ATOM     69  C   UNL A   1      37.352  32.304  33.496  1.00  0.00     0.010 A 
ATOM     70  C   UNL A   1      36.621  31.582  31.313  1.00  0.00     0.010 A 
ATOM     71  C   UNL A   1      36.353  33.292  33.500  1.00  0.00     0.020 A 
ATOM     72  C   UNL A   1      35.619  32.561  31.313  1.00  0.00     0.020 A 
ATOM     73  C   UNL A   1      35.506  33.428  32.398  1.00  0.00     0.054 A 
BRANCH  73  74
ATOM     74  S   UNL A   1      34.338  34.820  32.336  1.00  0.00     0.124 S 
ATOM     75  O   UNL A   1      34.259  35.096  30.905  1.00  0.00    -0.237 OA
ATOM     76  O   UNL A   1      33.134  34.252  32.937  1.00  0.00    -0.237 OA
ATOM     77  O   UNL A   1      34.996  35.856  33.131  1.00  0.00    -0.744 OA
ENDBRANCH  73  74
ENDBRANCH  45  68
BRANCH  57  78
ATOM     78  C   UNL A   1      43.180  29.049  34.092  1.00  0.00    -0.014 A 
ATOM     79  C   UNL A   1      43.564  29.345  35.412  1.00  0.00     0.010 A 
ATOM     80  C   UNL A   1      42.678  27.767  33.805  1.00  0.00     0.010 A 
ATOM     81  C   UNL A   1      43.462  28.370  36.417  1.00  0.00     0.020 A 
ATOM     82  C   UNL A   1      42.557  26.800  34.801  1.00  0.00     0.020 A 
ATOM     83  C   UNL A   1      42.958  27.102  36.103  1.00  0.00     0.054 A 
BRANCH  83  84
ATOM     84  S   UNL A   1      42.794  25.853  37.408  1.00  0.00     0.124 S 
ATOM     85  O   UNL A   1      43.369  26.526  38.568  1.00  0.00    -0.237 OA
ATOM     86  O   UNL A   1      41.352  25.626  37.461  1.00  0.00    -0.237 OA
ATOM     87  O   UNL A   1      43.571  24.720  36.905  1.00  0.00    -0.744 OA
ENDBRANCH  83  84
ENDBRANCH  57  78
ENDBRANCH  31  32
ENDBRANCH  24  26
ENDBRANCH  23  24
ENDBRANCH   1  23
TORSDOF 18
ENDMDL
