MODEL 1
REMARK VINA RESULT:     -10.7      0.000      0.000
REMARK SMILES CCOc1cnc(C(=O)c2[nH]c3cc(Cl)ccc3c2CC(=O)OCCOC(=O)c2ccc(-c3c4nc(c(-c5ccc(S(=O)(=O)[O-])cc5)c5ccc([nH]5)c(-c5ccc(S(=O)(=O)[O-])cc5)c5nc(c(-c6ccc(S(=O)(=O)[O-])cc6)c6ccc3[nH]6)C=C5)C=C4)cc2)cc1CC
REMARK SMILES IDX 24 1 23 2 21 3 22 4 20 5 19 6 10 7 11 8 12 9 18 11 13 12
REMARK SMILES IDX 17 13 14 14 16 15 15 16 8 17 9 18 7 19 4 20 5 21 90 22 6 23
REMARK SMILES IDX 89 24 3 25 2 26 1 27 91 28 92 29 25 30 26 31 27 32 28 33
REMARK SMILES IDX 29 34 30 35 88 36 31 37 87 38 32 39 33 40 34 41 81 42 35 43
REMARK SMILES IDX 86 44 80 45 82 46 36 47 85 48 79 49 78 50 37 52 67 53 48 54
REMARK SMILES IDX 66 55 49 56 52 57 65 58 83 59 50 60 51 61 64 63 84 64 53 65
REMARK SMILES IDX 38 66 39 67 47 68 40 69 46 70 41 71 42 72 43 73 44 74 45 75
REMARK SMILES IDX 68 76 69 77 77 78 70 79 76 80 71 81 72 82 73 83 74 84 75 85
REMARK SMILES IDX 54 86 55 87 63 88 56 89 62 90 57 91 58 92 59 93 60 94 61 95
REMARK H PARENT 11 10 82 51 52 62
REMARK Flexibility Score: inf
ROOT
ATOM      1  C   UNL A   1      36.121  23.354  25.592  1.00  0.00     0.274 C 
ENDROOT
BRANCH   1   2
ATOM      2  O   UNL A   1      35.796  23.522  24.195  1.00  0.00    -0.462 OA
BRANCH   2   3
ATOM      3  C   UNL A   1      34.848  24.449  23.903  1.00  0.00     0.310 C 
ATOM      4  O   UNL A   1      34.324  24.568  22.797  1.00  0.00    -0.252 OA
BRANCH   3   5
ATOM      5  C   UNL A   1      34.359  25.254  25.088  1.00  0.00     0.161 C 
BRANCH   5   6
ATOM      6  C   UNL A   1      32.905  25.608  25.158  1.00  0.00     0.000 A 
ATOM      7  C   UNL A   1      31.874  24.900  25.771  1.00  0.00     0.093 A 
ATOM      8  N   UNL A   1      30.718  25.620  25.580  1.00  0.00    -0.351 N 
ATOM      9  C   UNL A   1      30.916  26.612  24.657  1.00  0.00     0.048 A 
ATOM     10  H   UNL A   1      29.866  25.446  26.042  1.00  0.00     0.167 HD
ATOM     11  C   UNL A   1      32.289  26.686  24.433  1.00  0.00     0.004 A 
ATOM     12  C   UNL A   1      29.988  27.434  24.011  1.00  0.00     0.047 A 
ATOM     13  C   UNL A   1      32.769  27.680  23.552  1.00  0.00     0.012 A 
ATOM     14  C   UNL A   1      30.488  28.381  23.116  1.00  0.00     0.043 A 
ATOM     15  C   UNL A   1      31.856  28.519  22.897  1.00  0.00     0.021 A 
ATOM     16  Cl  UNL A   1      29.385  29.391  22.261  1.00  0.00    -0.084 Cl
BRANCH   7  17
ATOM     17  C   UNL A   1      31.810  23.633  26.493  1.00  0.00     0.227 C 
ATOM     18  O   UNL A   1      30.912  23.421  27.305  1.00  0.00    -0.285 OA
BRANCH  17  19
ATOM     19  C   UNL A   1      32.627  22.469  25.966  1.00  0.00     0.113 A 
ATOM     20  C   UNL A   1      33.367  19.928  25.218  1.00  0.00     0.140 A 
ATOM     21  C   UNL A   1      33.631  20.449  26.480  1.00  0.00     0.158 A 
ATOM     22  C   UNL A   1      32.719  20.737  24.285  1.00  0.00    -0.002 A 
ATOM     23  N   UNL A   1      33.266  21.693  26.881  1.00  0.00    -0.249 NA
ATOM     24  C   UNL A   1      32.414  22.055  24.650  1.00  0.00     0.040 A 
BRANCH  20  25
ATOM     25  O   UNL A   1      33.546  18.601  24.960  1.00  0.00    -0.492 OA
BRANCH  25  26
ATOM     26  C   UNL A   1      32.621  17.759  25.657  1.00  0.00     0.226 C 
ATOM     27  C   UNL A   1      33.170  16.342  25.681  1.00  0.00     0.049 C 
ENDBRANCH  25  26
ENDBRANCH  20  25
BRANCH  22  28
ATOM     28  C   UNL A   1      32.209  20.201  22.970  1.00  0.00     0.036 C 
ATOM     29  C   UNL A   1      31.876  21.331  22.001  1.00  0.00     0.009 C 
ENDBRANCH  22  28
ENDBRANCH  17  19
ENDBRANCH   7  17
ENDBRANCH   5   6
ENDBRANCH   3   5
ENDBRANCH   2   3
ENDBRANCH   1   2
BRANCH   1  30
ATOM     30  C   UNL A   1      36.958  22.088  25.830  1.00  0.00     0.275 C 
BRANCH  30  31
ATOM     31  O   UNL A   1      38.314  22.208  25.345  1.00  0.00    -0.458 OA
BRANCH  31  32
ATOM     32  C   UNL A   1      39.239  22.072  26.316  1.00  0.00     0.338 C 
ATOM     33  O   UNL A   1      39.779  21.035  26.663  1.00  0.00    -0.246 OA
BRANCH  32  34
ATOM     34  C   UNL A   1      39.678  23.336  26.897  1.00  0.00     0.060 A 
ATOM     35  C   UNL A   1      39.500  24.490  26.131  1.00  0.00     0.016 A 
ATOM     36  C   UNL A   1      40.493  23.341  28.029  1.00  0.00     0.016 A 
ATOM     37  C   UNL A   1      40.184  25.650  26.467  1.00  0.00     0.010 A 
ATOM     38  C   UNL A   1      41.131  24.527  28.400  1.00  0.00     0.010 A 
ATOM     39  C   UNL A   1      40.996  25.681  27.610  1.00  0.00    -0.014 A 
BRANCH  39  40
ATOM     40  C   UNL A   1      41.638  26.956  28.003  1.00  0.00     0.031 A 
ATOM     41  C   UNL A   1      43.120  27.155  27.887  1.00  0.00     0.074 A 
ATOM     42  C   UNL A   1      40.850  27.949  28.451  1.00  0.00     0.049 A 
ATOM     43  N   UNL A   1      43.831  28.206  28.207  1.00  0.00    -0.248 NA
ATOM     44  C   UNL A   1      43.908  26.039  27.342  1.00  0.00     0.031 C 
ATOM     45  C   UNL A   1      39.391  27.874  28.582  1.00  0.00     0.029 A 
ATOM     46  N   UNL A   1      41.157  29.215  28.875  1.00  0.00    -0.354 N 
ATOM     47  C   UNL A   1      45.147  27.884  27.903  1.00  0.00     0.074 A 
ATOM     48  C   UNL A   1      45.142  26.528  27.396  1.00  0.00     0.031 C 
ATOM     49  C   UNL A   1      38.931  29.046  29.041  1.00  0.00     0.029 A 
ATOM     50  C   UNL A   1      40.062  29.931  29.289  1.00  0.00     0.049 A 
ATOM     51  H   UNL A   1      42.073  29.575  28.882  1.00  0.00     0.167 HD
ATOM     52  C   UNL A   1      46.256  28.653  28.031  1.00  0.00     0.031 A 
ATOM     53  C   UNL A   1      39.975  31.154  29.842  1.00  0.00     0.031 A 
ATOM     54  C   UNL A   1      46.261  29.987  28.562  1.00  0.00     0.049 A 
ATOM     55  C   UNL A   1      41.228  31.944  30.063  1.00  0.00     0.074 A 
ATOM     56  C   UNL A   1      47.337  30.841  28.738  1.00  0.00     0.029 A 
ATOM     57  N   UNL A   1      45.139  30.659  29.022  1.00  0.00    -0.354 N 
ATOM     58  N   UNL A   1      42.462  31.628  29.750  1.00  0.00    -0.248 NA
ATOM     59  C   UNL A   1      41.080  33.249  30.719  1.00  0.00     0.031 C 
ATOM     60  C   UNL A   1      46.868  32.016  29.337  1.00  0.00     0.029 A 
ATOM     61  C   UNL A   1      45.497  31.904  29.507  1.00  0.00     0.049 A 
ATOM     62  H   UNL A   1      44.222  30.301  29.006  1.00  0.00     0.167 HD
ATOM     63  C   UNL A   1      43.241  32.699  30.166  1.00  0.00     0.074 A 
ATOM     64  C   UNL A   1      42.336  33.678  30.739  1.00  0.00     0.031 C 
ATOM     65  C   UNL A   1      44.583  32.857  30.082  1.00  0.00     0.031 A 
BRANCH  52  66
ATOM     66  C   UNL A   1      47.562  28.056  27.593  1.00  0.00    -0.014 A 
ATOM     67  C   UNL A   1      48.343  27.318  28.498  1.00  0.00     0.010 A 
ATOM     68  C   UNL A   1      47.996  28.198  26.265  1.00  0.00     0.010 A 
ATOM     69  C   UNL A   1      49.563  26.769  28.095  1.00  0.00     0.020 A 
ATOM     70  C   UNL A   1      49.209  27.640  25.853  1.00  0.00     0.020 A 
ATOM     71  C   UNL A   1      49.995  26.946  26.778  1.00  0.00     0.054 A 
BRANCH  71  72
ATOM     72  S   UNL A   1      51.581  26.230  26.263  1.00  0.00     0.124 S 
ATOM     73  O   UNL A   1      51.528  26.407  24.814  1.00  0.00    -0.237 OA
ATOM     74  O   UNL A   1      52.559  27.061  26.960  1.00  0.00    -0.237 OA
ATOM     75  O   UNL A   1      51.499  24.849  26.729  1.00  0.00    -0.744 OA
ENDBRANCH  71  72
ENDBRANCH  52  66
BRANCH  53  76
ATOM     76  C   UNL A   1      38.645  31.665  30.257  1.00  0.00    -0.014 A 
ATOM     77  C   UNL A   1      38.238  31.592  31.598  1.00  0.00     0.010 A 
ATOM     78  C   UNL A   1      37.813  32.298  29.315  1.00  0.00     0.010 A 
ATOM     79  C   UNL A   1      37.019  32.153  31.992  1.00  0.00     0.020 A 
ATOM     80  C   UNL A   1      36.606  32.878  29.710  1.00  0.00     0.020 A 
ATOM     81  C   UNL A   1      36.214  32.796  31.047  1.00  0.00     0.054 A 
BRANCH  81  82
ATOM     82  S   UNL A   1      34.681  33.599  31.591  1.00  0.00     0.124 S 
ATOM     83  O   UNL A   1      34.043  33.924  30.321  1.00  0.00    -0.237 OA
ATOM     84  O   UNL A   1      34.032  32.551  32.377  1.00  0.00    -0.237 OA
ATOM     85  O   UNL A   1      35.155  34.743  32.368  1.00  0.00    -0.744 OA
ENDBRANCH  81  82
ENDBRANCH  53  76
BRANCH  65  86
ATOM     86  C   UNL A   1      45.150  34.140  30.616  1.00  0.00    -0.014 A 
ATOM     87  C   UNL A   1      45.664  34.209  31.922  1.00  0.00     0.010 A 
ATOM     88  C   UNL A   1      45.201  35.278  29.791  1.00  0.00     0.010 A 
ATOM     89  C   UNL A   1      46.199  35.406  32.405  1.00  0.00     0.020 A 
ATOM     90  C   UNL A   1      45.750  36.471  30.265  1.00  0.00     0.020 A 
ATOM     91  C   UNL A   1      46.233  36.530  31.575  1.00  0.00     0.054 A 
BRANCH  91  92
ATOM     92  S   UNL A   1      46.966  38.065  32.205  1.00  0.00     0.124 S 
ATOM     93  O   UNL A   1      45.973  39.059  31.809  1.00  0.00    -0.237 OA
ATOM     94  O   UNL A   1      47.066  37.812  33.640  1.00  0.00    -0.237 OA
ATOM     95  O   UNL A   1      48.246  38.146  31.503  1.00  0.00    -0.744 OA
ENDBRANCH  91  92
ENDBRANCH  65  86
ENDBRANCH  39  40
ENDBRANCH  32  34
ENDBRANCH  31  32
ENDBRANCH  30  31
ENDBRANCH   1  30
TORSDOF 20
ENDMDL
MODEL 2
REMARK VINA RESULT:     -10.4      1.986      4.296
REMARK SMILES CCOc1cnc(C(=O)c2[nH]c3cc(Cl)ccc3c2CC(=O)OCCOC(=O)c2ccc(-c3c4nc(c(-c5ccc(S(=O)(=O)[O-])cc5)c5ccc([nH]5)c(-c5ccc(S(=O)(=O)[O-])cc5)c5nc(c(-c6ccc(S(=O)(=O)[O-])cc6)c6ccc3[nH]6)C=C5)C=C4)cc2)cc1CC
REMARK SMILES IDX 24 1 23 2 21 3 22 4 20 5 19 6 10 7 11 8 12 9 18 11 13 12
REMARK SMILES IDX 17 13 14 14 16 15 15 16 8 17 9 18 7 19 4 20 5 21 90 22 6 23
REMARK SMILES IDX 89 24 3 25 2 26 1 27 91 28 92 29 25 30 26 31 27 32 28 33
REMARK SMILES IDX 29 34 30 35 88 36 31 37 87 38 32 39 33 40 34 41 81 42 35 43
REMARK SMILES IDX 86 44 80 45 82 46 36 47 85 48 79 49 78 50 37 52 67 53 48 54
REMARK SMILES IDX 66 55 49 56 52 57 65 58 83 59 50 60 51 61 64 63 84 64 53 65
REMARK SMILES IDX 38 66 39 67 47 68 40 69 46 70 41 71 42 72 43 73 44 74 45 75
REMARK SMILES IDX 68 76 69 77 77 78 70 79 76 80 71 81 72 82 73 83 74 84 75 85
REMARK SMILES IDX 54 86 55 87 63 88 56 89 62 90 57 91 58 92 59 93 60 94 61 95
REMARK H PARENT 11 10 82 51 52 62
REMARK Flexibility Score: inf
ROOT
ATOM      1  C   UNL A   1      35.220  22.268  26.697  1.00  0.00     0.274 C 
ENDROOT
BRANCH   1   2
ATOM      2  O   UNL A   1      34.216  23.266  26.983  1.00  0.00    -0.462 OA
BRANCH   2   3
ATOM      3  C   UNL A   1      33.031  22.811  27.463  1.00  0.00     0.310 C 
ATOM      4  O   UNL A   1      32.898  22.272  28.560  1.00  0.00    -0.252 OA
BRANCH   3   5
ATOM      5  C   UNL A   1      31.827  23.143  26.606  1.00  0.00     0.161 C 
BRANCH   5   6
ATOM      6  C   UNL A   1      31.912  22.894  25.131  1.00  0.00     0.000 A 
ATOM      7  C   UNL A   1      31.630  23.777  24.090  1.00  0.00     0.093 A 
ATOM      8  N   UNL A   1      31.861  23.103  22.914  1.00  0.00    -0.351 N 
ATOM      9  C   UNL A   1      32.024  21.765  23.150  1.00  0.00     0.048 A 
ATOM     10  H   UNL A   1      31.904  23.526  22.025  1.00  0.00     0.167 HD
ATOM     11  C   UNL A   1      32.142  21.609  24.529  1.00  0.00     0.004 A 
ATOM     12  C   UNL A   1      32.069  20.694  22.251  1.00  0.00     0.047 A 
ATOM     13  C   UNL A   1      32.377  20.313  25.037  1.00  0.00     0.012 A 
ATOM     14  C   UNL A   1      32.261  19.419  22.785  1.00  0.00     0.043 A 
ATOM     15  C   UNL A   1      32.430  19.225  24.153  1.00  0.00     0.021 A 
ATOM     16  Cl  UNL A   1      32.281  18.061  21.725  1.00  0.00    -0.084 Cl
BRANCH   7  17
ATOM     17  C   UNL A   1      31.154  25.156  24.038  1.00  0.00     0.227 C 
ATOM     18  O   UNL A   1      30.075  25.425  23.512  1.00  0.00    -0.285 OA
BRANCH  17  19
ATOM     19  C   UNL A   1      31.812  26.173  24.949  1.00  0.00     0.113 A 
ATOM     20  C   UNL A   1      33.308  28.309  25.824  1.00  0.00     0.140 A 
ATOM     21  C   UNL A   1      33.816  27.018  25.739  1.00  0.00     0.158 A 
ATOM     22  C   UNL A   1      31.976  28.526  25.472  1.00  0.00    -0.002 A 
ATOM     23  N   UNL A   1      33.107  25.948  25.299  1.00  0.00    -0.249 NA
ATOM     24  C   UNL A   1      31.202  27.418  25.100  1.00  0.00     0.040 A 
BRANCH  20  25
ATOM     25  O   UNL A   1      34.134  29.371  26.045  1.00  0.00    -0.492 OA
BRANCH  25  26
ATOM     26  C   UNL A   1      34.756  29.345  27.335  1.00  0.00     0.226 C 
ATOM     27  C   UNL A   1      35.092  30.770  27.745  1.00  0.00     0.049 C 
ENDBRANCH  25  26
ENDBRANCH  20  25
BRANCH  22  28
ATOM     28  C   UNL A   1      31.393  29.911  25.335  1.00  0.00     0.036 C 
ATOM     29  C   UNL A   1      30.433  29.995  24.152  1.00  0.00     0.009 C 
ENDBRANCH  22  28
ENDBRANCH  17  19
ENDBRANCH   7  17
ENDBRANCH   5   6
ENDBRANCH   3   5
ENDBRANCH   2   3
ENDBRANCH   1   2
BRANCH   1  30
ATOM     30  C   UNL A   1      36.130  22.696  25.535  1.00  0.00     0.275 C 
BRANCH  30  31
ATOM     31  O   UNL A   1      37.080  23.718  25.909  1.00  0.00    -0.458 OA
BRANCH  31  32
ATOM     32  C   UNL A   1      38.293  23.223  26.227  1.00  0.00     0.338 C 
ATOM     33  O   UNL A   1      38.679  22.080  26.051  1.00  0.00    -0.246 OA
BRANCH  32  34
ATOM     34  C   UNL A   1      39.229  24.224  26.726  1.00  0.00     0.060 A 
ATOM     35  C   UNL A   1      39.145  24.563  28.079  1.00  0.00     0.016 A 
ATOM     36  C   UNL A   1      39.965  25.003  25.834  1.00  0.00     0.016 A 
ATOM     37  C   UNL A   1      39.757  25.720  28.537  1.00  0.00     0.010 A 
ATOM     38  C   UNL A   1      40.631  26.134  26.311  1.00  0.00     0.010 A 
ATOM     39  C   UNL A   1      40.514  26.510  27.659  1.00  0.00    -0.014 A 
BRANCH  39  40
ATOM     40  C   UNL A   1      41.238  27.687  28.191  1.00  0.00     0.031 A 
ATOM     41  C   UNL A   1      42.737  27.748  28.196  1.00  0.00     0.074 A 
ATOM     42  C   UNL A   1      40.512  28.720  28.654  1.00  0.00     0.049 A 
ATOM     43  N   UNL A   1      43.514  28.702  28.643  1.00  0.00    -0.248 NA
ATOM     44  C   UNL A   1      43.459  26.601  27.626  1.00  0.00     0.031 C 
ATOM     45  C   UNL A   1      39.047  28.777  28.675  1.00  0.00     0.029 A 
ATOM     46  N   UNL A   1      40.900  29.918  29.192  1.00  0.00    -0.354 N 
ATOM     47  C   UNL A   1      44.815  28.275  28.410  1.00  0.00     0.074 A 
ATOM     48  C   UNL A   1      44.725  26.963  27.804  1.00  0.00     0.031 C 
ATOM     49  C   UNL A   1      38.661  29.955  29.186  1.00  0.00     0.029 A 
ATOM     50  C   UNL A   1      39.846  30.707  29.579  1.00  0.00     0.049 A 
ATOM     51  H   UNL A   1      41.842  30.186  29.291  1.00  0.00     0.167 HD
ATOM     52  C   UNL A   1      45.976  28.922  28.673  1.00  0.00     0.031 A 
ATOM     53  C   UNL A   1      39.829  31.892  30.215  1.00  0.00     0.031 A 
ATOM     54  C   UNL A   1      46.062  30.211  29.302  1.00  0.00     0.049 A 
ATOM     55  C   UNL A   1      41.128  32.541  30.582  1.00  0.00     0.074 A 
ATOM     56  C   UNL A   1      47.195  30.942  29.616  1.00  0.00     0.029 A 
ATOM     57  N   UNL A   1      44.974  30.955  29.729  1.00  0.00    -0.354 N 
ATOM     58  N   UNL A   1      42.349  32.128  30.335  1.00  0.00    -0.248 NA
ATOM     59  C   UNL A   1      41.050  33.807  31.321  1.00  0.00     0.031 C 
ATOM     60  C   UNL A   1      46.790  32.114  30.267  1.00  0.00     0.029 A 
ATOM     61  C   UNL A   1      45.406  32.124  30.330  1.00  0.00     0.049 A 
ATOM     62  H   UNL A   1      44.032  30.690  29.622  1.00  0.00     0.167 HD
ATOM     63  C   UNL A   1      43.188  33.088  30.885  1.00  0.00     0.074 A 
ATOM     64  C   UNL A   1      42.334  34.110  31.462  1.00  0.00     0.031 C 
ATOM     65  C   UNL A   1      44.541  33.121  30.908  1.00  0.00     0.031 A 
BRANCH  52  66
ATOM     66  C   UNL A   1      47.252  28.232  28.286  1.00  0.00    -0.014 A 
ATOM     67  C   UNL A   1      47.878  27.347  29.180  1.00  0.00     0.010 A 
ATOM     68  C   UNL A   1      47.810  28.437  27.014  1.00  0.00     0.010 A 
ATOM     69  C   UNL A   1      49.071  26.710  28.825  1.00  0.00     0.020 A 
ATOM     70  C   UNL A   1      48.995  27.793  26.649  1.00  0.00     0.020 A 
ATOM     71  C   UNL A   1      49.629  26.949  27.566  1.00  0.00     0.054 A 
BRANCH  71  72
ATOM     72  S   UNL A   1      51.178  26.118  27.114  1.00  0.00     0.124 S 
ATOM     73  O   UNL A   1      52.109  26.677  28.091  1.00  0.00    -0.237 OA
ATOM     74  O   UNL A   1      50.857  24.705  27.291  1.00  0.00    -0.237 OA
ATOM     75  O   UNL A   1      51.397  26.534  25.731  1.00  0.00    -0.744 OA
ENDBRANCH  71  72
ENDBRANCH  52  66
BRANCH  53  76
ATOM     76  C   UNL A   1      38.523  32.501  30.570  1.00  0.00    -0.014 A 
ATOM     77  C   UNL A   1      37.856  33.341  29.666  1.00  0.00     0.010 A 
ATOM     78  C   UNL A   1      37.908  32.175  31.794  1.00  0.00     0.010 A 
ATOM     79  C   UNL A   1      36.588  33.841  29.977  1.00  0.00     0.020 A 
ATOM     80  C   UNL A   1      36.633  32.656  32.097  1.00  0.00     0.020 A 
ATOM     81  C   UNL A   1      35.983  33.491  31.188  1.00  0.00     0.054 A 
BRANCH  81  82
ATOM     82  S   UNL A   1      34.300  34.072  31.536  1.00  0.00     0.124 S 
ATOM     83  O   UNL A   1      33.802  33.034  32.432  1.00  0.00    -0.237 OA
ATOM     84  O   UNL A   1      34.532  35.379  32.147  1.00  0.00    -0.237 OA
ATOM     85  O   UNL A   1      33.677  34.114  30.215  1.00  0.00    -0.744 OA
ENDBRANCH  81  82
ENDBRANCH  53  76
BRANCH  65  86
ATOM     86  C   UNL A   1      45.180  34.304  31.575  1.00  0.00    -0.014 A 
ATOM     87  C   UNL A   1      45.453  35.476  30.850  1.00  0.00     0.010 A 
ATOM     88  C   UNL A   1      45.478  34.254  32.949  1.00  0.00     0.010 A 
ATOM     89  C   UNL A   1      46.038  36.574  31.483  1.00  0.00     0.020 A 
ATOM     90  C   UNL A   1      46.047  35.356  33.588  1.00  0.00     0.020 A 
ATOM     91  C   UNL A   1      46.336  36.505  32.847  1.00  0.00     0.054 A 
BRANCH  91  92
ATOM     92  S   UNL A   1      47.060  37.955  33.662  1.00  0.00     0.124 S 
ATOM     93  O   UNL A   1      46.743  37.704  35.064  1.00  0.00    -0.237 OA
ATOM     94  O   UNL A   1      48.474  37.855  33.310  1.00  0.00    -0.237 OA
ATOM     95  O   UNL A   1      46.352  39.079  33.053  1.00  0.00    -0.744 OA
ENDBRANCH  91  92
ENDBRANCH  65  86
ENDBRANCH  39  40
ENDBRANCH  32  34
ENDBRANCH  31  32
ENDBRANCH  30  31
ENDBRANCH   1  30
TORSDOF 20
ENDMDL
MODEL 3
REMARK VINA RESULT:     -10.3      1.981      8.903
REMARK SMILES CCOc1cnc(C(=O)c2[nH]c3cc(Cl)ccc3c2CC(=O)OCCOC(=O)c2ccc(-c3c4nc(c(-c5ccc(S(=O)(=O)[O-])cc5)c5ccc([nH]5)c(-c5ccc(S(=O)(=O)[O-])cc5)c5nc(c(-c6ccc(S(=O)(=O)[O-])cc6)c6ccc3[nH]6)C=C5)C=C4)cc2)cc1CC
REMARK SMILES IDX 24 1 23 2 21 3 22 4 20 5 19 6 10 7 11 8 12 9 18 11 13 12
REMARK SMILES IDX 17 13 14 14 16 15 15 16 8 17 9 18 7 19 4 20 5 21 90 22 6 23
REMARK SMILES IDX 89 24 3 25 2 26 1 27 91 28 92 29 25 30 26 31 27 32 28 33
REMARK SMILES IDX 29 34 30 35 88 36 31 37 87 38 32 39 33 40 34 41 81 42 35 43
REMARK SMILES IDX 86 44 80 45 82 46 36 47 85 48 79 49 78 50 37 52 67 53 48 54
REMARK SMILES IDX 66 55 49 56 52 57 65 58 83 59 50 60 51 61 64 63 84 64 53 65
REMARK SMILES IDX 38 66 39 67 47 68 40 69 46 70 41 71 42 72 43 73 44 74 45 75
REMARK SMILES IDX 68 76 69 77 77 78 70 79 76 80 71 81 72 82 73 83 74 84 75 85
REMARK SMILES IDX 54 86 55 87 63 88 56 89 62 90 57 91 58 92 59 93 60 94 61 95
REMARK H PARENT 11 10 82 51 52 62
REMARK Flexibility Score: inf
ROOT
ATOM      1  C   UNL A   1      35.138  22.197  26.461  1.00  0.00     0.274 C 
ENDROOT
BRANCH   1   2
ATOM      2  O   UNL A   1      34.286  23.240  26.983  1.00  0.00    -0.462 OA
BRANCH   2   3
ATOM      3  C   UNL A   1      33.054  22.859  27.405  1.00  0.00     0.310 C 
ATOM      4  O   UNL A   1      32.835  22.334  28.495  1.00  0.00    -0.252 OA
BRANCH   3   5
ATOM      5  C   UNL A   1      31.916  23.259  26.489  1.00  0.00     0.161 C 
BRANCH   5   6
ATOM      6  C   UNL A   1      32.015  22.911  25.036  1.00  0.00     0.000 A 
ATOM      7  C   UNL A   1      31.764  23.727  23.935  1.00  0.00     0.093 A 
ATOM      8  N   UNL A   1      31.998  22.972  22.809  1.00  0.00    -0.351 N 
ATOM      9  C   UNL A   1      32.130  21.650  23.135  1.00  0.00     0.048 A 
ATOM     10  H   UNL A   1      32.061  23.334  21.895  1.00  0.00     0.167 HD
ATOM     11  C   UNL A   1      32.227  21.584  24.524  1.00  0.00     0.004 A 
ATOM     12  C   UNL A   1      32.165  20.521  22.310  1.00  0.00     0.047 A 
ATOM     13  C   UNL A   1      32.429  20.320  25.120  1.00  0.00     0.012 A 
ATOM     14  C   UNL A   1      32.325  19.281  22.931  1.00  0.00     0.043 A 
ATOM     15  C   UNL A   1      32.472  19.175  24.311  1.00  0.00     0.021 A 
ATOM     16  Cl  UNL A   1      32.332  17.855  21.964  1.00  0.00    -0.084 Cl
BRANCH   7  17
ATOM     17  C   UNL A   1      31.316  25.108  23.784  1.00  0.00     0.227 C 
ATOM     18  O   UNL A   1      30.307  25.371  23.133  1.00  0.00    -0.285 OA
BRANCH  17  19
ATOM     19  C   UNL A   1      31.885  26.150  24.727  1.00  0.00     0.113 A 
ATOM     20  C   UNL A   1      33.235  28.349  25.678  1.00  0.00     0.140 A 
ATOM     21  C   UNL A   1      33.809  27.085  25.609  1.00  0.00     0.158 A 
ATOM     22  C   UNL A   1      31.911  28.504  25.270  1.00  0.00    -0.002 A 
ATOM     23  N   UNL A   1      33.173  25.985  25.132  1.00  0.00    -0.249 NA
ATOM     24  C   UNL A   1      31.208  27.363  24.859  1.00  0.00     0.040 A 
BRANCH  20  25
ATOM     25  O   UNL A   1      33.998  29.448  25.941  1.00  0.00    -0.492 OA
BRANCH  25  26
ATOM     26  C   UNL A   1      34.168  29.698  27.340  1.00  0.00     0.226 C 
ATOM     27  C   UNL A   1      35.620  30.067  27.600  1.00  0.00     0.049 C 
ENDBRANCH  25  26
ENDBRANCH  20  25
BRANCH  22  28
ATOM     28  C   UNL A   1      31.268  29.860  25.115  1.00  0.00     0.036 C 
ATOM     29  C   UNL A   1      30.287  29.880  23.946  1.00  0.00     0.009 C 
ENDBRANCH  22  28
ENDBRANCH  17  19
ENDBRANCH   7  17
ENDBRANCH   5   6
ENDBRANCH   3   5
ENDBRANCH   2   3
ENDBRANCH   1   2
BRANCH   1  30
ATOM     30  C   UNL A   1      36.173  22.754  25.471  1.00  0.00     0.275 C 
BRANCH  30  31
ATOM     31  O   UNL A   1      37.050  23.736  26.065  1.00  0.00    -0.458 OA
BRANCH  31  32
ATOM     32  C   UNL A   1      38.307  23.282  26.250  1.00  0.00     0.338 C 
ATOM     33  O   UNL A   1      38.728  22.175  25.958  1.00  0.00    -0.246 OA
BRANCH  32  34
ATOM     34  C   UNL A   1      39.234  24.291  26.750  1.00  0.00     0.060 A 
ATOM     35  C   UNL A   1      39.146  24.627  28.102  1.00  0.00     0.016 A 
ATOM     36  C   UNL A   1      39.963  25.076  25.858  1.00  0.00     0.016 A 
ATOM     37  C   UNL A   1      39.748  25.790  28.561  1.00  0.00     0.010 A 
ATOM     38  C   UNL A   1      40.620  26.213  26.335  1.00  0.00     0.010 A 
ATOM     39  C   UNL A   1      40.499  26.587  27.684  1.00  0.00    -0.014 A 
BRANCH  39  40
ATOM     40  C   UNL A   1      41.213  27.770  28.217  1.00  0.00     0.031 A 
ATOM     41  C   UNL A   1      40.471  28.935  28.799  1.00  0.00     0.074 A 
ATOM     42  C   UNL A   1      42.558  27.764  28.184  1.00  0.00     0.049 A 
ATOM     43  N   UNL A   1      40.953  30.049  29.289  1.00  0.00    -0.248 NA
ATOM     44  C   UNL A   1      39.003  28.844  28.844  1.00  0.00     0.031 C 
ATOM     45  C   UNL A   1      43.383  26.671  27.662  1.00  0.00     0.029 A 
ATOM     46  N   UNL A   1      43.467  28.700  28.601  1.00  0.00    -0.354 N 
ATOM     47  C   UNL A   1      39.856  30.792  29.701  1.00  0.00     0.074 A 
ATOM     48  C   UNL A   1      38.677  30.014  29.382  1.00  0.00     0.031 C 
ATOM     49  C   UNL A   1      44.677  26.994  27.801  1.00  0.00     0.029 A 
ATOM     50  C   UNL A   1      44.769  28.333  28.368  1.00  0.00     0.049 A 
ATOM     51  H   UNL A   1      43.212  29.550  29.025  1.00  0.00     0.167 HD
ATOM     52  C   UNL A   1      39.835  32.009  30.296  1.00  0.00     0.031 A 
ATOM     53  C   UNL A   1      45.915  29.012  28.555  1.00  0.00     0.031 A 
ATOM     54  C   UNL A   1      41.005  32.791  30.585  1.00  0.00     0.049 A 
ATOM     55  C   UNL A   1      45.857  30.396  29.125  1.00  0.00     0.074 A 
ATOM     56  C   UNL A   1      41.082  34.040  31.179  1.00  0.00     0.029 A 
ATOM     57  N   UNL A   1      42.303  32.410  30.285  1.00  0.00    -0.354 N 
ATOM     58  N   UNL A   1      44.808  31.074  29.526  1.00  0.00    -0.248 NA
ATOM     59  C   UNL A   1      47.132  31.111  29.258  1.00  0.00     0.031 C 
ATOM     60  C   UNL A   1      42.427  34.427  31.205  1.00  0.00     0.029 A 
ATOM     61  C   UNL A   1      43.188  33.408  30.654  1.00  0.00     0.049 A 
ATOM     62  H   UNL A   1      42.558  31.555  29.869  1.00  0.00     0.167 HD
ATOM     63  C   UNL A   1      45.297  32.296  29.966  1.00  0.00     0.074 A 
ATOM     64  C   UNL A   1      46.737  32.257  29.796  1.00  0.00     0.031 C 
ATOM     65  C   UNL A   1      44.615  33.354  30.466  1.00  0.00     0.031 A 
BRANCH  52  66
ATOM     66  C   UNL A   1      38.493  32.572  30.666  1.00  0.00    -0.014 A 
ATOM     67  C   UNL A   1      37.986  32.399  31.965  1.00  0.00     0.010 A 
ATOM     68  C   UNL A   1      37.752  33.309  29.729  1.00  0.00     0.010 A 
ATOM     69  C   UNL A   1      36.733  32.915  32.308  1.00  0.00     0.020 A 
ATOM     70  C   UNL A   1      36.504  33.838  30.071  1.00  0.00     0.020 A 
ATOM     71  C   UNL A   1      35.994  33.619  31.354  1.00  0.00     0.054 A 
BRANCH  71  72
ATOM     72  S   UNL A   1      34.368  34.285  31.810  1.00  0.00     0.124 S 
ATOM     73  O   UNL A   1      33.855  33.237  32.687  1.00  0.00    -0.237 OA
ATOM     74  O   UNL A   1      34.702  35.546  32.468  1.00  0.00    -0.237 OA
ATOM     75  O   UNL A   1      33.683  34.420  30.527  1.00  0.00    -0.744 OA
ENDBRANCH  71  72
ENDBRANCH  52  66
BRANCH  53  76
ATOM     76  C   UNL A   1      47.199  28.386  28.152  1.00  0.00    -0.014 A 
ATOM     77  C   UNL A   1      47.847  27.474  28.999  1.00  0.00     0.010 A 
ATOM     78  C   UNL A   1      47.735  28.647  26.877  1.00  0.00     0.010 A 
ATOM     79  C   UNL A   1      49.011  26.826  28.574  1.00  0.00     0.020 A 
ATOM     80  C   UNL A   1      48.885  27.985  26.442  1.00  0.00     0.020 A 
ATOM     81  C   UNL A   1      49.519  27.082  27.296  1.00  0.00     0.054 A 
BRANCH  81  82
ATOM     82  S   UNL A   1      50.975  26.165  26.725  1.00  0.00     0.124 S 
ATOM     83  O   UNL A   1      52.067  27.029  27.163  1.00  0.00    -0.237 OA
ATOM     84  O   UNL A   1      50.852  24.893  27.433  1.00  0.00    -0.237 OA
ATOM     85  O   UNL A   1      50.779  26.084  25.279  1.00  0.00    -0.744 OA
ENDBRANCH  81  82
ENDBRANCH  53  76
BRANCH  65  86
ATOM     86  C   UNL A   1      45.423  34.553  30.870  1.00  0.00    -0.014 A 
ATOM     87  C   UNL A   1      45.954  34.656  32.167  1.00  0.00     0.010 A 
ATOM     88  C   UNL A   1      45.682  35.568  29.932  1.00  0.00     0.010 A 
ATOM     89  C   UNL A   1      46.713  35.771  32.529  1.00  0.00     0.020 A 
ATOM     90  C   UNL A   1      46.454  36.676  30.286  1.00  0.00     0.020 A 
ATOM     91  C   UNL A   1      46.953  36.776  31.587  1.00  0.00     0.054 A 
BRANCH  91  92
ATOM     92  S   UNL A   1      47.974  38.198  32.063  1.00  0.00     0.124 S 
ATOM     93  O   UNL A   1      47.970  38.996  30.840  1.00  0.00    -0.237 OA
ATOM     94  O   UNL A   1      47.236  38.768  33.187  1.00  0.00    -0.237 OA
ATOM     95  O   UNL A   1      49.259  37.596  32.412  1.00  0.00    -0.744 OA
ENDBRANCH  91  92
ENDBRANCH  65  86
ENDBRANCH  39  40
ENDBRANCH  32  34
ENDBRANCH  31  32
ENDBRANCH  30  31
ENDBRANCH   1  30
TORSDOF 20
ENDMDL
