MODEL 1
REMARK VINA RESULT:     -10.5      0.000      0.000
REMARK SMILES O=C(Cc1ccccc1Nc1c(F)cccc1C(F)(F)F)OCCOC(=O)c1ccc(-c2c3nc(c(-c4ccc(S(=O)(=O)[O-])cc4)c4ccc([nH]4)c(-c4ccc(S(=O)(=O)[O-])cc4)c4nc(c(-c5ccc(S(=O)(=O)[O-])cc5)c5ccc2[nH]5)C=C4)C=C3)cc1
REMARK SMILES IDX 23 1 22 2 2 3 1 4 3 5 4 6 5 7 9 8 6 9 8 10 7 11 10 12 11 14
REMARK SMILES IDX 12 15 17 16 13 17 14 18 16 19 15 20 18 21 19 22 20 23 21 24
REMARK SMILES IDX 24 25 25 26 26 27 27 28 28 29 29 30 87 31 30 32 86 33 31 34
REMARK SMILES IDX 32 35 33 36 80 37 34 38 85 39 79 40 81 41 35 42 84 43 78 44
REMARK SMILES IDX 77 45 36 47 66 48 47 49 65 50 48 51 51 52 64 53 82 54 49 55
REMARK SMILES IDX 50 56 63 58 83 59 52 60 37 61 38 62 46 63 39 64 45 65 40 66
REMARK SMILES IDX 41 67 42 68 43 69 44 70 67 71 68 72 76 73 69 74 75 75 70 76
REMARK SMILES IDX 71 77 72 78 73 79 74 80 53 81 54 82 62 83 55 84 61 85 56 86
REMARK SMILES IDX 57 87 58 88 59 89 60 90
REMARK H PARENT 10 13 81 46 51 57
REMARK Flexibility Score: inf
ROOT
ATOM      1  C   UNL A   1      32.270  28.159  27.441  1.00  0.00     0.274 C 
ENDROOT
BRANCH   1   2
ATOM      2  O   UNL A   1      31.145  27.373  26.994  1.00  0.00    -0.462 OA
BRANCH   2   3
ATOM      3  C   UNL A   1      31.210  26.100  26.536  1.00  0.00     0.310 C 
ATOM      4  O   UNL A   1      30.189  25.413  26.491  1.00  0.00    -0.252 OA
BRANCH   3   5
ATOM      5  C   UNL A   1      32.533  25.559  26.054  1.00  0.00     0.160 C 
BRANCH   5   6
ATOM      6  C   UNL A   1      32.659  25.240  24.578  1.00  0.00    -0.013 A 
ATOM      7  C   UNL A   1      32.162  26.114  23.596  1.00  0.00     0.006 A 
ATOM      8  C   UNL A   1      33.287  24.034  24.175  1.00  0.00     0.042 A 
ATOM      9  C   UNL A   1      32.294  25.817  22.240  1.00  0.00     0.000 A 
ATOM     10  C   UNL A   1      33.417  23.762  22.805  1.00  0.00     0.026 A 
ATOM     11  C   UNL A   1      32.920  24.641  21.846  1.00  0.00     0.002 A 
BRANCH   8  12
ATOM     12  N   UNL A   1      33.818  23.151  25.148  1.00  0.00    -0.352 N 
ATOM     13  H   UNL A   1      33.221  22.931  25.899  1.00  0.00     0.167 HD
BRANCH  12  14
ATOM     14  C   UNL A   1      35.095  22.547  25.177  1.00  0.00     0.087 A 
ATOM     15  C   UNL A   1      36.199  23.369  25.452  1.00  0.00     0.147 A 
ATOM     16  C   UNL A   1      35.308  21.172  25.004  1.00  0.00     0.082 A 
ATOM     17  F   UNL A   1      35.993  24.675  25.681  1.00  0.00    -0.205 F 
ATOM     18  C   UNL A   1      37.493  22.874  25.508  1.00  0.00     0.041 A 
ATOM     19  C   UNL A   1      36.633  20.678  25.049  1.00  0.00     0.015 A 
ATOM     20  C   UNL A   1      37.718  21.524  25.284  1.00  0.00     0.004 A 
BRANCH  16  21
ATOM     21  C   UNL A   1      34.179  20.195  24.810  1.00  0.00     0.418 C 
ATOM     22  F   UNL A   1      33.467  19.983  25.959  1.00  0.00    -0.166 F 
ATOM     23  F   UNL A   1      33.257  20.636  23.905  1.00  0.00    -0.166 F 
ATOM     24  F   UNL A   1      34.551  18.949  24.399  1.00  0.00    -0.166 F 
ENDBRANCH  16  21
ENDBRANCH  12  14
ENDBRANCH   8  12
ENDBRANCH   5   6
ENDBRANCH   3   5
ENDBRANCH   2   3
ENDBRANCH   1   2
BRANCH   1  25
ATOM     25  C   UNL A   1      32.426  29.426  26.599  1.00  0.00     0.275 C 
BRANCH  25  26
ATOM     26  O   UNL A   1      33.815  29.784  26.481  1.00  0.00    -0.458 OA
BRANCH  26  27
ATOM     27  C   UNL A   1      34.279  30.675  27.395  1.00  0.00     0.338 C 
ATOM     28  O   UNL A   1      33.692  31.652  27.811  1.00  0.00    -0.246 OA
BRANCH  27  29
ATOM     29  C   UNL A   1      35.564  30.184  27.957  1.00  0.00     0.060 A 
ATOM     30  C   UNL A   1      35.563  29.693  29.269  1.00  0.00     0.016 A 
ATOM     31  C   UNL A   1      36.752  30.190  27.218  1.00  0.00     0.016 A 
ATOM     32  C   UNL A   1      36.749  29.245  29.857  1.00  0.00     0.010 A 
ATOM     33  C   UNL A   1      37.938  29.737  27.807  1.00  0.00     0.010 A 
ATOM     34  C   UNL A   1      37.951  29.289  29.139  1.00  0.00    -0.014 A 
BRANCH  34  35
ATOM     35  C   UNL A   1      39.246  28.979  29.800  1.00  0.00     0.031 A 
ATOM     36  C   UNL A   1      39.773  29.909  30.856  1.00  0.00     0.074 A 
ATOM     37  C   UNL A   1      39.965  27.891  29.466  1.00  0.00     0.049 A 
ATOM     38  N   UNL A   1      40.905  29.853  31.510  1.00  0.00    -0.248 NA
ATOM     39  C   UNL A   1      38.905  31.032  31.245  1.00  0.00     0.031 C 
ATOM     40  C   UNL A   1      39.553  26.862  28.519  1.00  0.00     0.029 A 
ATOM     41  N   UNL A   1      41.220  27.496  29.863  1.00  0.00    -0.354 N 
ATOM     42  C   UNL A   1      40.862  30.895  32.425  1.00  0.00     0.074 A 
ATOM     43  C   UNL A   1      39.630  31.617  32.189  1.00  0.00     0.031 C 
ATOM     44  C   UNL A   1      40.571  26.000  28.340  1.00  0.00     0.029 A 
ATOM     45  C   UNL A   1      41.706  26.429  29.145  1.00  0.00     0.049 A 
ATOM     46  H   UNL A   1      41.721  27.932  30.590  1.00  0.00     0.167 HD
ATOM     47  C   UNL A   1      41.747  31.197  33.405  1.00  0.00     0.031 A 
ATOM     48  C   UNL A   1      42.939  25.888  29.105  1.00  0.00     0.031 A 
ATOM     49  C   UNL A   1      42.988  30.505  33.625  1.00  0.00     0.049 A 
ATOM     50  C   UNL A   1      43.999  26.378  30.044  1.00  0.00     0.074 A 
ATOM     51  C   UNL A   1      43.921  30.709  34.628  1.00  0.00     0.029 A 
ATOM     52  N   UNL A   1      43.483  29.493  32.819  1.00  0.00    -0.354 N 
ATOM     53  N   UNL A   1      43.927  27.338  30.932  1.00  0.00    -0.248 NA
ATOM     54  C   UNL A   1      45.292  25.681  30.005  1.00  0.00     0.031 C 
ATOM     55  C   UNL A   1      45.006  29.856  34.395  1.00  0.00     0.029 A 
ATOM     56  C   UNL A   1      44.725  29.087  33.279  1.00  0.00     0.049 A 
ATOM     57  H   UNL A   1      43.020  29.119  32.036  1.00  0.00     0.167 HD
ATOM     58  C   UNL A   1      45.141  27.315  31.606  1.00  0.00     0.074 A 
ATOM     59  C   UNL A   1      45.943  26.275  30.996  1.00  0.00     0.031 C 
ATOM     60  C   UNL A   1      45.531  28.063  32.666  1.00  0.00     0.031 A 
BRANCH  47  61
ATOM     61  C   UNL A   1      41.384  32.324  34.330  1.00  0.00    -0.014 A 
ATOM     62  C   UNL A   1      40.688  32.069  35.525  1.00  0.00     0.010 A 
ATOM     63  C   UNL A   1      41.778  33.639  34.029  1.00  0.00     0.010 A 
ATOM     64  C   UNL A   1      40.362  33.115  36.389  1.00  0.00     0.020 A 
ATOM     65  C   UNL A   1      41.471  34.686  34.901  1.00  0.00     0.020 A 
ATOM     66  C   UNL A   1      40.752  34.418  36.070  1.00  0.00     0.054 A 
BRANCH  66  67
ATOM     67  S   UNL A   1      40.335  35.756  37.221  1.00  0.00     0.124 S 
ATOM     68  O   UNL A   1      41.630  36.035  37.839  1.00  0.00    -0.237 OA
ATOM     69  O   UNL A   1      39.825  36.797  36.333  1.00  0.00    -0.237 OA
ATOM     70  O   UNL A   1      39.341  35.153  38.106  1.00  0.00    -0.744 OA
ENDBRANCH  66  67
ENDBRANCH  47  61
BRANCH  48  71
ATOM     71  C   UNL A   1      43.271  24.855  28.092  1.00  0.00    -0.014 A 
ATOM     72  C   UNL A   1      43.061  23.490  28.340  1.00  0.00     0.010 A 
ATOM     73  C   UNL A   1      43.844  25.256  26.871  1.00  0.00     0.010 A 
ATOM     74  C   UNL A   1      43.420  22.538  27.378  1.00  0.00     0.020 A 
ATOM     75  C   UNL A   1      44.187  24.311  25.904  1.00  0.00     0.020 A 
ATOM     76  C   UNL A   1      43.982  22.956  26.168  1.00  0.00     0.054 A 
BRANCH  76  77
ATOM     77  S   UNL A   1      44.393  21.720  24.903  1.00  0.00     0.124 S 
ATOM     78  O   UNL A   1      45.781  21.410  25.226  1.00  0.00    -0.237 OA
ATOM     79  O   UNL A   1      43.427  20.657  25.165  1.00  0.00    -0.237 OA
ATOM     80  O   UNL A   1      44.185  22.444  23.651  1.00  0.00    -0.744 OA
ENDBRANCH  76  77
ENDBRANCH  48  71
BRANCH  60  81
ATOM     81  C   UNL A   1      46.860  27.739  33.285  1.00  0.00    -0.014 A 
ATOM     82  C   UNL A   1      48.037  28.398  32.894  1.00  0.00     0.010 A 
ATOM     83  C   UNL A   1      46.921  26.769  34.303  1.00  0.00     0.010 A 
ATOM     84  C   UNL A   1      49.258  28.074  33.494  1.00  0.00     0.020 A 
ATOM     85  C   UNL A   1      48.133  26.460  34.922  1.00  0.00     0.020 A 
ATOM     86  C   UNL A   1      49.298  27.105  34.502  1.00  0.00     0.054 A 
BRANCH  86  87
ATOM     87  S   UNL A   1      50.885  26.730  35.298  1.00  0.00     0.124 S 
ATOM     88  O   UNL A   1      51.700  27.875  34.903  1.00  0.00    -0.237 OA
ATOM     89  O   UNL A   1      50.528  26.671  36.714  1.00  0.00    -0.237 OA
ATOM     90  O   UNL A   1      51.274  25.452  34.707  1.00  0.00    -0.744 OA
ENDBRANCH  86  87
ENDBRANCH  60  81
ENDBRANCH  34  35
ENDBRANCH  27  29
ENDBRANCH  26  27
ENDBRANCH  25  26
ENDBRANCH   1  25
TORSDOF 18
ENDMDL
MODEL 2
REMARK VINA RESULT:     -10.5      3.255      9.485
REMARK SMILES O=C(Cc1ccccc1Nc1c(F)cccc1C(F)(F)F)OCCOC(=O)c1ccc(-c2c3nc(c(-c4ccc(S(=O)(=O)[O-])cc4)c4ccc([nH]4)c(-c4ccc(S(=O)(=O)[O-])cc4)c4nc(c(-c5ccc(S(=O)(=O)[O-])cc5)c5ccc2[nH]5)C=C4)C=C3)cc1
REMARK SMILES IDX 23 1 22 2 2 3 1 4 3 5 4 6 5 7 9 8 6 9 8 10 7 11 10 12 11 14
REMARK SMILES IDX 12 15 17 16 13 17 14 18 16 19 15 20 18 21 19 22 20 23 21 24
REMARK SMILES IDX 24 25 25 26 26 27 27 28 28 29 29 30 87 31 30 32 86 33 31 34
REMARK SMILES IDX 32 35 33 36 80 37 34 38 85 39 79 40 81 41 35 42 84 43 78 44
REMARK SMILES IDX 77 45 36 47 66 48 47 49 65 50 48 51 51 52 64 53 82 54 49 55
REMARK SMILES IDX 50 56 63 58 83 59 52 60 37 61 38 62 46 63 39 64 45 65 40 66
REMARK SMILES IDX 41 67 42 68 43 69 44 70 67 71 68 72 76 73 69 74 75 75 70 76
REMARK SMILES IDX 71 77 72 78 73 79 74 80 53 81 54 82 62 83 55 84 61 85 56 86
REMARK SMILES IDX 57 87 58 88 59 89 60 90
REMARK H PARENT 10 13 81 46 51 57
REMARK Flexibility Score: inf
ROOT
ATOM      1  C   UNL A   1      39.316  21.470  26.176  1.00  0.00     0.274 C 
ENDROOT
BRANCH   1   2
ATOM      2  O   UNL A   1      38.124  22.284  26.197  1.00  0.00    -0.462 OA
BRANCH   2   3
ATOM      3  C   UNL A   1      37.140  22.257  25.267  1.00  0.00     0.310 C 
ATOM      4  O   UNL A   1      37.400  21.924  24.110  1.00  0.00    -0.252 OA
BRANCH   3   5
ATOM      5  C   UNL A   1      35.730  22.603  25.678  1.00  0.00     0.160 C 
BRANCH   5   6
ATOM      6  C   UNL A   1      34.606  21.792  25.064  1.00  0.00    -0.013 A 
ATOM      7  C   UNL A   1      34.645  20.387  25.044  1.00  0.00     0.006 A 
ATOM      8  C   UNL A   1      33.494  22.460  24.493  1.00  0.00     0.042 A 
ATOM      9  C   UNL A   1      33.600  19.651  24.487  1.00  0.00     0.000 A 
ATOM     10  C   UNL A   1      32.451  21.698  23.948  1.00  0.00     0.026 A 
ATOM     11  C   UNL A   1      32.505  20.306  23.939  1.00  0.00     0.002 A 
BRANCH   8  12
ATOM     12  N   UNL A   1      33.424  23.875  24.525  1.00  0.00    -0.352 N 
ATOM     13  H   UNL A   1      34.285  24.347  24.601  1.00  0.00     0.167 HD
BRANCH  12  14
ATOM     14  C   UNL A   1      32.275  24.696  24.462  1.00  0.00     0.087 A 
ATOM     15  C   UNL A   1      31.554  24.900  25.650  1.00  0.00     0.147 A 
ATOM     16  C   UNL A   1      31.854  25.357  23.299  1.00  0.00     0.082 A 
ATOM     17  F   UNL A   1      31.989  24.321  26.779  1.00  0.00    -0.205 F 
ATOM     18  C   UNL A   1      30.416  25.692  25.696  1.00  0.00     0.041 A 
ATOM     19  C   UNL A   1      30.684  26.150  23.353  1.00  0.00     0.015 A 
ATOM     20  C   UNL A   1      29.963  26.305  24.538  1.00  0.00     0.004 A 
BRANCH  16  21
ATOM     21  C   UNL A   1      32.619  25.285  22.005  1.00  0.00     0.418 C 
ATOM     22  F   UNL A   1      31.946  25.870  20.967  1.00  0.00    -0.166 F 
ATOM     23  F   UNL A   1      33.811  25.948  22.065  1.00  0.00    -0.166 F 
ATOM     24  F   UNL A   1      32.904  24.027  21.565  1.00  0.00    -0.166 F 
ENDBRANCH  16  21
ENDBRANCH  12  14
ENDBRANCH   8  12
ENDBRANCH   5   6
ENDBRANCH   3   5
ENDBRANCH   2   3
ENDBRANCH   1   2
BRANCH   1  25
ATOM     25  C   UNL A   1      40.571  22.334  26.033  1.00  0.00     0.275 C 
BRANCH  25  26
ATOM     26  O   UNL A   1      40.492  23.481  26.897  1.00  0.00    -0.458 OA
BRANCH  26  27
ATOM     27  C   UNL A   1      41.556  24.324  26.864  1.00  0.00     0.338 C 
ATOM     28  O   UNL A   1      42.504  24.259  26.109  1.00  0.00    -0.246 OA
BRANCH  27  29
ATOM     29  C   UNL A   1      41.315  25.465  27.787  1.00  0.00     0.060 A 
ATOM     30  C   UNL A   1      42.342  26.404  27.952  1.00  0.00     0.016 A 
ATOM     31  C   UNL A   1      40.107  25.627  28.472  1.00  0.00     0.016 A 
ATOM     32  C   UNL A   1      42.179  27.481  28.828  1.00  0.00     0.010 A 
ATOM     33  C   UNL A   1      39.945  26.708  29.346  1.00  0.00     0.010 A 
ATOM     34  C   UNL A   1      40.989  27.627  29.552  1.00  0.00    -0.014 A 
BRANCH  34  35
ATOM     35  C   UNL A   1      40.862  28.662  30.610  1.00  0.00     0.031 A 
ATOM     36  C   UNL A   1      41.623  28.497  31.896  1.00  0.00     0.074 A 
ATOM     37  C   UNL A   1      40.071  29.739  30.450  1.00  0.00     0.049 A 
ATOM     38  N   UNL A   1      41.605  29.252  32.964  1.00  0.00    -0.248 NA
ATOM     39  C   UNL A   1      42.541  27.350  31.981  1.00  0.00     0.031 C 
ATOM     40  C   UNL A   1      39.331  30.074  29.239  1.00  0.00     0.029 A 
ATOM     41  N   UNL A   1      39.727  30.732  31.337  1.00  0.00    -0.354 N 
ATOM     42  C   UNL A   1      42.548  28.707  33.824  1.00  0.00     0.074 A 
ATOM     43  C   UNL A   1      43.061  27.512  33.189  1.00  0.00     0.031 C 
ATOM     44  C   UNL A   1      38.553  31.144  29.485  1.00  0.00     0.029 A 
ATOM     45  C   UNL A   1      38.727  31.553  30.872  1.00  0.00     0.049 A 
ATOM     46  H   UNL A   1      40.154  30.844  32.217  1.00  0.00     0.167 HD
ATOM     47  C   UNL A   1      42.981  29.184  35.016  1.00  0.00     0.031 A 
ATOM     48  C   UNL A   1      38.001  32.495  31.504  1.00  0.00     0.031 A 
ATOM     49  C   UNL A   1      42.453  30.352  35.668  1.00  0.00     0.049 A 
ATOM     50  C   UNL A   1      38.336  32.872  32.915  1.00  0.00     0.074 A 
ATOM     51  C   UNL A   1      42.869  30.938  36.851  1.00  0.00     0.029 A 
ATOM     52  N   UNL A   1      41.381  31.098  35.207  1.00  0.00    -0.354 N 
ATOM     53  N   UNL A   1      39.259  32.373  33.700  1.00  0.00    -0.248 NA
ATOM     54  C   UNL A   1      37.560  33.970  33.509  1.00  0.00     0.031 C 
ATOM     55  C   UNL A   1      42.011  32.007  37.134  1.00  0.00     0.029 A 
ATOM     56  C   UNL A   1      41.096  32.117  36.100  1.00  0.00     0.049 A 
ATOM     57  H   UNL A   1      40.894  30.928  34.369  1.00  0.00     0.167 HD
ATOM     58  C   UNL A   1      39.221  33.142  34.856  1.00  0.00     0.074 A 
ATOM     59  C   UNL A   1      38.158  34.111  34.685  1.00  0.00     0.031 C 
ATOM     60  C   UNL A   1      40.031  33.073  35.940  1.00  0.00     0.031 A 
BRANCH  47  61
ATOM     61  C   UNL A   1      44.103  28.440  35.682  1.00  0.00    -0.014 A 
ATOM     62  C   UNL A   1      45.438  28.690  35.318  1.00  0.00     0.010 A 
ATOM     63  C   UNL A   1      43.829  27.519  36.708  1.00  0.00     0.010 A 
ATOM     64  C   UNL A   1      46.481  28.007  35.946  1.00  0.00     0.020 A 
ATOM     65  C   UNL A   1      44.871  26.849  37.353  1.00  0.00     0.020 A 
ATOM     66  C   UNL A   1      46.191  27.087  36.958  1.00  0.00     0.054 A 
BRANCH  66  67
ATOM     67  S   UNL A   1      47.565  26.230  37.772  1.00  0.00     0.124 S 
ATOM     68  O   UNL A   1      47.508  24.910  37.149  1.00  0.00    -0.237 OA
ATOM     69  O   UNL A   1      48.718  27.049  37.405  1.00  0.00    -0.237 OA
ATOM     70  O   UNL A   1      47.204  26.266  39.188  1.00  0.00    -0.744 OA
ENDBRANCH  66  67
ENDBRANCH  47  61
BRANCH  48  71
ATOM     71  C   UNL A   1      36.831  33.115  30.833  1.00  0.00    -0.014 A 
ATOM     72  C   UNL A   1      36.987  33.978  29.737  1.00  0.00     0.010 A 
ATOM     73  C   UNL A   1      35.542  32.858  31.334  1.00  0.00     0.010 A 
ATOM     74  C   UNL A   1      35.865  34.576  29.151  1.00  0.00     0.020 A 
ATOM     75  C   UNL A   1      34.421  33.440  30.740  1.00  0.00     0.020 A 
ATOM     76  C   UNL A   1      34.591  34.303  29.657  1.00  0.00     0.054 A 
BRANCH  76  77
ATOM     77  S   UNL A   1      33.137  35.039  28.856  1.00  0.00     0.124 S 
ATOM     78  O   UNL A   1      32.694  33.956  27.985  1.00  0.00    -0.237 OA
ATOM     79  O   UNL A   1      32.264  35.342  29.987  1.00  0.00    -0.237 OA
ATOM     80  O   UNL A   1      33.688  36.208  28.175  1.00  0.00    -0.744 OA
ENDBRANCH  76  77
ENDBRANCH  48  71
BRANCH  60  81
ATOM     81  C   UNL A   1      39.849  34.120  37.001  1.00  0.00    -0.014 A 
ATOM     82  C   UNL A   1      39.046  33.893  38.132  1.00  0.00     0.010 A 
ATOM     83  C   UNL A   1      40.524  35.348  36.872  1.00  0.00     0.010 A 
ATOM     84  C   UNL A   1      38.901  34.889  39.103  1.00  0.00     0.020 A 
ATOM     85  C   UNL A   1      40.401  36.335  37.851  1.00  0.00     0.020 A 
ATOM     86  C   UNL A   1      39.578  36.103  38.955  1.00  0.00     0.054 A 
BRANCH  86  87
ATOM     87  S   UNL A   1      39.412  37.365  40.249  1.00  0.00     0.124 S 
ATOM     88  O   UNL A   1      40.791  37.817  40.410  1.00  0.00    -0.237 OA
ATOM     89  O   UNL A   1      38.500  38.332  39.640  1.00  0.00    -0.237 OA
ATOM     90  O   UNL A   1      38.860  36.627  41.382  1.00  0.00    -0.744 OA
ENDBRANCH  86  87
ENDBRANCH  60  81
ENDBRANCH  34  35
ENDBRANCH  27  29
ENDBRANCH  26  27
ENDBRANCH  25  26
ENDBRANCH   1  25
TORSDOF 18
ENDMDL
MODEL 3
REMARK VINA RESULT:     -10.3      4.941     10.045
REMARK SMILES O=C(Cc1ccccc1Nc1c(F)cccc1C(F)(F)F)OCCOC(=O)c1ccc(-c2c3nc(c(-c4ccc(S(=O)(=O)[O-])cc4)c4ccc([nH]4)c(-c4ccc(S(=O)(=O)[O-])cc4)c4nc(c(-c5ccc(S(=O)(=O)[O-])cc5)c5ccc2[nH]5)C=C4)C=C3)cc1
REMARK SMILES IDX 23 1 22 2 2 3 1 4 3 5 4 6 5 7 9 8 6 9 8 10 7 11 10 12 11 14
REMARK SMILES IDX 12 15 17 16 13 17 14 18 16 19 15 20 18 21 19 22 20 23 21 24
REMARK SMILES IDX 24 25 25 26 26 27 27 28 28 29 29 30 87 31 30 32 86 33 31 34
REMARK SMILES IDX 32 35 33 36 80 37 34 38 85 39 79 40 81 41 35 42 84 43 78 44
REMARK SMILES IDX 77 45 36 47 66 48 47 49 65 50 48 51 51 52 64 53 82 54 49 55
REMARK SMILES IDX 50 56 63 58 83 59 52 60 37 61 38 62 46 63 39 64 45 65 40 66
REMARK SMILES IDX 41 67 42 68 43 69 44 70 67 71 68 72 76 73 69 74 75 75 70 76
REMARK SMILES IDX 71 77 72 78 73 79 74 80 53 81 54 82 62 83 55 84 61 85 56 86
REMARK SMILES IDX 57 87 58 88 59 89 60 90
REMARK H PARENT 10 13 81 46 51 57
REMARK Flexibility Score: inf
ROOT
ATOM      1  C   UNL A   1      38.467  21.546  25.448  1.00  0.00     0.274 C 
ENDROOT
BRANCH   1   2
ATOM      2  O   UNL A   1      37.424  21.617  24.452  1.00  0.00    -0.462 OA
BRANCH   2   3
ATOM      3  C   UNL A   1      36.749  22.738  24.102  1.00  0.00     0.310 C 
ATOM      4  O   UNL A   1      36.453  22.932  22.923  1.00  0.00    -0.252 OA
BRANCH   3   5
ATOM      5  C   UNL A   1      36.338  23.714  25.177  1.00  0.00     0.160 C 
BRANCH   5   6
ATOM      6  C   UNL A   1      34.974  23.523  25.809  1.00  0.00    -0.013 A 
ATOM      7  C   UNL A   1      34.727  22.473  26.709  1.00  0.00     0.006 A 
ATOM      8  C   UNL A   1      33.922  24.416  25.484  1.00  0.00     0.042 A 
ATOM      9  C   UNL A   1      33.471  22.312  27.294  1.00  0.00     0.000 A 
ATOM     10  C   UNL A   1      32.671  24.240  26.092  1.00  0.00     0.026 A 
ATOM     11  C   UNL A   1      32.444  23.194  26.984  1.00  0.00     0.002 A 
BRANCH   8  12
ATOM     12  N   UNL A   1      34.157  25.496  24.597  1.00  0.00    -0.352 N 
ATOM     13  H   UNL A   1      35.000  25.460  24.090  1.00  0.00     0.167 HD
BRANCH  12  14
ATOM     14  C   UNL A   1      33.336  26.618  24.349  1.00  0.00     0.087 A 
ATOM     15  C   UNL A   1      33.491  27.737  25.184  1.00  0.00     0.147 A 
ATOM     16  C   UNL A   1      32.423  26.695  23.287  1.00  0.00     0.082 A 
ATOM     17  F   UNL A   1      34.408  27.693  26.162  1.00  0.00    -0.205 F 
ATOM     18  C   UNL A   1      32.738  28.890  25.021  1.00  0.00     0.041 A 
ATOM     19  C   UNL A   1      31.649  27.869  23.139  1.00  0.00     0.015 A 
ATOM     20  C   UNL A   1      31.795  28.952  24.007  1.00  0.00     0.004 A 
BRANCH  16  21
ATOM     21  C   UNL A   1      32.261  25.590  22.277  1.00  0.00     0.418 C 
ATOM     22  F   UNL A   1      33.450  24.993  21.960  1.00  0.00    -0.166 F 
ATOM     23  F   UNL A   1      31.472  24.575  22.737  1.00  0.00    -0.166 F 
ATOM     24  F   UNL A   1      31.735  25.969  21.078  1.00  0.00    -0.166 F 
ENDBRANCH  16  21
ENDBRANCH  12  14
ENDBRANCH   8  12
ENDBRANCH   5   6
ENDBRANCH   3   5
ENDBRANCH   2   3
ENDBRANCH   1   2
BRANCH   1  25
ATOM     25  C   UNL A   1      39.159  20.182  25.425  1.00  0.00     0.275 C 
BRANCH  25  26
ATOM     26  O   UNL A   1      40.018  20.034  26.569  1.00  0.00    -0.458 OA
BRANCH  26  27
ATOM     27  C   UNL A   1      41.345  19.915  26.305  1.00  0.00     0.338 C 
ATOM     28  O   UNL A   1      41.906  18.932  25.865  1.00  0.00    -0.246 OA
BRANCH  27  29
ATOM     29  C   UNL A   1      42.005  21.236  26.470  1.00  0.00     0.060 A 
ATOM     30  C   UNL A   1      42.278  21.676  27.772  1.00  0.00     0.016 A 
ATOM     31  C   UNL A   1      42.364  22.032  25.378  1.00  0.00     0.016 A 
ATOM     32  C   UNL A   1      42.873  22.922  27.986  1.00  0.00     0.010 A 
ATOM     33  C   UNL A   1      42.963  23.279  25.594  1.00  0.00     0.010 A 
ATOM     34  C   UNL A   1      43.195  23.745  26.899  1.00  0.00    -0.014 A 
BRANCH  34  35
ATOM     35  C   UNL A   1      43.669  25.138  27.111  1.00  0.00     0.031 A 
ATOM     36  C   UNL A   1      45.141  25.433  27.036  1.00  0.00     0.074 A 
ATOM     37  C   UNL A   1      42.812  26.140  27.380  1.00  0.00     0.049 A 
ATOM     38  N   UNL A   1      45.763  26.564  27.248  1.00  0.00    -0.248 NA
ATOM     39  C   UNL A   1      46.022  24.320  26.651  1.00  0.00     0.031 C 
ATOM     40  C   UNL A   1      41.359  26.026  27.411  1.00  0.00     0.029 A 
ATOM     41  N   UNL A   1      43.051  27.450  27.721  1.00  0.00    -0.354 N 
ATOM     42  C   UNL A   1      47.099  26.315  26.966  1.00  0.00     0.074 A 
ATOM     43  C   UNL A   1      47.210  24.908  26.648  1.00  0.00     0.031 C 
ATOM     44  C   UNL A   1      40.838  27.191  27.838  1.00  0.00     0.029 A 
ATOM     45  C   UNL A   1      41.921  28.121  28.125  1.00  0.00     0.049 A 
ATOM     46  H   UNL A   1      43.942  27.867  27.678  1.00  0.00     0.167 HD
ATOM     47  C   UNL A   1      48.133  27.189  26.931  1.00  0.00     0.031 A 
ATOM     48  C   UNL A   1      41.779  29.329  28.704  1.00  0.00     0.031 A 
ATOM     49  C   UNL A   1      48.037  28.582  27.277  1.00  0.00     0.049 A 
ATOM     50  C   UNL A   1      42.973  30.219  28.874  1.00  0.00     0.074 A 
ATOM     51  C   UNL A   1      49.021  29.553  27.218  1.00  0.00     0.029 A 
ATOM     52  N   UNL A   1      46.897  29.197  27.768  1.00  0.00    -0.354 N 
ATOM     53  N   UNL A   1      44.223  29.982  28.563  1.00  0.00    -0.248 NA
ATOM     54  C   UNL A   1      42.727  31.557  29.431  1.00  0.00     0.031 C 
ATOM     55  C   UNL A   1      48.491  30.744  27.727  1.00  0.00     0.029 A 
ATOM     56  C   UNL A   1      47.163  30.526  28.053  1.00  0.00     0.049 A 
ATOM     57  H   UNL A   1      46.028  28.755  27.897  1.00  0.00     0.167 HD
ATOM     58  C   UNL A   1      44.902  31.166  28.822  1.00  0.00     0.074 A 
ATOM     59  C   UNL A   1      43.933  32.102  29.354  1.00  0.00     0.031 C 
ATOM     60  C   UNL A   1      46.206  31.455  28.594  1.00  0.00     0.031 A 
BRANCH  47  61
ATOM     61  C   UNL A   1      49.463  26.657  26.479  1.00  0.00    -0.014 A 
ATOM     62  C   UNL A   1      49.870  26.800  25.140  1.00  0.00     0.010 A 
ATOM     63  C   UNL A   1      50.331  26.050  27.402  1.00  0.00     0.010 A 
ATOM     64  C   UNL A   1      51.111  26.315  24.724  1.00  0.00     0.020 A 
ATOM     65  C   UNL A   1      51.583  25.582  26.994  1.00  0.00     0.020 A 
ATOM     66  C   UNL A   1      51.959  25.705  25.654  1.00  0.00     0.054 A 
BRANCH  66  67
ATOM     67  S   UNL A   1      53.574  25.104  25.091  1.00  0.00     0.124 S 
ATOM     68  O   UNL A   1      53.547  25.454  23.672  1.00  0.00    -0.237 OA
ATOM     69  O   UNL A   1      54.507  25.874  25.910  1.00  0.00    -0.237 OA
ATOM     70  O   UNL A   1      53.530  23.672  25.380  1.00  0.00    -0.744 OA
ENDBRANCH  66  67
ENDBRANCH  47  61
BRANCH  48  71
ATOM     71  C   UNL A   1      40.459  29.755  29.234  1.00  0.00    -0.014 A 
ATOM     72  C   UNL A   1      40.183  29.743  30.610  1.00  0.00     0.010 A 
ATOM     73  C   UNL A   1      39.453  30.141  28.329  1.00  0.00     0.010 A 
ATOM     74  C   UNL A   1      38.915  30.114  31.074  1.00  0.00     0.020 A 
ATOM     75  C   UNL A   1      38.194  30.528  28.790  1.00  0.00     0.020 A 
ATOM     76  C   UNL A   1      37.930  30.503  30.161  1.00  0.00     0.054 A 
BRANCH  76  77
ATOM     77  S   UNL A   1      36.308  31.037  30.774  1.00  0.00     0.124 S 
ATOM     78  O   UNL A   1      36.629  32.312  31.405  1.00  0.00    -0.237 OA
ATOM     79  O   UNL A   1      35.511  31.115  29.552  1.00  0.00    -0.237 OA
ATOM     80  O   UNL A   1      35.927  29.961  31.687  1.00  0.00    -0.744 OA
ENDBRANCH  76  77
ENDBRANCH  48  71
BRANCH  60  81
ATOM     81  C   UNL A   1      46.651  32.867  28.851  1.00  0.00    -0.014 A 
ATOM     82  C   UNL A   1      47.202  33.255  30.083  1.00  0.00     0.010 A 
ATOM     83  C   UNL A   1      46.539  33.817  27.818  1.00  0.00     0.010 A 
ATOM     84  C   UNL A   1      47.609  34.577  30.287  1.00  0.00     0.020 A 
ATOM     85  C   UNL A   1      46.967  35.131  28.009  1.00  0.00     0.020 A 
ATOM     86  C   UNL A   1      47.487  35.506  29.249  1.00  0.00     0.054 A 
BRANCH  86  87
ATOM     87  S   UNL A   1      48.063  37.206  29.519  1.00  0.00     0.124 S 
ATOM     88  O   UNL A   1      48.532  37.582  28.189  1.00  0.00    -0.237 OA
ATOM     89  O   UNL A   1      46.853  37.887  29.974  1.00  0.00    -0.237 OA
ATOM     90  O   UNL A   1      49.106  37.060  30.532  1.00  0.00    -0.744 OA
ENDBRANCH  86  87
ENDBRANCH  60  81
ENDBRANCH  34  35
ENDBRANCH  27  29
ENDBRANCH  26  27
ENDBRANCH  25  26
ENDBRANCH   1  25
TORSDOF 18
ENDMDL
