MODEL 1
REMARK VINA RESULT:     -12.5      0.000      0.000
REMARK SMILES Cc1ccc(-c2c(C)sc(NC(=O)[C@H]3CC=CC[C@H]3C(=O)OCCOC(=O)c3ccc(-c4c5nc(c(-c6ccc(S(=O)(=O)[O-])cc6)c6ccc([nH]6)c(-c6ccc(S(=O)(=O)[O-])cc6)c6nc(c(-c7ccc(S(=O)(=O)[O-])cc7)c7ccc4[nH]7)C=C6)C=C5)cc3)c2C(N)=O)cc1
REMARK SMILES IDX 23 1 22 2 20 3 21 4 19 5 14 6 15 7 16 8 18 9 17 10 12 11
REMARK SMILES IDX 11 12 13 14 10 15 6 16 7 17 88 18 8 19 9 20 5 21 1 22 2 23
REMARK SMILES IDX 3 24 93 25 4 26 92 27 89 28 90 29 91 30 24 33 25 34 26 35
REMARK SMILES IDX 27 36 28 37 29 38 87 39 30 40 86 41 31 42 32 43 33 44 80 45
REMARK SMILES IDX 34 46 85 47 79 48 81 49 35 50 84 51 78 52 77 53 36 55 66 56
REMARK SMILES IDX 47 57 65 58 48 59 51 60 64 61 82 62 49 63 50 64 63 66 83 67
REMARK SMILES IDX 52 68 37 69 38 70 46 71 39 72 45 73 40 74 41 75 42 76 43 77
REMARK SMILES IDX 44 78 67 79 68 80 76 81 69 82 75 83 70 84 71 85 72 86 73 87
REMARK SMILES IDX 74 88 53 89 54 90 62 91 55 92 61 93 56 94 57 95 58 96 59 97
REMARK SMILES IDX 60 98
REMARK H PARENT 11 13 90 31 90 32 81 54 51 65
REMARK Flexibility Score: inf
ROOT
ATOM      1  C   UNL A   1      36.414  23.723  23.938  1.00  0.00     0.274 C 
ENDROOT
BRANCH   1   2
ATOM      2  O   UNL A   1      35.378  24.290  23.155  1.00  0.00    -0.462 OA
BRANCH   2   3
ATOM      3  C   UNL A   1      34.450  23.366  22.772  1.00  0.00     0.310 C 
ATOM      4  O   UNL A   1      34.035  23.331  21.626  1.00  0.00    -0.252 OA
BRANCH   3   5
ATOM      5  C   UNL A   1      34.342  22.321  24.045  1.00  0.00     0.116 C 
ATOM      6  C   UNL A   1      32.383  22.166  24.303  1.00  0.00     0.097 C 
ATOM      7  C   UNL A   1      31.776  20.720  25.231  1.00  0.00     0.041 C 
ATOM      8  C   UNL A   1      32.710  19.224  25.414  1.00  0.00    -0.030 C 
ATOM      9  C   UNL A   1      35.376  20.492  24.776  1.00  0.00     0.043 C 
ATOM     10  C   UNL A   1      34.138  19.073  25.305  1.00  0.00    -0.030 C 
BRANCH   6  11
ATOM     11  C   UNL A   1      31.397  22.774  23.292  1.00  0.00     0.229 C 
ATOM     12  N   UNL A   1      31.147  24.080  23.022  1.00  0.00    -0.317 N 
ATOM     13  H   UNL A   1      30.369  24.209  22.433  1.00  0.00     0.170 HD
ATOM     14  O   UNL A   1      30.699  22.003  22.611  1.00  0.00    -0.274 OA
BRANCH  12  15
ATOM     15  C   UNL A   1      31.740  25.263  23.392  1.00  0.00     0.109 A 
ATOM     16  C   UNL A   1      32.585  27.146  24.453  1.00  0.00     0.010 A 
ATOM     17  C   UNL A   1      33.052  27.289  23.156  1.00  0.00     0.012 A 
ATOM     18  C   UNL A   1      31.751  25.947  24.606  1.00  0.00     0.082 A 
ATOM     19  C   UNL A   1      34.079  28.166  22.522  1.00  0.00     0.057 C 
ATOM     20  S   UNL A   1      31.914  26.475  22.213  1.00  0.00    -0.122 S 
BRANCH  16  21
ATOM     21  C   UNL A   1      32.817  28.218  25.398  1.00  0.00    -0.016 A 
ATOM     22  C   UNL A   1      33.783  31.476  27.999  1.00  0.00     0.044 C 
ATOM     23  C   UNL A   1      33.426  30.306  27.138  1.00  0.00    -0.051 A 
ATOM     24  C   UNL A   1      32.234  30.319  26.397  1.00  0.00     0.004 A 
ATOM     25  C   UNL A   1      34.300  29.223  27.028  1.00  0.00     0.004 A 
ATOM     26  C   UNL A   1      31.921  29.270  25.537  1.00  0.00     0.009 A 
ATOM     27  C   UNL A   1      34.003  28.191  26.151  1.00  0.00     0.009 A 
ENDBRANCH  16  21
BRANCH  18  28
ATOM     28  C   UNL A   1      31.016  25.568  25.811  1.00  0.00     0.252 C 
ATOM     29  N   UNL A   1      29.649  25.601  25.767  1.00  0.00    -0.365 N 
ATOM     30  O   UNL A   1      31.557  25.255  26.866  1.00  0.00    -0.269 OA
ATOM     31  H   UNL A   1      29.190  25.850  24.933  1.00  0.00     0.159 HD
ATOM     32  H   UNL A   1      29.126  25.376  26.570  1.00  0.00     0.159 HD
ENDBRANCH  18  28
ENDBRANCH  12  15
ENDBRANCH   6  11
ENDBRANCH   3   5
ENDBRANCH   2   3
ENDBRANCH   1   2
BRANCH   1  33
ATOM     33  C   UNL A   1      36.412  24.051  25.470  1.00  0.00     0.275 C 
BRANCH  33  34
ATOM     34  O   UNL A   1      37.618  24.582  26.167  1.00  0.00    -0.458 OA
BRANCH  34  35
ATOM     35  C   UNL A   1      38.801  24.070  26.698  1.00  0.00     0.338 C 
ATOM     36  O   UNL A   1      39.250  23.008  26.283  1.00  0.00    -0.246 OA
BRANCH  35  37
ATOM     37  C   UNL A   1      39.718  24.993  27.446  1.00  0.00     0.060 A 
ATOM     38  C   UNL A   1      40.423  26.283  26.479  1.00  0.00     0.016 A 
ATOM     39  C   UNL A   1      39.184  25.354  28.905  1.00  0.00     0.016 A 
ATOM     40  C   UNL A   1      40.444  28.160  27.107  1.00  0.00     0.010 A 
ATOM     41  C   UNL A   1      39.165  26.860  29.483  1.00  0.00     0.010 A 
ATOM     42  C   UNL A   1      39.797  28.338  28.773  1.00  0.00    -0.014 A 
BRANCH  42  43
ATOM     43  C   UNL A   1      39.762  29.376  29.828  1.00  0.00     0.031 A 
ATOM     44  C   UNL A   1      38.951  30.587  29.661  1.00  0.00     0.074 A 
ATOM     45  C   UNL A   1      40.446  29.132  31.000  1.00  0.00     0.049 A 
ATOM     46  N   UNL A   1      39.325  31.759  30.054  1.00  0.00    -0.248 NA
ATOM     47  C   UNL A   1      37.675  30.607  28.944  1.00  0.00     0.031 C 
ATOM     48  C   UNL A   1      40.238  29.667  32.344  1.00  0.00     0.029 A 
ATOM     49  N   UNL A   1      41.494  28.233  31.257  1.00  0.00    -0.354 N 
ATOM     50  C   UNL A   1      38.180  32.526  30.041  1.00  0.00     0.074 A 
ATOM     51  C   UNL A   1      37.294  31.881  29.103  1.00  0.00     0.031 C 
ATOM     52  C   UNL A   1      41.263  29.301  33.154  1.00  0.00     0.029 A 
ATOM     53  C   UNL A   1      42.235  28.566  32.360  1.00  0.00     0.049 A 
ATOM     54  H   UNL A   1      41.677  27.441  30.700  1.00  0.00     0.167 HD
ATOM     55  C   UNL A   1      37.927  33.379  31.075  1.00  0.00     0.031 A 
ATOM     56  C   UNL A   1      43.588  28.704  32.249  1.00  0.00     0.031 A 
ATOM     57  C   UNL A   1      38.949  33.238  32.117  1.00  0.00     0.049 A 
ATOM     58  C   UNL A   1      43.869  30.162  32.451  1.00  0.00     0.074 A 
ATOM     59  C   UNL A   1      38.914  32.614  33.354  1.00  0.00     0.029 A 
ATOM     60  N   UNL A   1      40.289  33.463  31.831  1.00  0.00    -0.354 N 
ATOM     61  N   UNL A   1      42.971  31.075  32.204  1.00  0.00    -0.248 NA
ATOM     62  C   UNL A   1      45.082  30.698  33.048  1.00  0.00     0.031 C 
ATOM     63  C   UNL A   1      40.247  32.499  33.827  1.00  0.00     0.029 A 
ATOM     64  C   UNL A   1      41.094  33.032  32.868  1.00  0.00     0.049 A 
ATOM     65  H   UNL A   1      40.621  33.874  31.000  1.00  0.00     0.167 HD
ATOM     66  C   UNL A   1      43.368  32.247  32.767  1.00  0.00     0.074 A 
ATOM     67  C   UNL A   1      44.722  31.981  33.229  1.00  0.00     0.031 C 
ATOM     68  C   UNL A   1      42.524  33.313  32.862  1.00  0.00     0.031 A 
BRANCH  55  69
ATOM     69  C   UNL A   1      36.593  34.055  31.343  1.00  0.00    -0.014 A 
ATOM     70  C   UNL A   1      35.592  34.016  30.346  1.00  0.00     0.010 A 
ATOM     71  C   UNL A   1      36.241  34.708  32.541  1.00  0.00     0.010 A 
ATOM     72  C   UNL A   1      34.342  34.628  30.505  1.00  0.00     0.020 A 
ATOM     73  C   UNL A   1      34.997  35.346  32.709  1.00  0.00     0.020 A 
ATOM     74  C   UNL A   1      34.051  35.295  31.689  1.00  0.00     0.054 A 
BRANCH  74  75
ATOM     75  S   UNL A   1      32.408  36.031  31.886  1.00  0.00     0.124 S 
ATOM     76  O   UNL A   1      31.666  34.972  32.568  1.00  0.00    -0.237 OA
ATOM     77  O   UNL A   1      32.692  37.216  32.691  1.00  0.00    -0.237 OA
ATOM     78  O   UNL A   1      31.979  36.299  30.516  1.00  0.00    -0.744 OA
ENDBRANCH  74  75
ENDBRANCH  55  69
BRANCH  56  79
ATOM     79  C   UNL A   1      44.235  27.796  31.233  1.00  0.00    -0.014 A 
ATOM     80  C   UNL A   1      44.360  26.428  31.577  1.00  0.00     0.010 A 
ATOM     81  C   UNL A   1      44.321  28.134  29.868  1.00  0.00     0.010 A 
ATOM     82  C   UNL A   1      44.445  25.429  30.593  1.00  0.00     0.020 A 
ATOM     83  C   UNL A   1      44.423  27.131  28.877  1.00  0.00     0.020 A 
ATOM     84  C   UNL A   1      44.447  25.782  29.245  1.00  0.00     0.054 A 
BRANCH  84  85
ATOM     85  S   UNL A   1      44.264  24.446  28.006  1.00  0.00     0.124 S 
ATOM     86  O   UNL A   1      42.877  24.039  28.191  1.00  0.00    -0.237 OA
ATOM     87  O   UNL A   1      44.552  25.151  26.756  1.00  0.00    -0.237 OA
ATOM     88  O   UNL A   1      45.269  23.467  28.405  1.00  0.00    -0.744 OA
ENDBRANCH  84  85
ENDBRANCH  56  79
BRANCH  68  89
ATOM     89  C   UNL A   1      42.958  34.735  33.051  1.00  0.00    -0.014 A 
ATOM     90  C   UNL A   1      43.736  35.439  32.127  1.00  0.00     0.010 A 
ATOM     91  C   UNL A   1      42.443  35.466  34.150  1.00  0.00     0.010 A 
ATOM     92  C   UNL A   1      44.044  36.781  32.319  1.00  0.00     0.020 A 
ATOM     93  C   UNL A   1      42.681  36.826  34.314  1.00  0.00     0.020 A 
ATOM     94  C   UNL A   1      43.508  37.467  33.407  1.00  0.00     0.054 A 
BRANCH  94  95
ATOM     95  S   UNL A   1      43.894  39.213  33.584  1.00  0.00     0.124 S 
ATOM     96  O   UNL A   1      45.027  39.360  32.671  1.00  0.00    -0.237 OA
ATOM     97  O   UNL A   1      42.653  39.853  33.151  1.00  0.00    -0.237 OA
ATOM     98  O   UNL A   1      44.208  39.362  35.001  1.00  0.00    -0.744 OA
ENDBRANCH  94  95
ENDBRANCH  68  89
ENDBRANCH  42  43
ENDBRANCH  35  37
ENDBRANCH  34  35
ENDBRANCH  33  34
ENDBRANCH   1  33
TORSDOF 18
ENDMDL
MODEL 2
REMARK VINA RESULT:     -12.3      3.875      9.568
REMARK SMILES Cc1ccc(-c2c(C)sc(NC(=O)[C@H]3CC=CC[C@H]3C(=O)OCCOC(=O)c3ccc(-c4c5nc(c(-c6ccc(S(=O)(=O)[O-])cc6)c6ccc([nH]6)c(-c6ccc(S(=O)(=O)[O-])cc6)c6nc(c(-c7ccc(S(=O)(=O)[O-])cc7)c7ccc4[nH]7)C=C6)C=C5)cc3)c2C(N)=O)cc1
REMARK SMILES IDX 23 1 22 2 20 3 21 4 19 5 14 6 15 7 16 8 18 9 17 10 12 11
REMARK SMILES IDX 11 12 13 14 10 15 6 16 7 17 88 18 8 19 9 20 5 21 1 22 2 23
REMARK SMILES IDX 3 24 93 25 4 26 92 27 89 28 90 29 91 30 24 33 25 34 26 35
REMARK SMILES IDX 27 36 28 37 29 38 87 39 30 40 86 41 31 42 32 43 33 44 80 45
REMARK SMILES IDX 34 46 85 47 79 48 81 49 35 50 84 51 78 52 77 53 36 55 66 56
REMARK SMILES IDX 47 57 65 58 48 59 51 60 64 61 82 62 49 63 50 64 63 66 83 67
REMARK SMILES IDX 52 68 37 69 38 70 46 71 39 72 45 73 40 74 41 75 42 76 43 77
REMARK SMILES IDX 44 78 67 79 68 80 76 81 69 82 75 83 70 84 71 85 72 86 73 87
REMARK SMILES IDX 74 88 53 89 54 90 62 91 55 92 61 93 56 94 57 95 58 96 59 97
REMARK SMILES IDX 60 98
REMARK H PARENT 11 13 90 31 90 32 81 54 51 65
REMARK Flexibility Score: inf
ROOT
ATOM      1  C   UNL A   1      33.364  27.370  25.749  1.00  0.00     0.274 C 
ENDROOT
BRANCH   1   2
ATOM      2  O   UNL A   1      34.139  26.244  26.123  1.00  0.00    -0.462 OA
BRANCH   2   3
ATOM      3  C   UNL A   1      34.100  25.252  25.187  1.00  0.00     0.310 C 
ATOM      4  O   UNL A   1      34.664  25.380  24.113  1.00  0.00    -0.252 OA
BRANCH   3   5
ATOM      5  C   UNL A   1      33.437  23.958  25.967  1.00  0.00     0.116 C 
ATOM      6  C   UNL A   1      32.584  22.959  24.483  1.00  0.00     0.097 C 
ATOM      7  C   UNL A   1      32.197  21.202  24.776  1.00  0.00     0.041 C 
ATOM      8  C   UNL A   1      33.006  20.225  26.014  1.00  0.00    -0.030 C 
ATOM      9  C   UNL A   1      33.964  22.586  27.636  1.00  0.00     0.043 C 
ATOM     10  C   UNL A   1      33.672  20.701  27.199  1.00  0.00    -0.030 C 
BRANCH   6  11
ATOM     11  C   UNL A   1      32.819  23.357  23.017  1.00  0.00     0.229 C 
ATOM     12  N   UNL A   1      32.236  24.349  22.298  1.00  0.00    -0.317 N 
ATOM     13  H   UNL A   1      32.455  24.308  21.339  1.00  0.00     0.170 HD
ATOM     14  O   UNL A   1      33.639  22.701  22.352  1.00  0.00    -0.274 OA
BRANCH  12  15
ATOM     15  C   UNL A   1      31.405  25.397  22.613  1.00  0.00     0.109 A 
ATOM     16  C   UNL A   1      30.326  27.430  22.911  1.00  0.00     0.010 A 
ATOM     17  C   UNL A   1      29.436  26.525  23.467  1.00  0.00     0.012 A 
ATOM     18  C   UNL A   1      31.547  26.771  22.427  1.00  0.00     0.082 A 
ATOM     19  C   UNL A   1      28.009  26.613  23.891  1.00  0.00     0.057 C 
ATOM     20  S   UNL A   1      30.410  25.247  23.982  1.00  0.00    -0.122 S 
BRANCH  16  21
ATOM     21  C   UNL A   1      30.042  28.845  23.024  1.00  0.00    -0.016 A 
ATOM     22  C   UNL A   1      28.859  32.945  23.345  1.00  0.00     0.044 C 
ATOM     23  C   UNL A   1      29.321  31.529  23.200  1.00  0.00    -0.051 A 
ATOM     24  C   UNL A   1      29.988  30.899  24.261  1.00  0.00     0.004 A 
ATOM     25  C   UNL A   1      29.045  30.816  22.032  1.00  0.00     0.004 A 
ATOM     26  C   UNL A   1      30.362  29.561  24.171  1.00  0.00     0.009 A 
ATOM     27  C   UNL A   1      29.391  29.476  21.952  1.00  0.00     0.009 A 
ENDBRANCH  16  21
BRANCH  18  28
ATOM     28  C   UNL A   1      32.727  27.448  21.893  1.00  0.00     0.252 C 
ATOM     29  N   UNL A   1      32.848  28.793  22.110  1.00  0.00    -0.365 N 
ATOM     30  O   UNL A   1      33.593  26.884  21.235  1.00  0.00    -0.269 OA
ATOM     31  H   UNL A   1      32.166  29.270  22.634  1.00  0.00     0.159 HD
ATOM     32  H   UNL A   1      33.618  29.283  21.741  1.00  0.00     0.159 HD
ENDBRANCH  18  28
ENDBRANCH  12  15
ENDBRANCH   6  11
ENDBRANCH   3   5
ENDBRANCH   2   3
ENDBRANCH   1   2
BRANCH   1  33
ATOM     33  C   UNL A   1      34.044  28.777  25.869  1.00  0.00     0.275 C 
BRANCH  33  34
ATOM     34  O   UNL A   1      35.056  29.080  26.921  1.00  0.00    -0.458 OA
BRANCH  34  35
ATOM     35  C   UNL A   1      35.388  30.157  27.740  1.00  0.00     0.338 C 
ATOM     36  O   UNL A   1      34.504  30.847  28.235  1.00  0.00    -0.246 OA
BRANCH  35  37
ATOM     37  C   UNL A   1      36.762  30.212  28.342  1.00  0.00     0.060 A 
ATOM     38  C   UNL A   1      36.947  29.326  29.851  1.00  0.00     0.016 A 
ATOM     39  C   UNL A   1      37.924  30.095  27.256  1.00  0.00     0.016 A 
ATOM     40  C   UNL A   1      38.477  28.109  30.161  1.00  0.00     0.010 A 
ATOM     41  C   UNL A   1      39.197  29.122  27.436  1.00  0.00     0.010 A 
ATOM     42  C   UNL A   1      39.662  28.133  28.812  1.00  0.00    -0.014 A 
BRANCH  42  43
ATOM     43  C   UNL A   1      41.041  27.657  28.558  1.00  0.00     0.031 A 
ATOM     44  C   UNL A   1      41.336  26.222  28.480  1.00  0.00     0.074 A 
ATOM     45  C   UNL A   1      42.018  28.600  28.318  1.00  0.00     0.049 A 
ATOM     46  N   UNL A   1      42.411  25.684  28.953  1.00  0.00    -0.248 NA
ATOM     47  C   UNL A   1      40.396  25.237  27.943  1.00  0.00     0.031 C 
ATOM     48  C   UNL A   1      43.282  28.487  27.593  1.00  0.00     0.029 A 
ATOM     49  N   UNL A   1      42.041  29.968  28.632  1.00  0.00    -0.354 N 
ATOM     50  C   UNL A   1      42.470  24.432  28.381  1.00  0.00     0.074 A 
ATOM     51  C   UNL A   1      41.112  24.108  28.022  1.00  0.00     0.031 C 
ATOM     52  C   UNL A   1      44.020  29.611  27.767  1.00  0.00     0.029 A 
ATOM     53  C   UNL A   1      43.307  30.492  28.678  1.00  0.00     0.049 A 
ATOM     54  H   UNL A   1      41.229  30.499  28.802  1.00  0.00     0.167 HD
ATOM     55  C   UNL A   1      43.661  23.960  27.911  1.00  0.00     0.031 A 
ATOM     56  C   UNL A   1      43.725  31.152  29.797  1.00  0.00     0.031 A 
ATOM     57  C   UNL A   1      44.702  24.985  28.032  1.00  0.00     0.049 A 
ATOM     58  C   UNL A   1      44.784  30.288  30.410  1.00  0.00     0.074 A 
ATOM     59  C   UNL A   1      45.290  25.808  27.084  1.00  0.00     0.029 A 
ATOM     60  N   UNL A   1      45.031  25.520  29.271  1.00  0.00    -0.354 N 
ATOM     61  N   UNL A   1      44.823  29.000  30.207  1.00  0.00    -0.248 NA
ATOM     62  C   UNL A   1      45.924  30.784  31.166  1.00  0.00     0.031 C 
ATOM     63  C   UNL A   1      46.008  26.824  27.768  1.00  0.00     0.029 A 
ATOM     64  C   UNL A   1      45.837  26.632  29.130  1.00  0.00     0.049 A 
ATOM     65  H   UNL A   1      44.729  25.154  30.134  1.00  0.00     0.167 HD
ATOM     66  C   UNL A   1      46.037  28.529  30.600  1.00  0.00     0.074 A 
ATOM     67  C   UNL A   1      46.668  29.667  31.252  1.00  0.00     0.031 C 
ATOM     68  C   UNL A   1      46.440  27.263  30.298  1.00  0.00     0.031 A 
BRANCH  55  69
ATOM     69  C   UNL A   1      43.825  22.750  27.008  1.00  0.00    -0.014 A 
ATOM     70  C   UNL A   1      45.048  22.565  26.324  1.00  0.00     0.010 A 
ATOM     71  C   UNL A   1      42.853  21.749  26.809  1.00  0.00     0.010 A 
ATOM     72  C   UNL A   1      45.275  21.487  25.459  1.00  0.00     0.020 A 
ATOM     73  C   UNL A   1      43.059  20.670  25.927  1.00  0.00     0.020 A 
ATOM     74  C   UNL A   1      44.275  20.543  25.262  1.00  0.00     0.054 A 
BRANCH  74  75
ATOM     75  S   UNL A   1      44.618  19.132  24.179  1.00  0.00     0.124 S 
ATOM     76  O   UNL A   1      46.010  18.821  24.494  1.00  0.00    -0.237 OA
ATOM     77  O   UNL A   1      43.637  18.149  24.630  1.00  0.00    -0.237 OA
ATOM     78  O   UNL A   1      44.395  19.661  22.836  1.00  0.00    -0.744 OA
ENDBRANCH  74  75
ENDBRANCH  55  69
BRANCH  56  79
ATOM     79  C   UNL A   1      42.642  31.903  30.530  1.00  0.00    -0.014 A 
ATOM     80  C   UNL A   1      42.420  33.249  30.152  1.00  0.00     0.010 A 
ATOM     81  C   UNL A   1      41.609  31.245  31.227  1.00  0.00     0.010 A 
ATOM     82  C   UNL A   1      41.177  33.873  30.352  1.00  0.00     0.020 A 
ATOM     83  C   UNL A   1      40.362  31.876  31.445  1.00  0.00     0.020 A 
ATOM     84  C   UNL A   1      40.143  33.174  30.972  1.00  0.00     0.054 A 
BRANCH  84  85
ATOM     85  S   UNL A   1      38.469  33.916  30.948  1.00  0.00     0.124 S 
ATOM     86  O   UNL A   1      38.570  34.877  29.857  1.00  0.00    -0.237 OA
ATOM     87  O   UNL A   1      37.625  32.750  30.684  1.00  0.00    -0.237 OA
ATOM     88  O   UNL A   1      38.327  34.487  32.283  1.00  0.00    -0.744 OA
ENDBRANCH  84  85
ENDBRANCH  56  79
BRANCH  68  89
ATOM     89  C   UNL A   1      47.519  26.512  31.019  1.00  0.00    -0.014 A 
ATOM     90  C   UNL A   1      48.778  26.248  30.473  1.00  0.00     0.010 A 
ATOM     91  C   UNL A   1      47.320  26.170  32.380  1.00  0.00     0.010 A 
ATOM     92  C   UNL A   1      49.768  25.614  31.218  1.00  0.00     0.020 A 
ATOM     93  C   UNL A   1      48.326  25.605  33.157  1.00  0.00     0.020 A 
ATOM     94  C   UNL A   1      49.537  25.304  32.556  1.00  0.00     0.054 A 
BRANCH  94  95
ATOM     95  S   UNL A   1      50.863  24.531  33.490  1.00  0.00     0.124 S 
ATOM     96  O   UNL A   1      51.844  24.259  32.441  1.00  0.00    -0.237 OA
ATOM     97  O   UNL A   1      51.231  25.582  34.437  1.00  0.00    -0.237 OA
ATOM     98  O   UNL A   1      50.236  23.354  34.082  1.00  0.00    -0.744 OA
ENDBRANCH  94  95
ENDBRANCH  68  89
ENDBRANCH  42  43
ENDBRANCH  35  37
ENDBRANCH  34  35
ENDBRANCH  33  34
ENDBRANCH   1  33
TORSDOF 18
ENDMDL
MODEL 3
REMARK VINA RESULT:     -12.0      2.548      3.507
REMARK SMILES Cc1ccc(-c2c(C)sc(NC(=O)[C@H]3CC=CC[C@H]3C(=O)OCCOC(=O)c3ccc(-c4c5nc(c(-c6ccc(S(=O)(=O)[O-])cc6)c6ccc([nH]6)c(-c6ccc(S(=O)(=O)[O-])cc6)c6nc(c(-c7ccc(S(=O)(=O)[O-])cc7)c7ccc4[nH]7)C=C6)C=C5)cc3)c2C(N)=O)cc1
REMARK SMILES IDX 23 1 22 2 20 3 21 4 19 5 14 6 15 7 16 8 18 9 17 10 12 11
REMARK SMILES IDX 11 12 13 14 10 15 6 16 7 17 88 18 8 19 9 20 5 21 1 22 2 23
REMARK SMILES IDX 3 24 93 25 4 26 92 27 89 28 90 29 91 30 24 33 25 34 26 35
REMARK SMILES IDX 27 36 28 37 29 38 87 39 30 40 86 41 31 42 32 43 33 44 80 45
REMARK SMILES IDX 34 46 85 47 79 48 81 49 35 50 84 51 78 52 77 53 36 55 66 56
REMARK SMILES IDX 47 57 65 58 48 59 51 60 64 61 82 62 49 63 50 64 63 66 83 67
REMARK SMILES IDX 52 68 37 69 38 70 46 71 39 72 45 73 40 74 41 75 42 76 43 77
REMARK SMILES IDX 44 78 67 79 68 80 76 81 69 82 75 83 70 84 71 85 72 86 73 87
REMARK SMILES IDX 74 88 53 89 54 90 62 91 55 92 61 93 56 94 57 95 58 96 59 97
REMARK SMILES IDX 60 98
REMARK H PARENT 11 13 90 31 90 32 81 54 51 65
REMARK Flexibility Score: inf
ROOT
ATOM      1  C   UNL A   1      36.970  22.975  24.258  1.00  0.00     0.274 C 
ENDROOT
BRANCH   1   2
ATOM      2  O   UNL A   1      35.677  23.556  24.270  1.00  0.00    -0.462 OA
BRANCH   2   3
ATOM      3  C   UNL A   1      34.784  22.852  23.516  1.00  0.00     0.310 C 
ATOM      4  O   UNL A   1      34.477  23.224  22.396  1.00  0.00    -0.252 OA
BRANCH   3   5
ATOM      5  C   UNL A   1      34.552  21.441  24.340  1.00  0.00     0.116 C 
ATOM      6  C   UNL A   1      32.763  20.868  23.707  1.00  0.00     0.097 C 
ATOM      7  C   UNL A   1      32.324  19.113  23.926  1.00  0.00     0.041 C 
ATOM      8  C   UNL A   1      33.531  17.830  24.125  1.00  0.00    -0.030 C 
ATOM      9  C   UNL A   1      35.756  19.685  24.983  1.00  0.00     0.043 C 
ATOM     10  C   UNL A   1      34.885  17.976  24.593  1.00  0.00    -0.030 C 
BRANCH   6  11
ATOM     11  C   UNL A   1      32.057  21.596  22.551  1.00  0.00     0.229 C 
ATOM     12  N   UNL A   1      31.390  22.777  22.565  1.00  0.00    -0.317 N 
ATOM     13  H   UNL A   1      30.908  22.956  21.726  1.00  0.00     0.170 HD
ATOM     14  O   UNL A   1      32.061  21.062  21.428  1.00  0.00    -0.274 OA
BRANCH  12  15
ATOM     15  C   UNL A   1      31.237  23.777  23.495  1.00  0.00     0.109 A 
ATOM     16  C   UNL A   1      31.177  25.742  24.729  1.00  0.00     0.010 A 
ATOM     17  C   UNL A   1      30.529  24.839  25.556  1.00  0.00     0.012 A 
ATOM     18  C   UNL A   1      31.653  25.107  23.492  1.00  0.00     0.082 A 
ATOM     19  C   UNL A   1      29.689  24.985  26.781  1.00  0.00     0.057 C 
ATOM     20  S   UNL A   1      31.188  23.344  25.138  1.00  0.00    -0.122 S 
BRANCH  16  21
ATOM     21  C   UNL A   1      31.443  27.075  25.225  1.00  0.00    -0.016 A 
ATOM     22  C   UNL A   1      31.880  31.063  26.715  1.00  0.00     0.044 C 
ATOM     23  C   UNL A   1      31.777  29.678  26.159  1.00  0.00    -0.051 A 
ATOM     24  C   UNL A   1      32.226  28.585  26.916  1.00  0.00     0.004 A 
ATOM     25  C   UNL A   1      31.187  29.463  24.913  1.00  0.00     0.004 A 
ATOM     26  C   UNL A   1      32.072  27.284  26.446  1.00  0.00     0.009 A 
ATOM     27  C   UNL A   1      31.008  28.167  24.455  1.00  0.00     0.009 A 
ENDBRANCH  16  21
BRANCH  18  28
ATOM     28  C   UNL A   1      32.469  25.749  22.463  1.00  0.00     0.252 C 
ATOM     29  N   UNL A   1      33.704  26.213  22.821  1.00  0.00    -0.365 N 
ATOM     30  O   UNL A   1      32.093  25.923  21.310  1.00  0.00    -0.269 OA
ATOM     31  H   UNL A   1      34.030  26.087  23.741  1.00  0.00     0.159 HD
ATOM     32  H   UNL A   1      34.268  26.674  22.158  1.00  0.00     0.159 HD
ENDBRANCH  18  28
ENDBRANCH  12  15
ENDBRANCH   6  11
ENDBRANCH   3   5
ENDBRANCH   2   3
ENDBRANCH   1   2
BRANCH   1  33
ATOM     33  C   UNL A   1      37.770  22.985  25.605  1.00  0.00     0.275 C 
BRANCH  33  34
ATOM     34  O   UNL A   1      39.055  22.247  25.767  1.00  0.00    -0.458 OA
BRANCH  34  35
ATOM     35  C   UNL A   1      39.994  22.040  26.776  1.00  0.00     0.338 C 
ATOM     36  O   UNL A   1      40.199  20.909  27.200  1.00  0.00    -0.246 OA
BRANCH  35  37
ATOM     37  C   UNL A   1      41.025  23.100  27.035  1.00  0.00     0.060 A 
ATOM     38  C   UNL A   1      41.331  24.183  25.682  1.00  0.00     0.016 A 
ATOM     39  C   UNL A   1      40.913  23.734  28.494  1.00  0.00     0.016 A 
ATOM     40  C   UNL A   1      41.407  26.147  25.920  1.00  0.00     0.010 A 
ATOM     41  C   UNL A   1      40.960  25.324  28.764  1.00  0.00     0.010 A 
ATOM     42  C   UNL A   1      41.259  26.641  27.640  1.00  0.00    -0.014 A 
BRANCH  42  43
ATOM     43  C   UNL A   1      41.461  27.864  28.449  1.00  0.00     0.031 A 
ATOM     44  C   UNL A   1      40.372  28.830  28.630  1.00  0.00     0.074 A 
ATOM     45  C   UNL A   1      42.672  28.026  29.087  1.00  0.00     0.049 A 
ATOM     46  N   UNL A   1      40.545  30.110  28.651  1.00  0.00    -0.248 NA
ATOM     47  C   UNL A   1      38.961  28.445  28.710  1.00  0.00     0.031 C 
ATOM     48  C   UNL A   1      43.015  28.802  30.278  1.00  0.00     0.029 A 
ATOM     49  N   UNL A   1      43.912  27.424  28.826  1.00  0.00    -0.354 N 
ATOM     50  C   UNL A   1      39.381  30.623  29.182  1.00  0.00     0.074 A 
ATOM     51  C   UNL A   1      38.370  29.627  28.929  1.00  0.00     0.031 C 
ATOM     52  C   UNL A   1      44.361  28.830  30.443  1.00  0.00     0.029 A 
ATOM     53  C   UNL A   1      44.975  28.132  29.324  1.00  0.00     0.049 A 
ATOM     54  H   UNL A   1      44.010  26.576  28.333  1.00  0.00     0.167 HD
ATOM     55  C   UNL A   1      39.445  31.625  30.106  1.00  0.00     0.031 A 
ATOM     56  C   UNL A   1      45.995  28.495  28.493  1.00  0.00     0.031 A 
ATOM     57  C   UNL A   1      40.841  31.919  30.447  1.00  0.00     0.049 A 
ATOM     58  C   UNL A   1      45.917  29.987  28.377  1.00  0.00     0.074 A 
ATOM     59  C   UNL A   1      41.598  31.596  31.562  1.00  0.00     0.029 A 
ATOM     60  N   UNL A   1      41.740  32.323  29.468  1.00  0.00    -0.354 N 
ATOM     61  N   UNL A   1      44.800  30.633  28.566  1.00  0.00    -0.248 NA
ATOM     62  C   UNL A   1      47.060  30.864  28.179  1.00  0.00     0.031 C 
ATOM     63  C   UNL A   1      42.961  31.846  31.255  1.00  0.00     0.029 A 
ATOM     64  C   UNL A   1      43.035  32.298  29.948  1.00  0.00     0.049 A 
ATOM     65  H   UNL A   1      41.487  32.591  28.555  1.00  0.00     0.167 HD
ATOM     66  C   UNL A   1      45.077  31.956  28.718  1.00  0.00     0.074 A 
ATOM     67  C   UNL A   1      46.494  32.063  28.405  1.00  0.00     0.031 C 
ATOM     68  C   UNL A   1      44.131  32.836  29.150  1.00  0.00     0.031 A 
BRANCH  55  69
ATOM     69  C   UNL A   1      38.291  32.079  30.983  1.00  0.00    -0.014 A 
ATOM     70  C   UNL A   1      37.455  33.124  30.529  1.00  0.00     0.010 A 
ATOM     71  C   UNL A   1      37.947  31.514  32.227  1.00  0.00     0.010 A 
ATOM     72  C   UNL A   1      36.380  33.614  31.283  1.00  0.00     0.020 A 
ATOM     73  C   UNL A   1      36.883  32.009  33.006  1.00  0.00     0.020 A 
ATOM     74  C   UNL A   1      36.101  33.054  32.523  1.00  0.00     0.054 A 
BRANCH  74  75
ATOM     75  S   UNL A   1      34.673  33.673  33.450  1.00  0.00     0.124 S 
ATOM     76  O   UNL A   1      35.068  33.434  34.836  1.00  0.00    -0.237 OA
ATOM     77  O   UNL A   1      34.622  35.074  33.045  1.00  0.00    -0.237 OA
ATOM     78  O   UNL A   1      33.564  32.849  32.975  1.00  0.00    -0.744 OA
ENDBRANCH  74  75
ENDBRANCH  55  69
BRANCH  56  79
ATOM     79  C   UNL A   1      46.279  27.520  27.379  1.00  0.00    -0.014 A 
ATOM     80  C   UNL A   1      47.051  26.378  27.701  1.00  0.00     0.010 A 
ATOM     81  C   UNL A   1      45.499  27.468  26.206  1.00  0.00     0.010 A 
ATOM     82  C   UNL A   1      46.955  25.192  26.954  1.00  0.00     0.020 A 
ATOM     83  C   UNL A   1      45.413  26.281  25.443  1.00  0.00     0.020 A 
ATOM     84  C   UNL A   1      46.113  25.138  25.844  1.00  0.00     0.054 A 
BRANCH  84  85
ATOM     85  S   UNL A   1      45.797  23.504  25.083  1.00  0.00     0.124 S 
ATOM     86  O   UNL A   1      46.705  23.511  23.942  1.00  0.00    -0.237 OA
ATOM     87  O   UNL A   1      46.157  22.589  26.168  1.00  0.00    -0.237 OA
ATOM     88  O   UNL A   1      44.375  23.544  24.760  1.00  0.00    -0.744 OA
ENDBRANCH  84  85
ENDBRANCH  56  79
BRANCH  68  89
ATOM     89  C   UNL A   1      44.183  34.320  28.945  1.00  0.00    -0.014 A 
ATOM     90  C   UNL A   1      43.580  34.976  27.869  1.00  0.00     0.010 A 
ATOM     91  C   UNL A   1      44.745  35.131  29.962  1.00  0.00     0.010 A 
ATOM     92  C   UNL A   1      43.595  36.363  27.770  1.00  0.00     0.020 A 
ATOM     93  C   UNL A   1      44.700  36.520  29.913  1.00  0.00     0.020 A 
ATOM     94  C   UNL A   1      44.148  37.126  28.797  1.00  0.00     0.054 A 
BRANCH  94  95
ATOM     95  S   UNL A   1      44.098  38.916  28.648  1.00  0.00     0.124 S 
ATOM     96  O   UNL A   1      44.642  39.335  29.938  1.00  0.00    -0.237 OA
ATOM     97  O   UNL A   1      44.962  39.157  27.494  1.00  0.00    -0.237 OA
ATOM     98  O   UNL A   1      42.684  39.211  28.438  1.00  0.00    -0.744 OA
ENDBRANCH  94  95
ENDBRANCH  68  89
ENDBRANCH  42  43
ENDBRANCH  35  37
ENDBRANCH  34  35
ENDBRANCH  33  34
ENDBRANCH   1  33
TORSDOF 18
ENDMDL
