MODEL 1
REMARK VINA RESULT:     -10.6      0.000      0.000
REMARK SMILES O=C(Cc1ccccc1C(=O)OCCOC(=O)c1ccc(-c2c3nc(c(-c4ccc(S(=O)(=O)[O-])cc4)c4ccc([nH]4)c(-c4ccc(S(=O)(=O)[O-])cc4)c4nc(c(-c5ccc(S(=O)(=O)[O-])cc5)c5ccc2[nH]5)C=C4)C=C3)cc1)Nc1ccc(S(=O)(=O)N2CCCC2)cc1
REMARK SMILES IDX 13 1 12 2 10 3 11 4 9 5 4 6 5 7 6 8 8 9 7 10 3 11 2 12 1 13
REMARK SMILES IDX 78 14 79 16 80 17 92 18 81 19 91 20 82 21 83 22 84 23 85 24
REMARK SMILES IDX 86 25 87 26 90 27 88 28 89 29 14 30 15 31 16 32 17 33 18 34
REMARK SMILES IDX 19 35 77 36 20 37 76 38 21 39 22 40 23 41 70 42 24 43 75 44
REMARK SMILES IDX 69 45 71 46 25 47 74 48 68 49 67 50 26 52 56 53 37 54 55 55
REMARK SMILES IDX 38 56 41 57 54 58 72 59 39 60 40 61 53 63 73 64 42 65 27 66
REMARK SMILES IDX 28 67 36 68 29 69 35 70 30 71 31 72 32 73 33 74 34 75 57 76
REMARK SMILES IDX 58 77 66 78 59 79 65 80 60 81 61 82 62 83 63 84 64 85 43 86
REMARK SMILES IDX 44 87 52 88 45 89 51 90 46 91 47 92 48 93 49 94 50 95
REMARK H PARENT 78 15 71 51 41 62
REMARK Flexibility Score: inf
ROOT
ATOM      1  C   UNL A   1      44.771  24.202  24.659  1.00  0.00     0.275 C 
ENDROOT
BRANCH   1   2
ATOM      2  O   UNL A   1      45.762  23.864  25.650  1.00  0.00    -0.458 OA
BRANCH   2   3
ATOM      3  C   UNL A   1      45.515  22.809  26.462  1.00  0.00     0.338 C 
ATOM      4  O   UNL A   1      45.824  21.648  26.265  1.00  0.00    -0.246 OA
BRANCH   3   5
ATOM      5  C   UNL A   1      44.888  23.297  27.723  1.00  0.00     0.063 A 
ATOM      6  C   UNL A   1      43.625  22.856  28.174  1.00  0.00    -0.024 A 
ATOM      7  C   UNL A   1      43.076  23.489  29.307  1.00  0.00     0.005 A 
ATOM      8  C   UNL A   1      43.785  24.468  30.008  1.00  0.00     0.000 A 
ATOM      9  C   UNL A   1      45.614  24.244  28.463  1.00  0.00     0.016 A 
ATOM     10  C   UNL A   1      45.061  24.833  29.598  1.00  0.00     0.001 A 
BRANCH   6  11
ATOM     11  C   UNL A   1      42.957  21.673  27.501  1.00  0.00     0.136 C 
BRANCH  11  12
ATOM     12  C   UNL A   1      41.833  21.971  26.542  1.00  0.00     0.228 C 
ATOM     13  O   UNL A   1      42.083  22.119  25.348  1.00  0.00    -0.274 OA
ATOM     14  N   UNL A   1      40.581  22.041  27.139  1.00  0.00    -0.326 N 
ATOM     15  H   UNL A   1      40.521  21.819  28.096  1.00  0.00     0.169 HD
BRANCH  14  16
ATOM     16  C   UNL A   1      39.390  22.404  26.482  1.00  0.00     0.041 A 
ATOM     17  C   UNL A   1      38.726  21.451  25.699  1.00  0.00     0.027 A 
ATOM     18  C   UNL A   1      38.828  23.669  26.620  1.00  0.00     0.027 A 
ATOM     19  C   UNL A   1      37.515  21.771  25.067  1.00  0.00     0.024 A 
ATOM     20  C   UNL A   1      37.607  23.974  26.036  1.00  0.00     0.024 A 
ATOM     21  C   UNL A   1      36.960  23.045  25.234  1.00  0.00     0.082 A 
BRANCH  21  22
ATOM     22  S   UNL A   1      35.462  23.495  24.383  1.00  0.00     0.243 S 
ATOM     23  O   UNL A   1      35.117  24.835  24.837  1.00  0.00    -0.207 OA
ATOM     24  O   UNL A   1      35.659  23.203  22.986  1.00  0.00    -0.207 OA
BRANCH  22  25
ATOM     25  N   UNL A   1      34.266  22.464  24.986  1.00  0.00    -0.198 NA
ATOM     26  C   UNL A   1      33.981  21.193  24.306  1.00  0.00     0.102 C 
ATOM     27  C   UNL A   1      33.024  23.009  25.564  1.00  0.00     0.102 C 
ATOM     28  C   UNL A   1      32.522  21.298  23.898  1.00  0.00     0.018 C 
ATOM     29  C   UNL A   1      31.886  22.194  24.950  1.00  0.00     0.018 C 
ENDBRANCH  22  25
ENDBRANCH  21  22
ENDBRANCH  14  16
ENDBRANCH  11  12
ENDBRANCH   6  11
ENDBRANCH   3   5
ENDBRANCH   2   3
ENDBRANCH   1   2
BRANCH   1  30
ATOM     30  C   UNL A   1      44.062  25.488  25.071  1.00  0.00     0.275 C 
BRANCH  30  31
ATOM     31  O   UNL A   1      43.003  25.148  25.982  1.00  0.00    -0.458 OA
BRANCH  31  32
ATOM     32  C   UNL A   1      41.945  25.992  25.986  1.00  0.00     0.338 C 
ATOM     33  O   UNL A   1      41.106  26.148  25.118  1.00  0.00    -0.246 OA
BRANCH  32  34
ATOM     34  C   UNL A   1      41.887  26.650  27.297  1.00  0.00     0.060 A 
ATOM     35  C   UNL A   1      40.931  26.207  28.207  1.00  0.00     0.016 A 
ATOM     36  C   UNL A   1      42.680  27.756  27.584  1.00  0.00     0.016 A 
ATOM     37  C   UNL A   1      40.707  26.912  29.386  1.00  0.00     0.010 A 
ATOM     38  C   UNL A   1      42.508  28.416  28.807  1.00  0.00     0.010 A 
ATOM     39  C   UNL A   1      41.496  28.024  29.705  1.00  0.00    -0.014 A 
BRANCH  39  40
ATOM     40  C   UNL A   1      41.216  28.817  30.937  1.00  0.00     0.031 A 
ATOM     41  C   UNL A   1      40.056  29.781  30.962  1.00  0.00     0.074 A 
ATOM     42  C   UNL A   1      41.973  28.667  32.043  1.00  0.00     0.049 A 
ATOM     43  N   UNL A   1      39.751  30.685  31.857  1.00  0.00    -0.248 NA
ATOM     44  C   UNL A   1      39.127  29.731  29.820  1.00  0.00     0.031 C 
ATOM     45  C   UNL A   1      43.091  27.732  32.189  1.00  0.00     0.029 A 
ATOM     46  N   UNL A   1      41.909  29.296  33.264  1.00  0.00    -0.354 N 
ATOM     47  C   UNL A   1      38.639  31.356  31.355  1.00  0.00     0.074 A 
ATOM     48  C   UNL A   1      38.323  30.753  30.079  1.00  0.00     0.031 C 
ATOM     49  C   UNL A   1      43.578  27.817  33.437  1.00  0.00     0.029 A 
ATOM     50  C   UNL A   1      42.870  28.874  34.152  1.00  0.00     0.049 A 
ATOM     51  H   UNL A   1      41.238  29.983  33.481  1.00  0.00     0.167 HD
ATOM     52  C   UNL A   1      37.949  32.385  31.904  1.00  0.00     0.031 A 
ATOM     53  C   UNL A   1      43.181  29.312  35.389  1.00  0.00     0.031 A 
ATOM     54  C   UNL A   1      38.235  32.950  33.198  1.00  0.00     0.049 A 
ATOM     55  C   UNL A   1      42.415  30.467  35.972  1.00  0.00     0.074 A 
ATOM     56  C   UNL A   1      37.588  33.989  33.845  1.00  0.00     0.029 A 
ATOM     57  N   UNL A   1      39.234  32.509  34.051  1.00  0.00    -0.354 N 
ATOM     58  N   UNL A   1      41.413  31.135  35.454  1.00  0.00    -0.248 NA
ATOM     59  C   UNL A   1      42.834  30.937  37.300  1.00  0.00     0.031 C 
ATOM     60  C   UNL A   1      38.222  34.199  35.076  1.00  0.00     0.029 A 
ATOM     61  C   UNL A   1      39.230  33.260  35.214  1.00  0.00     0.049 A 
ATOM     62  H   UNL A   1      39.857  31.771  33.857  1.00  0.00     0.167 HD
ATOM     63  C   UNL A   1      41.078  32.102  36.395  1.00  0.00     0.074 A 
ATOM     64  C   UNL A   1      41.967  31.915  37.523  1.00  0.00     0.031 C 
ATOM     65  C   UNL A   1      40.123  33.062  36.327  1.00  0.00     0.031 A 
BRANCH  52  66
ATOM     66  C   UNL A   1      36.847  33.002  31.085  1.00  0.00    -0.014 A 
ATOM     67  C   UNL A   1      37.120  33.837  29.987  1.00  0.00     0.010 A 
ATOM     68  C   UNL A   1      35.507  32.715  31.408  1.00  0.00     0.010 A 
ATOM     69  C   UNL A   1      36.074  34.406  29.254  1.00  0.00     0.020 A 
ATOM     70  C   UNL A   1      34.459  33.259  30.662  1.00  0.00     0.020 A 
ATOM     71  C   UNL A   1      34.749  34.118  29.601  1.00  0.00     0.054 A 
BRANCH  71  72
ATOM     72  S   UNL A   1      33.409  34.858  28.628  1.00  0.00     0.124 S 
ATOM     73  O   UNL A   1      34.139  35.789  27.771  1.00  0.00    -0.237 OA
ATOM     74  O   UNL A   1      32.828  33.703  27.947  1.00  0.00    -0.237 OA
ATOM     75  O   UNL A   1      32.552  35.481  29.634  1.00  0.00    -0.744 OA
ENDBRANCH  71  72
ENDBRANCH  52  66
BRANCH  53  76
ATOM     76  C   UNL A   1      44.306  28.685  36.135  1.00  0.00    -0.014 A 
ATOM     77  C   UNL A   1      45.619  29.165  35.989  1.00  0.00     0.010 A 
ATOM     78  C   UNL A   1      44.063  27.616  37.019  1.00  0.00     0.010 A 
ATOM     79  C   UNL A   1      46.667  28.586  36.711  1.00  0.00     0.020 A 
ATOM     80  C   UNL A   1      45.104  27.056  37.764  1.00  0.00     0.020 A 
ATOM     81  C   UNL A   1      46.402  27.540  37.598  1.00  0.00     0.054 A 
BRANCH  81  82
ATOM     82  S   UNL A   1      47.762  26.854  38.584  1.00  0.00     0.124 S 
ATOM     83  O   UNL A   1      47.319  27.132  39.946  1.00  0.00    -0.237 OA
ATOM     84  O   UNL A   1      47.762  25.447  38.193  1.00  0.00    -0.237 OA
ATOM     85  O   UNL A   1      48.926  27.616  38.135  1.00  0.00    -0.744 OA
ENDBRANCH  81  82
ENDBRANCH  53  76
BRANCH  65  86
ATOM     86  C   UNL A   1      39.973  33.967  37.519  1.00  0.00    -0.014 A 
ATOM     87  C   UNL A   1      40.655  35.194  37.591  1.00  0.00     0.010 A 
ATOM     88  C   UNL A   1      39.106  33.600  38.564  1.00  0.00     0.010 A 
ATOM     89  C   UNL A   1      40.498  36.024  38.703  1.00  0.00     0.020 A 
ATOM     90  C   UNL A   1      38.928  34.438  39.666  1.00  0.00     0.020 A 
ATOM     91  C   UNL A   1      39.638  35.638  39.736  1.00  0.00     0.054 A 
BRANCH  91  92
ATOM     92  S   UNL A   1      39.423  36.746  41.157  1.00  0.00     0.124 S 
ATOM     93  O   UNL A   1      38.530  35.971  42.014  1.00  0.00    -0.237 OA
ATOM     94  O   UNL A   1      40.789  36.906  41.651  1.00  0.00    -0.237 OA
ATOM     95  O   UNL A   1      38.836  37.949  40.570  1.00  0.00    -0.744 OA
ENDBRANCH  91  92
ENDBRANCH  65  86
ENDBRANCH  39  40
ENDBRANCH  32  34
ENDBRANCH  31  32
ENDBRANCH  30  31
ENDBRANCH   1  30
TORSDOF 19
ENDMDL
MODEL 2
REMARK VINA RESULT:     -10.3      3.936     10.054
REMARK SMILES O=C(Cc1ccccc1C(=O)OCCOC(=O)c1ccc(-c2c3nc(c(-c4ccc(S(=O)(=O)[O-])cc4)c4ccc([nH]4)c(-c4ccc(S(=O)(=O)[O-])cc4)c4nc(c(-c5ccc(S(=O)(=O)[O-])cc5)c5ccc2[nH]5)C=C4)C=C3)cc1)Nc1ccc(S(=O)(=O)N2CCCC2)cc1
REMARK SMILES IDX 13 1 12 2 10 3 11 4 9 5 4 6 5 7 6 8 8 9 7 10 3 11 2 12 1 13
REMARK SMILES IDX 78 14 79 16 80 17 92 18 81 19 91 20 82 21 83 22 84 23 85 24
REMARK SMILES IDX 86 25 87 26 90 27 88 28 89 29 14 30 15 31 16 32 17 33 18 34
REMARK SMILES IDX 19 35 77 36 20 37 76 38 21 39 22 40 23 41 70 42 24 43 75 44
REMARK SMILES IDX 69 45 71 46 25 47 74 48 68 49 67 50 26 52 56 53 37 54 55 55
REMARK SMILES IDX 38 56 41 57 54 58 72 59 39 60 40 61 53 63 73 64 42 65 27 66
REMARK SMILES IDX 28 67 36 68 29 69 35 70 30 71 31 72 32 73 33 74 34 75 57 76
REMARK SMILES IDX 58 77 66 78 59 79 65 80 60 81 61 82 62 83 63 84 64 85 43 86
REMARK SMILES IDX 44 87 52 88 45 89 51 90 46 91 47 92 48 93 49 94 50 95
REMARK H PARENT 78 15 71 51 41 62
REMARK Flexibility Score: inf
ROOT
ATOM      1  C   UNL A   1      35.653  22.449  24.305  1.00  0.00     0.275 C 
ENDROOT
BRANCH   1   2
ATOM      2  O   UNL A   1      35.815  21.288  25.144  1.00  0.00    -0.458 OA
BRANCH   2   3
ATOM      3  C   UNL A   1      34.718  20.794  25.765  1.00  0.00     0.338 C 
ATOM      4  O   UNL A   1      34.173  21.248  26.754  1.00  0.00    -0.246 OA
BRANCH   3   5
ATOM      5  C   UNL A   1      34.186  19.643  24.981  1.00  0.00     0.063 A 
ATOM      6  C   UNL A   1      32.814  19.479  24.691  1.00  0.00    -0.024 A 
ATOM      7  C   UNL A   1      32.417  18.282  24.062  1.00  0.00     0.005 A 
ATOM      8  C   UNL A   1      33.352  17.322  23.669  1.00  0.00     0.000 A 
ATOM      9  C   UNL A   1      35.123  18.697  24.537  1.00  0.00     0.016 A 
ATOM     10  C   UNL A   1      34.706  17.536  23.889  1.00  0.00     0.001 A 
BRANCH   6  11
ATOM     11  C   UNL A   1      31.845  20.611  24.969  1.00  0.00     0.136 C 
BRANCH  11  12
ATOM     12  C   UNL A   1      32.098  21.922  24.270  1.00  0.00     0.228 C 
ATOM     13  O   UNL A   1      32.407  21.921  23.081  1.00  0.00    -0.274 OA
ATOM     14  N   UNL A   1      31.940  23.038  25.081  1.00  0.00    -0.326 N 
ATOM     15  H   UNL A   1      31.609  22.890  25.996  1.00  0.00     0.169 HD
BRANCH  14  16
ATOM     16  C   UNL A   1      32.215  24.364  24.697  1.00  0.00     0.041 A 
ATOM     17  C   UNL A   1      31.221  25.105  24.045  1.00  0.00     0.027 A 
ATOM     18  C   UNL A   1      33.431  24.977  24.982  1.00  0.00     0.027 A 
ATOM     19  C   UNL A   1      31.452  26.442  23.688  1.00  0.00     0.024 A 
ATOM     20  C   UNL A   1      33.645  26.313  24.674  1.00  0.00     0.024 A 
ATOM     21  C   UNL A   1      32.677  27.043  24.001  1.00  0.00     0.082 A 
BRANCH  21  22
ATOM     22  S   UNL A   1      33.016  28.715  23.492  1.00  0.00     0.243 S 
ATOM     23  O   UNL A   1      34.416  28.747  23.090  1.00  0.00    -0.207 OA
ATOM     24  O   UNL A   1      31.966  29.110  22.589  1.00  0.00    -0.207 OA
BRANCH  22  25
ATOM     25  N   UNL A   1      32.902  29.651  24.895  1.00  0.00    -0.198 NA
ATOM     26  C   UNL A   1      33.957  29.575  25.916  1.00  0.00     0.102 C 
ATOM     27  C   UNL A   1      31.598  29.879  25.544  1.00  0.00     0.102 C 
ATOM     28  C   UNL A   1      33.242  29.097  27.168  1.00  0.00     0.018 C 
ATOM     29  C   UNL A   1      31.823  29.627  27.035  1.00  0.00     0.018 C 
ENDBRANCH  22  25
ENDBRANCH  21  22
ENDBRANCH  14  16
ENDBRANCH  11  12
ENDBRANCH   6  11
ENDBRANCH   3   5
ENDBRANCH   2   3
ENDBRANCH   1   2
BRANCH   1  30
ATOM     30  C   UNL A   1      36.936  23.275  24.332  1.00  0.00     0.275 C 
BRANCH  30  31
ATOM     31  O   UNL A   1      37.264  23.556  25.703  1.00  0.00    -0.458 OA
BRANCH  31  32
ATOM     32  C   UNL A   1      38.479  23.125  26.112  1.00  0.00     0.338 C 
ATOM     33  O   UNL A   1      38.993  22.038  25.922  1.00  0.00    -0.246 OA
BRANCH  32  34
ATOM     34  C   UNL A   1      39.172  24.247  26.757  1.00  0.00     0.060 A 
ATOM     35  C   UNL A   1      38.943  24.460  28.114  1.00  0.00     0.016 A 
ATOM     36  C   UNL A   1      39.940  25.140  26.019  1.00  0.00     0.016 A 
ATOM     37  C   UNL A   1      39.422  25.612  28.732  1.00  0.00     0.010 A 
ATOM     38  C   UNL A   1      40.488  26.257  26.661  1.00  0.00     0.010 A 
ATOM     39  C   UNL A   1      40.206  26.525  28.015  1.00  0.00    -0.014 A 
BRANCH  39  40
ATOM     40  C   UNL A   1      40.667  27.789  28.659  1.00  0.00     0.031 A 
ATOM     41  C   UNL A   1      42.095  27.915  29.128  1.00  0.00     0.074 A 
ATOM     42  C   UNL A   1      39.828  28.835  28.808  1.00  0.00     0.049 A 
ATOM     43  N   UNL A   1      42.645  28.847  29.863  1.00  0.00    -0.248 NA
ATOM     44  C   UNL A   1      43.022  26.842  28.729  1.00  0.00     0.031 C 
ATOM     45  C   UNL A   1      38.437  28.883  28.352  1.00  0.00     0.029 A 
ATOM     46  N   UNL A   1      40.030  30.069  29.379  1.00  0.00    -0.354 N 
ATOM     47  C   UNL A   1      43.959  28.439  30.073  1.00  0.00     0.074 A 
ATOM     48  C   UNL A   1      44.124  27.177  29.385  1.00  0.00     0.031 C 
ATOM     49  C   UNL A   1      37.926  30.094  28.621  1.00  0.00     0.029 A 
ATOM     50  C   UNL A   1      38.918  30.878  29.348  1.00  0.00     0.049 A 
ATOM     51  H   UNL A   1      40.889  30.347  29.772  1.00  0.00     0.167 HD
ATOM     52  C   UNL A   1      44.937  29.056  30.779  1.00  0.00     0.031 A 
ATOM     53  C   UNL A   1      38.701  32.099  29.880  1.00  0.00     0.031 A 
ATOM     54  C   UNL A   1      44.785  30.336  31.420  1.00  0.00     0.049 A 
ATOM     55  C   UNL A   1      39.793  32.757  30.676  1.00  0.00     0.074 A 
ATOM     56  C   UNL A   1      45.720  31.048  32.153  1.00  0.00     0.029 A 
ATOM     57  N   UNL A   1      43.634  31.108  31.386  1.00  0.00    -0.354 N 
ATOM     58  N   UNL A   1      41.006  32.324  30.924  1.00  0.00    -0.248 NA
ATOM     59  C   UNL A   1      39.480  34.060  31.278  1.00  0.00     0.031 C 
ATOM     60  C   UNL A   1      45.120  32.234  32.593  1.00  0.00     0.029 A 
ATOM     61  C   UNL A   1      43.829  32.282  32.092  1.00  0.00     0.049 A 
ATOM     62  H   UNL A   1      42.799  30.855  30.928  1.00  0.00     0.167 HD
ATOM     63  C   UNL A   1      41.603  33.305  31.706  1.00  0.00     0.074 A 
ATOM     64  C   UNL A   1      40.628  34.364  31.870  1.00  0.00     0.031 C 
ATOM     65  C   UNL A   1      42.846  33.325  32.247  1.00  0.00     0.031 A 
BRANCH  52  66
ATOM     66  C   UNL A   1      46.246  28.329  30.940  1.00  0.00    -0.014 A 
ATOM     67  C   UNL A   1      47.327  28.550  30.068  1.00  0.00     0.010 A 
ATOM     68  C   UNL A   1      46.403  27.424  32.007  1.00  0.00     0.010 A 
ATOM     69  C   UNL A   1      48.525  27.849  30.236  1.00  0.00     0.020 A 
ATOM     70  C   UNL A   1      47.607  26.741  32.194  1.00  0.00     0.020 A 
ATOM     71  C   UNL A   1      48.654  26.943  31.295  1.00  0.00     0.054 A 
BRANCH  71  72
ATOM     72  S   UNL A   1      50.223  26.055  31.500  1.00  0.00     0.124 S 
ATOM     73  O   UNL A   1      51.201  27.113  31.260  1.00  0.00    -0.237 OA
ATOM     74  O   UNL A   1      50.145  25.573  32.876  1.00  0.00    -0.237 OA
ATOM     75  O   UNL A   1      50.169  25.015  30.475  1.00  0.00    -0.744 OA
ENDBRANCH  71  72
ENDBRANCH  52  66
BRANCH  53  76
ATOM     76  C   UNL A   1      37.372  32.750  29.718  1.00  0.00    -0.014 A 
ATOM     77  C   UNL A   1      36.377  32.603  30.700  1.00  0.00     0.010 A 
ATOM     78  C   UNL A   1      37.105  33.545  28.587  1.00  0.00     0.010 A 
ATOM     79  C   UNL A   1      35.140  33.238  30.552  1.00  0.00     0.020 A 
ATOM     80  C   UNL A   1      35.881  34.204  28.452  1.00  0.00     0.020 A 
ATOM     81  C   UNL A   1      34.902  34.039  29.432  1.00  0.00     0.054 A 
BRANCH  81  82
ATOM     82  S   UNL A   1      33.319  34.917  29.297  1.00  0.00     0.124 S 
ATOM     83  O   UNL A   1      33.742  36.233  28.830  1.00  0.00    -0.237 OA
ATOM     84  O   UNL A   1      32.587  34.106  28.327  1.00  0.00    -0.237 OA
ATOM     85  O   UNL A   1      32.789  34.873  30.658  1.00  0.00    -0.744 OA
ENDBRANCH  81  82
ENDBRANCH  53  76
BRANCH  65  86
ATOM     86  C   UNL A   1      43.232  34.541  33.042  1.00  0.00    -0.014 A 
ATOM     87  C   UNL A   1      43.848  35.646  32.428  1.00  0.00     0.010 A 
ATOM     88  C   UNL A   1      42.938  34.594  34.416  1.00  0.00     0.010 A 
ATOM     89  C   UNL A   1      44.193  36.770  33.182  1.00  0.00     0.020 A 
ATOM     90  C   UNL A   1      43.260  35.725  35.169  1.00  0.00     0.020 A 
ATOM     91  C   UNL A   1      43.900  36.800  34.550  1.00  0.00     0.054 A 
BRANCH  91  92
ATOM     92  S   UNL A   1      44.327  38.283  35.504  1.00  0.00     0.124 S 
ATOM     93  O   UNL A   1      43.680  39.338  34.730  1.00  0.00    -0.237 OA
ATOM     94  O   UNL A   1      43.736  38.008  36.812  1.00  0.00    -0.237 OA
ATOM     95  O   UNL A   1      45.788  38.299  35.480  1.00  0.00    -0.744 OA
ENDBRANCH  91  92
ENDBRANCH  65  86
ENDBRANCH  39  40
ENDBRANCH  32  34
ENDBRANCH  31  32
ENDBRANCH  30  31
ENDBRANCH   1  30
TORSDOF 19
ENDMDL
MODEL 3
REMARK VINA RESULT:     -10.1      3.580      9.890
REMARK SMILES O=C(Cc1ccccc1C(=O)OCCOC(=O)c1ccc(-c2c3nc(c(-c4ccc(S(=O)(=O)[O-])cc4)c4ccc([nH]4)c(-c4ccc(S(=O)(=O)[O-])cc4)c4nc(c(-c5ccc(S(=O)(=O)[O-])cc5)c5ccc2[nH]5)C=C4)C=C3)cc1)Nc1ccc(S(=O)(=O)N2CCCC2)cc1
REMARK SMILES IDX 13 1 12 2 10 3 11 4 9 5 4 6 5 7 6 8 8 9 7 10 3 11 2 12 1 13
REMARK SMILES IDX 78 14 79 16 80 17 92 18 81 19 91 20 82 21 83 22 84 23 85 24
REMARK SMILES IDX 86 25 87 26 90 27 88 28 89 29 14 30 15 31 16 32 17 33 18 34
REMARK SMILES IDX 19 35 77 36 20 37 76 38 21 39 22 40 23 41 70 42 24 43 75 44
REMARK SMILES IDX 69 45 71 46 25 47 74 48 68 49 67 50 26 52 56 53 37 54 55 55
REMARK SMILES IDX 38 56 41 57 54 58 72 59 39 60 40 61 53 63 73 64 42 65 27 66
REMARK SMILES IDX 28 67 36 68 29 69 35 70 30 71 31 72 32 73 33 74 34 75 57 76
REMARK SMILES IDX 58 77 66 78 59 79 65 80 60 81 61 82 62 83 63 84 64 85 43 86
REMARK SMILES IDX 44 87 52 88 45 89 51 90 46 91 47 92 48 93 49 94 50 95
REMARK H PARENT 78 15 71 51 41 62
REMARK Flexibility Score: inf
ROOT
ATOM      1  C   UNL A   1      37.648  21.928  25.645  1.00  0.00     0.275 C 
ENDROOT
BRANCH   1   2
ATOM      2  O   UNL A   1      36.915  23.133  25.349  1.00  0.00    -0.458 OA
BRANCH   2   3
ATOM      3  C   UNL A   1      36.174  23.165  24.217  1.00  0.00     0.338 C 
ATOM      4  O   UNL A   1      36.589  23.244  23.075  1.00  0.00    -0.246 OA
BRANCH   3   5
ATOM      5  C   UNL A   1      34.737  22.975  24.564  1.00  0.00     0.063 A 
ATOM      6  C   UNL A   1      33.958  23.973  25.189  1.00  0.00    -0.024 A 
ATOM      7  C   UNL A   1      32.653  23.629  25.591  1.00  0.00     0.005 A 
ATOM      8  C   UNL A   1      32.115  22.369  25.317  1.00  0.00     0.000 A 
ATOM      9  C   UNL A   1      34.171  21.729  24.248  1.00  0.00     0.016 A 
ATOM     10  C   UNL A   1      32.867  21.425  24.629  1.00  0.00     0.001 A 
BRANCH   6  11
ATOM     11  C   UNL A   1      34.503  25.382  25.316  1.00  0.00     0.136 C 
BRANCH  11  12
ATOM     12  C   UNL A   1      33.504  26.510  25.312  1.00  0.00     0.228 C 
ATOM     13  O   UNL A   1      33.390  27.219  26.309  1.00  0.00    -0.274 OA
ATOM     14  N   UNL A   1      32.795  26.636  24.124  1.00  0.00    -0.326 N 
ATOM     15  H   UNL A   1      33.051  26.046  23.378  1.00  0.00     0.169 HD
BRANCH  14  16
ATOM     16  C   UNL A   1      31.739  27.540  23.902  1.00  0.00     0.041 A 
ATOM     17  C   UNL A   1      30.513  27.054  23.430  1.00  0.00     0.027 A 
ATOM     18  C   UNL A   1      31.862  28.898  24.176  1.00  0.00     0.027 A 
ATOM     19  C   UNL A   1      29.430  27.926  23.239  1.00  0.00     0.024 A 
ATOM     20  C   UNL A   1      30.780  29.755  24.035  1.00  0.00     0.024 A 
ATOM     21  C   UNL A   1      29.573  29.285  23.538  1.00  0.00     0.082 A 
BRANCH  21  22
ATOM     22  S   UNL A   1      28.234  30.420  23.235  1.00  0.00     0.243 S 
ATOM     23  O   UNL A   1      27.070  29.606  22.914  1.00  0.00    -0.207 OA
ATOM     24  O   UNL A   1      28.215  31.361  24.325  1.00  0.00    -0.207 OA
BRANCH  22  25
ATOM     25  N   UNL A   1      28.645  31.243  21.817  1.00  0.00    -0.198 NA
ATOM     26  C   UNL A   1      28.663  32.713  21.801  1.00  0.00     0.102 C 
ATOM     27  C   UNL A   1      28.217  30.736  20.500  1.00  0.00     0.102 C 
ATOM     28  C   UNL A   1      27.640  33.094  20.745  1.00  0.00     0.018 C 
ATOM     29  C   UNL A   1      27.659  31.944  19.749  1.00  0.00     0.018 C 
ENDBRANCH  22  25
ENDBRANCH  21  22
ENDBRANCH  14  16
ENDBRANCH  11  12
ENDBRANCH   6  11
ENDBRANCH   3   5
ENDBRANCH   2   3
ENDBRANCH   1   2
BRANCH   1  30
ATOM     30  C   UNL A   1      39.066  22.291  26.077  1.00  0.00     0.275 C 
BRANCH  30  31
ATOM     31  O   UNL A   1      39.047  23.625  26.612  1.00  0.00    -0.458 OA
BRANCH  31  32
ATOM     32  C   UNL A   1      40.261  24.186  26.820  1.00  0.00     0.338 C 
ATOM     33  O   UNL A   1      41.327  23.875  26.322  1.00  0.00    -0.246 OA
BRANCH  32  34
ATOM     34  C   UNL A   1      40.084  25.351  27.695  1.00  0.00     0.060 A 
ATOM     35  C   UNL A   1      40.967  26.417  27.548  1.00  0.00     0.016 A 
ATOM     36  C   UNL A   1      39.142  25.349  28.718  1.00  0.00     0.016 A 
ATOM     37  C   UNL A   1      40.965  27.461  28.468  1.00  0.00     0.010 A 
ATOM     38  C   UNL A   1      39.088  26.438  29.596  1.00  0.00     0.010 A 
ATOM     39  C   UNL A   1      40.022  27.489  29.503  1.00  0.00    -0.014 A 
BRANCH  39  40
ATOM     40  C   UNL A   1      40.058  28.574  30.526  1.00  0.00     0.031 A 
ATOM     41  C   UNL A   1      41.087  28.531  31.629  1.00  0.00     0.074 A 
ATOM     42  C   UNL A   1      39.196  29.610  30.467  1.00  0.00     0.049 A 
ATOM     43  N   UNL A   1      41.175  29.269  32.706  1.00  0.00    -0.248 NA
ATOM     44  C   UNL A   1      42.145  27.515  31.511  1.00  0.00     0.031 C 
ATOM     45  C   UNL A   1      38.186  29.818  29.427  1.00  0.00     0.029 A 
ATOM     46  N   UNL A   1      39.040  30.693  31.298  1.00  0.00    -0.354 N 
ATOM     47  C   UNL A   1      42.253  28.762  33.426  1.00  0.00     0.074 A 
ATOM     48  C   UNL A   1      42.788  27.656  32.661  1.00  0.00     0.031 C 
ATOM     49  C   UNL A   1      37.546  30.975  29.658  1.00  0.00     0.029 A 
ATOM     50  C   UNL A   1      38.036  31.547  30.908  1.00  0.00     0.049 A 
ATOM     51  H   UNL A   1      39.596  30.843  32.097  1.00  0.00     0.167 HD
ATOM     52  C   UNL A   1      42.748  29.175  34.617  1.00  0.00     0.031 A 
ATOM     53  C   UNL A   1      37.530  32.646  31.505  1.00  0.00     0.031 A 
ATOM     54  C   UNL A   1      42.246  30.307  35.352  1.00  0.00     0.049 A 
ATOM     55  C   UNL A   1      38.081  33.076  32.836  1.00  0.00     0.074 A 
ATOM     56  C   UNL A   1      42.685  30.810  36.565  1.00  0.00     0.029 A 
ATOM     57  N   UNL A   1      41.209  31.127  34.932  1.00  0.00    -0.354 N 
ATOM     58  N   UNL A   1      39.053  32.542  33.536  1.00  0.00    -0.248 NA
ATOM     59  C   UNL A   1      37.455  34.246  33.466  1.00  0.00     0.031 C 
ATOM     60  C   UNL A   1      41.888  31.913  36.895  1.00  0.00     0.029 A 
ATOM     61  C   UNL A   1      40.987  32.125  35.865  1.00  0.00     0.049 A 
ATOM     62  H   UNL A   1      40.705  31.013  34.094  1.00  0.00     0.167 HD
ATOM     63  C   UNL A   1      39.159  33.316  34.686  1.00  0.00     0.074 A 
ATOM     64  C   UNL A   1      38.169  34.367  34.576  1.00  0.00     0.031 C 
ATOM     65  C   UNL A   1      39.996  33.164  35.741  1.00  0.00     0.031 A 
BRANCH  52  66
ATOM     66  C   UNL A   1      43.861  28.365  35.229  1.00  0.00    -0.014 A 
ATOM     67  C   UNL A   1      45.213  28.680  35.006  1.00  0.00     0.010 A 
ATOM     68  C   UNL A   1      43.541  27.282  36.068  1.00  0.00     0.010 A 
ATOM     69  C   UNL A   1      46.223  27.900  35.577  1.00  0.00     0.020 A 
ATOM     70  C   UNL A   1      44.547  26.516  36.663  1.00  0.00     0.020 A 
ATOM     71  C   UNL A   1      45.883  26.819  36.397  1.00  0.00     0.054 A 
BRANCH  71  72
ATOM     72  S   UNL A   1      47.212  25.830  37.138  1.00  0.00     0.124 S 
ATOM     73  O   UNL A   1      48.405  26.475  36.595  1.00  0.00    -0.237 OA
ATOM     74  O   UNL A   1      46.994  26.016  38.570  1.00  0.00    -0.237 OA
ATOM     75  O   UNL A   1      46.956  24.479  36.642  1.00  0.00    -0.744 OA
ENDBRANCH  71  72
ENDBRANCH  52  66
BRANCH  53  76
ATOM     76  C   UNL A   1      36.404  33.383  30.868  1.00  0.00    -0.014 A 
ATOM     77  C   UNL A   1      35.158  33.481  31.510  1.00  0.00     0.010 A 
ATOM     78  C   UNL A   1      36.584  34.013  29.623  1.00  0.00     0.010 A 
ATOM     79  C   UNL A   1      34.112  34.195  30.917  1.00  0.00     0.020 A 
ATOM     80  C   UNL A   1      35.551  34.752  29.042  1.00  0.00     0.020 A 
ATOM     81  C   UNL A   1      34.317  34.831  29.689  1.00  0.00     0.054 A 
BRANCH  81  82
ATOM     82  S   UNL A   1      32.973  35.818  28.973  1.00  0.00     0.124 S 
ATOM     83  O   UNL A   1      32.357  34.867  28.053  1.00  0.00    -0.237 OA
ATOM     84  O   UNL A   1      32.177  36.171  30.146  1.00  0.00    -0.237 OA
ATOM     85  O   UNL A   1      33.671  36.937  28.344  1.00  0.00    -0.744 OA
ENDBRANCH  81  82
ENDBRANCH  53  76
BRANCH  65  86
ATOM     86  C   UNL A   1      39.897  34.176  36.849  1.00  0.00    -0.014 A 
ATOM     87  C   UNL A   1      40.410  35.476  36.694  1.00  0.00     0.010 A 
ATOM     88  C   UNL A   1      39.246  33.831  38.047  1.00  0.00     0.010 A 
ATOM     89  C   UNL A   1      40.303  36.404  37.732  1.00  0.00     0.020 A 
ATOM     90  C   UNL A   1      39.116  34.764  39.078  1.00  0.00     0.020 A 
ATOM     91  C   UNL A   1      39.660  36.040  38.920  1.00  0.00     0.054 A 
BRANCH  91  92
ATOM     92  S   UNL A   1      39.503  37.272  40.243  1.00  0.00     0.124 S 
ATOM     93  O   UNL A   1      38.566  36.621  41.154  1.00  0.00    -0.237 OA
ATOM     94  O   UNL A   1      40.874  37.396  40.733  1.00  0.00    -0.237 OA
ATOM     95  O   UNL A   1      38.986  38.453  39.555  1.00  0.00    -0.744 OA
ENDBRANCH  91  92
ENDBRANCH  65  86
ENDBRANCH  39  40
ENDBRANCH  32  34
ENDBRANCH  31  32
ENDBRANCH  30  31
ENDBRANCH   1  30
TORSDOF 19
ENDMDL
