MODEL 1
REMARK VINA RESULT:     -10.8      0.000      0.000
REMARK SMILES O=C(OCCOC(=O)c1cc(=O)[nH]c2c(Br)cccc12)c1ccc(-c2c3nc(c(-c4ccc(S(=O)(=O)[O-])cc4)c4ccc([nH]4)c(-c4ccc(S(=O)(=O)[O-])cc4)c4nc(c(-c5ccc(S(=O)(=O)[O-])cc5)c5ccc2[nH]5)C=C4)C=C3)cc1
REMARK SMILES IDX 3 1 2 2 1 3 21 4 22 5 80 6 23 7 79 8 24 9 25 10 26 11 73 12
REMARK SMILES IDX 27 13 78 14 72 15 74 16 28 17 77 18 71 19 70 20 29 22 59 23
REMARK SMILES IDX 40 24 58 25 41 26 44 27 57 28 75 29 42 30 43 31 56 33 76 34
REMARK SMILES IDX 45 35 30 36 31 37 39 38 32 39 38 40 33 41 34 42 35 43 36 44
REMARK SMILES IDX 37 45 60 46 61 47 69 48 62 49 68 50 63 51 64 52 65 53 66 54
REMARK SMILES IDX 67 55 46 56 47 57 55 58 48 59 54 60 49 61 50 62 51 63 52 64
REMARK SMILES IDX 53 65 4 66 5 67 6 68 7 69 8 70 9 71 10 72 20 73 11 74 14 75
REMARK SMILES IDX 19 76 12 77 13 78 15 79 18 80 16 82 17 83
REMARK H PARENT 74 21 44 32 13 81
REMARK Flexibility Score: inf
ROOT
ATOM      1  O   UNL A   1      33.566  31.527  27.798  1.00  0.00    -0.458 OA
ENDROOT
BRANCH   1   2
ATOM      2  C   UNL A   1      34.324  30.512  27.308  1.00  0.00     0.338 C 
ATOM      3  O   UNL A   1      33.873  29.774  26.437  1.00  0.00    -0.246 OA
BRANCH   2   4
ATOM      4  C   UNL A   1      35.578  30.111  28.008  1.00  0.00     0.060 A 
ATOM      5  C   UNL A   1      36.764  30.241  27.275  1.00  0.00     0.016 A 
ATOM      6  C   UNL A   1      35.661  29.661  29.326  1.00  0.00     0.016 A 
ATOM      7  C   UNL A   1      37.981  29.790  27.790  1.00  0.00     0.010 A 
ATOM      8  C   UNL A   1      36.884  29.231  29.857  1.00  0.00     0.010 A 
ATOM      9  C   UNL A   1      38.051  29.266  29.086  1.00  0.00    -0.014 A 
BRANCH   9  10
ATOM     10  C   UNL A   1      39.358  28.915  29.689  1.00  0.00     0.031 A 
ATOM     11  C   UNL A   1      40.147  27.716  29.243  1.00  0.00     0.074 A 
ATOM     12  C   UNL A   1      39.814  29.686  30.695  1.00  0.00     0.049 A 
ATOM     13  N   UNL A   1      41.343  27.343  29.621  1.00  0.00    -0.248 NA
ATOM     14  C   UNL A   1      39.545  26.839  28.228  1.00  0.00     0.031 C 
ATOM     15  C   UNL A   1      39.131  30.872  31.221  1.00  0.00     0.029 A 
ATOM     16  N   UNL A   1      40.934  29.572  31.477  1.00  0.00    -0.354 N 
ATOM     17  C   UNL A   1      41.677  26.260  28.817  1.00  0.00     0.074 A 
ATOM     18  C   UNL A   1      40.531  25.981  27.984  1.00  0.00     0.031 C 
ATOM     19  C   UNL A   1      39.827  31.353  32.259  1.00  0.00     0.029 A 
ATOM     20  C   UNL A   1      40.971  30.482  32.506  1.00  0.00     0.049 A 
ATOM     21  H   UNL A   1      41.640  28.905  31.319  1.00  0.00     0.167 HD
ATOM     22  C   UNL A   1      42.844  25.577  28.775  1.00  0.00     0.031 A 
ATOM     23  C   UNL A   1      41.795  30.577  33.567  1.00  0.00     0.031 A 
ATOM     24  C   UNL A   1      43.913  25.775  29.719  1.00  0.00     0.049 A 
ATOM     25  C   UNL A   1      42.950  29.626  33.673  1.00  0.00     0.074 A 
ATOM     26  C   UNL A   1      45.130  25.120  29.782  1.00  0.00     0.029 A 
ATOM     27  N   UNL A   1      43.864  26.638  30.803  1.00  0.00    -0.354 N 
ATOM     28  N   UNL A   1      43.324  28.704  32.818  1.00  0.00    -0.248 NA
ATOM     29  C   UNL A   1      43.796  29.720  34.869  1.00  0.00     0.031 C 
ATOM     30  C   UNL A   1      45.759  25.496  30.970  1.00  0.00     0.029 A 
ATOM     31  C   UNL A   1      44.981  26.458  31.596  1.00  0.00     0.049 A 
ATOM     32  H   UNL A   1      43.141  27.282  30.980  1.00  0.00     0.167 HD
ATOM     33  C   UNL A   1      44.463  28.124  33.360  1.00  0.00     0.074 A 
ATOM     34  C   UNL A   1      44.719  28.798  34.616  1.00  0.00     0.031 C 
ATOM     35  C   UNL A   1      45.227  27.129  32.850  1.00  0.00     0.031 A 
BRANCH  22  36
ATOM     36  C   UNL A   1      43.063  24.543  27.701  1.00  0.00    -0.014 A 
ATOM     37  C   UNL A   1      42.842  23.180  27.974  1.00  0.00     0.010 A 
ATOM     38  C   UNL A   1      43.707  24.903  26.502  1.00  0.00     0.010 A 
ATOM     39  C   UNL A   1      43.312  22.195  27.098  1.00  0.00     0.020 A 
ATOM     40  C   UNL A   1      44.168  23.920  25.619  1.00  0.00     0.020 A 
ATOM     41  C   UNL A   1      43.993  22.571  25.936  1.00  0.00     0.054 A 
BRANCH  41  42
ATOM     42  S   UNL A   1      44.687  21.270  24.877  1.00  0.00     0.124 S 
ATOM     43  O   UNL A   1      46.013  21.072  25.453  1.00  0.00    -0.237 OA
ATOM     44  O   UNL A   1      43.745  20.170  25.071  1.00  0.00    -0.237 OA
ATOM     45  O   UNL A   1      44.672  21.864  23.541  1.00  0.00    -0.744 OA
ENDBRANCH  41  42
ENDBRANCH  22  36
BRANCH  23  46
ATOM     46  C   UNL A   1      41.491  31.589  34.614  1.00  0.00    -0.014 A 
ATOM     47  C   UNL A   1      40.501  31.312  35.580  1.00  0.00     0.010 A 
ATOM     48  C   UNL A   1      42.086  32.859  34.593  1.00  0.00     0.010 A 
ATOM     49  C   UNL A   1      40.063  32.305  36.457  1.00  0.00     0.020 A 
ATOM     50  C   UNL A   1      41.673  33.847  35.494  1.00  0.00     0.020 A 
ATOM     51  C   UNL A   1      40.642  33.573  36.397  1.00  0.00     0.054 A 
BRANCH  51  52
ATOM     52  S   UNL A   1      40.020  34.864  37.509  1.00  0.00     0.124 S 
ATOM     53  O   UNL A   1      38.977  34.149  38.242  1.00  0.00    -0.237 OA
ATOM     54  O   UNL A   1      41.205  35.216  38.287  1.00  0.00    -0.237 OA
ATOM     55  O   UNL A   1      39.547  35.900  36.596  1.00  0.00    -0.744 OA
ENDBRANCH  51  52
ENDBRANCH  23  46
BRANCH  35  56
ATOM     56  C   UNL A   1      46.423  26.664  33.636  1.00  0.00    -0.014 A 
ATOM     57  C   UNL A   1      47.691  27.207  33.354  1.00  0.00     0.010 A 
ATOM     58  C   UNL A   1      46.321  25.562  34.502  1.00  0.00     0.010 A 
ATOM     59  C   UNL A   1      48.844  26.607  33.862  1.00  0.00     0.020 A 
ATOM     60  C   UNL A   1      47.472  24.980  35.039  1.00  0.00     0.020 A 
ATOM     61  C   UNL A   1      48.727  25.484  34.684  1.00  0.00     0.054 A 
BRANCH  61  62
ATOM     62  S   UNL A   1      50.238  24.660  35.255  1.00  0.00     0.124 S 
ATOM     63  O   UNL A   1      50.267  25.015  36.670  1.00  0.00    -0.237 OA
ATOM     64  O   UNL A   1      49.966  23.253  34.962  1.00  0.00    -0.237 OA
ATOM     65  O   UNL A   1      51.288  25.265  34.438  1.00  0.00    -0.744 OA
ENDBRANCH  61  62
ENDBRANCH  35  56
ENDBRANCH   9  10
ENDBRANCH   2   4
ENDBRANCH   1   2
BRANCH   1  66
ATOM     66  C   UNL A   1      33.980  32.894  27.957  1.00  0.00     0.275 C 
BRANCH  66  67
ATOM     67  C   UNL A   1      32.825  33.883  28.124  1.00  0.00     0.275 C 
BRANCH  67  68
ATOM     68  O   UNL A   1      32.698  34.391  29.459  1.00  0.00    -0.458 OA
BRANCH  68  69
ATOM     69  C   UNL A   1      33.533  35.421  29.772  1.00  0.00     0.339 C 
ATOM     70  O   UNL A   1      33.906  36.301  29.012  1.00  0.00    -0.246 OA
BRANCH  69  71
ATOM     71  C   UNL A   1      33.877  35.374  31.211  1.00  0.00     0.074 A 
ATOM     72  C   UNL A   1      33.559  36.452  31.944  1.00  0.00     0.088 A 
ATOM     73  C   UNL A   1      34.560  34.227  31.841  1.00  0.00     0.014 A 
ATOM     74  C   UNL A   1      33.919  36.535  33.373  1.00  0.00     0.249 A 
ATOM     75  C   UNL A   1      35.042  34.378  33.155  1.00  0.00     0.063 A 
ATOM     76  C   UNL A   1      34.834  33.035  31.156  1.00  0.00     0.011 A 
ATOM     77  O   UNL A   1      33.536  37.476  34.055  1.00  0.00    -0.270 OA
ATOM     78  N   UNL A   1      34.711  35.543  33.866  1.00  0.00    -0.321 N 
ATOM     79  C   UNL A   1      35.838  33.383  33.738  1.00  0.00     0.042 A 
ATOM     80  C   UNL A   1      35.611  32.036  31.749  1.00  0.00     0.002 A 
ATOM     81  H   UNL A   1      35.075  35.648  34.775  1.00  0.00     0.170 HD
ATOM     82  Br  UNL A   1      36.585  33.595  35.469  1.00  0.00    -0.049 Br
ATOM     83  C   UNL A   1      36.128  32.216  33.030  1.00  0.00     0.018 A 
ENDBRANCH  69  71
ENDBRANCH  68  69
ENDBRANCH  67  68
ENDBRANCH  66  67
ENDBRANCH   1  66
TORSDOF 14
ENDMDL
MODEL 2
REMARK VINA RESULT:     -10.7      1.048      8.523
REMARK SMILES O=C(OCCOC(=O)c1cc(=O)[nH]c2c(Br)cccc12)c1ccc(-c2c3nc(c(-c4ccc(S(=O)(=O)[O-])cc4)c4ccc([nH]4)c(-c4ccc(S(=O)(=O)[O-])cc4)c4nc(c(-c5ccc(S(=O)(=O)[O-])cc5)c5ccc2[nH]5)C=C4)C=C3)cc1
REMARK SMILES IDX 3 1 2 2 1 3 21 4 22 5 80 6 23 7 79 8 24 9 25 10 26 11 73 12
REMARK SMILES IDX 27 13 78 14 72 15 74 16 28 17 77 18 71 19 70 20 29 22 59 23
REMARK SMILES IDX 40 24 58 25 41 26 44 27 57 28 75 29 42 30 43 31 56 33 76 34
REMARK SMILES IDX 45 35 30 36 31 37 39 38 32 39 38 40 33 41 34 42 35 43 36 44
REMARK SMILES IDX 37 45 60 46 61 47 69 48 62 49 68 50 63 51 64 52 65 53 66 54
REMARK SMILES IDX 67 55 46 56 47 57 55 58 48 59 54 60 49 61 50 62 51 63 52 64
REMARK SMILES IDX 53 65 4 66 5 67 6 68 7 69 8 70 9 71 10 72 20 73 11 74 14 75
REMARK SMILES IDX 19 76 12 77 13 78 15 79 18 80 16 82 17 83
REMARK H PARENT 74 21 44 32 13 81
REMARK Flexibility Score: inf
ROOT
ATOM      1  O   UNL A   1      33.597  31.126  27.734  1.00  0.00    -0.458 OA
ENDROOT
BRANCH   1   2
ATOM      2  C   UNL A   1      34.445  30.171  27.274  1.00  0.00     0.338 C 
ATOM      3  O   UNL A   1      34.069  29.379  26.414  1.00  0.00    -0.246 OA
BRANCH   2   4
ATOM      4  C   UNL A   1      35.720  29.894  27.994  1.00  0.00     0.060 A 
ATOM      5  C   UNL A   1      36.899  30.079  27.260  1.00  0.00     0.016 A 
ATOM      6  C   UNL A   1      35.828  29.509  29.331  1.00  0.00     0.016 A 
ATOM      7  C   UNL A   1      38.142  29.742  27.799  1.00  0.00     0.010 A 
ATOM      8  C   UNL A   1      37.076  29.193  29.885  1.00  0.00     0.010 A 
ATOM      9  C   UNL A   1      38.242  29.281  29.116  1.00  0.00    -0.014 A 
BRANCH   9  10
ATOM     10  C   UNL A   1      39.567  29.053  29.739  1.00  0.00     0.031 A 
ATOM     11  C   UNL A   1      40.139  29.991  30.765  1.00  0.00     0.074 A 
ATOM     12  C   UNL A   1      40.280  27.986  29.329  1.00  0.00     0.049 A 
ATOM     13  N   UNL A   1      41.244  29.865  31.455  1.00  0.00    -0.248 NA
ATOM     14  C   UNL A   1      39.375  31.205  31.085  1.00  0.00     0.031 C 
ATOM     15  C   UNL A   1      39.831  27.008  28.333  1.00  0.00     0.029 A 
ATOM     16  N   UNL A   1      41.539  27.563  29.667  1.00  0.00    -0.354 N 
ATOM     17  C   UNL A   1      41.250  30.919  32.361  1.00  0.00     0.074 A 
ATOM     18  C   UNL A   1      40.083  31.722  32.084  1.00  0.00     0.031 C 
ATOM     19  C   UNL A   1      40.813  26.124  28.115  1.00  0.00     0.029 A 
ATOM     20  C   UNL A   1      41.975  26.502  28.912  1.00  0.00     0.049 A 
ATOM     21  H   UNL A   1      42.078  27.980  30.377  1.00  0.00     0.167 HD
ATOM     22  C   UNL A   1      42.146  31.174  33.341  1.00  0.00     0.031 A 
ATOM     23  C   UNL A   1      43.189  25.926  28.822  1.00  0.00     0.031 A 
ATOM     24  C   UNL A   1      43.379  30.449  33.498  1.00  0.00     0.049 A 
ATOM     25  C   UNL A   1      44.284  26.403  29.729  1.00  0.00     0.074 A 
ATOM     26  C   UNL A   1      44.370  30.640  34.444  1.00  0.00     0.029 A 
ATOM     27  N   UNL A   1      43.822  29.447  32.648  1.00  0.00    -0.354 N 
ATOM     28  N   UNL A   1      44.217  27.305  30.679  1.00  0.00    -0.248 NA
ATOM     29  C   UNL A   1      45.610  25.794  29.566  1.00  0.00     0.031 C 
ATOM     30  C   UNL A   1      45.461  29.844  34.091  1.00  0.00     0.029 A 
ATOM     31  C   UNL A   1      45.113  29.083  32.985  1.00  0.00     0.049 A 
ATOM     32  H   UNL A   1      43.296  29.054  31.915  1.00  0.00     0.167 HD
ATOM     33  C   UNL A   1      45.485  27.355  31.244  1.00  0.00     0.074 A 
ATOM     34  C   UNL A   1      46.299  26.393  30.531  1.00  0.00     0.031 C 
ATOM     35  C   UNL A   1      45.921  28.128  32.267  1.00  0.00     0.031 A 
BRANCH  22  36
ATOM     36  C   UNL A   1      41.871  32.277  34.332  1.00  0.00    -0.014 A 
ATOM     37  C   UNL A   1      41.100  32.020  35.481  1.00  0.00     0.010 A 
ATOM     38  C   UNL A   1      42.183  33.609  34.003  1.00  0.00     0.010 A 
ATOM     39  C   UNL A   1      40.596  33.076  36.248  1.00  0.00     0.020 A 
ATOM     40  C   UNL A   1      41.690  34.667  34.775  1.00  0.00     0.020 A 
ATOM     41  C   UNL A   1      40.875  34.395  35.877  1.00  0.00     0.054 A 
BRANCH  41  42
ATOM     42  S   UNL A   1      40.116  35.744  36.826  1.00  0.00     0.124 S 
ATOM     43  O   UNL A   1      39.698  36.668  35.777  1.00  0.00    -0.237 OA
ATOM     44  O   UNL A   1      39.034  35.061  37.533  1.00  0.00    -0.237 OA
ATOM     45  O   UNL A   1      41.202  36.222  37.680  1.00  0.00    -0.744 OA
ENDBRANCH  41  42
ENDBRANCH  22  36
BRANCH  23  46
ATOM     46  C   UNL A   1      43.404  24.878  27.788  1.00  0.00    -0.014 A 
ATOM     47  C   UNL A   1      43.277  23.518  28.140  1.00  0.00     0.010 A 
ATOM     48  C   UNL A   1      43.843  25.210  26.497  1.00  0.00     0.010 A 
ATOM     49  C   UNL A   1      43.650  22.513  27.248  1.00  0.00     0.020 A 
ATOM     50  C   UNL A   1      44.186  24.202  25.588  1.00  0.00     0.020 A 
ATOM     51  C   UNL A   1      44.118  22.863  25.981  1.00  0.00     0.054 A 
BRANCH  51  52
ATOM     52  S   UNL A   1      44.649  21.542  24.858  1.00  0.00     0.124 S 
ATOM     53  O   UNL A   1      45.990  21.245  25.358  1.00  0.00    -0.237 OA
ATOM     54  O   UNL A   1      43.649  20.503  25.089  1.00  0.00    -0.237 OA
ATOM     55  O   UNL A   1      44.597  22.172  23.542  1.00  0.00    -0.744 OA
ENDBRANCH  51  52
ENDBRANCH  23  46
BRANCH  35  56
ATOM     56  C   UNL A   1      47.356  28.002  32.702  1.00  0.00    -0.014 A 
ATOM     57  C   UNL A   1      48.347  28.762  32.051  1.00  0.00     0.010 A 
ATOM     58  C   UNL A   1      47.741  26.997  33.606  1.00  0.00     0.010 A 
ATOM     59  C   UNL A   1      49.698  28.468  32.238  1.00  0.00     0.020 A 
ATOM     60  C   UNL A   1      49.094  26.723  33.820  1.00  0.00     0.020 A 
ATOM     61  C   UNL A   1      50.061  27.435  33.105  1.00  0.00     0.054 A 
BRANCH  61  62
ATOM     62  S   UNL A   1      51.815  27.002  33.259  1.00  0.00     0.124 S 
ATOM     63  O   UNL A   1      52.408  28.265  33.686  1.00  0.00    -0.237 OA
ATOM     64  O   UNL A   1      51.797  25.942  34.265  1.00  0.00    -0.237 OA
ATOM     65  O   UNL A   1      52.180  26.565  31.912  1.00  0.00    -0.744 OA
ENDBRANCH  61  62
ENDBRANCH  35  56
ENDBRANCH   9  10
ENDBRANCH   2   4
ENDBRANCH   1   2
BRANCH   1  66
ATOM     66  C   UNL A   1      33.927  32.502  27.985  1.00  0.00     0.275 C 
BRANCH  66  67
ATOM     67  C   UNL A   1      32.832  33.492  27.581  1.00  0.00     0.275 C 
BRANCH  67  68
ATOM     68  O   UNL A   1      32.536  34.461  28.597  1.00  0.00    -0.458 OA
BRANCH  68  69
ATOM     69  C   UNL A   1      33.599  35.198  29.024  1.00  0.00     0.339 C 
ATOM     70  O   UNL A   1      34.381  35.813  28.315  1.00  0.00    -0.246 OA
BRANCH  69  71
ATOM     71  C   UNL A   1      33.637  35.220  30.504  1.00  0.00     0.074 A 
ATOM     72  C   UNL A   1      32.920  36.178  31.113  1.00  0.00     0.088 A 
ATOM     73  C   UNL A   1      34.433  34.271  31.305  1.00  0.00     0.014 A 
ATOM     74  C   UNL A   1      32.944  36.329  32.581  1.00  0.00     0.249 A 
ATOM     75  C   UNL A   1      34.580  34.520  32.683  1.00  0.00     0.063 A 
ATOM     76  C   UNL A   1      35.127  33.192  30.739  1.00  0.00     0.011 A 
ATOM     77  O   UNL A   1      32.209  37.137  33.132  1.00  0.00    -0.270 OA
ATOM     78  N   UNL A   1      33.834  35.558  33.265  1.00  0.00    -0.321 N 
ATOM     79  C   UNL A   1      35.455  33.745  33.455  1.00  0.00     0.042 A 
ATOM     80  C   UNL A   1      35.983  32.409  31.517  1.00  0.00     0.002 A 
ATOM     81  H   UNL A   1      33.964  35.738  34.224  1.00  0.00     0.170 HD
ATOM     82  Br  UNL A   1      35.752  34.114  35.292  1.00  0.00    -0.049 Br
ATOM     83  C   UNL A   1      36.162  32.695  32.869  1.00  0.00     0.018 A 
ENDBRANCH  69  71
ENDBRANCH  68  69
ENDBRANCH  67  68
ENDBRANCH  66  67
ENDBRANCH   1  66
TORSDOF 14
ENDMDL
MODEL 3
REMARK VINA RESULT:     -10.6      4.172      6.412
REMARK SMILES O=C(OCCOC(=O)c1cc(=O)[nH]c2c(Br)cccc12)c1ccc(-c2c3nc(c(-c4ccc(S(=O)(=O)[O-])cc4)c4ccc([nH]4)c(-c4ccc(S(=O)(=O)[O-])cc4)c4nc(c(-c5ccc(S(=O)(=O)[O-])cc5)c5ccc2[nH]5)C=C4)C=C3)cc1
REMARK SMILES IDX 3 1 2 2 1 3 21 4 22 5 80 6 23 7 79 8 24 9 25 10 26 11 73 12
REMARK SMILES IDX 27 13 78 14 72 15 74 16 28 17 77 18 71 19 70 20 29 22 59 23
REMARK SMILES IDX 40 24 58 25 41 26 44 27 57 28 75 29 42 30 43 31 56 33 76 34
REMARK SMILES IDX 45 35 30 36 31 37 39 38 32 39 38 40 33 41 34 42 35 43 36 44
REMARK SMILES IDX 37 45 60 46 61 47 69 48 62 49 68 50 63 51 64 52 65 53 66 54
REMARK SMILES IDX 67 55 46 56 47 57 55 58 48 59 54 60 49 61 50 62 51 63 52 64
REMARK SMILES IDX 53 65 4 66 5 67 6 68 7 69 8 70 9 71 10 72 20 73 11 74 14 75
REMARK SMILES IDX 19 76 12 77 13 78 15 79 18 80 16 82 17 83
REMARK H PARENT 74 21 44 32 13 81
REMARK Flexibility Score: inf
ROOT
ATOM      1  O   UNL A   1      33.383  29.704  27.211  1.00  0.00    -0.458 OA
ENDROOT
BRANCH   1   2
ATOM      2  C   UNL A   1      34.218  30.579  27.828  1.00  0.00     0.338 C 
ATOM      3  O   UNL A   1      33.956  31.779  27.832  1.00  0.00    -0.246 OA
BRANCH   2   4
ATOM      4  C   UNL A   1      35.578  30.142  28.251  1.00  0.00     0.060 A 
ATOM      5  C   UNL A   1      36.574  30.176  27.266  1.00  0.00     0.016 A 
ATOM      6  C   UNL A   1      35.938  29.747  29.541  1.00  0.00     0.016 A 
ATOM      7  C   UNL A   1      37.855  29.683  27.522  1.00  0.00     0.010 A 
ATOM      8  C   UNL A   1      37.230  29.276  29.809  1.00  0.00     0.010 A 
ATOM      9  C   UNL A   1      38.192  29.214  28.796  1.00  0.00    -0.014 A 
BRANCH   9  10
ATOM     10  C   UNL A   1      39.586  28.819  29.111  1.00  0.00     0.031 A 
ATOM     11  C   UNL A   1      40.095  27.426  28.870  1.00  0.00     0.074 A 
ATOM     12  C   UNL A   1      40.391  29.744  29.668  1.00  0.00     0.049 A 
ATOM     13  N   UNL A   1      41.313  26.969  29.015  1.00  0.00    -0.248 NA
ATOM     14  C   UNL A   1      39.140  26.423  28.376  1.00  0.00     0.031 C 
ATOM     15  C   UNL A   1      40.005  31.129  29.958  1.00  0.00     0.029 A 
ATOM     16  N   UNL A   1      41.681  29.656  30.122  1.00  0.00    -0.354 N 
ATOM     17  C   UNL A   1      41.291  25.666  28.531  1.00  0.00     0.074 A 
ATOM     18  C   UNL A   1      39.928  25.374  28.161  1.00  0.00     0.031 C 
ATOM     19  C   UNL A   1      41.023  31.746  30.571  1.00  0.00     0.029 A 
ATOM     20  C   UNL A   1      42.108  30.792  30.767  1.00  0.00     0.049 A 
ATOM     21  H   UNL A   1      42.245  28.859  29.999  1.00  0.00     0.167 HD
ATOM     22  C   UNL A   1      42.328  24.806  28.398  1.00  0.00     0.031 A 
ATOM     23  C   UNL A   1      43.221  31.028  31.488  1.00  0.00     0.031 A 
ATOM     24  C   UNL A   1      43.645  25.065  28.916  1.00  0.00     0.049 A 
ATOM     25  C   UNL A   1      44.266  29.957  31.576  1.00  0.00     0.074 A 
ATOM     26  C   UNL A   1      44.763  24.252  28.857  1.00  0.00     0.029 A 
ATOM     27  N   UNL A   1      44.003  26.187  29.649  1.00  0.00    -0.354 N 
ATOM     28  N   UNL A   1      44.282  28.786  30.985  1.00  0.00    -0.248 NA
ATOM     29  C   UNL A   1      45.440  30.226  32.415  1.00  0.00     0.031 C 
ATOM     30  C   UNL A   1      45.753  24.823  29.657  1.00  0.00     0.029 A 
ATOM     31  C   UNL A   1      45.289  26.040  30.134  1.00  0.00     0.049 A 
ATOM     32  H   UNL A   1      43.426  26.970  29.800  1.00  0.00     0.167 HD
ATOM     33  C   UNL A   1      45.477  28.188  31.360  1.00  0.00     0.074 A 
ATOM     34  C   UNL A   1      46.160  29.125  32.229  1.00  0.00     0.031 C 
ATOM     35  C   UNL A   1      45.961  26.974  31.004  1.00  0.00     0.031 A 
BRANCH  22  36
ATOM     36  C   UNL A   1      42.120  23.496  27.683  1.00  0.00    -0.014 A 
ATOM     37  C   UNL A   1      41.637  22.375  28.384  1.00  0.00     0.010 A 
ATOM     38  C   UNL A   1      42.621  23.322  26.379  1.00  0.00     0.010 A 
ATOM     39  C   UNL A   1      41.713  21.097  27.819  1.00  0.00     0.020 A 
ATOM     40  C   UNL A   1      42.689  22.046  25.807  1.00  0.00     0.020 A 
ATOM     41  C   UNL A   1      42.261  20.938  26.542  1.00  0.00     0.054 A 
BRANCH  41  42
ATOM     42  S   UNL A   1      42.449  19.257  25.881  1.00  0.00     0.124 S 
ATOM     43  O   UNL A   1      41.069  18.876  25.597  1.00  0.00    -0.237 OA
ATOM     44  O   UNL A   1      43.297  19.473  24.710  1.00  0.00    -0.237 OA
ATOM     45  O   UNL A   1      43.085  18.523  26.973  1.00  0.00    -0.744 OA
ENDBRANCH  41  42
ENDBRANCH  22  36
BRANCH  23  46
ATOM     46  C   UNL A   1      43.338  32.325  32.208  1.00  0.00    -0.014 A 
ATOM     47  C   UNL A   1      42.777  32.457  33.496  1.00  0.00     0.010 A 
ATOM     48  C   UNL A   1      43.892  33.454  31.588  1.00  0.00     0.010 A 
ATOM     49  C   UNL A   1      42.706  33.703  34.118  1.00  0.00     0.020 A 
ATOM     50  C   UNL A   1      43.854  34.700  32.224  1.00  0.00     0.020 A 
ATOM     51  C   UNL A   1      43.232  34.822  33.470  1.00  0.00     0.054 A 
BRANCH  51  52
ATOM     52  S   UNL A   1      43.081  36.440  34.274  1.00  0.00     0.124 S 
ATOM     53  O   UNL A   1      44.120  36.363  35.298  1.00  0.00    -0.237 OA
ATOM     54  O   UNL A   1      43.346  37.369  33.178  1.00  0.00    -0.237 OA
ATOM     55  O   UNL A   1      41.708  36.445  34.772  1.00  0.00    -0.744 OA
ENDBRANCH  51  52
ENDBRANCH  23  46
BRANCH  35  56
ATOM     56  C   UNL A   1      47.294  26.542  31.550  1.00  0.00    -0.014 A 
ATOM     57  C   UNL A   1      48.450  26.697  30.761  1.00  0.00     0.010 A 
ATOM     58  C   UNL A   1      47.369  25.809  32.747  1.00  0.00     0.010 A 
ATOM     59  C   UNL A   1      49.640  26.063  31.120  1.00  0.00     0.020 A 
ATOM     60  C   UNL A   1      48.569  25.199  33.125  1.00  0.00     0.020 A 
ATOM     61  C   UNL A   1      49.684  25.300  32.289  1.00  0.00     0.054 A 
BRANCH  61  62
ATOM     62  S   UNL A   1      51.208  24.401  32.687  1.00  0.00     0.124 S 
ATOM     63  O   UNL A   1      52.205  25.123  31.902  1.00  0.00    -0.237 OA
ATOM     64  O   UNL A   1      51.308  24.565  34.136  1.00  0.00    -0.237 OA
ATOM     65  O   UNL A   1      50.929  23.038  32.240  1.00  0.00    -0.744 OA
ENDBRANCH  61  62
ENDBRANCH  35  56
ENDBRANCH   9  10
ENDBRANCH   2   4
ENDBRANCH   1   2
BRANCH   1  66
ATOM     66  C   UNL A   1      32.693  29.924  25.969  1.00  0.00     0.275 C 
BRANCH  66  67
ATOM     67  C   UNL A   1      32.582  28.680  25.086  1.00  0.00     0.275 C 
BRANCH  67  68
ATOM     68  O   UNL A   1      31.794  28.887  23.905  1.00  0.00    -0.458 OA
BRANCH  68  69
ATOM     69  C   UNL A   1      30.828  27.953  23.679  1.00  0.00     0.339 C 
ATOM     70  O   UNL A   1      29.625  28.114  23.815  1.00  0.00    -0.246 OA
BRANCH  69  71
ATOM     71  C   UNL A   1      31.440  26.708  23.161  1.00  0.00     0.074 A 
ATOM     72  C   UNL A   1      31.976  26.764  21.932  1.00  0.00     0.088 A 
ATOM     73  C   UNL A   1      31.456  25.442  23.918  1.00  0.00     0.014 A 
ATOM     74  C   UNL A   1      32.550  25.562  21.296  1.00  0.00     0.249 A 
ATOM     75  C   UNL A   1      31.855  24.270  23.248  1.00  0.00     0.063 A 
ATOM     76  C   UNL A   1      31.000  25.339  25.240  1.00  0.00     0.011 A 
ATOM     77  O   UNL A   1      33.126  25.646  20.220  1.00  0.00    -0.270 OA
ATOM     78  N   UNL A   1      32.375  24.379  21.948  1.00  0.00    -0.321 N 
ATOM     79  C   UNL A   1      31.732  23.020  23.869  1.00  0.00     0.042 A 
ATOM     80  C   UNL A   1      30.899  24.092  25.863  1.00  0.00     0.002 A 
ATOM     81  H   UNL A   1      32.627  23.550  21.480  1.00  0.00     0.170 HD
ATOM     82  Br  UNL A   1      32.168  21.412  22.961  1.00  0.00    -0.049 Br
ATOM     83  C   UNL A   1      31.246  22.933  25.174  1.00  0.00     0.018 A 
ENDBRANCH  69  71
ENDBRANCH  68  69
ENDBRANCH  67  68
ENDBRANCH  66  67
ENDBRANCH   1  66
TORSDOF 14
ENDMDL
