MODEL 1
REMARK VINA RESULT:     -10.4      0.000      0.000
REMARK SMILES C[C@H]1SC[C@H](C(=O)OCCOC(=O)c2ccc(-c3c4nc(c(-c5ccc(S(=O)(=O)[O-])cc5)c5ccc([nH]5)c(-c5ccc(S(=O)(=O)[O-])cc5)c5nc(c(-c6ccc(S(=O)(=O)[O-])cc6)c6ccc3[nH]6)C=C5)C=C4)cc2)N1C(=O)[C@@H]1CSc2ccccc21
REMARK SMILES IDX 10 1 9 2 8 3 6 4 7 5 5 6 1 7 2 8 3 9 74 10 4 11 75 12 76 13
REMARK SMILES IDX 77 14 78 15 85 16 79 17 80 18 84 19 81 20 83 21 82 22 11 23
REMARK SMILES IDX 12 24 13 25 14 26 15 27 73 28 16 29 72 30 17 31 18 32 19 33
REMARK SMILES IDX 66 34 20 35 71 36 65 37 67 38 21 39 70 40 64 41 63 42 22 44
REMARK SMILES IDX 52 45 33 46 51 47 34 48 37 49 50 50 68 51 35 52 36 53 49 55
REMARK SMILES IDX 69 56 38 57 23 58 24 59 32 60 25 61 31 62 26 63 27 64 28 65
REMARK SMILES IDX 29 66 30 67 53 68 54 69 62 70 55 71 61 72 56 73 57 74 58 75
REMARK SMILES IDX 59 76 60 77 39 78 40 79 48 80 41 81 47 82 42 83 43 84 44 85
REMARK SMILES IDX 45 86 46 87
REMARK H PARENT 67 43 37 54
REMARK Flexibility Score: inf
ROOT
ATOM      1  C   UNL A   1      37.103  22.586  24.503  1.00  0.00     0.275 C 
ENDROOT
BRANCH   1   2
ATOM      2  C   UNL A   1      36.349  23.226  23.329  1.00  0.00     0.274 C 
BRANCH   2   3
ATOM      3  O   UNL A   1      35.205  22.446  22.933  1.00  0.00    -0.461 OA
BRANCH   3   4
ATOM      4  C   UNL A   1      34.032  23.136  22.880  1.00  0.00     0.329 C 
ATOM      5  O   UNL A   1      33.655  23.761  21.893  1.00  0.00    -0.250 OA
BRANCH   4   6
ATOM      6  C   UNL A   1      33.179  22.989  24.156  1.00  0.00     0.206 C 
ATOM      7  C   UNL A   1      30.844  23.813  26.080  1.00  0.00     0.043 C 
ATOM      8  C   UNL A   1      32.331  23.551  26.339  1.00  0.00     0.141 C 
ATOM      9  S   UNL A   1      32.580  21.754  26.455  1.00  0.00    -0.135 SA
ATOM     10  N   UNL A   1      33.173  23.997  25.233  1.00  0.00    -0.316 N 
ATOM     11  C   UNL A   1      33.367  21.623  24.824  1.00  0.00     0.109 C 
BRANCH  10  12
ATOM     12  C   UNL A   1      33.639  25.284  25.039  1.00  0.00     0.232 C 
ATOM     13  O   UNL A   1      34.764  25.618  25.417  1.00  0.00    -0.274 OA
BRANCH  12  14
ATOM     14  C   UNL A   1      32.739  26.390  24.485  1.00  0.00     0.120 C 
ATOM     15  C   UNL A   1      33.294  26.968  23.173  1.00  0.00     0.093 C 
ATOM     16  C   UNL A   1      32.412  27.510  25.432  1.00  0.00    -0.021 A 
ATOM     17  S   UNL A   1      33.372  28.784  23.315  1.00  0.00    -0.125 SA
ATOM     18  C   UNL A   1      32.742  28.783  24.968  1.00  0.00     0.011 A 
ATOM     19  C   UNL A   1      31.817  27.349  26.681  1.00  0.00     0.006 A 
ATOM     20  C   UNL A   1      32.588  29.897  25.777  1.00  0.00     0.015 A 
ATOM     21  C   UNL A   1      31.639  28.469  27.494  1.00  0.00     0.000 A 
ATOM     22  C   UNL A   1      32.044  29.734  27.053  1.00  0.00     0.001 A 
ENDBRANCH  12  14
ENDBRANCH  10  12
ENDBRANCH   4   6
ENDBRANCH   3   4
ENDBRANCH   2   3
ENDBRANCH   1   2
BRANCH   1  23
ATOM     23  O   UNL A   1      37.626  23.559  25.429  1.00  0.00    -0.458 OA
BRANCH  23  24
ATOM     24  C   UNL A   1      38.731  23.177  26.107  1.00  0.00     0.338 C 
ATOM     25  O   UNL A   1      39.265  22.077  26.078  1.00  0.00    -0.246 OA
BRANCH  24  26
ATOM     26  C   UNL A   1      39.320  24.311  26.832  1.00  0.00     0.060 A 
ATOM     27  C   UNL A   1      38.959  24.513  28.165  1.00  0.00     0.016 A 
ATOM     28  C   UNL A   1      40.110  25.252  26.174  1.00  0.00     0.016 A 
ATOM     29  C   UNL A   1      39.344  25.663  28.840  1.00  0.00     0.010 A 
ATOM     30  C   UNL A   1      40.549  26.384  26.871  1.00  0.00     0.010 A 
ATOM     31  C   UNL A   1      40.160  26.604  28.206  1.00  0.00    -0.014 A 
BRANCH  31  32
ATOM     32  C   UNL A   1      40.615  27.805  28.948  1.00  0.00     0.031 A 
ATOM     33  C   UNL A   1      41.948  27.804  29.640  1.00  0.00     0.074 A 
ATOM     34  C   UNL A   1      39.822  28.893  29.005  1.00  0.00     0.049 A 
ATOM     35  N   UNL A   1      42.435  28.673  30.486  1.00  0.00    -0.248 NA
ATOM     36  C   UNL A   1      42.849  26.677  29.346  1.00  0.00     0.031 C 
ATOM     37  C   UNL A   1      38.533  29.040  28.324  1.00  0.00     0.029 A 
ATOM     38  N   UNL A   1      39.976  30.079  29.679  1.00  0.00    -0.354 N 
ATOM     39  C   UNL A   1      43.676  28.176  30.868  1.00  0.00     0.074 A 
ATOM     40  C   UNL A   1      43.872  26.934  30.150  1.00  0.00     0.031 C 
ATOM     41  C   UNL A   1      38.015  30.243  28.616  1.00  0.00     0.029 A 
ATOM     42  C   UNL A   1      38.894  30.918  29.564  1.00  0.00     0.049 A 
ATOM     43  H   UNL A   1      40.784  30.305  30.195  1.00  0.00     0.167 HD
ATOM     44  C   UNL A   1      44.558  28.704  31.748  1.00  0.00     0.031 A 
ATOM     45  C   UNL A   1      38.607  32.072  30.196  1.00  0.00     0.031 A 
ATOM     46  C   UNL A   1      44.362  29.952  32.435  1.00  0.00     0.049 A 
ATOM     47  C   UNL A   1      39.573  32.603  31.217  1.00  0.00     0.074 A 
ATOM     48  C   UNL A   1      45.213  30.589  33.321  1.00  0.00     0.029 A 
ATOM     49  N   UNL A   1      43.238  30.754  32.312  1.00  0.00    -0.354 N 
ATOM     50  N   UNL A   1      40.734  32.114  31.582  1.00  0.00    -0.248 NA
ATOM     51  C   UNL A   1      39.181  33.829  31.926  1.00  0.00     0.031 C 
ATOM     52  C   UNL A   1      44.581  31.753  33.772  1.00  0.00     0.029 A 
ATOM     53  C   UNL A   1      43.357  31.863  33.132  1.00  0.00     0.049 A 
ATOM     54  H   UNL A   1      42.468  30.563  31.728  1.00  0.00     0.167 HD
ATOM     55  C   UNL A   1      41.213  32.973  32.563  1.00  0.00     0.074 A 
ATOM     56  C   UNL A   1      40.228  34.024  32.718  1.00  0.00     0.031 C 
ATOM     57  C   UNL A   1      42.362  32.894  33.275  1.00  0.00     0.031 A 
BRANCH  44  58
ATOM     58  C   UNL A   1      45.794  27.906  32.063  1.00  0.00    -0.014 A 
ATOM     59  C   UNL A   1      45.808  26.945  33.088  1.00  0.00     0.010 A 
ATOM     60  C   UNL A   1      46.947  28.090  31.277  1.00  0.00     0.010 A 
ATOM     61  C   UNL A   1      46.964  26.200  33.339  1.00  0.00     0.020 A 
ATOM     62  C   UNL A   1      48.098  27.334  31.514  1.00  0.00     0.020 A 
ATOM     63  C   UNL A   1      48.104  26.403  32.553  1.00  0.00     0.054 A 
BRANCH  63  64
ATOM     64  S   UNL A   1      49.584  25.405  32.881  1.00  0.00     0.124 S 
ATOM     65  O   UNL A   1      49.982  25.007  31.533  1.00  0.00    -0.237 OA
ATOM     66  O   UNL A   1      50.473  26.356  33.543  1.00  0.00    -0.237 OA
ATOM     67  O   UNL A   1      49.090  24.323  33.730  1.00  0.00    -0.744 OA
ENDBRANCH  63  64
ENDBRANCH  44  58
BRANCH  45  68
ATOM     68  C   UNL A   1      37.307  32.750  29.944  1.00  0.00    -0.014 A 
ATOM     69  C   UNL A   1      36.246  32.632  30.856  1.00  0.00     0.010 A 
ATOM     70  C   UNL A   1      37.135  33.535  28.788  1.00  0.00     0.010 A 
ATOM     71  C   UNL A   1      35.031  33.279  30.611  1.00  0.00     0.020 A 
ATOM     72  C   UNL A   1      35.931  34.204  28.554  1.00  0.00     0.020 A 
ATOM     73  C   UNL A   1      34.881  34.061  29.461  1.00  0.00     0.054 A 
BRANCH  73  74
ATOM     74  S   UNL A   1      33.317  34.938  29.187  1.00  0.00     0.124 S 
ATOM     75  O   UNL A   1      32.693  34.124  28.149  1.00  0.00    -0.237 OA
ATOM     76  O   UNL A   1      32.683  34.882  30.502  1.00  0.00    -0.237 OA
ATOM     77  O   UNL A   1      33.744  36.272  28.767  1.00  0.00    -0.744 OA
ENDBRANCH  73  74
ENDBRANCH  45  68
BRANCH  57  78
ATOM     78  C   UNL A   1      42.624  33.980  34.279  1.00  0.00    -0.014 A 
ATOM     79  C   UNL A   1      42.229  33.829  35.619  1.00  0.00     0.010 A 
ATOM     80  C   UNL A   1      43.334  35.131  33.892  1.00  0.00     0.010 A 
ATOM     81  C   UNL A   1      42.527  34.822  36.556  1.00  0.00     0.020 A 
ATOM     82  C   UNL A   1      43.651  36.115  34.832  1.00  0.00     0.020 A 
ATOM     83  C   UNL A   1      43.238  35.958  36.156  1.00  0.00     0.054 A 
BRANCH  83  84
ATOM     84  S   UNL A   1      43.672  37.202  37.403  1.00  0.00     0.124 S 
ATOM     85  O   UNL A   1      43.959  38.372  36.577  1.00  0.00    -0.237 OA
ATOM     86  O   UNL A   1      42.459  37.286  38.212  1.00  0.00    -0.237 OA
ATOM     87  O   UNL A   1      44.827  36.619  38.084  1.00  0.00    -0.744 OA
ENDBRANCH  83  84
ENDBRANCH  57  78
ENDBRANCH  31  32
ENDBRANCH  24  26
ENDBRANCH  23  24
ENDBRANCH   1  23
TORSDOF 16
ENDMDL
MODEL 2
REMARK VINA RESULT:     -10.4      4.549     10.420
REMARK SMILES C[C@H]1SC[C@H](C(=O)OCCOC(=O)c2ccc(-c3c4nc(c(-c5ccc(S(=O)(=O)[O-])cc5)c5ccc([nH]5)c(-c5ccc(S(=O)(=O)[O-])cc5)c5nc(c(-c6ccc(S(=O)(=O)[O-])cc6)c6ccc3[nH]6)C=C5)C=C4)cc2)N1C(=O)[C@@H]1CSc2ccccc21
REMARK SMILES IDX 10 1 9 2 8 3 6 4 7 5 5 6 1 7 2 8 3 9 74 10 4 11 75 12 76 13
REMARK SMILES IDX 77 14 78 15 85 16 79 17 80 18 84 19 81 20 83 21 82 22 11 23
REMARK SMILES IDX 12 24 13 25 14 26 15 27 73 28 16 29 72 30 17 31 18 32 19 33
REMARK SMILES IDX 66 34 20 35 71 36 65 37 67 38 21 39 70 40 64 41 63 42 22 44
REMARK SMILES IDX 52 45 33 46 51 47 34 48 37 49 50 50 68 51 35 52 36 53 49 55
REMARK SMILES IDX 69 56 38 57 23 58 24 59 32 60 25 61 31 62 26 63 27 64 28 65
REMARK SMILES IDX 29 66 30 67 53 68 54 69 62 70 55 71 61 72 56 73 57 74 58 75
REMARK SMILES IDX 59 76 60 77 39 78 40 79 48 80 41 81 47 82 42 83 43 84 44 85
REMARK SMILES IDX 45 86 46 87
REMARK H PARENT 67 43 37 54
REMARK Flexibility Score: inf
ROOT
ATOM      1  C   UNL A   1      34.092  29.913  27.418  1.00  0.00     0.275 C 
ENDROOT
BRANCH   1   2
ATOM      2  C   UNL A   1      33.367  28.582  27.175  1.00  0.00     0.274 C 
BRANCH   2   3
ATOM      3  O   UNL A   1      34.080  27.741  26.249  1.00  0.00    -0.461 OA
BRANCH   3   4
ATOM      4  C   UNL A   1      33.495  27.613  25.025  1.00  0.00     0.329 C 
ATOM      5  O   UNL A   1      33.970  28.079  23.994  1.00  0.00    -0.250 OA
BRANCH   4   6
ATOM      6  C   UNL A   1      32.217  26.751  25.047  1.00  0.00     0.206 C 
ATOM      7  C   UNL A   1      30.496  24.307  25.996  1.00  0.00     0.043 C 
ATOM      8  C   UNL A   1      30.814  24.846  24.597  1.00  0.00     0.141 C 
ATOM      9  S   UNL A   1      29.706  26.248  24.262  1.00  0.00    -0.135 SA
ATOM     10  N   UNL A   1      32.169  25.381  24.504  1.00  0.00    -0.316 N 
ATOM     11  C   UNL A   1      31.005  27.498  24.479  1.00  0.00     0.109 C 
BRANCH  10  12
ATOM     12  C   UNL A   1      33.314  24.645  24.262  1.00  0.00     0.232 C 
ATOM     13  O   UNL A   1      33.774  24.536  23.124  1.00  0.00    -0.274 OA
BRANCH  12  14
ATOM     14  C   UNL A   1      33.981  23.812  25.359  1.00  0.00     0.120 C 
ATOM     15  C   UNL A   1      35.435  24.249  25.596  1.00  0.00     0.093 C 
ATOM     16  C   UNL A   1      33.924  22.321  25.180  1.00  0.00    -0.021 A 
ATOM     17  S   UNL A   1      36.512  22.780  25.522  1.00  0.00    -0.125 SA
ATOM     18  C   UNL A   1      35.164  21.683  25.190  1.00  0.00     0.011 A 
ATOM     19  C   UNL A   1      32.754  21.580  25.025  1.00  0.00     0.006 A 
ATOM     20  C   UNL A   1      35.268  20.324  24.937  1.00  0.00     0.015 A 
ATOM     21  C   UNL A   1      32.849  20.208  24.790  1.00  0.00     0.000 A 
ATOM     22  C   UNL A   1      34.102  19.587  24.723  1.00  0.00     0.001 A 
ENDBRANCH  12  14
ENDBRANCH  10  12
ENDBRANCH   4   6
ENDBRANCH   3   4
ENDBRANCH   2   3
ENDBRANCH   1   2
BRANCH   1  23
ATOM     23  O   UNL A   1      35.525  29.770  27.462  1.00  0.00    -0.458 OA
BRANCH  23  24
ATOM     24  C   UNL A   1      36.118  30.221  28.590  1.00  0.00     0.338 C 
ATOM     25  O   UNL A   1      35.564  30.719  29.560  1.00  0.00    -0.246 OA
BRANCH  24  26
ATOM     26  C   UNL A   1      37.559  29.933  28.577  1.00  0.00     0.060 A 
ATOM     27  C   UNL A   1      38.194  29.758  27.347  1.00  0.00     0.016 A 
ATOM     28  C   UNL A   1      38.255  29.696  29.761  1.00  0.00     0.016 A 
ATOM     29  C   UNL A   1      39.507  29.312  27.281  1.00  0.00     0.010 A 
ATOM     30  C   UNL A   1      39.597  29.302  29.697  1.00  0.00     0.010 A 
ATOM     31  C   UNL A   1      40.230  29.096  28.457  1.00  0.00    -0.014 A 
BRANCH  31  32
ATOM     32  C   UNL A   1      41.649  28.672  28.383  1.00  0.00     0.031 A 
ATOM     33  C   UNL A   1      42.748  29.685  28.525  1.00  0.00     0.074 A 
ATOM     34  C   UNL A   1      41.946  27.374  28.179  1.00  0.00     0.049 A 
ATOM     35  N   UNL A   1      44.028  29.546  28.304  1.00  0.00    -0.248 NA
ATOM     36  C   UNL A   1      42.356  31.033  28.970  1.00  0.00     0.031 C 
ATOM     37  C   UNL A   1      40.971  26.284  28.086  1.00  0.00     0.029 A 
ATOM     38  N   UNL A   1      43.156  26.750  27.997  1.00  0.00    -0.354 N 
ATOM     39  C   UNL A   1      44.591  30.796  28.530  1.00  0.00     0.074 A 
ATOM     40  C   UNL A   1      43.513  31.681  28.919  1.00  0.00     0.031 C 
ATOM     41  C   UNL A   1      41.619  25.130  27.863  1.00  0.00     0.029 A 
ATOM     42  C   UNL A   1      43.043  25.409  27.719  1.00  0.00     0.049 A 
ATOM     43  H   UNL A   1      44.020  27.219  28.059  1.00  0.00     0.167 HD
ATOM     44  C   UNL A   1      45.886  31.170  28.408  1.00  0.00     0.031 A 
ATOM     45  C   UNL A   1      43.970  24.512  27.330  1.00  0.00     0.031 A 
ATOM     46  C   UNL A   1      46.952  30.275  28.045  1.00  0.00     0.049 A 
ATOM     47  C   UNL A   1      45.388  24.967  27.139  1.00  0.00     0.074 A 
ATOM     48  C   UNL A   1      48.304  30.551  27.927  1.00  0.00     0.029 A 
ATOM     49  N   UNL A   1      46.789  28.932  27.743  1.00  0.00    -0.354 N 
ATOM     50  N   UNL A   1      45.904  26.156  27.339  1.00  0.00    -0.248 NA
ATOM     51  C   UNL A   1      46.346  23.966  26.649  1.00  0.00     0.031 C 
ATOM     52  C   UNL A   1      48.951  29.384  27.506  1.00  0.00     0.029 A 
ATOM     53  C   UNL A   1      48.009  28.373  27.405  1.00  0.00     0.049 A 
ATOM     54  H   UNL A   1      45.932  28.448  27.765  1.00  0.00     0.167 HD
ATOM     55  C   UNL A   1      47.246  26.047  27.001  1.00  0.00     0.074 A 
ATOM     56  C   UNL A   1      47.470  24.671  26.606  1.00  0.00     0.031 C 
ATOM     57  C   UNL A   1      48.207  27.002  27.011  1.00  0.00     0.031 A 
BRANCH  44  58
ATOM     58  C   UNL A   1      46.218  32.623  28.613  1.00  0.00    -0.014 A 
ATOM     59  C   UNL A   1      46.110  33.558  27.569  1.00  0.00     0.010 A 
ATOM     60  C   UNL A   1      46.593  33.065  29.895  1.00  0.00     0.010 A 
ATOM     61  C   UNL A   1      46.399  34.906  27.798  1.00  0.00     0.020 A 
ATOM     62  C   UNL A   1      46.864  34.415  30.132  1.00  0.00     0.020 A 
ATOM     63  C   UNL A   1      46.779  35.325  29.078  1.00  0.00     0.054 A 
BRANCH  63  64
ATOM     64  S   UNL A   1      47.123  37.085  29.357  1.00  0.00     0.124 S 
ATOM     65  O   UNL A   1      46.001  37.479  30.206  1.00  0.00    -0.237 OA
ATOM     66  O   UNL A   1      48.427  37.059  30.014  1.00  0.00    -0.237 OA
ATOM     67  O   UNL A   1      47.117  37.657  28.013  1.00  0.00    -0.744 OA
ENDBRANCH  63  64
ENDBRANCH  44  58
BRANCH  45  68
ATOM     68  C   UNL A   1      43.562  23.117  27.011  1.00  0.00    -0.014 A 
ATOM     69  C   UNL A   1      43.840  22.557  25.753  1.00  0.00     0.010 A 
ATOM     70  C   UNL A   1      42.902  22.337  27.980  1.00  0.00     0.010 A 
ATOM     71  C   UNL A   1      43.457  21.243  25.467  1.00  0.00     0.020 A 
ATOM     72  C   UNL A   1      42.542  21.016  27.705  1.00  0.00     0.020 A 
ATOM     73  C   UNL A   1      42.810  20.481  26.445  1.00  0.00     0.054 A 
BRANCH  73  74
ATOM     74  S   UNL A   1      42.369  18.760  26.075  1.00  0.00     0.124 S 
ATOM     75  O   UNL A   1      43.291  18.440  24.990  1.00  0.00    -0.237 OA
ATOM     76  O   UNL A   1      42.626  18.083  27.344  1.00  0.00    -0.237 OA
ATOM     77  O   UNL A   1      40.959  18.844  25.699  1.00  0.00    -0.744 OA
ENDBRANCH  73  74
ENDBRANCH  45  68
BRANCH  57  78
ATOM     78  C   UNL A   1      49.590  26.590  26.594  1.00  0.00    -0.014 A 
ATOM     79  C   UNL A   1      50.458  25.965  27.505  1.00  0.00     0.010 A 
ATOM     80  C   UNL A   1      49.998  26.768  25.260  1.00  0.00     0.010 A 
ATOM     81  C   UNL A   1      51.722  25.536  27.090  1.00  0.00     0.020 A 
ATOM     82  C   UNL A   1      51.253  26.322  24.838  1.00  0.00     0.020 A 
ATOM     83  C   UNL A   1      52.110  25.716  25.759  1.00  0.00     0.054 A 
BRANCH  83  84
ATOM     84  S   UNL A   1      53.728  25.093  25.228  1.00  0.00     0.124 S 
ATOM     85  O   UNL A   1      53.825  25.619  23.869  1.00  0.00    -0.237 OA
ATOM     86  O   UNL A   1      54.641  25.690  26.199  1.00  0.00    -0.237 OA
ATOM     87  O   UNL A   1      53.588  23.641  25.326  1.00  0.00    -0.744 OA
ENDBRANCH  83  84
ENDBRANCH  57  78
ENDBRANCH  31  32
ENDBRANCH  24  26
ENDBRANCH  23  24
ENDBRANCH   1  23
TORSDOF 16
ENDMDL
MODEL 3
REMARK VINA RESULT:     -10.4      2.898      9.411
REMARK SMILES C[C@H]1SC[C@H](C(=O)OCCOC(=O)c2ccc(-c3c4nc(c(-c5ccc(S(=O)(=O)[O-])cc5)c5ccc([nH]5)c(-c5ccc(S(=O)(=O)[O-])cc5)c5nc(c(-c6ccc(S(=O)(=O)[O-])cc6)c6ccc3[nH]6)C=C5)C=C4)cc2)N1C(=O)[C@@H]1CSc2ccccc21
REMARK SMILES IDX 10 1 9 2 8 3 6 4 7 5 5 6 1 7 2 8 3 9 74 10 4 11 75 12 76 13
REMARK SMILES IDX 77 14 78 15 85 16 79 17 80 18 84 19 81 20 83 21 82 22 11 23
REMARK SMILES IDX 12 24 13 25 14 26 15 27 73 28 16 29 72 30 17 31 18 32 19 33
REMARK SMILES IDX 66 34 20 35 71 36 65 37 67 38 21 39 70 40 64 41 63 42 22 44
REMARK SMILES IDX 52 45 33 46 51 47 34 48 37 49 50 50 68 51 35 52 36 53 49 55
REMARK SMILES IDX 69 56 38 57 23 58 24 59 32 60 25 61 31 62 26 63 27 64 28 65
REMARK SMILES IDX 29 66 30 67 53 68 54 69 62 70 55 71 61 72 56 73 57 74 58 75
REMARK SMILES IDX 59 76 60 77 39 78 40 79 48 80 41 81 47 82 42 83 43 84 44 85
REMARK SMILES IDX 45 86 46 87
REMARK H PARENT 67 43 37 54
REMARK Flexibility Score: inf
ROOT
ATOM      1  C   UNL A   1      32.879  28.399  27.649  1.00  0.00     0.275 C 
ENDROOT
BRANCH   1   2
ATOM      2  C   UNL A   1      31.650  28.088  26.784  1.00  0.00     0.274 C 
BRANCH   2   3
ATOM      3  O   UNL A   1      31.272  26.700  26.862  1.00  0.00    -0.461 OA
BRANCH   3   4
ATOM      4  C   UNL A   1      30.653  26.211  25.752  1.00  0.00     0.329 C 
ATOM      5  O   UNL A   1      29.559  25.656  25.773  1.00  0.00    -0.250 OA
BRANCH   4   6
ATOM      6  C   UNL A   1      31.423  26.498  24.447  1.00  0.00     0.206 C 
ATOM      7  C   UNL A   1      32.965  25.644  21.853  1.00  0.00     0.043 C 
ATOM      8  C   UNL A   1      33.321  26.631  22.970  1.00  0.00     0.141 C 
ATOM      9  S   UNL A   1      32.450  28.194  22.647  1.00  0.00    -0.135 SA
ATOM     10  N   UNL A   1      32.853  26.181  24.278  1.00  0.00    -0.316 N 
ATOM     11  C   UNL A   1      31.226  27.939  23.964  1.00  0.00     0.109 C 
BRANCH  10  12
ATOM     12  C   UNL A   1      33.516  25.302  25.115  1.00  0.00     0.232 C 
ATOM     13  O   UNL A   1      34.323  25.708  25.953  1.00  0.00    -0.274 OA
BRANCH  12  14
ATOM     14  C   UNL A   1      33.396  23.787  24.948  1.00  0.00     0.120 C 
ATOM     15  C   UNL A   1      32.715  23.135  26.161  1.00  0.00     0.093 C 
ATOM     16  C   UNL A   1      34.670  23.056  24.632  1.00  0.00    -0.021 A 
ATOM     17  S   UNL A   1      33.756  21.761  26.755  1.00  0.00    -0.125 SA
ATOM     18  C   UNL A   1      34.992  22.030  25.519  1.00  0.00     0.011 A 
ATOM     19  C   UNL A   1      35.499  23.331  23.545  1.00  0.00     0.006 A 
ATOM     20  C   UNL A   1      36.189  21.339  25.406  1.00  0.00     0.015 A 
ATOM     21  C   UNL A   1      36.695  22.626  23.412  1.00  0.00     0.000 A 
ATOM     22  C   UNL A   1      37.050  21.650  24.351  1.00  0.00     0.001 A 
ENDBRANCH  12  14
ENDBRANCH  10  12
ENDBRANCH   4   6
ENDBRANCH   3   4
ENDBRANCH   2   3
ENDBRANCH   1   2
BRANCH   1  23
ATOM     23  O   UNL A   1      33.858  29.202  26.961  1.00  0.00    -0.458 OA
BRANCH  23  24
ATOM     24  C   UNL A   1      34.330  30.261  27.656  1.00  0.00     0.338 C 
ATOM     25  O   UNL A   1      33.698  31.248  28.006  1.00  0.00    -0.246 OA
BRANCH  24  26
ATOM     26  C   UNL A   1      35.724  30.040  28.067  1.00  0.00     0.060 A 
ATOM     27  C   UNL A   1      36.724  30.101  27.096  1.00  0.00     0.016 A 
ATOM     28  C   UNL A   1      36.034  29.639  29.365  1.00  0.00     0.016 A 
ATOM     29  C   UNL A   1      38.028  29.727  27.393  1.00  0.00     0.010 A 
ATOM     30  C   UNL A   1      37.360  29.317  29.681  1.00  0.00     0.010 A 
ATOM     31  C   UNL A   1      38.364  29.349  28.695  1.00  0.00    -0.014 A 
BRANCH  31  32
ATOM     32  C   UNL A   1      39.769  29.003  29.023  1.00  0.00     0.031 A 
ATOM     33  C   UNL A   1      40.690  30.045  29.589  1.00  0.00     0.074 A 
ATOM     34  C   UNL A   1      40.216  27.751  28.801  1.00  0.00     0.049 A 
ATOM     35  N   UNL A   1      41.985  29.991  29.760  1.00  0.00    -0.248 NA
ATOM     36  C   UNL A   1      40.077  31.315  30.013  1.00  0.00     0.031 C 
ATOM     37  C   UNL A   1      39.403  26.633  28.313  1.00  0.00     0.029 A 
ATOM     38  N   UNL A   1      41.470  27.210  28.943  1.00  0.00    -0.354 N 
ATOM     39  C   UNL A   1      42.353  31.234  30.262  1.00  0.00     0.074 A 
ATOM     40  C   UNL A   1      41.141  32.017  30.381  1.00  0.00     0.031 C 
ATOM     41  C   UNL A   1      40.178  25.544  28.195  1.00  0.00     0.029 A 
ATOM     42  C   UNL A   1      41.552  25.904  28.522  1.00  0.00     0.049 A 
ATOM     43  H   UNL A   1      42.235  27.709  29.312  1.00  0.00     0.167 HD
ATOM     44  C   UNL A   1      43.591  31.680  30.580  1.00  0.00     0.031 A 
ATOM     45  C   UNL A   1      42.621  25.101  28.356  1.00  0.00     0.031 A 
ATOM     46  C   UNL A   1      44.784  30.883  30.482  1.00  0.00     0.049 A 
ATOM     47  C   UNL A   1      43.991  25.642  28.653  1.00  0.00     0.074 A 
ATOM     48  C   UNL A   1      46.082  31.233  30.811  1.00  0.00     0.029 A 
ATOM     49  N   UNL A   1      44.825  29.576  30.021  1.00  0.00    -0.354 N 
ATOM     50  N   UNL A   1      44.326  26.824  29.111  1.00  0.00    -0.248 NA
ATOM     51  C   UNL A   1      45.127  24.748  28.392  1.00  0.00     0.031 C 
ATOM     52  C   UNL A   1      46.916  30.153  30.503  1.00  0.00     0.029 A 
ATOM     53  C   UNL A   1      46.131  29.116  30.025  1.00  0.00     0.049 A 
ATOM     54  H   UNL A   1      44.043  29.052  29.734  1.00  0.00     0.167 HD
ATOM     55  C   UNL A   1      45.712  26.816  29.193  1.00  0.00     0.074 A 
ATOM     56  C   UNL A   1      46.153  25.505  28.761  1.00  0.00     0.031 C 
ATOM     57  C   UNL A   1      46.546  27.809  29.586  1.00  0.00     0.031 A 
BRANCH  44  58
ATOM     58  C   UNL A   1      43.729  33.115  31.010  1.00  0.00    -0.014 A 
ATOM     59  C   UNL A   1      43.572  33.500  32.352  1.00  0.00     0.010 A 
ATOM     60  C   UNL A   1      44.076  34.086  30.052  1.00  0.00     0.010 A 
ATOM     61  C   UNL A   1      43.734  34.838  32.724  1.00  0.00     0.020 A 
ATOM     62  C   UNL A   1      44.257  35.421  30.424  1.00  0.00     0.020 A 
ATOM     63  C   UNL A   1      44.070  35.791  31.756  1.00  0.00     0.054 A 
BRANCH  63  64
ATOM     64  S   UNL A   1      44.302  37.516  32.269  1.00  0.00     0.124 S 
ATOM     65  O   UNL A   1      43.434  37.600  33.441  1.00  0.00    -0.237 OA
ATOM     66  O   UNL A   1      45.735  37.581  32.544  1.00  0.00    -0.237 OA
ATOM     67  O   UNL A   1      43.858  38.285  31.109  1.00  0.00    -0.744 OA
ENDBRANCH  63  64
ENDBRANCH  44  58
BRANCH  45  68
ATOM     68  C   UNL A   1      42.439  23.733  27.800  1.00  0.00    -0.014 A 
ATOM     69  C   UNL A   1      42.367  23.526  26.413  1.00  0.00     0.010 A 
ATOM     70  C   UNL A   1      42.353  22.627  28.665  1.00  0.00     0.010 A 
ATOM     71  C   UNL A   1      42.203  22.234  25.901  1.00  0.00     0.020 A 
ATOM     72  C   UNL A   1      42.215  21.333  28.156  1.00  0.00     0.020 A 
ATOM     73  C   UNL A   1      42.127  21.146  26.777  1.00  0.00     0.054 A 
BRANCH  73  74
ATOM     74  S   UNL A   1      41.969  19.473  26.094  1.00  0.00     0.124 S 
ATOM     75  O   UNL A   1      42.833  19.544  24.919  1.00  0.00    -0.237 OA
ATOM     76  O   UNL A   1      42.456  18.633  27.186  1.00  0.00    -0.237 OA
ATOM     77  O   UNL A   1      40.539  19.353  25.816  1.00  0.00    -0.744 OA
ENDBRANCH  73  74
ENDBRANCH  45  68
BRANCH  57  78
ATOM     78  C   UNL A   1      48.019  27.512  29.579  1.00  0.00    -0.014 A 
ATOM     79  C   UNL A   1      48.804  27.801  28.449  1.00  0.00     0.010 A 
ATOM     80  C   UNL A   1      48.634  27.004  30.737  1.00  0.00     0.010 A 
ATOM     81  C   UNL A   1      50.182  27.572  28.473  1.00  0.00     0.020 A 
ATOM     82  C   UNL A   1      50.015  26.794  30.770  1.00  0.00     0.020 A 
ATOM     83  C   UNL A   1      50.779  27.072  29.634  1.00  0.00     0.054 A 
BRANCH  83  84
ATOM     84  S   UNL A   1      52.578  26.846  29.665  1.00  0.00     0.124 S 
ATOM     85  O   UNL A   1      52.746  25.896  30.761  1.00  0.00    -0.237 OA
ATOM     86  O   UNL A   1      52.862  26.323  28.331  1.00  0.00    -0.237 OA
ATOM     87  O   UNL A   1      53.090  28.191  29.922  1.00  0.00    -0.744 OA
ENDBRANCH  83  84
ENDBRANCH  57  78
ENDBRANCH  31  32
ENDBRANCH  24  26
ENDBRANCH  23  24
ENDBRANCH   1  23
TORSDOF 16
ENDMDL
