MODEL 1
REMARK VINA RESULT:     -12.0      0.000      0.000
REMARK SMILES CC(C)[C@H](NC(=O)OCc1ccccc1)C(=O)NCC(=O)OCCOC(=O)c1ccc(-c2c3nc(c(-c4ccc(S(=O)(=O)[O-])cc4)c4ccc([nH]4)c(-c4ccc(S(=O)(=O)[O-])cc4)c4nc(c(-c5ccc(S(=O)(=O)[O-])cc5)c5ccc2[nH]5)C=C4)C=C3)cc1
REMARK SMILES IDX 22 1 20 2 21 3 19 4 18 5 16 6 17 7 4 9 2 10 1 11 3 12 5 13
REMARK SMILES IDX 6 14 7 16 8 17 9 18 10 19 11 20 15 21 12 22 14 23 13 24
REMARK SMILES IDX 23 25 24 26 25 27 26 28 27 29 28 30 29 31 87 32 30 33 86 34
REMARK SMILES IDX 31 35 32 36 33 37 80 38 34 39 85 40 79 41 81 42 35 43 84 44
REMARK SMILES IDX 78 45 77 46 36 48 66 49 47 50 65 51 48 52 51 53 64 54 82 55
REMARK SMILES IDX 49 56 50 57 63 59 83 60 52 61 37 62 38 63 46 64 39 65 45 66
REMARK SMILES IDX 40 67 41 68 42 69 43 70 44 71 67 72 68 73 76 74 69 75 75 76
REMARK SMILES IDX 70 77 71 78 72 79 73 80 74 81 53 82 54 83 62 84 55 85 61 86
REMARK SMILES IDX 56 87 57 88 58 89 59 90 60 91
REMARK H PARENT 18 8 5 15 81 47 51 58
REMARK Flexibility Score: inf
ROOT
ATOM      1  O   UNL A   1      32.159  30.002  25.791  1.00  0.00    -0.461 OA
ENDROOT
BRANCH   1   2
ATOM      2  C   UNL A   1      32.314  28.878  25.008  1.00  0.00     0.325 C 
ATOM      3  O   UNL A   1      31.526  27.943  25.231  1.00  0.00    -0.250 OA
BRANCH   2   4
ATOM      4  C   UNL A   1      33.388  28.566  23.726  1.00  0.00     0.238 C 
BRANCH   4   5
ATOM      5  N   UNL A   1      33.385  27.880  22.343  1.00  0.00    -0.343 N 
ATOM      6  C   UNL A   1      33.296  26.533  22.060  1.00  0.00     0.243 C 
ATOM      7  O   UNL A   1      33.378  26.072  20.914  1.00  0.00    -0.273 OA
ATOM      8  H   UNL A   1      33.456  28.480  21.565  1.00  0.00     0.164 HD
BRANCH   6   9
ATOM      9  C   UNL A   1      32.890  25.718  23.234  1.00  0.00     0.177 C 
BRANCH   9  10
ATOM     10  C   UNL A   1      34.262  25.081  23.767  1.00  0.00     0.015 C 
ATOM     11  C   UNL A   1      34.456  25.110  25.275  1.00  0.00     0.010 C 
ATOM     12  C   UNL A   1      34.725  23.674  23.257  1.00  0.00     0.010 C 
ENDBRANCH   9  10
BRANCH   9  13
ATOM     13  N   UNL A   1      31.774  24.908  22.691  1.00  0.00    -0.309 N 
ATOM     14  C   UNL A   1      30.705  24.486  23.507  1.00  0.00     0.408 C 
ATOM     15  H   UNL A   1      31.779  24.658  21.739  1.00  0.00     0.167 HD
ATOM     16  O   UNL A   1      30.593  23.266  23.681  1.00  0.00    -0.225 OA
BRANCH  14  17
ATOM     17  O   UNL A   1      29.706  25.338  23.983  1.00  0.00    -0.445 OA
BRANCH  17  18
ATOM     18  C   UNL A   1      28.632  26.578  23.824  1.00  0.00     0.270 C 
BRANCH  18  19
ATOM     19  C   UNL A   1      28.674  28.094  23.049  1.00  0.00    -0.011 A 
ATOM     20  C   UNL A   1      27.549  28.932  23.106  1.00  0.00     0.007 A 
ATOM     21  C   UNL A   1      29.773  28.719  22.365  1.00  0.00     0.007 A 
ATOM     22  C   UNL A   1      27.617  30.310  22.782  1.00  0.00     0.000 A 
ATOM     23  C   UNL A   1      29.851  30.081  22.031  1.00  0.00     0.000 A 
ATOM     24  C   UNL A   1      28.781  30.897  22.296  1.00  0.00     0.000 A 
ENDBRANCH  18  19
ENDBRANCH  17  18
ENDBRANCH  14  17
ENDBRANCH   9  13
ENDBRANCH   6   9
ENDBRANCH   4   5
ENDBRANCH   2   4
ENDBRANCH   1   2
BRANCH   1  25
ATOM     25  C   UNL A   1      32.255  31.146  26.977  1.00  0.00     0.274 C 
BRANCH  25  26
ATOM     26  C   UNL A   1      33.524  32.176  27.534  1.00  0.00     0.275 C 
BRANCH  26  27
ATOM     27  O   UNL A   1      33.456  33.694  27.622  1.00  0.00    -0.458 OA
BRANCH  27  28
ATOM     28  C   UNL A   1      33.496  34.377  28.834  1.00  0.00     0.338 C 
ATOM     29  O   UNL A   1      32.567  35.057  29.252  1.00  0.00    -0.246 OA
BRANCH  28  30
ATOM     30  C   UNL A   1      34.666  34.014  29.769  1.00  0.00     0.060 A 
ATOM     31  C   UNL A   1      36.004  34.190  29.364  1.00  0.00     0.016 A 
ATOM     32  C   UNL A   1      34.507  33.264  30.934  1.00  0.00     0.016 A 
ATOM     33  C   UNL A   1      37.127  33.870  30.153  1.00  0.00     0.010 A 
ATOM     34  C   UNL A   1      35.640  32.837  31.698  1.00  0.00     0.010 A 
ATOM     35  C   UNL A   1      36.961  33.170  31.339  1.00  0.00    -0.014 A 
BRANCH  35  36
ATOM     36  C   UNL A   1      38.168  32.653  32.064  1.00  0.00     0.031 A 
ATOM     37  C   UNL A   1      38.938  31.490  31.486  1.00  0.00     0.074 A 
ATOM     38  C   UNL A   1      38.647  33.245  33.179  1.00  0.00     0.049 A 
ATOM     39  N   UNL A   1      39.911  30.787  32.009  1.00  0.00    -0.248 NA
ATOM     40  C   UNL A   1      38.561  31.079  30.126  1.00  0.00     0.031 C 
ATOM     41  C   UNL A   1      38.136  34.481  33.771  1.00  0.00     0.029 A 
ATOM     42  N   UNL A   1      39.679  32.881  34.019  1.00  0.00    -0.354 N 
ATOM     43  C   UNL A   1      40.239  29.824  31.057  1.00  0.00     0.074 A 
ATOM     44  C   UNL A   1      39.359  30.040  29.928  1.00  0.00     0.031 C 
ATOM     45  C   UNL A   1      38.835  34.755  34.889  1.00  0.00     0.029 A 
ATOM     46  C   UNL A   1      39.806  33.688  35.128  1.00  0.00     0.049 A 
ATOM     47  H   UNL A   1      40.271  32.114  33.840  1.00  0.00     0.167 HD
ATOM     48  C   UNL A   1      41.171  28.840  31.122  1.00  0.00     0.031 A 
ATOM     49  C   UNL A   1      40.579  33.562  36.229  1.00  0.00     0.031 A 
ATOM     50  C   UNL A   1      42.031  28.613  32.256  1.00  0.00     0.049 A 
ATOM     51  C   UNL A   1      41.501  32.372  36.356  1.00  0.00     0.074 A 
ATOM     52  C   UNL A   1      42.970  27.611  32.442  1.00  0.00     0.029 A 
ATOM     53  N   UNL A   1      42.059  29.398  33.399  1.00  0.00    -0.354 N 
ATOM     54  N   UNL A   1      41.737  31.415  35.491  1.00  0.00    -0.248 NA
ATOM     55  C   UNL A   1      42.259  32.246  37.611  1.00  0.00     0.031 C 
ATOM     56  C   UNL A   1      43.520  27.757  33.720  1.00  0.00     0.029 A 
ATOM     57  C   UNL A   1      42.980  28.894  34.302  1.00  0.00     0.049 A 
ATOM     58  H   UNL A   1      41.504  30.198  33.546  1.00  0.00     0.167 HD
ATOM     59  C   UNL A   1      42.699  30.597  36.080  1.00  0.00     0.074 A 
ATOM     60  C   UNL A   1      43.003  31.174  37.373  1.00  0.00     0.031 C 
ATOM     61  C   UNL A   1      43.285  29.476  35.587  1.00  0.00     0.031 A 
BRANCH  48  62
ATOM     62  C   UNL A   1      41.243  27.883  29.957  1.00  0.00    -0.014 A 
ATOM     63  C   UNL A   1      42.369  27.820  29.117  1.00  0.00     0.010 A 
ATOM     64  C   UNL A   1      40.149  27.038  29.690  1.00  0.00     0.010 A 
ATOM     65  C   UNL A   1      42.372  26.984  27.995  1.00  0.00     0.020 A 
ATOM     66  C   UNL A   1      40.160  26.176  28.589  1.00  0.00     0.020 A 
ATOM     67  C   UNL A   1      41.262  26.176  27.733  1.00  0.00     0.054 A 
BRANCH  67  68
ATOM     68  S   UNL A   1      41.277  25.124  26.254  1.00  0.00     0.124 S 
ATOM     69  O   UNL A   1      40.017  24.397  26.390  1.00  0.00    -0.237 OA
ATOM     70  O   UNL A   1      41.325  26.100  25.168  1.00  0.00    -0.237 OA
ATOM     71  O   UNL A   1      42.482  24.315  26.415  1.00  0.00    -0.744 OA
ENDBRANCH  67  68
ENDBRANCH  48  62
BRANCH  49  72
ATOM     72  C   UNL A   1      40.494  34.567  37.332  1.00  0.00    -0.014 A 
ATOM     73  C   UNL A   1      39.563  34.412  38.375  1.00  0.00     0.010 A 
ATOM     74  C   UNL A   1      41.336  35.696  37.340  1.00  0.00     0.010 A 
ATOM     75  C   UNL A   1      39.477  35.360  39.401  1.00  0.00     0.020 A 
ATOM     76  C   UNL A   1      41.273  36.630  38.379  1.00  0.00     0.020 A 
ATOM     77  C   UNL A   1      40.340  36.459  39.401  1.00  0.00     0.054 A 
BRANCH  77  78
ATOM     78  S   UNL A   1      40.261  37.633  40.784  1.00  0.00     0.124 S 
ATOM     79  O   UNL A   1      38.856  38.031  40.768  1.00  0.00    -0.237 OA
ATOM     80  O   UNL A   1      40.673  36.808  41.918  1.00  0.00    -0.237 OA
ATOM     81  O   UNL A   1      41.211  38.675  40.403  1.00  0.00    -0.744 OA
ENDBRANCH  77  78
ENDBRANCH  49  72
BRANCH  61  82
ATOM     82  C   UNL A   1      44.366  28.825  36.414  1.00  0.00    -0.014 A 
ATOM     83  C   UNL A   1      44.096  27.743  37.271  1.00  0.00     0.010 A 
ATOM     84  C   UNL A   1      45.694  29.277  36.285  1.00  0.00     0.010 A 
ATOM     85  C   UNL A   1      45.127  27.149  38.006  1.00  0.00     0.020 A 
ATOM     86  C   UNL A   1      46.731  28.667  36.995  1.00  0.00     0.020 A 
ATOM     87  C   UNL A   1      46.438  27.615  37.863  1.00  0.00     0.054 A 
BRANCH  87  88
ATOM     88  S   UNL A   1      47.763  26.801  38.797  1.00  0.00     0.124 S 
ATOM     89  O   UNL A   1      47.016  25.862  39.630  1.00  0.00    -0.237 OA
ATOM     90  O   UNL A   1      48.574  26.197  37.742  1.00  0.00    -0.237 OA
ATOM     91  O   UNL A   1      48.406  27.897  39.518  1.00  0.00    -0.744 OA
ENDBRANCH  87  88
ENDBRANCH  61  82
ENDBRANCH  35  36
ENDBRANCH  28  30
ENDBRANCH  27  28
ENDBRANCH  26  27
ENDBRANCH  25  26
ENDBRANCH   1  25
TORSDOF 21
ENDMDL
MODEL 2
REMARK VINA RESULT:     -11.7      1.931      3.897
REMARK SMILES CC(C)[C@H](NC(=O)OCc1ccccc1)C(=O)NCC(=O)OCCOC(=O)c1ccc(-c2c3nc(c(-c4ccc(S(=O)(=O)[O-])cc4)c4ccc([nH]4)c(-c4ccc(S(=O)(=O)[O-])cc4)c4nc(c(-c5ccc(S(=O)(=O)[O-])cc5)c5ccc2[nH]5)C=C4)C=C3)cc1
REMARK SMILES IDX 22 1 20 2 21 3 19 4 18 5 16 6 17 7 4 9 2 10 1 11 3 12 5 13
REMARK SMILES IDX 6 14 7 16 8 17 9 18 10 19 11 20 15 21 12 22 14 23 13 24
REMARK SMILES IDX 23 25 24 26 25 27 26 28 27 29 28 30 29 31 87 32 30 33 86 34
REMARK SMILES IDX 31 35 32 36 33 37 80 38 34 39 85 40 79 41 81 42 35 43 84 44
REMARK SMILES IDX 78 45 77 46 36 48 66 49 47 50 65 51 48 52 51 53 64 54 82 55
REMARK SMILES IDX 49 56 50 57 63 59 83 60 52 61 37 62 38 63 46 64 39 65 45 66
REMARK SMILES IDX 40 67 41 68 42 69 43 70 44 71 67 72 68 73 76 74 69 75 75 76
REMARK SMILES IDX 70 77 71 78 72 79 73 80 74 81 53 82 54 83 62 84 55 85 61 86
REMARK SMILES IDX 56 87 57 88 58 89 59 90 60 91
REMARK H PARENT 18 8 5 15 81 47 51 58
REMARK Flexibility Score: inf
ROOT
ATOM      1  O   UNL A   1      32.271  28.679  26.311  1.00  0.00    -0.461 OA
ENDROOT
BRANCH   1   2
ATOM      2  C   UNL A   1      31.810  27.464  26.770  1.00  0.00     0.325 C 
ATOM      3  O   UNL A   1      31.072  27.501  27.771  1.00  0.00    -0.250 OA
BRANCH   2   4
ATOM      4  C   UNL A   1      32.040  25.894  26.159  1.00  0.00     0.238 C 
BRANCH   4   5
ATOM      5  N   UNL A   1      31.283  24.850  25.307  1.00  0.00    -0.343 N 
ATOM      6  C   UNL A   1      31.402  24.608  23.954  1.00  0.00     0.243 C 
ATOM      7  O   UNL A   1      30.694  23.795  23.346  1.00  0.00    -0.273 OA
ATOM      8  H   UNL A   1      30.636  24.289  25.791  1.00  0.00     0.164 HD
BRANCH   6   9
ATOM      9  C   UNL A   1      32.590  25.261  23.349  1.00  0.00     0.177 C 
BRANCH   9  10
ATOM     10  C   UNL A   1      31.995  26.548  22.600  1.00  0.00     0.015 C 
ATOM     11  C   UNL A   1      30.617  26.998  23.064  1.00  0.00     0.010 C 
ATOM     12  C   UNL A   1      32.875  27.831  22.420  1.00  0.00     0.010 C 
ENDBRANCH   9  10
BRANCH   9  13
ATOM     13  N   UNL A   1      33.246  24.138  22.637  1.00  0.00    -0.309 N 
ATOM     14  C   UNL A   1      34.250  23.364  23.251  1.00  0.00     0.408 C 
ATOM     15  H   UNL A   1      32.974  23.928  21.715  1.00  0.00     0.167 HD
ATOM     16  O   UNL A   1      35.381  23.432  22.751  1.00  0.00    -0.225 OA
BRANCH  14  17
ATOM     17  O   UNL A   1      34.007  22.433  24.264  1.00  0.00    -0.445 OA
BRANCH  17  18
ATOM     18  C   UNL A   1      33.330  21.055  24.862  1.00  0.00     0.270 C 
BRANCH  18  19
ATOM     19  C   UNL A   1      33.371  19.416  24.403  1.00  0.00    -0.011 A 
ATOM     20  C   UNL A   1      32.511  18.959  23.391  1.00  0.00     0.007 A 
ATOM     21  C   UNL A   1      34.251  18.378  24.866  1.00  0.00     0.007 A 
ATOM     22  C   UNL A   1      32.710  17.718  22.735  1.00  0.00     0.000 A 
ATOM     23  C   UNL A   1      34.452  17.142  24.231  1.00  0.00     0.000 A 
ATOM     24  C   UNL A   1      33.713  16.834  23.118  1.00  0.00     0.000 A 
ENDBRANCH  18  19
ENDBRANCH  17  18
ENDBRANCH  14  17
ENDBRANCH   9  13
ENDBRANCH   6   9
ENDBRANCH   4   5
ENDBRANCH   2   4
ENDBRANCH   1   2
BRANCH   1  25
ATOM     25  C   UNL A   1      32.895  30.201  26.176  1.00  0.00     0.274 C 
BRANCH  25  26
ATOM     26  C   UNL A   1      33.312  31.420  27.325  1.00  0.00     0.275 C 
BRANCH  26  27
ATOM     27  O   UNL A   1      33.206  32.921  27.098  1.00  0.00    -0.458 OA
BRANCH  27  28
ATOM     28  C   UNL A   1      33.385  33.849  28.121  1.00  0.00     0.338 C 
ATOM     29  O   UNL A   1      32.574  34.730  28.376  1.00  0.00    -0.246 OA
BRANCH  28  30
ATOM     30  C   UNL A   1      34.528  33.544  29.108  1.00  0.00     0.060 A 
ATOM     31  C   UNL A   1      35.868  33.824  28.779  1.00  0.00     0.016 A 
ATOM     32  C   UNL A   1      34.363  32.756  30.246  1.00  0.00     0.016 A 
ATOM     33  C   UNL A   1      36.970  33.563  29.620  1.00  0.00     0.010 A 
ATOM     34  C   UNL A   1      35.483  32.390  31.061  1.00  0.00     0.010 A 
ATOM     35  C   UNL A   1      36.794  32.824  30.779  1.00  0.00    -0.014 A 
BRANCH  35  36
ATOM     36  C   UNL A   1      37.995  32.374  31.555  1.00  0.00     0.031 A 
ATOM     37  C   UNL A   1      38.856  31.261  31.009  1.00  0.00     0.074 A 
ATOM     38  C   UNL A   1      38.389  32.987  32.692  1.00  0.00     0.049 A 
ATOM     39  N   UNL A   1      39.845  30.613  31.573  1.00  0.00    -0.248 NA
ATOM     40  C   UNL A   1      38.565  30.836  29.632  1.00  0.00     0.031 C 
ATOM     41  C   UNL A   1      37.781  34.188  33.265  1.00  0.00     0.029 A 
ATOM     42  N   UNL A   1      39.403  32.679  33.576  1.00  0.00    -0.354 N 
ATOM     43  C   UNL A   1      40.271  29.676  30.634  1.00  0.00     0.074 A 
ATOM     44  C   UNL A   1      39.431  29.846  29.467  1.00  0.00     0.031 C 
ATOM     45  C   UNL A   1      38.413  34.496  34.413  1.00  0.00     0.029 A 
ATOM     46  C   UNL A   1      39.433  33.486  34.692  1.00  0.00     0.049 A 
ATOM     47  H   UNL A   1      40.045  31.949  33.422  1.00  0.00     0.167 HD
ATOM     48  C   UNL A   1      41.255  28.748  30.737  1.00  0.00     0.031 A 
ATOM     49  C   UNL A   1      40.163  33.399  35.826  1.00  0.00     0.031 A 
ATOM     50  C   UNL A   1      42.076  28.564  31.907  1.00  0.00     0.049 A 
ATOM     51  C   UNL A   1      41.147  32.265  35.991  1.00  0.00     0.074 A 
ATOM     52  C   UNL A   1      43.063  27.619  32.132  1.00  0.00     0.029 A 
ATOM     53  N   UNL A   1      42.007  29.344  33.053  1.00  0.00    -0.354 N 
ATOM     54  N   UNL A   1      41.476  31.327  35.134  1.00  0.00    -0.248 NA
ATOM     55  C   UNL A   1      41.854  32.176  37.278  1.00  0.00     0.031 C 
ATOM     56  C   UNL A   1      43.546  27.789  33.435  1.00  0.00     0.029 A 
ATOM     57  C   UNL A   1      42.916  28.889  33.994  1.00  0.00     0.049 A 
ATOM     58  H   UNL A   1      41.401  30.110  33.178  1.00  0.00     0.167 HD
ATOM     59  C   UNL A   1      42.457  30.564  35.763  1.00  0.00     0.074 A 
ATOM     60  C   UNL A   1      42.669  31.151  37.070  1.00  0.00     0.031 C 
ATOM     61  C   UNL A   1      43.128  29.481  35.293  1.00  0.00     0.031 A 
BRANCH  48  62
ATOM     62  C   UNL A   1      41.434  27.803  29.574  1.00  0.00    -0.014 A 
ATOM     63  C   UNL A   1      40.594  26.691  29.386  1.00  0.00     0.010 A 
ATOM     64  C   UNL A   1      42.479  28.027  28.657  1.00  0.00     0.010 A 
ATOM     65  C   UNL A   1      40.837  25.785  28.347  1.00  0.00     0.020 A 
ATOM     66  C   UNL A   1      42.706  27.143  27.598  1.00  0.00     0.020 A 
ATOM     67  C   UNL A   1      41.899  26.012  27.467  1.00  0.00     0.054 A 
BRANCH  67  68
ATOM     68  S   UNL A   1      42.214  24.806  26.148  1.00  0.00     0.124 S 
ATOM     69  O   UNL A   1      41.031  23.953  26.234  1.00  0.00    -0.237 OA
ATOM     70  O   UNL A   1      42.295  25.648  24.957  1.00  0.00    -0.237 OA
ATOM     71  O   UNL A   1      43.467  24.173  26.547  1.00  0.00    -0.744 OA
ENDBRANCH  67  68
ENDBRANCH  48  62
BRANCH  49  72
ATOM     72  C   UNL A   1      39.970  34.391  36.927  1.00  0.00    -0.014 A 
ATOM     73  C   UNL A   1      39.076  34.131  37.981  1.00  0.00     0.010 A 
ATOM     74  C   UNL A   1      40.672  35.612  36.922  1.00  0.00     0.010 A 
ATOM     75  C   UNL A   1      38.888  35.067  39.004  1.00  0.00     0.020 A 
ATOM     76  C   UNL A   1      40.509  36.538  37.959  1.00  0.00     0.020 A 
ATOM     77  C   UNL A   1      39.614  36.261  38.992  1.00  0.00     0.054 A 
BRANCH  77  78
ATOM     78  S   UNL A   1      39.410  37.423  40.372  1.00  0.00     0.124 S 
ATOM     79  O   UNL A   1      38.729  36.601  41.367  1.00  0.00    -0.237 OA
ATOM     80  O   UNL A   1      40.792  37.782  40.685  1.00  0.00    -0.237 OA
ATOM     81  O   UNL A   1      38.610  38.501  39.797  1.00  0.00    -0.744 OA
ENDBRANCH  77  78
ENDBRANCH  49  72
BRANCH  61  82
ATOM     82  C   UNL A   1      44.208  28.890  36.166  1.00  0.00    -0.014 A 
ATOM     83  C   UNL A   1      45.502  29.437  36.220  1.00  0.00     0.010 A 
ATOM     84  C   UNL A   1      43.896  27.794  36.993  1.00  0.00     0.010 A 
ATOM     85  C   UNL A   1      46.472  28.877  37.058  1.00  0.00     0.020 A 
ATOM     86  C   UNL A   1      44.853  27.250  37.854  1.00  0.00     0.020 A 
ATOM     87  C   UNL A   1      46.141  27.787  37.870  1.00  0.00     0.054 A 
BRANCH  87  88
ATOM     88  S   UNL A   1      47.406  27.105  38.979  1.00  0.00     0.124 S 
ATOM     89  O   UNL A   1      48.378  28.194  39.038  1.00  0.00    -0.237 OA
ATOM     90  O   UNL A   1      46.656  26.864  40.209  1.00  0.00    -0.237 OA
ATOM     91  O   UNL A   1      47.861  25.901  38.288  1.00  0.00    -0.744 OA
ENDBRANCH  87  88
ENDBRANCH  61  82
ENDBRANCH  35  36
ENDBRANCH  28  30
ENDBRANCH  27  28
ENDBRANCH  26  27
ENDBRANCH  25  26
ENDBRANCH   1  25
TORSDOF 21
ENDMDL
MODEL 3
REMARK VINA RESULT:     -11.3      1.817      8.903
REMARK SMILES CC(C)[C@H](NC(=O)OCc1ccccc1)C(=O)NCC(=O)OCCOC(=O)c1ccc(-c2c3nc(c(-c4ccc(S(=O)(=O)[O-])cc4)c4ccc([nH]4)c(-c4ccc(S(=O)(=O)[O-])cc4)c4nc(c(-c5ccc(S(=O)(=O)[O-])cc5)c5ccc2[nH]5)C=C4)C=C3)cc1
REMARK SMILES IDX 22 1 20 2 21 3 19 4 18 5 16 6 17 7 4 9 2 10 1 11 3 12 5 13
REMARK SMILES IDX 6 14 7 16 8 17 9 18 10 19 11 20 15 21 12 22 14 23 13 24
REMARK SMILES IDX 23 25 24 26 25 27 26 28 27 29 28 30 29 31 87 32 30 33 86 34
REMARK SMILES IDX 31 35 32 36 33 37 80 38 34 39 85 40 79 41 81 42 35 43 84 44
REMARK SMILES IDX 78 45 77 46 36 48 66 49 47 50 65 51 48 52 51 53 64 54 82 55
REMARK SMILES IDX 49 56 50 57 63 59 83 60 52 61 37 62 38 63 46 64 39 65 45 66
REMARK SMILES IDX 40 67 41 68 42 69 43 70 44 71 67 72 68 73 76 74 69 75 75 76
REMARK SMILES IDX 70 77 71 78 72 79 73 80 74 81 53 82 54 83 62 84 55 85 61 86
REMARK SMILES IDX 56 87 57 88 58 89 59 90 60 91
REMARK H PARENT 18 8 5 15 81 47 51 58
REMARK Flexibility Score: inf
ROOT
ATOM      1  O   UNL A   1      32.641  28.880  26.400  1.00  0.00    -0.461 OA
ENDROOT
BRANCH   1   2
ATOM      2  C   UNL A   1      32.155  27.635  26.736  1.00  0.00     0.325 C 
ATOM      3  O   UNL A   1      31.394  27.591  27.718  1.00  0.00    -0.250 OA
BRANCH   2   4
ATOM      4  C   UNL A   1      32.381  26.124  25.988  1.00  0.00     0.238 C 
BRANCH   4   5
ATOM      5  N   UNL A   1      31.567  25.085  25.187  1.00  0.00    -0.343 N 
ATOM      6  C   UNL A   1      30.950  25.245  23.964  1.00  0.00     0.243 C 
ATOM      7  O   UNL A   1      30.253  24.369  23.434  1.00  0.00    -0.273 OA
ATOM      8  H   UNL A   1      31.476  24.197  25.602  1.00  0.00     0.164 HD
BRANCH   6   9
ATOM      9  C   UNL A   1      31.371  26.483  23.258  1.00  0.00     0.177 C 
BRANCH   9  10
ATOM     10  C   UNL A   1      30.305  27.586  23.726  1.00  0.00     0.015 C 
ATOM     11  C   UNL A   1      30.611  29.015  23.302  1.00  0.00     0.010 C 
ATOM     12  C   UNL A   1      28.774  27.344  23.504  1.00  0.00     0.010 C 
ENDBRANCH   9  10
BRANCH   9  13
ATOM     13  N   UNL A   1      31.502  26.023  21.855  1.00  0.00    -0.309 N 
ATOM     14  C   UNL A   1      32.709  25.485  21.367  1.00  0.00     0.408 C 
ATOM     15  H   UNL A   1      30.729  26.095  21.250  1.00  0.00     0.167 HD
ATOM     16  O   UNL A   1      33.282  26.133  20.481  1.00  0.00    -0.225 OA
BRANCH  14  17
ATOM     17  O   UNL A   1      33.193  24.220  21.708  1.00  0.00    -0.445 OA
BRANCH  17  18
ATOM     18  C   UNL A   1      33.490  22.998  22.773  1.00  0.00     0.270 C 
BRANCH  18  19
ATOM     19  C   UNL A   1      34.804  22.590  23.777  1.00  0.00    -0.011 A 
ATOM     20  C   UNL A   1      34.752  21.413  24.540  1.00  0.00     0.007 A 
ATOM     21  C   UNL A   1      36.064  23.266  23.920  1.00  0.00     0.007 A 
ATOM     22  C   UNL A   1      35.910  20.843  25.129  1.00  0.00     0.000 A 
ATOM     23  C   UNL A   1      37.216  22.718  24.507  1.00  0.00     0.000 A 
ATOM     24  C   UNL A   1      37.151  21.468  25.067  1.00  0.00     0.000 A 
ENDBRANCH  18  19
ENDBRANCH  17  18
ENDBRANCH  14  17
ENDBRANCH   9  13
ENDBRANCH   6   9
ENDBRANCH   4   5
ENDBRANCH   2   4
ENDBRANCH   1   2
BRANCH   1  25
ATOM     25  C   UNL A   1      33.155  30.449  26.412  1.00  0.00     0.274 C 
BRANCH  25  26
ATOM     26  C   UNL A   1      33.591  31.546  27.672  1.00  0.00     0.275 C 
BRANCH  26  27
ATOM     27  O   UNL A   1      33.256  33.030  27.706  1.00  0.00    -0.458 OA
BRANCH  27  28
ATOM     28  C   UNL A   1      33.500  33.829  28.820  1.00  0.00     0.338 C 
ATOM     29  O   UNL A   1      32.687  34.631  29.261  1.00  0.00    -0.246 OA
BRANCH  28  30
ATOM     30  C   UNL A   1      34.744  33.457  29.650  1.00  0.00     0.060 A 
ATOM     31  C   UNL A   1      36.035  33.842  29.242  1.00  0.00     0.016 A 
ATOM     32  C   UNL A   1      34.718  32.521  30.684  1.00  0.00     0.016 A 
ATOM     33  C   UNL A   1      37.221  33.530  29.937  1.00  0.00     0.010 A 
ATOM     34  C   UNL A   1      35.924  32.109  31.338  1.00  0.00     0.010 A 
ATOM     35  C   UNL A   1      37.184  32.640  30.999  1.00  0.00    -0.014 A 
BRANCH  35  36
ATOM     36  C   UNL A   1      38.471  32.154  31.597  1.00  0.00     0.031 A 
ATOM     37  C   UNL A   1      38.904  32.676  32.946  1.00  0.00     0.074 A 
ATOM     38  C   UNL A   1      39.222  31.198  31.012  1.00  0.00     0.049 A 
ATOM     39  N   UNL A   1      40.037  32.514  33.582  1.00  0.00    -0.248 NA
ATOM     40  C   UNL A   1      37.912  33.477  33.677  1.00  0.00     0.031 C 
ATOM     41  C   UNL A   1      38.864  30.458  29.801  1.00  0.00     0.029 A 
ATOM     42  N   UNL A   1      40.454  30.681  31.359  1.00  0.00    -0.354 N 
ATOM     43  C   UNL A   1      39.910  33.226  34.773  1.00  0.00     0.074 A 
ATOM     44  C   UNL A   1      38.587  33.815  34.765  1.00  0.00     0.031 C 
ATOM     45  C   UNL A   1      39.862  29.607  29.494  1.00  0.00     0.029 A 
ATOM     46  C   UNL A   1      40.957  29.779  30.448  1.00  0.00     0.049 A 
ATOM     47  H   UNL A   1      40.929  30.936  32.183  1.00  0.00     0.167 HD
ATOM     48  C   UNL A   1      40.814  33.390  35.772  1.00  0.00     0.031 A 
ATOM     49  C   UNL A   1      42.171  29.192  30.363  1.00  0.00     0.031 A 
ATOM     50  C   UNL A   1      42.138  32.821  35.769  1.00  0.00     0.049 A 
ATOM     51  C   UNL A   1      43.223  29.508  31.401  1.00  0.00     0.074 A 
ATOM     52  C   UNL A   1      43.146  32.972  36.706  1.00  0.00     0.029 A 
ATOM     53  N   UNL A   1      42.639  31.990  34.778  1.00  0.00    -0.354 N 
ATOM     54  N   UNL A   1      43.124  30.256  32.474  1.00  0.00    -0.248 NA
ATOM     55  C   UNL A   1      44.550  28.902  31.213  1.00  0.00     0.031 C 
ATOM     56  C   UNL A   1      44.276  32.282  36.251  1.00  0.00     0.029 A 
ATOM     57  C   UNL A   1      43.947  31.638  35.068  1.00  0.00     0.049 A 
ATOM     58  H   UNL A   1      42.138  31.693  33.984  1.00  0.00     0.167 HD
ATOM     59  C   UNL A   1      44.361  30.177  33.110  1.00  0.00     0.074 A 
ATOM     60  C   UNL A   1      45.191  29.306  32.301  1.00  0.00     0.031 C 
ATOM     61  C   UNL A   1      44.768  30.765  34.264  1.00  0.00     0.031 A 
BRANCH  48  62
ATOM     62  C   UNL A   1      40.419  34.295  36.914  1.00  0.00    -0.014 A 
ATOM     63  C   UNL A   1      39.904  33.786  38.120  1.00  0.00     0.010 A 
ATOM     64  C   UNL A   1      40.555  35.689  36.768  1.00  0.00     0.010 A 
ATOM     65  C   UNL A   1      39.467  34.654  39.127  1.00  0.00     0.020 A 
ATOM     66  C   UNL A   1      40.151  36.559  37.785  1.00  0.00     0.020 A 
ATOM     67  C   UNL A   1      39.584  36.036  38.948  1.00  0.00     0.054 A 
BRANCH  67  68
ATOM     68  S   UNL A   1      38.982  37.140  40.255  1.00  0.00     0.124 S 
ATOM     69  O   UNL A   1      38.379  38.222  39.480  1.00  0.00    -0.237 OA
ATOM     70  O   UNL A   1      38.042  36.291  40.983  1.00  0.00    -0.237 OA
ATOM     71  O   UNL A   1      40.191  37.501  40.990  1.00  0.00    -0.744 OA
ENDBRANCH  67  68
ENDBRANCH  48  62
BRANCH  49  72
ATOM     72  C   UNL A   1      42.488  28.271  29.230  1.00  0.00    -0.014 A 
ATOM     73  C   UNL A   1      42.238  26.890  29.335  1.00  0.00     0.010 A 
ATOM     74  C   UNL A   1      43.056  28.766  28.041  1.00  0.00     0.010 A 
ATOM     75  C   UNL A   1      42.547  26.027  28.277  1.00  0.00     0.020 A 
ATOM     76  C   UNL A   1      43.339  27.911  26.970  1.00  0.00     0.020 A 
ATOM     77  C   UNL A   1      43.086  26.545  27.097  1.00  0.00     0.054 A 
BRANCH  77  78
ATOM     78  S   UNL A   1      43.406  25.416  25.711  1.00  0.00     0.124 S 
ATOM     79  O   UNL A   1      43.239  24.108  26.338  1.00  0.00    -0.237 OA
ATOM     80  O   UNL A   1      42.369  25.796  24.753  1.00  0.00    -0.237 OA
ATOM     81  O   UNL A   1      44.770  25.748  25.306  1.00  0.00    -0.744 OA
ENDBRANCH  77  78
ENDBRANCH  49  72
BRANCH  61  82
ATOM     82  C   UNL A   1      46.152  30.440  34.768  1.00  0.00    -0.014 A 
ATOM     83  C   UNL A   1      47.282  31.171  34.361  1.00  0.00     0.010 A 
ATOM     84  C   UNL A   1      46.312  29.411  35.717  1.00  0.00     0.010 A 
ATOM     85  C   UNL A   1      48.548  30.856  34.866  1.00  0.00     0.020 A 
ATOM     86  C   UNL A   1      47.570  29.114  36.248  1.00  0.00     0.020 A 
ATOM     87  C   UNL A   1      48.683  29.830  35.807  1.00  0.00     0.054 A 
BRANCH  87  88
ATOM     88  S   UNL A   1      50.330  29.470  36.478  1.00  0.00     0.124 S 
ATOM     89  O   UNL A   1      50.175  28.093  36.941  1.00  0.00    -0.237 OA
ATOM     90  O   UNL A   1      51.196  29.648  35.316  1.00  0.00    -0.237 OA
ATOM     91  O   UNL A   1      50.501  30.465  37.534  1.00  0.00    -0.744 OA
ENDBRANCH  87  88
ENDBRANCH  61  82
ENDBRANCH  35  36
ENDBRANCH  28  30
ENDBRANCH  27  28
ENDBRANCH  26  27
ENDBRANCH  25  26
ENDBRANCH   1  25
TORSDOF 21
ENDMDL
