MODEL 1
REMARK VINA RESULT:     -12.2      0.000      0.000
REMARK SMILES NS(=O)(=O)c1ccc(-n2nc(C(=O)OCCOC(=O)c3ccc(-c4c5nc(c(-c6ccc(S(=O)(=O)[O-])cc6)c6ccc([nH]6)c(-c6ccc(S(=O)(=O)[O-])cc6)c6nc(c(-c7ccc(S(=O)(=O)[O-])cc7)c7ccc4[nH]7)C=C6)C=C5)cc3)cc2-c2cc3ccccc3s2)cc1
REMARK SMILES IDX 15 1 14 2 12 3 13 4 11 5 9 6 10 7 81 8 80 9 8 10 5 11 6 12
REMARK SMILES IDX 92 13 7 14 91 15 2 16 3 17 4 18 1 19 82 22 83 23 90 24 84 25
REMARK SMILES IDX 89 26 85 27 88 28 86 29 87 30 16 31 17 32 18 33 19 34 20 35
REMARK SMILES IDX 21 36 79 37 22 38 78 39 23 40 24 41 25 42 72 43 26 44 77 45
REMARK SMILES IDX 71 46 73 47 27 48 76 49 70 50 69 51 28 53 58 54 39 55 57 56
REMARK SMILES IDX 40 57 43 58 56 59 74 60 41 61 42 62 55 64 75 65 44 66 29 67
REMARK SMILES IDX 30 68 38 69 31 70 37 71 32 72 33 73 34 74 35 75 36 76 59 77
REMARK SMILES IDX 60 78 68 79 61 80 67 81 62 82 63 83 64 84 65 85 66 86 45 87
REMARK SMILES IDX 46 88 54 89 47 90 53 91 48 92 49 93 50 94 51 95 52 96
REMARK H PARENT 1 20 1 21 73 52 43 63
REMARK Flexibility Score: inf
ROOT
ATOM      1  C   UNL A   1      40.560  20.479  26.758  1.00  0.00     0.275 C 
ENDROOT
BRANCH   1   2
ATOM      2  O   UNL A   1      39.758  21.203  25.812  1.00  0.00    -0.457 OA
BRANCH   2   3
ATOM      3  C   UNL A   1      39.102  22.322  26.275  1.00  0.00     0.358 C 
ATOM      4  O   UNL A   1      39.567  23.085  27.115  1.00  0.00    -0.244 OA
BRANCH   3   5
ATOM      5  C   UNL A   1      37.784  22.469  25.639  1.00  0.00     0.171 A 
ATOM      6  N   UNL A   1      35.896  23.324  25.133  1.00  0.00    -0.231 N 
ATOM      7  N   UNL A   1      37.214  23.636  25.278  1.00  0.00    -0.160 NA
ATOM      8  C   UNL A   1      35.659  22.002  25.433  1.00  0.00     0.085 A 
ATOM      9  C   UNL A   1      36.902  21.403  25.371  1.00  0.00     0.068 A 
BRANCH   6  10
ATOM     10  C   UNL A   1      34.971  24.316  24.758  1.00  0.00     0.065 A 
ATOM     11  C   UNL A   1      33.192  26.325  24.065  1.00  0.00     0.082 A 
ATOM     12  C   UNL A   1      33.654  25.437  23.084  1.00  0.00     0.024 A 
ATOM     13  C   UNL A   1      33.605  26.207  25.394  1.00  0.00     0.024 A 
ATOM     14  C   UNL A   1      34.568  24.442  23.427  1.00  0.00     0.030 A 
ATOM     15  C   UNL A   1      34.479  25.179  25.750  1.00  0.00     0.030 A 
BRANCH  11  16
ATOM     16  S   UNL A   1      32.067  27.602  23.596  1.00  0.00     0.238 S 
ATOM     17  O   UNL A   1      31.537  27.329  22.275  1.00  0.00    -0.207 OA
ATOM     18  O   UNL A   1      32.624  28.876  23.965  1.00  0.00    -0.207 OA
BRANCH  16  19
ATOM     19  N   UNL A   1      30.773  27.340  24.641  1.00  0.00    -0.225 NA
ATOM     20  H   UNL A   1      29.905  27.304  24.104  1.00  0.00     0.137 HD
ATOM     21  H   UNL A   1      30.723  28.101  25.317  1.00  0.00     0.137 HD
ENDBRANCH  16  19
ENDBRANCH  11  16
ENDBRANCH   6  10
BRANCH   8  22
ATOM     22  C   UNL A   1      34.494  21.360  25.987  1.00  0.00     0.054 A 
ATOM     23  C   UNL A   1      33.359  21.999  26.479  1.00  0.00     0.031 A 
ATOM     24  S   UNL A   1      33.850  20.054  25.005  1.00  0.00    -0.134 S 
ATOM     25  C   UNL A   1      32.453  22.156  25.346  1.00  0.00    -0.007 A 
ATOM     26  C   UNL A   1      32.771  21.241  24.331  1.00  0.00     0.035 A 
ATOM     27  C   UNL A   1      31.490  23.149  25.064  1.00  0.00     0.009 A 
ATOM     28  C   UNL A   1      32.295  21.370  23.019  1.00  0.00     0.019 A 
ATOM     29  C   UNL A   1      31.027  23.303  23.751  1.00  0.00     0.001 A 
ATOM     30  C   UNL A   1      31.460  22.453  22.737  1.00  0.00     0.001 A 
ENDBRANCH   8  22
ENDBRANCH   3   5
ENDBRANCH   2   3
ENDBRANCH   1   2
BRANCH   1  31
ATOM     31  C   UNL A   1      41.971  20.277  26.226  1.00  0.00     0.275 C 
BRANCH  31  32
ATOM     32  O   UNL A   1      42.368  21.397  25.444  1.00  0.00    -0.458 OA
BRANCH  32  33
ATOM     33  C   UNL A   1      43.703  21.604  25.379  1.00  0.00     0.338 C 
ATOM     34  O   UNL A   1      44.570  20.766  25.196  1.00  0.00    -0.246 OA
BRANCH  33  35
ATOM     35  C   UNL A   1      43.987  22.985  25.753  1.00  0.00     0.060 A 
ATOM     36  C   UNL A   1      44.892  23.202  26.796  1.00  0.00     0.016 A 
ATOM     37  C   UNL A   1      43.087  23.965  25.317  1.00  0.00     0.016 A 
ATOM     38  C   UNL A   1      44.737  24.340  27.556  1.00  0.00     0.010 A 
ATOM     39  C   UNL A   1      42.909  25.072  26.096  1.00  0.00     0.010 A 
ATOM     40  C   UNL A   1      43.679  25.202  27.249  1.00  0.00    -0.014 A 
BRANCH  40  41
ATOM     41  C   UNL A   1      43.461  26.376  28.063  1.00  0.00     0.031 A 
ATOM     42  C   UNL A   1      44.573  27.342  27.897  1.00  0.00     0.074 A 
ATOM     43  C   UNL A   1      42.290  26.578  28.701  1.00  0.00     0.049 A 
ATOM     44  N   UNL A   1      45.489  27.640  28.756  1.00  0.00    -0.248 NA
ATOM     45  C   UNL A   1      44.853  27.838  26.531  1.00  0.00     0.031 C 
ATOM     46  C   UNL A   1      41.079  25.749  28.630  1.00  0.00     0.029 A 
ATOM     47  N   UNL A   1      41.878  27.634  29.450  1.00  0.00    -0.354 N 
ATOM     48  C   UNL A   1      46.281  28.587  28.115  1.00  0.00     0.074 A 
ATOM     49  C   UNL A   1      46.025  28.445  26.709  1.00  0.00     0.031 C 
ATOM     50  C   UNL A   1      40.019  26.461  29.082  1.00  0.00     0.029 A 
ATOM     51  C   UNL A   1      40.496  27.733  29.596  1.00  0.00     0.049 A 
ATOM     52  H   UNL A   1      42.505  28.276  29.856  1.00  0.00     0.167 HD
ATOM     53  C   UNL A   1      46.758  29.661  28.803  1.00  0.00     0.031 A 
ATOM     54  C   UNL A   1      39.801  28.813  30.045  1.00  0.00     0.031 A 
ATOM     55  C   UNL A   1      46.656  29.444  30.223  1.00  0.00     0.049 A 
ATOM     56  C   UNL A   1      40.772  29.670  30.767  1.00  0.00     0.074 A 
ATOM     57  C   UNL A   1      47.220  28.583  31.137  1.00  0.00     0.029 A 
ATOM     58  N   UNL A   1      45.505  29.942  30.785  1.00  0.00    -0.354 N 
ATOM     59  N   UNL A   1      41.375  29.299  31.862  1.00  0.00    -0.248 NA
ATOM     60  C   UNL A   1      41.417  30.753  30.039  1.00  0.00     0.031 C 
ATOM     61  C   UNL A   1      46.210  28.357  32.118  1.00  0.00     0.029 A 
ATOM     62  C   UNL A   1      45.095  29.143  31.814  1.00  0.00     0.049 A 
ATOM     63  H   UNL A   1      45.042  30.759  30.488  1.00  0.00     0.167 HD
ATOM     64  C   UNL A   1      42.671  29.774  31.728  1.00  0.00     0.074 A 
ATOM     65  C   UNL A   1      42.597  30.775  30.666  1.00  0.00     0.031 C 
ATOM     66  C   UNL A   1      43.721  29.093  32.279  1.00  0.00     0.031 A 
BRANCH  53  67
ATOM     67  C   UNL A   1      46.764  31.065  28.225  1.00  0.00    -0.014 A 
ATOM     68  C   UNL A   1      45.529  31.723  28.064  1.00  0.00     0.010 A 
ATOM     69  C   UNL A   1      47.874  31.634  27.564  1.00  0.00     0.010 A 
ATOM     70  C   UNL A   1      45.401  32.843  27.230  1.00  0.00     0.020 A 
ATOM     71  C   UNL A   1      47.767  32.771  26.762  1.00  0.00     0.020 A 
ATOM     72  C   UNL A   1      46.523  33.352  26.576  1.00  0.00     0.054 A 
BRANCH  72  73
ATOM     73  S   UNL A   1      46.337  34.745  25.439  1.00  0.00     0.124 S 
ATOM     74  O   UNL A   1      45.866  35.800  26.331  1.00  0.00    -0.237 OA
ATOM     75  O   UNL A   1      47.694  34.904  24.926  1.00  0.00    -0.237 OA
ATOM     76  O   UNL A   1      45.360  34.263  24.466  1.00  0.00    -0.744 OA
ENDBRANCH  72  73
ENDBRANCH  53  67
BRANCH  54  77
ATOM     77  C   UNL A   1      38.468  29.307  29.597  1.00  0.00    -0.014 A 
ATOM     78  C   UNL A   1      37.415  29.543  30.503  1.00  0.00     0.010 A 
ATOM     79  C   UNL A   1      38.320  29.814  28.289  1.00  0.00     0.010 A 
ATOM     80  C   UNL A   1      36.277  30.285  30.124  1.00  0.00     0.020 A 
ATOM     81  C   UNL A   1      37.193  30.554  27.904  1.00  0.00     0.020 A 
ATOM     82  C   UNL A   1      36.180  30.799  28.827  1.00  0.00     0.054 A 
BRANCH  82  83
ATOM     83  S   UNL A   1      34.775  31.866  28.376  1.00  0.00     0.124 S 
ATOM     84  O   UNL A   1      35.392  32.828  27.468  1.00  0.00    -0.237 OA
ATOM     85  O   UNL A   1      33.842  30.926  27.762  1.00  0.00    -0.237 OA
ATOM     86  O   UNL A   1      34.337  32.420  29.657  1.00  0.00    -0.744 OA
ENDBRANCH  82  83
ENDBRANCH  54  77
BRANCH  66  87
ATOM     87  C   UNL A   1      43.425  28.099  33.377  1.00  0.00    -0.014 A 
ATOM     88  C   UNL A   1      43.593  26.705  33.271  1.00  0.00     0.010 A 
ATOM     89  C   UNL A   1      43.081  28.642  34.626  1.00  0.00     0.010 A 
ATOM     90  C   UNL A   1      43.403  25.878  34.392  1.00  0.00     0.020 A 
ATOM     91  C   UNL A   1      42.911  27.830  35.746  1.00  0.00     0.020 A 
ATOM     92  C   UNL A   1      43.063  26.450  35.624  1.00  0.00     0.054 A 
BRANCH  92  93
ATOM     93  S   UNL A   1      42.851  25.394  37.084  1.00  0.00     0.124 S 
ATOM     94  O   UNL A   1      44.036  24.543  37.036  1.00  0.00    -0.237 OA
ATOM     95  O   UNL A   1      42.812  26.358  38.181  1.00  0.00    -0.237 OA
ATOM     96  O   UNL A   1      41.586  24.703  36.835  1.00  0.00    -0.744 OA
ENDBRANCH  92  93
ENDBRANCH  66  87
ENDBRANCH  40  41
ENDBRANCH  33  35
ENDBRANCH  32  33
ENDBRANCH  31  32
ENDBRANCH   1  31
TORSDOF 18
ENDMDL
MODEL 2
REMARK VINA RESULT:     -11.8      2.673      7.506
REMARK SMILES NS(=O)(=O)c1ccc(-n2nc(C(=O)OCCOC(=O)c3ccc(-c4c5nc(c(-c6ccc(S(=O)(=O)[O-])cc6)c6ccc([nH]6)c(-c6ccc(S(=O)(=O)[O-])cc6)c6nc(c(-c7ccc(S(=O)(=O)[O-])cc7)c7ccc4[nH]7)C=C6)C=C5)cc3)cc2-c2cc3ccccc3s2)cc1
REMARK SMILES IDX 15 1 14 2 12 3 13 4 11 5 9 6 10 7 81 8 80 9 8 10 5 11 6 12
REMARK SMILES IDX 92 13 7 14 91 15 2 16 3 17 4 18 1 19 82 22 83 23 90 24 84 25
REMARK SMILES IDX 89 26 85 27 88 28 86 29 87 30 16 31 17 32 18 33 19 34 20 35
REMARK SMILES IDX 21 36 79 37 22 38 78 39 23 40 24 41 25 42 72 43 26 44 77 45
REMARK SMILES IDX 71 46 73 47 27 48 76 49 70 50 69 51 28 53 58 54 39 55 57 56
REMARK SMILES IDX 40 57 43 58 56 59 74 60 41 61 42 62 55 64 75 65 44 66 29 67
REMARK SMILES IDX 30 68 38 69 31 70 37 71 32 72 33 73 34 74 35 75 36 76 59 77
REMARK SMILES IDX 60 78 68 79 61 80 67 81 62 82 63 83 64 84 65 85 66 86 45 87
REMARK SMILES IDX 46 88 54 89 47 90 53 91 48 92 49 93 50 94 51 95 52 96
REMARK H PARENT 1 20 1 21 73 52 43 63
REMARK Flexibility Score: inf
ROOT
ATOM      1  C   UNL A   1      36.725  20.760  24.971  1.00  0.00     0.275 C 
ENDROOT
BRANCH   1   2
ATOM      2  O   UNL A   1      36.996  21.958  24.225  1.00  0.00    -0.457 OA
BRANCH   2   3
ATOM      3  C   UNL A   1      36.499  23.138  24.735  1.00  0.00     0.358 C 
ATOM      4  O   UNL A   1      36.983  23.720  25.700  1.00  0.00    -0.244 OA
BRANCH   3   5
ATOM      5  C   UNL A   1      35.323  23.591  23.978  1.00  0.00     0.171 A 
ATOM      6  N   UNL A   1      33.543  24.674  23.514  1.00  0.00    -0.231 N 
ATOM      7  N   UNL A   1      34.802  24.834  24.012  1.00  0.00    -0.160 NA
ATOM      8  C   UNL A   1      33.288  23.354  23.215  1.00  0.00     0.085 A 
ATOM      9  C   UNL A   1      34.536  22.765  23.151  1.00  0.00     0.068 A 
BRANCH   6  10
ATOM     10  C   UNL A   1      32.681  25.779  23.401  1.00  0.00     0.065 A 
ATOM     11  C   UNL A   1      30.931  27.911  23.129  1.00  0.00     0.082 A 
ATOM     12  C   UNL A   1      31.458  27.602  24.390  1.00  0.00     0.024 A 
ATOM     13  C   UNL A   1      31.282  27.168  22.000  1.00  0.00     0.024 A 
ATOM     14  C   UNL A   1      32.319  26.515  24.532  1.00  0.00     0.030 A 
ATOM     15  C   UNL A   1      32.185  26.112  22.131  1.00  0.00     0.030 A 
BRANCH  11  16
ATOM     16  S   UNL A   1      29.811  29.268  22.984  1.00  0.00     0.238 S 
ATOM     17  O   UNL A   1      30.080  30.241  24.024  1.00  0.00    -0.207 OA
ATOM     18  O   UNL A   1      28.492  28.761  22.714  1.00  0.00    -0.207 OA
BRANCH  16  19
ATOM     19  N   UNL A   1      30.326  30.007  21.562  1.00  0.00    -0.225 NA
ATOM     20  H   UNL A   1      30.362  31.017  21.697  1.00  0.00     0.137 HD
ATOM     21  H   UNL A   1      29.673  29.787  20.809  1.00  0.00     0.137 HD
ENDBRANCH  16  19
ENDBRANCH  11  16
ENDBRANCH   6  10
BRANCH   8  22
ATOM     22  C   UNL A   1      32.057  22.607  23.243  1.00  0.00     0.054 A 
ATOM     23  C   UNL A   1      31.781  21.450  22.518  1.00  0.00     0.031 A 
ATOM     24  S   UNL A   1      31.464  22.246  24.856  1.00  0.00    -0.134 S 
ATOM     25  C   UNL A   1      32.213  20.333  23.351  1.00  0.00    -0.007 A 
ATOM     26  C   UNL A   1      32.287  20.722  24.697  1.00  0.00     0.035 A 
ATOM     27  C   UNL A   1      32.712  19.059  23.001  1.00  0.00     0.009 A 
ATOM     28  C   UNL A   1      32.971  19.973  25.665  1.00  0.00     0.019 A 
ATOM     29  C   UNL A   1      33.419  18.314  23.954  1.00  0.00     0.001 A 
ATOM     30  C   UNL A   1      33.583  18.787  25.253  1.00  0.00     0.001 A 
ENDBRANCH   8  22
ENDBRANCH   3   5
ENDBRANCH   2   3
ENDBRANCH   1   2
BRANCH   1  31
ATOM     31  C   UNL A   1      37.983  19.916  25.110  1.00  0.00     0.275 C 
BRANCH  31  32
ATOM     32  O   UNL A   1      39.015  20.668  25.736  1.00  0.00    -0.458 OA
BRANCH  32  33
ATOM     33  C   UNL A   1      40.190  20.014  25.883  1.00  0.00     0.338 C 
ATOM     34  O   UNL A   1      40.422  18.847  25.614  1.00  0.00    -0.246 OA
BRANCH  33  35
ATOM     35  C   UNL A   1      41.124  20.874  26.602  1.00  0.00     0.060 A 
ATOM     36  C   UNL A   1      40.980  20.972  27.989  1.00  0.00     0.016 A 
ATOM     37  C   UNL A   1      41.843  21.809  25.849  1.00  0.00     0.016 A 
ATOM     38  C   UNL A   1      41.374  22.144  28.596  1.00  0.00     0.010 A 
ATOM     39  C   UNL A   1      42.197  22.985  26.446  1.00  0.00     0.010 A 
ATOM     40  C   UNL A   1      41.882  23.167  27.790  1.00  0.00    -0.014 A 
BRANCH  40  41
ATOM     41  C   UNL A   1      42.255  24.427  28.394  1.00  0.00     0.031 A 
ATOM     42  C   UNL A   1      41.266  25.479  28.063  1.00  0.00     0.074 A 
ATOM     43  C   UNL A   1      43.266  24.504  29.284  1.00  0.00     0.049 A 
ATOM     44  N   UNL A   1      41.427  26.486  27.271  1.00  0.00    -0.248 NA
ATOM     45  C   UNL A   1      39.858  25.243  28.448  1.00  0.00     0.031 C 
ATOM     46  C   UNL A   1      44.064  23.396  29.829  1.00  0.00     0.029 A 
ATOM     47  N   UNL A   1      43.718  25.568  29.996  1.00  0.00    -0.354 N 
ATOM     48  C   UNL A   1      40.211  27.161  27.306  1.00  0.00     0.074 A 
ATOM     49  C   UNL A   1      39.239  26.221  27.788  1.00  0.00     0.031 C 
ATOM     50  C   UNL A   1      44.699  23.809  30.951  1.00  0.00     0.029 A 
ATOM     51  C   UNL A   1      44.464  25.232  31.125  1.00  0.00     0.049 A 
ATOM     52  H   UNL A   1      43.534  26.500  29.737  1.00  0.00     0.167 HD
ATOM     53  C   UNL A   1      40.183  28.522  27.329  1.00  0.00     0.031 A 
ATOM     54  C   UNL A   1      44.800  26.057  32.153  1.00  0.00     0.031 A 
ATOM     55  C   UNL A   1      41.459  29.066  26.937  1.00  0.00     0.049 A 
ATOM     56  C   UNL A   1      44.636  27.444  31.653  1.00  0.00     0.074 A 
ATOM     57  C   UNL A   1      42.219  29.081  25.790  1.00  0.00     0.029 A 
ATOM     58  N   UNL A   1      42.299  29.339  27.990  1.00  0.00    -0.354 N 
ATOM     59  N   UNL A   1      45.362  27.946  30.693  1.00  0.00    -0.248 NA
ATOM     60  C   UNL A   1      43.374  28.126  31.902  1.00  0.00     0.031 C 
ATOM     61  C   UNL A   1      43.574  29.064  26.234  1.00  0.00     0.029 A 
ATOM     62  C   UNL A   1      43.598  29.118  27.630  1.00  0.00     0.049 A 
ATOM     63  H   UNL A   1      42.006  29.651  28.877  1.00  0.00     0.167 HD
ATOM     64  C   UNL A   1      44.475  28.702  29.941  1.00  0.00     0.074 A 
ATOM     65  C   UNL A   1      43.313  28.891  30.807  1.00  0.00     0.031 C 
ATOM     66  C   UNL A   1      44.649  28.837  28.591  1.00  0.00     0.031 A 
BRANCH  53  67
ATOM     67  C   UNL A   1      39.242  29.306  28.226  1.00  0.00    -0.014 A 
ATOM     68  C   UNL A   1      37.949  29.593  27.745  1.00  0.00     0.010 A 
ATOM     69  C   UNL A   1      39.664  30.020  29.368  1.00  0.00     0.010 A 
ATOM     70  C   UNL A   1      37.156  30.589  28.331  1.00  0.00     0.020 A 
ATOM     71  C   UNL A   1      38.868  30.988  29.984  1.00  0.00     0.020 A 
ATOM     72  C   UNL A   1      37.629  31.287  29.442  1.00  0.00     0.054 A 
BRANCH  72  73
ATOM     73  S   UNL A   1      36.636  32.626  30.143  1.00  0.00     0.124 S 
ATOM     74  O   UNL A   1      36.713  32.341  31.572  1.00  0.00    -0.237 OA
ATOM     75  O   UNL A   1      37.358  33.811  29.689  1.00  0.00    -0.237 OA
ATOM     76  O   UNL A   1      35.323  32.431  29.534  1.00  0.00    -0.744 OA
ENDBRANCH  72  73
ENDBRANCH  53  67
BRANCH  54  77
ATOM     77  C   UNL A   1      44.908  25.732  33.603  1.00  0.00    -0.014 A 
ATOM     78  C   UNL A   1      43.923  24.981  34.276  1.00  0.00     0.010 A 
ATOM     79  C   UNL A   1      46.135  25.932  34.270  1.00  0.00     0.010 A 
ATOM     80  C   UNL A   1      44.170  24.426  35.549  1.00  0.00     0.020 A 
ATOM     81  C   UNL A   1      46.389  25.382  35.535  1.00  0.00     0.020 A 
ATOM     82  C   UNL A   1      45.410  24.619  36.165  1.00  0.00     0.054 A 
BRANCH  82  83
ATOM     83  S   UNL A   1      45.777  23.795  37.747  1.00  0.00     0.124 S 
ATOM     84  O   UNL A   1      45.587  22.385  37.417  1.00  0.00    -0.237 OA
ATOM     85  O   UNL A   1      47.154  24.202  38.010  1.00  0.00    -0.237 OA
ATOM     86  O   UNL A   1      44.784  24.352  38.665  1.00  0.00    -0.744 OA
ENDBRANCH  82  83
ENDBRANCH  54  77
BRANCH  66  87
ATOM     87  C   UNL A   1      46.014  28.542  28.018  1.00  0.00    -0.014 A 
ATOM     88  C   UNL A   1      46.474  27.264  27.645  1.00  0.00     0.010 A 
ATOM     89  C   UNL A   1      46.816  29.658  27.725  1.00  0.00     0.010 A 
ATOM     90  C   UNL A   1      47.718  27.114  27.009  1.00  0.00     0.020 A 
ATOM     91  C   UNL A   1      48.041  29.518  27.076  1.00  0.00     0.020 A 
ATOM     92  C   UNL A   1      48.493  28.246  26.729  1.00  0.00     0.054 A 
BRANCH  92  93
ATOM     93  S   UNL A   1      50.085  28.065  25.875  1.00  0.00     0.124 S 
ATOM     94  O   UNL A   1      49.720  28.272  24.477  1.00  0.00    -0.237 OA
ATOM     95  O   UNL A   1      50.899  29.118  26.476  1.00  0.00    -0.237 OA
ATOM     96  O   UNL A   1      50.506  26.704  26.207  1.00  0.00    -0.744 OA
ENDBRANCH  92  93
ENDBRANCH  66  87
ENDBRANCH  40  41
ENDBRANCH  33  35
ENDBRANCH  32  33
ENDBRANCH  31  32
ENDBRANCH   1  31
TORSDOF 18
ENDMDL
MODEL 3
REMARK VINA RESULT:     -11.7      1.366      1.770
REMARK SMILES NS(=O)(=O)c1ccc(-n2nc(C(=O)OCCOC(=O)c3ccc(-c4c5nc(c(-c6ccc(S(=O)(=O)[O-])cc6)c6ccc([nH]6)c(-c6ccc(S(=O)(=O)[O-])cc6)c6nc(c(-c7ccc(S(=O)(=O)[O-])cc7)c7ccc4[nH]7)C=C6)C=C5)cc3)cc2-c2cc3ccccc3s2)cc1
REMARK SMILES IDX 15 1 14 2 12 3 13 4 11 5 9 6 10 7 81 8 80 9 8 10 5 11 6 12
REMARK SMILES IDX 92 13 7 14 91 15 2 16 3 17 4 18 1 19 82 22 83 23 90 24 84 25
REMARK SMILES IDX 89 26 85 27 88 28 86 29 87 30 16 31 17 32 18 33 19 34 20 35
REMARK SMILES IDX 21 36 79 37 22 38 78 39 23 40 24 41 25 42 72 43 26 44 77 45
REMARK SMILES IDX 71 46 73 47 27 48 76 49 70 50 69 51 28 53 58 54 39 55 57 56
REMARK SMILES IDX 40 57 43 58 56 59 74 60 41 61 42 62 55 64 75 65 44 66 29 67
REMARK SMILES IDX 30 68 38 69 31 70 37 71 32 72 33 73 34 74 35 75 36 76 59 77
REMARK SMILES IDX 60 78 68 79 61 80 67 81 62 82 63 83 64 84 65 85 66 86 45 87
REMARK SMILES IDX 46 88 54 89 47 90 53 91 48 92 49 93 50 94 51 95 52 96
REMARK H PARENT 1 20 1 21 73 52 43 63
REMARK Flexibility Score: inf
ROOT
ATOM      1  C   UNL A   1      40.958  21.040  27.053  1.00  0.00     0.275 C 
ENDROOT
BRANCH   1   2
ATOM      2  O   UNL A   1      39.740  21.363  26.364  1.00  0.00    -0.457 OA
BRANCH   2   3
ATOM      3  C   UNL A   1      39.118  20.342  25.681  1.00  0.00     0.358 C 
ATOM      4  O   UNL A   1      39.591  19.217  25.560  1.00  0.00    -0.244 OA
BRANCH   3   5
ATOM      5  C   UNL A   1      37.831  20.782  25.121  1.00  0.00     0.171 A 
ATOM      6  N   UNL A   1      36.146  22.033  24.734  1.00  0.00    -0.231 N 
ATOM      7  N   UNL A   1      37.506  22.054  24.813  1.00  0.00    -0.160 NA
ATOM      8  C   UNL A   1      35.648  20.783  25.024  1.00  0.00     0.085 A 
ATOM      9  C   UNL A   1      36.730  19.935  24.883  1.00  0.00     0.068 A 
BRANCH   6  10
ATOM     10  C   UNL A   1      35.436  23.208  24.428  1.00  0.00     0.065 A 
ATOM     11  C   UNL A   1      33.983  25.478  23.785  1.00  0.00     0.082 A 
ATOM     12  C   UNL A   1      34.460  25.307  25.091  1.00  0.00     0.024 A 
ATOM     13  C   UNL A   1      34.238  24.527  22.794  1.00  0.00     0.024 A 
ATOM     14  C   UNL A   1      35.170  24.153  25.422  1.00  0.00     0.030 A 
ATOM     15  C   UNL A   1      34.994  23.397  23.110  1.00  0.00     0.030 A 
BRANCH  11  16
ATOM     16  S   UNL A   1      33.051  26.928  23.402  1.00  0.00     0.238 S 
ATOM     17  O   UNL A   1      33.538  28.046  24.185  1.00  0.00    -0.207 OA
ATOM     18  O   UNL A   1      31.657  26.582  23.321  1.00  0.00    -0.207 OA
BRANCH  16  19
ATOM     19  N   UNL A   1      33.540  27.262  21.826  1.00  0.00    -0.225 NA
ATOM     20  H   UNL A   1      34.389  27.827  21.846  1.00  0.00     0.137 HD
ATOM     21  H   UNL A   1      32.802  27.774  21.342  1.00  0.00     0.137 HD
ENDBRANCH  16  19
ENDBRANCH  11  16
ENDBRANCH   6  10
BRANCH   8  22
ATOM     22  C   UNL A   1      34.402  20.386  25.629  1.00  0.00     0.054 A 
ATOM     23  C   UNL A   1      33.431  21.240  26.146  1.00  0.00     0.031 A 
ATOM     24  S   UNL A   1      33.482  19.216  24.697  1.00  0.00    -0.134 S 
ATOM     25  C   UNL A   1      32.531  21.554  25.040  1.00  0.00    -0.007 A 
ATOM     26  C   UNL A   1      32.630  20.580  24.035  1.00  0.00     0.035 A 
ATOM     27  C   UNL A   1      31.769  22.711  24.770  1.00  0.00     0.009 A 
ATOM     28  C   UNL A   1      32.139  20.781  22.736  1.00  0.00     0.019 A 
ATOM     29  C   UNL A   1      31.297  22.933  23.470  1.00  0.00     0.001 A 
ATOM     30  C   UNL A   1      31.519  22.000  22.460  1.00  0.00     0.001 A 
ENDBRANCH   8  22
ENDBRANCH   3   5
ENDBRANCH   2   3
ENDBRANCH   1   2
BRANCH   1  31
ATOM     31  C   UNL A   1      41.809  22.286  27.258  1.00  0.00     0.275 C 
BRANCH  31  32
ATOM     32  O   UNL A   1      43.004  22.198  26.491  1.00  0.00    -0.458 OA
BRANCH  32  33
ATOM     33  C   UNL A   1      43.060  23.027  25.424  1.00  0.00     0.338 C 
ATOM     34  O   UNL A   1      43.067  22.710  24.246  1.00  0.00    -0.246 OA
BRANCH  33  35
ATOM     35  C   UNL A   1      43.303  24.386  25.892  1.00  0.00     0.060 A 
ATOM     36  C   UNL A   1      44.209  24.558  26.943  1.00  0.00     0.016 A 
ATOM     37  C   UNL A   1      42.370  25.365  25.530  1.00  0.00     0.016 A 
ATOM     38  C   UNL A   1      44.023  25.635  27.782  1.00  0.00     0.010 A 
ATOM     39  C   UNL A   1      42.164  26.409  26.384  1.00  0.00     0.010 A 
ATOM     40  C   UNL A   1      42.938  26.482  27.540  1.00  0.00    -0.014 A 
BRANCH  40  41
ATOM     41  C   UNL A   1      42.690  27.590  28.436  1.00  0.00     0.031 A 
ATOM     42  C   UNL A   1      43.822  28.545  28.413  1.00  0.00     0.074 A 
ATOM     43  C   UNL A   1      41.486  27.760  29.021  1.00  0.00     0.049 A 
ATOM     44  N   UNL A   1      44.691  28.754  29.345  1.00  0.00    -0.248 NA
ATOM     45  C   UNL A   1      44.188  29.146  27.112  1.00  0.00     0.031 C 
ATOM     46  C   UNL A   1      40.270  26.962  28.813  1.00  0.00     0.029 A 
ATOM     47  N   UNL A   1      41.046  28.759  29.831  1.00  0.00    -0.354 N 
ATOM     48  C   UNL A   1      45.532  29.736  28.831  1.00  0.00     0.074 A 
ATOM     49  C   UNL A   1      45.356  29.715  27.406  1.00  0.00     0.031 C 
ATOM     50  C   UNL A   1      39.195  27.654  29.261  1.00  0.00     0.029 A 
ATOM     51  C   UNL A   1      39.659  28.871  29.906  1.00  0.00     0.049 A 
ATOM     52  H   UNL A   1      41.657  29.353  30.323  1.00  0.00     0.167 HD
ATOM     53  C   UNL A   1      45.983  30.741  29.631  1.00  0.00     0.031 A 
ATOM     54  C   UNL A   1      38.954  29.923  30.403  1.00  0.00     0.031 A 
ATOM     55  C   UNL A   1      45.795  30.409  31.021  1.00  0.00     0.049 A 
ATOM     56  C   UNL A   1      39.894  30.700  31.247  1.00  0.00     0.074 A 
ATOM     57  C   UNL A   1      46.294  29.465  31.890  1.00  0.00     0.029 A 
ATOM     58  N   UNL A   1      44.621  30.881  31.556  1.00  0.00    -0.354 N 
ATOM     59  N   UNL A   1      40.427  30.229  32.340  1.00  0.00    -0.248 NA
ATOM     60  C   UNL A   1      40.595  31.827  30.649  1.00  0.00     0.031 C 
ATOM     61  C   UNL A   1      45.225  29.179  32.790  1.00  0.00     0.029 A 
ATOM     62  C   UNL A   1      44.141  30.008  32.490  1.00  0.00     0.049 A 
ATOM     63  H   UNL A   1      44.188  31.728  31.302  1.00  0.00     0.167 HD
ATOM     64  C   UNL A   1      41.736  30.689  32.320  1.00  0.00     0.074 A 
ATOM     65  C   UNL A   1      41.737  31.775  31.342  1.00  0.00     0.031 C 
ATOM     66  C   UNL A   1      42.742  29.945  32.871  1.00  0.00     0.031 A 
BRANCH  53  67
ATOM     67  C   UNL A   1      46.042  32.187  29.173  1.00  0.00    -0.014 A 
ATOM     68  C   UNL A   1      44.852  32.941  29.198  1.00  0.00     0.010 A 
ATOM     69  C   UNL A   1      47.122  32.734  28.448  1.00  0.00     0.010 A 
ATOM     70  C   UNL A   1      44.732  34.137  28.477  1.00  0.00     0.020 A 
ATOM     71  C   UNL A   1      47.026  33.943  27.758  1.00  0.00     0.020 A 
ATOM     72  C   UNL A   1      45.819  34.624  27.752  1.00  0.00     0.054 A 
BRANCH  72  73
ATOM     73  S   UNL A   1      45.631  36.123  26.760  1.00  0.00     0.124 S 
ATOM     74  O   UNL A   1      46.107  37.153  27.678  1.00  0.00    -0.237 OA
ATOM     75  O   UNL A   1      46.493  35.842  25.616  1.00  0.00    -0.237 OA
ATOM     76  O   UNL A   1      44.201  36.159  26.463  1.00  0.00    -0.744 OA
ENDBRANCH  72  73
ENDBRANCH  53  67
BRANCH  54  77
ATOM     77  C   UNL A   1      37.657  30.477  29.923  1.00  0.00    -0.014 A 
ATOM     78  C   UNL A   1      36.690  30.992  30.809  1.00  0.00     0.010 A 
ATOM     79  C   UNL A   1      37.486  30.754  28.550  1.00  0.00     0.010 A 
ATOM     80  C   UNL A   1      35.615  31.778  30.343  1.00  0.00     0.020 A 
ATOM     81  C   UNL A   1      36.422  31.536  28.079  1.00  0.00     0.020 A 
ATOM     82  C   UNL A   1      35.496  32.057  28.979  1.00  0.00     0.054 A 
BRANCH  82  83
ATOM     83  S   UNL A   1      34.188  33.178  28.392  1.00  0.00     0.124 S 
ATOM     84  O   UNL A   1      33.280  32.266  27.702  1.00  0.00    -0.237 OA
ATOM     85  O   UNL A   1      33.680  33.757  29.632  1.00  0.00    -0.237 OA
ATOM     86  O   UNL A   1      34.899  34.114  27.522  1.00  0.00    -0.744 OA
ENDBRANCH  82  83
ENDBRANCH  54  77
BRANCH  66  87
ATOM     87  C   UNL A   1      42.369  28.871  33.864  1.00  0.00    -0.014 A 
ATOM     88  C   UNL A   1      42.354  27.489  33.590  1.00  0.00     0.010 A 
ATOM     89  C   UNL A   1      42.150  29.297  35.184  1.00  0.00     0.010 A 
ATOM     90  C   UNL A   1      42.108  26.564  34.619  1.00  0.00     0.020 A 
ATOM     91  C   UNL A   1      41.926  28.384  36.213  1.00  0.00     0.020 A 
ATOM     92  C   UNL A   1      41.896  27.020  35.926  1.00  0.00     0.054 A 
BRANCH  92  93
ATOM     93  S   UNL A   1      41.614  25.830  37.266  1.00  0.00     0.124 S 
ATOM     94  O   UNL A   1      41.710  24.547  36.577  1.00  0.00    -0.237 OA
ATOM     95  O   UNL A   1      42.699  26.127  38.199  1.00  0.00    -0.237 OA
ATOM     96  O   UNL A   1      40.278  26.168  37.758  1.00  0.00    -0.744 OA
ENDBRANCH  92  93
ENDBRANCH  66  87
ENDBRANCH  40  41
ENDBRANCH  33  35
ENDBRANCH  32  33
ENDBRANCH  31  32
ENDBRANCH   1  31
TORSDOF 18
ENDMDL
