MODEL 1
REMARK VINA RESULT:      -9.9      0.000      0.000
REMARK SMILES COCCC(=O)N[C@@H](Cc1c[nH]c2ccccc12)C(=O)OCCOC(=O)c1ccc(-c2c3nc(c(-c4ccc(S(=O)(=O)[O-])cc4)c4ccc([nH]4)c(-c4ccc(S(=O)(=O)[O-])cc4)c4nc(c(-c5ccc(S(=O)(=O)[O-])cc5)c5ccc2[nH]5)C=C4)C=C3)cc1
REMARK SMILES IDX 22 1 21 2 19 3 20 4 8 5 7 6 5 7 6 8 4 10 3 11 2 12 1 13 9 14
REMARK SMILES IDX 10 15 11 16 18 17 12 18 13 19 17 20 14 22 16 23 15 24 23 25
REMARK SMILES IDX 24 26 25 27 26 28 27 29 28 30 86 31 29 32 85 33 30 34 31 35
REMARK SMILES IDX 32 36 79 37 33 38 84 39 78 40 80 41 34 42 83 43 77 44 76 45
REMARK SMILES IDX 35 47 65 48 46 49 64 50 47 51 50 52 63 53 81 54 48 55 49 56
REMARK SMILES IDX 62 58 82 59 51 60 36 61 37 62 45 63 38 64 44 65 39 66 40 67
REMARK SMILES IDX 41 68 42 69 43 70 66 71 67 72 75 73 68 74 74 75 69 76 70 77
REMARK SMILES IDX 71 78 72 79 73 80 52 81 53 82 61 83 54 84 60 85 55 86 56 87
REMARK SMILES IDX 57 88 58 89 59 90
REMARK H PARENT 7 9 12 21 80 46 50 57
REMARK Flexibility Score: inf
ROOT
ATOM      1  C   UNL A   1      31.687  30.103  25.834  1.00  0.00     0.274 C 
ENDROOT
BRANCH   1   2
ATOM      2  O   UNL A   1      31.229  28.799  25.435  1.00  0.00    -0.461 OA
BRANCH   2   3
ATOM      3  C   UNL A   1      31.280  28.522  24.103  1.00  0.00     0.329 C 
ATOM      4  O   UNL A   1      30.908  29.288  23.219  1.00  0.00    -0.250 OA
BRANCH   3   5
ATOM      5  C   UNL A   1      31.780  27.101  23.812  1.00  0.00     0.196 C 
BRANCH   5   6
ATOM      6  N   UNL A   1      32.374  26.929  22.477  1.00  0.00    -0.342 N 
ATOM      7  C   UNL A   1      32.712  25.803  21.792  1.00  0.00     0.223 C 
ATOM      8  O   UNL A   1      33.366  25.921  20.753  1.00  0.00    -0.275 OA
ATOM      9  H   UNL A   1      32.558  27.770  22.000  1.00  0.00     0.164 HD
BRANCH   7  10
ATOM     10  C   UNL A   1      32.333  24.438  22.316  1.00  0.00     0.128 C 
BRANCH  10  11
ATOM     11  C   UNL A   1      33.551  23.542  22.415  1.00  0.00     0.169 C 
BRANCH  11  12
ATOM     12  O   UNL A   1      33.145  22.258  22.894  1.00  0.00    -0.384 OA
ATOM     13  C   UNL A   1      31.853  22.295  23.481  1.00  0.00     0.194 C 
ENDBRANCH  11  12
ENDBRANCH  10  11
ENDBRANCH   7  10
ENDBRANCH   5   6
BRANCH   5  14
ATOM     14  C   UNL A   1      32.766  26.697  24.929  1.00  0.00     0.074 C 
BRANCH  14  15
ATOM     15  C   UNL A   1      32.319  25.497  25.717  1.00  0.00    -0.020 A 
ATOM     16  C   UNL A   1      31.049  25.268  26.211  1.00  0.00     0.087 A 
ATOM     17  C   UNL A   1      33.135  24.401  26.145  1.00  0.00     0.003 A 
ATOM     18  N   UNL A   1      31.076  24.114  26.944  1.00  0.00    -0.361 N 
ATOM     19  C   UNL A   1      32.342  23.577  26.942  1.00  0.00     0.046 A 
ATOM     20  C   UNL A   1      34.492  24.062  25.964  1.00  0.00     0.010 A 
ATOM     21  H   UNL A   1      30.300  23.722  27.406  1.00  0.00     0.166 HD
ATOM     22  C   UNL A   1      32.845  22.442  27.589  1.00  0.00     0.026 A 
ATOM     23  C   UNL A   1      35.012  22.936  26.608  1.00  0.00     0.001 A 
ATOM     24  C   UNL A   1      34.200  22.142  27.413  1.00  0.00     0.002 A 
ENDBRANCH  14  15
ENDBRANCH   5  14
ENDBRANCH   3   5
ENDBRANCH   2   3
ENDBRANCH   1   2
BRANCH   1  25
ATOM     25  C   UNL A   1      33.200  30.111  26.047  1.00  0.00     0.275 C 
BRANCH  25  26
ATOM     26  O   UNL A   1      33.526  30.228  27.443  1.00  0.00    -0.458 OA
BRANCH  26  27
ATOM     27  C   UNL A   1      34.263  31.318  27.752  1.00  0.00     0.338 C 
ATOM     28  O   UNL A   1      33.890  32.479  27.805  1.00  0.00    -0.246 OA
BRANCH  27  29
ATOM     29  C   UNL A   1      35.624  30.923  28.122  1.00  0.00     0.060 A 
ATOM     30  C   UNL A   1      35.832  29.615  28.560  1.00  0.00     0.016 A 
ATOM     31  C   UNL A   1      36.632  31.879  28.233  1.00  0.00     0.016 A 
ATOM     32  C   UNL A   1      37.012  29.283  29.215  1.00  0.00     0.010 A 
ATOM     33  C   UNL A   1      37.848  31.521  28.823  1.00  0.00     0.010 A 
ATOM     34  C   UNL A   1      38.030  30.234  29.362  1.00  0.00    -0.014 A 
BRANCH  34  35
ATOM     35  C   UNL A   1      39.259  29.903  30.132  1.00  0.00     0.031 A 
ATOM     36  C   UNL A   1      40.179  28.813  29.647  1.00  0.00     0.074 A 
ATOM     37  C   UNL A   1      39.564  30.588  31.251  1.00  0.00     0.049 A 
ATOM     38  N   UNL A   1      41.196  28.260  30.257  1.00  0.00    -0.248 NA
ATOM     39  C   UNL A   1      39.918  28.269  28.303  1.00  0.00     0.031 C 
ATOM     40  C   UNL A   1      38.794  31.706  31.799  1.00  0.00     0.029 A 
ATOM     41  N   UNL A   1      40.610  30.443  32.127  1.00  0.00    -0.354 N 
ATOM     42  C   UNL A   1      41.662  27.270  29.400  1.00  0.00     0.074 A 
ATOM     43  C   UNL A   1      40.822  27.302  28.221  1.00  0.00     0.031 C 
ATOM     44  C   UNL A   1      39.407  32.161  32.904  1.00  0.00     0.029 A 
ATOM     45  C   UNL A   1      40.568  31.323  33.181  1.00  0.00     0.049 A 
ATOM     46  H   UNL A   1      41.322  29.773  32.011  1.00  0.00     0.167 HD
ATOM     47  C   UNL A   1      42.690  26.407  29.581  1.00  0.00     0.031 A 
ATOM     48  C   UNL A   1      41.350  31.421  34.273  1.00  0.00     0.031 A 
ATOM     49  C   UNL A   1      43.545  26.401  30.738  1.00  0.00     0.049 A 
ATOM     50  C   UNL A   1      42.471  30.441  34.464  1.00  0.00     0.074 A 
ATOM     51  C   UNL A   1      44.601  25.553  31.026  1.00  0.00     0.029 A 
ATOM     52  N   UNL A   1      43.456  27.300  31.789  1.00  0.00    -0.354 N 
ATOM     53  N   UNL A   1      42.846  29.458  33.680  1.00  0.00    -0.248 NA
ATOM     54  C   UNL A   1      43.264  30.573  35.694  1.00  0.00     0.031 C 
ATOM     55  C   UNL A   1      45.139  25.927  32.264  1.00  0.00     0.029 A 
ATOM     56  C   UNL A   1      44.437  27.029  32.727  1.00  0.00     0.049 A 
ATOM     57  H   UNL A   1      42.794  28.024  31.859  1.00  0.00     0.167 HD
ATOM     58  C   UNL A   1      43.920  28.855  34.322  1.00  0.00     0.074 A 
ATOM     59  C   UNL A   1      44.149  29.597  35.547  1.00  0.00     0.031 C 
ATOM     60  C   UNL A   1      44.648  27.778  33.937  1.00  0.00     0.031 A 
BRANCH  47  61
ATOM     61  C   UNL A   1      42.921  25.367  28.520  1.00  0.00    -0.014 A 
ATOM     62  C   UNL A   1      42.157  24.188  28.474  1.00  0.00     0.010 A 
ATOM     63  C   UNL A   1      43.896  25.593  27.531  1.00  0.00     0.010 A 
ATOM     64  C   UNL A   1      42.385  23.238  27.474  1.00  0.00     0.020 A 
ATOM     65  C   UNL A   1      44.114  24.654  26.520  1.00  0.00     0.020 A 
ATOM     66  C   UNL A   1      43.367  23.474  26.506  1.00  0.00     0.054 A 
BRANCH  66  67
ATOM     67  S   UNL A   1      43.634  22.241  25.202  1.00  0.00     0.124 S 
ATOM     68  O   UNL A   1      42.627  21.235  25.530  1.00  0.00    -0.237 OA
ATOM     69  O   UNL A   1      43.385  23.001  23.980  1.00  0.00    -0.237 OA
ATOM     70  O   UNL A   1      45.020  21.824  25.400  1.00  0.00    -0.744 OA
ENDBRANCH  66  67
ENDBRANCH  47  61
BRANCH  48  71
ATOM     71  C   UNL A   1      41.061  32.458  35.297  1.00  0.00    -0.014 A 
ATOM     72  C   UNL A   1      41.652  33.731  35.213  1.00  0.00     0.010 A 
ATOM     73  C   UNL A   1      40.172  32.182  36.351  1.00  0.00     0.010 A 
ATOM     74  C   UNL A   1      41.365  34.706  36.172  1.00  0.00     0.020 A 
ATOM     75  C   UNL A   1      39.865  33.162  37.298  1.00  0.00     0.020 A 
ATOM     76  C   UNL A   1      40.474  34.415  37.209  1.00  0.00     0.054 A 
BRANCH  76  77
ATOM     77  S   UNL A   1      40.059  35.710  38.411  1.00  0.00     0.124 S 
ATOM     78  O   UNL A   1      41.310  35.848  39.149  1.00  0.00    -0.237 OA
ATOM     79  O   UNL A   1      39.699  36.840  37.559  1.00  0.00    -0.237 OA
ATOM     80  O   UNL A   1      38.947  35.128  39.161  1.00  0.00    -0.744 OA
ENDBRANCH  76  77
ENDBRANCH  48  71
BRANCH  60  81
ATOM     81  C   UNL A   1      45.770  27.357  34.840  1.00  0.00    -0.014 A 
ATOM     82  C   UNL A   1      45.561  26.410  35.858  1.00  0.00     0.010 A 
ATOM     83  C   UNL A   1      47.058  27.886  34.643  1.00  0.00     0.010 A 
ATOM     84  C   UNL A   1      46.616  26.019  36.685  1.00  0.00     0.020 A 
ATOM     85  C   UNL A   1      48.120  27.486  35.459  1.00  0.00     0.020 A 
ATOM     86  C   UNL A   1      47.888  26.566  36.484  1.00  0.00     0.054 A 
BRANCH  86  87
ATOM     87  S   UNL A   1      49.256  26.022  37.545  1.00  0.00     0.124 S 
ATOM     88  O   UNL A   1      48.725  24.787  38.115  1.00  0.00    -0.237 OA
ATOM     89  O   UNL A   1      50.356  25.855  36.597  1.00  0.00    -0.237 OA
ATOM     90  O   UNL A   1      49.419  27.127  38.488  1.00  0.00    -0.744 OA
ENDBRANCH  86  87
ENDBRANCH  60  81
ENDBRANCH  34  35
ENDBRANCH  27  29
ENDBRANCH  26  27
ENDBRANCH  25  26
ENDBRANCH   1  25
TORSDOF 20
ENDMDL
MODEL 2
REMARK VINA RESULT:      -9.7      4.695      9.813
REMARK SMILES COCCC(=O)N[C@@H](Cc1c[nH]c2ccccc12)C(=O)OCCOC(=O)c1ccc(-c2c3nc(c(-c4ccc(S(=O)(=O)[O-])cc4)c4ccc([nH]4)c(-c4ccc(S(=O)(=O)[O-])cc4)c4nc(c(-c5ccc(S(=O)(=O)[O-])cc5)c5ccc2[nH]5)C=C4)C=C3)cc1
REMARK SMILES IDX 22 1 21 2 19 3 20 4 8 5 7 6 5 7 6 8 4 10 3 11 2 12 1 13 9 14
REMARK SMILES IDX 10 15 11 16 18 17 12 18 13 19 17 20 14 22 16 23 15 24 23 25
REMARK SMILES IDX 24 26 25 27 26 28 27 29 28 30 86 31 29 32 85 33 30 34 31 35
REMARK SMILES IDX 32 36 79 37 33 38 84 39 78 40 80 41 34 42 83 43 77 44 76 45
REMARK SMILES IDX 35 47 65 48 46 49 64 50 47 51 50 52 63 53 81 54 48 55 49 56
REMARK SMILES IDX 62 58 82 59 51 60 36 61 37 62 45 63 38 64 44 65 39 66 40 67
REMARK SMILES IDX 41 68 42 69 43 70 66 71 67 72 75 73 68 74 74 75 69 76 70 77
REMARK SMILES IDX 71 78 72 79 73 80 52 81 53 82 61 83 54 84 60 85 55 86 56 87
REMARK SMILES IDX 57 88 58 89 59 90
REMARK H PARENT 7 9 12 21 80 46 50 57
REMARK Flexibility Score: inf
ROOT
ATOM      1  C   UNL A   1      41.541  20.223  26.053  1.00  0.00     0.274 C 
ENDROOT
BRANCH   1   2
ATOM      2  O   UNL A   1      42.560  21.010  26.694  1.00  0.00    -0.461 OA
BRANCH   2   3
ATOM      3  C   UNL A   1      43.451  21.629  25.872  1.00  0.00     0.329 C 
ATOM      4  O   UNL A   1      44.110  21.061  25.006  1.00  0.00    -0.250 OA
BRANCH   3   5
ATOM      5  C   UNL A   1      43.617  23.121  26.193  1.00  0.00     0.196 C 
BRANCH   5   6
ATOM      6  N   UNL A   1      44.766  23.430  27.059  1.00  0.00    -0.342 N 
ATOM      7  C   UNL A   1      44.834  23.664  28.397  1.00  0.00     0.223 C 
ATOM      8  O   UNL A   1      45.894  24.081  28.868  1.00  0.00    -0.275 OA
ATOM      9  H   UNL A   1      45.630  23.475  26.590  1.00  0.00     0.164 HD
BRANCH   7  10
ATOM     10  C   UNL A   1      43.625  23.460  29.278  1.00  0.00     0.128 C 
BRANCH  10  11
ATOM     11  C   UNL A   1      44.041  23.058  30.679  1.00  0.00     0.169 C 
BRANCH  11  12
ATOM     12  O   UNL A   1      44.196  24.236  31.474  1.00  0.00    -0.384 OA
ATOM     13  C   UNL A   1      44.353  23.928  32.852  1.00  0.00     0.194 C 
ENDBRANCH  11  12
ENDBRANCH  10  11
ENDBRANCH   7  10
ENDBRANCH   5   6
BRANCH   5  14
ATOM     14  C   UNL A   1      43.685  23.897  24.861  1.00  0.00     0.074 C 
BRANCH  14  15
ATOM     15  C   UNL A   1      44.223  25.294  25.009  1.00  0.00    -0.020 A 
ATOM     16  C   UNL A   1      43.476  26.449  25.145  1.00  0.00     0.087 A 
ATOM     17  C   UNL A   1      45.598  25.689  24.985  1.00  0.00     0.003 A 
ATOM     18  N   UNL A   1      44.334  27.514  25.161  1.00  0.00    -0.361 N 
ATOM     19  C   UNL A   1      45.634  27.082  25.040  1.00  0.00     0.046 A 
ATOM     20  C   UNL A   1      46.817  24.988  24.872  1.00  0.00     0.010 A 
ATOM     21  H   UNL A   1      44.061  28.456  25.249  1.00  0.00     0.166 HD
ATOM     22  C   UNL A   1      46.827  27.811  24.963  1.00  0.00     0.026 A 
ATOM     23  C   UNL A   1      48.016  25.701  24.786  1.00  0.00     0.001 A 
ATOM     24  C   UNL A   1      48.018  27.092  24.826  1.00  0.00     0.002 A 
ENDBRANCH  14  15
ENDBRANCH   5  14
ENDBRANCH   3   5
ENDBRANCH   2   3
ENDBRANCH   1   2
BRANCH   1  25
ATOM     25  C   UNL A   1      40.150  20.638  26.527  1.00  0.00     0.275 C 
BRANCH  25  26
ATOM     26  O   UNL A   1      40.149  21.995  27.005  1.00  0.00    -0.458 OA
BRANCH  26  27
ATOM     27  C   UNL A   1      39.271  22.807  26.372  1.00  0.00     0.338 C 
ATOM     28  O   UNL A   1      38.446  22.497  25.527  1.00  0.00    -0.246 OA
BRANCH  27  29
ATOM     29  C   UNL A   1      39.364  24.168  26.904  1.00  0.00     0.060 A 
ATOM     30  C   UNL A   1      40.075  25.114  26.167  1.00  0.00     0.016 A 
ATOM     31  C   UNL A   1      38.935  24.451  28.200  1.00  0.00     0.016 A 
ATOM     32  C   UNL A   1      40.461  26.309  26.762  1.00  0.00     0.010 A 
ATOM     33  C   UNL A   1      39.259  25.687  28.769  1.00  0.00     0.010 A 
ATOM     34  C   UNL A   1      40.065  26.606  28.073  1.00  0.00    -0.014 A 
BRANCH  34  35
ATOM     35  C   UNL A   1      40.544  27.848  28.737  1.00  0.00     0.031 A 
ATOM     36  C   UNL A   1      41.961  27.934  29.239  1.00  0.00     0.074 A 
ATOM     37  C   UNL A   1      39.719  28.905  28.874  1.00  0.00     0.049 A 
ATOM     38  N   UNL A   1      42.516  28.850  29.990  1.00  0.00    -0.248 NA
ATOM     39  C   UNL A   1      42.873  26.844  28.850  1.00  0.00     0.031 C 
ATOM     40  C   UNL A   1      38.343  28.979  28.380  1.00  0.00     0.029 A 
ATOM     41  N   UNL A   1      39.925  30.124  29.468  1.00  0.00    -0.354 N 
ATOM     42  C   UNL A   1      43.820  28.424  30.210  1.00  0.00     0.074 A 
ATOM     43  C   UNL A   1      43.980  27.170  29.506  1.00  0.00     0.031 C 
ATOM     44  C   UNL A   1      37.837  30.188  28.670  1.00  0.00     0.029 A 
ATOM     45  C   UNL A   1      38.824  30.945  29.431  1.00  0.00     0.049 A 
ATOM     46  H   UNL A   1      40.780  30.386  29.880  1.00  0.00     0.167 HD
ATOM     47  C   UNL A   1      44.795  29.019  30.939  1.00  0.00     0.031 A 
ATOM     48  C   UNL A   1      38.614  32.154  29.984  1.00  0.00     0.031 A 
ATOM     49  C   UNL A   1      44.645  30.283  31.610  1.00  0.00     0.049 A 
ATOM     50  C   UNL A   1      39.700  32.786  30.805  1.00  0.00     0.074 A 
ATOM     51  C   UNL A   1      45.565  30.960  32.391  1.00  0.00     0.029 A 
ATOM     52  N   UNL A   1      43.506  31.072  31.559  1.00  0.00    -0.354 N 
ATOM     53  N   UNL A   1      40.901  32.329  31.071  1.00  0.00    -0.248 NA
ATOM     54  C   UNL A   1      39.398  34.088  31.416  1.00  0.00     0.031 C 
ATOM     55  C   UNL A   1      44.975  32.151  32.831  1.00  0.00     0.029 A 
ATOM     56  C   UNL A   1      43.700  32.229  32.295  1.00  0.00     0.049 A 
ATOM     57  H   UNL A   1      42.682  30.844  31.073  1.00  0.00     0.167 HD
ATOM     58  C   UNL A   1      41.498  33.290  31.877  1.00  0.00     0.074 A 
ATOM     59  C   UNL A   1      40.535  34.361  32.039  1.00  0.00     0.031 C 
ATOM     60  C   UNL A   1      42.730  33.281  32.442  1.00  0.00     0.031 A 
BRANCH  47  61
ATOM     61  C   UNL A   1      46.099  28.286  31.087  1.00  0.00    -0.014 A 
ATOM     62  C   UNL A   1      46.277  27.301  32.073  1.00  0.00     0.010 A 
ATOM     63  C   UNL A   1      47.153  28.566  30.196  1.00  0.00     0.010 A 
ATOM     64  C   UNL A   1      47.497  26.628  32.186  1.00  0.00     0.020 A 
ATOM     65  C   UNL A   1      48.367  27.882  30.295  1.00  0.00     0.020 A 
ATOM     66  C   UNL A   1      48.538  26.927  31.300  1.00  0.00     0.054 A 
BRANCH  66  67
ATOM     67  S   UNL A   1      50.107  26.028  31.447  1.00  0.00     0.124 S 
ATOM     68  O   UNL A   1      49.983  25.032  30.386  1.00  0.00    -0.237 OA
ATOM     69  O   UNL A   1      51.103  27.071  31.215  1.00  0.00    -0.237 OA
ATOM     70  O   UNL A   1      50.073  25.497  32.807  1.00  0.00    -0.744 OA
ENDBRANCH  66  67
ENDBRANCH  47  61
BRANCH  48  71
ATOM     71  C   UNL A   1      37.296  32.822  29.820  1.00  0.00    -0.014 A 
ATOM     72  C   UNL A   1      36.263  32.603  30.747  1.00  0.00     0.010 A 
ATOM     73  C   UNL A   1      37.078  33.700  28.743  1.00  0.00     0.010 A 
ATOM     74  C   UNL A   1      35.031  33.244  30.594  1.00  0.00     0.020 A 
ATOM     75  C   UNL A   1      35.855  34.360  28.600  1.00  0.00     0.020 A 
ATOM     76  C   UNL A   1      34.834  34.118  29.521  1.00  0.00     0.054 A 
BRANCH  76  77
ATOM     77  S   UNL A   1      33.253  34.995  29.369  1.00  0.00     0.124 S 
ATOM     78  O   UNL A   1      33.679  36.304  28.885  1.00  0.00    -0.237 OA
ATOM     79  O   UNL A   1      32.519  34.174  28.409  1.00  0.00    -0.237 OA
ATOM     80  O   UNL A   1      32.722  34.970  30.730  1.00  0.00    -0.744 OA
ENDBRANCH  76  77
ENDBRANCH  48  71
BRANCH  60  81
ATOM     81  C   UNL A   1      43.110  34.478  33.266  1.00  0.00    -0.014 A 
ATOM     82  C   UNL A   1      43.059  34.432  34.670  1.00  0.00     0.010 A 
ATOM     83  C   UNL A   1      43.558  35.648  32.628  1.00  0.00     0.010 A 
ATOM     84  C   UNL A   1      43.424  35.550  35.424  1.00  0.00     0.020 A 
ATOM     85  C   UNL A   1      43.939  36.762  33.379  1.00  0.00     0.020 A 
ATOM     86  C   UNL A   1      43.855  36.710  34.773  1.00  0.00     0.054 A 
BRANCH  86  87
ATOM     87  S   UNL A   1      44.359  38.141  35.769  1.00  0.00     0.124 S 
ATOM     88  O   UNL A   1      43.576  37.953  36.987  1.00  0.00    -0.237 OA
ATOM     89  O   UNL A   1      45.800  37.948  35.911  1.00  0.00    -0.237 OA
ATOM     90  O   UNL A   1      43.969  39.285  34.946  1.00  0.00    -0.744 OA
ENDBRANCH  86  87
ENDBRANCH  60  81
ENDBRANCH  34  35
ENDBRANCH  27  29
ENDBRANCH  26  27
ENDBRANCH  25  26
ENDBRANCH   1  25
TORSDOF 20
ENDMDL
MODEL 3
REMARK VINA RESULT:      -9.5      5.755     10.717
REMARK SMILES COCCC(=O)N[C@@H](Cc1c[nH]c2ccccc12)C(=O)OCCOC(=O)c1ccc(-c2c3nc(c(-c4ccc(S(=O)(=O)[O-])cc4)c4ccc([nH]4)c(-c4ccc(S(=O)(=O)[O-])cc4)c4nc(c(-c5ccc(S(=O)(=O)[O-])cc5)c5ccc2[nH]5)C=C4)C=C3)cc1
REMARK SMILES IDX 22 1 21 2 19 3 20 4 8 5 7 6 5 7 6 8 4 10 3 11 2 12 1 13 9 14
REMARK SMILES IDX 10 15 11 16 18 17 12 18 13 19 17 20 14 22 16 23 15 24 23 25
REMARK SMILES IDX 24 26 25 27 26 28 27 29 28 30 86 31 29 32 85 33 30 34 31 35
REMARK SMILES IDX 32 36 79 37 33 38 84 39 78 40 80 41 34 42 83 43 77 44 76 45
REMARK SMILES IDX 35 47 65 48 46 49 64 50 47 51 50 52 63 53 81 54 48 55 49 56
REMARK SMILES IDX 62 58 82 59 51 60 36 61 37 62 45 63 38 64 44 65 39 66 40 67
REMARK SMILES IDX 41 68 42 69 43 70 66 71 67 72 75 73 68 74 74 75 69 76 70 77
REMARK SMILES IDX 71 78 72 79 73 80 52 81 53 82 61 83 54 84 60 85 55 86 56 87
REMARK SMILES IDX 57 88 58 89 59 90
REMARK H PARENT 7 9 12 21 80 46 50 57
REMARK Flexibility Score: inf
ROOT
ATOM      1  C   UNL A   1      38.873  20.904  26.197  1.00  0.00     0.274 C 
ENDROOT
BRANCH   1   2
ATOM      2  O   UNL A   1      38.043  21.496  25.183  1.00  0.00    -0.461 OA
BRANCH   2   3
ATOM      3  C   UNL A   1      37.216  22.498  25.588  1.00  0.00     0.329 C 
ATOM      4  O   UNL A   1      37.579  23.489  26.215  1.00  0.00    -0.250 OA
BRANCH   3   5
ATOM      5  C   UNL A   1      35.744  22.225  25.252  1.00  0.00     0.196 C 
BRANCH   5   6
ATOM      6  N   UNL A   1      35.114  23.252  24.407  1.00  0.00    -0.342 N 
ATOM      7  C   UNL A   1      34.178  24.194  24.701  1.00  0.00     0.223 C 
ATOM      8  O   UNL A   1      33.673  24.830  23.773  1.00  0.00    -0.275 OA
ATOM      9  H   UNL A   1      35.423  23.259  23.473  1.00  0.00     0.164 HD
BRANCH   7  10
ATOM     10  C   UNL A   1      33.735  24.423  26.126  1.00  0.00     0.128 C 
BRANCH  10  11
ATOM     11  C   UNL A   1      32.227  24.566  26.206  1.00  0.00     0.169 C 
BRANCH  11  12
ATOM     12  O   UNL A   1      31.629  23.280  26.027  1.00  0.00    -0.384 OA
ATOM     13  C   UNL A   1      30.366  23.189  26.671  1.00  0.00     0.194 C 
ENDBRANCH  11  12
ENDBRANCH  10  11
ENDBRANCH   7  10
ENDBRANCH   5   6
BRANCH   5  14
ATOM     14  C   UNL A   1      35.647  20.825  24.609  1.00  0.00     0.074 C 
BRANCH  14  15
ATOM     15  C   UNL A   1      34.441  20.045  25.054  1.00  0.00    -0.020 A 
ATOM     16  C   UNL A   1      33.444  20.490  25.901  1.00  0.00     0.087 A 
ATOM     17  C   UNL A   1      34.132  18.686  24.727  1.00  0.00     0.003 A 
ATOM     18  N   UNL A   1      32.579  19.454  26.127  1.00  0.00    -0.361 N 
ATOM     19  C   UNL A   1      32.989  18.333  25.443  1.00  0.00     0.046 A 
ATOM     20  C   UNL A   1      34.751  17.707  23.922  1.00  0.00     0.010 A 
ATOM     21  H   UNL A   1      31.777  19.504  26.696  1.00  0.00     0.166 HD
ATOM     22  C   UNL A   1      32.447  17.043  25.414  1.00  0.00     0.026 A 
ATOM     23  C   UNL A   1      34.227  16.412  23.887  1.00  0.00     0.001 A 
ATOM     24  C   UNL A   1      33.094  16.085  24.627  1.00  0.00     0.002 A 
ENDBRANCH  14  15
ENDBRANCH   5  14
ENDBRANCH   3   5
ENDBRANCH   2   3
ENDBRANCH   1   2
BRANCH   1  25
ATOM     25  C   UNL A   1      39.800  19.848  25.598  1.00  0.00     0.275 C 
BRANCH  25  26
ATOM     26  O   UNL A   1      40.865  19.517  26.507  1.00  0.00    -0.458 OA
BRANCH  26  27
ATOM     27  C   UNL A   1      42.089  19.924  26.101  1.00  0.00     0.338 C 
ATOM     28  O   UNL A   1      42.901  19.297  25.439  1.00  0.00    -0.246 OA
BRANCH  27  29
ATOM     29  C   UNL A   1      42.318  21.316  26.494  1.00  0.00     0.060 A 
ATOM     30  C   UNL A   1      42.443  22.271  25.485  1.00  0.00     0.016 A 
ATOM     31  C   UNL A   1      42.609  21.638  27.818  1.00  0.00     0.016 A 
ATOM     32  C   UNL A   1      42.970  23.524  25.777  1.00  0.00     0.010 A 
ATOM     33  C   UNL A   1      43.065  22.925  28.121  1.00  0.00     0.010 A 
ATOM     34  C   UNL A   1      43.295  23.863  27.098  1.00  0.00    -0.014 A 
BRANCH  34  35
ATOM     35  C   UNL A   1      43.931  25.172  27.400  1.00  0.00     0.031 A 
ATOM     36  C   UNL A   1      43.103  26.299  27.959  1.00  0.00     0.074 A 
ATOM     37  C   UNL A   1      45.251  25.349  27.194  1.00  0.00     0.049 A 
ATOM     38  N   UNL A   1      43.426  27.556  28.125  1.00  0.00    -0.248 NA
ATOM     39  C   UNL A   1      41.730  25.972  28.380  1.00  0.00     0.031 C 
ATOM     40  C   UNL A   1      46.181  24.325  26.715  1.00  0.00     0.029 A 
ATOM     41  N   UNL A   1      46.039  26.458  27.368  1.00  0.00    -0.354 N 
ATOM     42  C   UNL A   1      42.286  28.181  28.617  1.00  0.00     0.074 A 
ATOM     43  C   UNL A   1      41.263  27.163  28.731  1.00  0.00     0.031 C 
ATOM     44  C   UNL A   1      47.417  24.847  26.657  1.00  0.00     0.029 A 
ATOM     45  C   UNL A   1      47.354  26.257  27.022  1.00  0.00     0.049 A 
ATOM     46  H   UNL A   1      45.696  27.316  27.708  1.00  0.00     0.167 HD
ATOM     47  C   UNL A   1      42.104  29.484  28.936  1.00  0.00     0.031 A 
ATOM     48  C   UNL A   1      48.386  27.119  26.965  1.00  0.00     0.031 A 
ATOM     49  C   UNL A   1      43.133  30.488  28.855  1.00  0.00     0.049 A 
ATOM     50  C   UNL A   1      48.158  28.563  27.304  1.00  0.00     0.074 A 
ATOM     51  C   UNL A   1      43.044  31.840  29.136  1.00  0.00     0.029 A 
ATOM     52  N   UNL A   1      44.446  30.241  28.485  1.00  0.00    -0.354 N 
ATOM     53  N   UNL A   1      47.051  29.152  27.689  1.00  0.00    -0.248 NA
ATOM     54  C   UNL A   1      49.314  29.463  27.184  1.00  0.00     0.031 C 
ATOM     55  C   UNL A   1      44.301  32.417  28.915  1.00  0.00     0.029 A 
ATOM     56  C   UNL A   1      45.177  31.416  28.529  1.00  0.00     0.049 A 
ATOM     57  H   UNL A   1      44.805  29.362  28.227  1.00  0.00     0.167 HD
ATOM     58  C   UNL A   1      47.378  30.492  27.859  1.00  0.00     0.074 A 
ATOM     59  C   UNL A   1      48.790  30.622  27.557  1.00  0.00     0.031 C 
ATOM     60  C   UNL A   1      46.579  31.523  28.225  1.00  0.00     0.031 A 
BRANCH  47  61
ATOM     61  C   UNL A   1      40.727  29.911  29.364  1.00  0.00    -0.014 A 
ATOM     62  C   UNL A   1      39.653  29.924  28.458  1.00  0.00     0.010 A 
ATOM     63  C   UNL A   1      40.500  30.270  30.706  1.00  0.00     0.010 A 
ATOM     64  C   UNL A   1      38.379  30.319  28.881  1.00  0.00     0.020 A 
ATOM     65  C   UNL A   1      39.226  30.647  31.135  1.00  0.00     0.020 A 
ATOM     66  C   UNL A   1      38.175  30.684  30.216  1.00  0.00     0.054 A 
BRANCH  66  67
ATOM     67  S   UNL A   1      36.511  31.171  30.751  1.00  0.00     0.124 S 
ATOM     68  O   UNL A   1      36.805  32.115  31.825  1.00  0.00    -0.237 OA
ATOM     69  O   UNL A   1      35.939  31.757  29.541  1.00  0.00    -0.237 OA
ATOM     70  O   UNL A   1      35.904  29.912  31.175  1.00  0.00    -0.744 OA
ENDBRANCH  66  67
ENDBRANCH  47  61
BRANCH  48  71
ATOM     71  C   UNL A   1      49.721  26.642  26.517  1.00  0.00    -0.014 A 
ATOM     72  C   UNL A   1      50.653  26.147  27.446  1.00  0.00     0.010 A 
ATOM     73  C   UNL A   1      50.055  26.660  25.151  1.00  0.00     0.010 A 
ATOM     74  C   UNL A   1      51.901  25.688  27.016  1.00  0.00     0.020 A 
ATOM     75  C   UNL A   1      51.293  26.181  24.716  1.00  0.00     0.020 A 
ATOM     76  C   UNL A   1      52.213  25.708  25.653  1.00  0.00     0.054 A 
BRANCH  76  77
ATOM     77  S   UNL A   1      53.811  25.049  25.099  1.00  0.00     0.124 S 
ATOM     78  O   UNL A   1      54.612  25.138  26.316  1.00  0.00    -0.237 OA
ATOM     79  O   UNL A   1      53.470  23.697  24.664  1.00  0.00    -0.237 OA
ATOM     80  O   UNL A   1      54.196  25.961  24.024  1.00  0.00    -0.744 OA
ENDBRANCH  76  77
ENDBRANCH  48  71
BRANCH  60  81
ATOM     81  C   UNL A   1      47.223  32.875  28.339  1.00  0.00    -0.014 A 
ATOM     82  C   UNL A   1      47.246  33.757  27.244  1.00  0.00     0.010 A 
ATOM     83  C   UNL A   1      47.776  33.282  29.566  1.00  0.00     0.010 A 
ATOM     84  C   UNL A   1      47.839  35.016  27.367  1.00  0.00     0.020 A 
ATOM     85  C   UNL A   1      48.356  34.546  29.697  1.00  0.00     0.020 A 
ATOM     86  C   UNL A   1      48.397  35.399  28.591  1.00  0.00     0.054 A 
BRANCH  86  87
ATOM     87  S   UNL A   1      49.133  37.051  28.743  1.00  0.00     0.124 S 
ATOM     88  O   UNL A   1      48.632  37.486  30.044  1.00  0.00    -0.237 OA
ATOM     89  O   UNL A   1      50.567  36.775  28.681  1.00  0.00    -0.237 OA
ATOM     90  O   UNL A   1      48.596  37.773  27.592  1.00  0.00    -0.744 OA
ENDBRANCH  86  87
ENDBRANCH  60  81
ENDBRANCH  34  35
ENDBRANCH  27  29
ENDBRANCH  26  27
ENDBRANCH  25  26
ENDBRANCH   1  25
TORSDOF 20
ENDMDL
