MODEL 1
REMARK VINA RESULT:     -10.1      0.000      0.000
REMARK SMILES C[C@@H]1C[N@@H+](C[C@]2(C(=O)OCCOC(=O)c3ccc(-c4c5nc(c(-c6ccc(S(=O)(=O)[O-])cc6)c6ccc([nH]6)c(-c6ccc(S(=O)(=O)[O-])cc6)c6nc(c(-c7ccc(S(=O)(=O)[O-])cc7)c7ccc4[nH]7)C=C6)C=C5)cc3)CCOC2)C[C@@H]1C
REMARK SMILES IDX 11 1 10 2 9 3 7 4 8 5 6 6 75 7 78 8 76 9 77 10 5 11 4 12
REMARK SMILES IDX 1 13 2 14 3 15 80 16 79 17 81 18 12 20 13 21 14 22 15 23
REMARK SMILES IDX 16 24 74 25 17 26 73 27 18 28 19 29 20 30 67 31 21 32 72 33
REMARK SMILES IDX 66 34 68 35 22 36 71 37 65 38 64 39 23 41 53 42 34 43 52 44
REMARK SMILES IDX 35 45 38 46 51 47 69 48 36 49 37 50 50 52 70 53 39 54 24 55
REMARK SMILES IDX 25 56 33 57 26 58 32 59 27 60 28 61 29 62 30 63 31 64 54 65
REMARK SMILES IDX 55 66 63 67 56 68 62 69 57 70 58 71 59 72 60 73 61 74 40 75
REMARK SMILES IDX 41 76 49 77 42 78 48 79 43 80 44 81 45 82 46 83 47 84
REMARK H PARENT 4 19 68 40 38 51
REMARK Flexibility Score: inf
ROOT
ATOM      1  C   UNL A   1      33.170  29.765  26.606  1.00  0.00     0.275 C 
ENDROOT
BRANCH   1   2
ATOM      2  C   UNL A   1      32.140  28.654  26.404  1.00  0.00     0.274 C 
BRANCH   2   3
ATOM      3  O   UNL A   1      32.743  27.537  25.715  1.00  0.00    -0.461 OA
BRANCH   3   4
ATOM      4  C   UNL A   1      31.949  26.444  25.542  1.00  0.00     0.320 C 
ATOM      5  O   UNL A   1      31.132  26.048  26.365  1.00  0.00    -0.251 OA
BRANCH   4   6
ATOM      6  C   UNL A   1      32.219  25.722  24.223  1.00  0.00     0.142 C 
ATOM      7  C   UNL A   1      33.722  25.719  23.973  1.00  0.00     0.055 C 
ATOM      8  C   UNL A   1      31.945  24.230  24.356  1.00  0.00     0.185 C 
ATOM      9  C   UNL A   1      34.047  24.365  23.384  1.00  0.00     0.161 C 
ATOM     10  O   UNL A   1      32.888  23.541  23.529  1.00  0.00    -0.380 OA
BRANCH   6  11
ATOM     11  C   UNL A   1      31.376  26.471  23.155  1.00  0.00     0.283 C 
BRANCH  11  12
ATOM     12  N   UNL A   1      30.562  27.641  23.444  1.00  0.00    -0.333 N 
ATOM     13  C   UNL A   1      27.127  28.979  23.029  1.00  0.00     0.014 C 
ATOM     14  C   UNL A   1      28.548  28.580  22.676  1.00  0.00     0.049 C 
ATOM     15  C   UNL A   1      29.126  27.520  23.605  1.00  0.00     0.265 C 
ATOM     16  C   UNL A   1      29.605  29.693  22.674  1.00  0.00     0.049 C 
ATOM     17  C   UNL A   1      30.922  28.933  22.883  1.00  0.00     0.265 C 
ATOM     18  C   UNL A   1      29.412  30.770  23.734  1.00  0.00     0.014 C 
ATOM     19  H   UNL A   1      30.928  27.638  24.395  1.00  0.00     0.348 HD
ENDBRANCH  11  12
ENDBRANCH   6  11
ENDBRANCH   4   6
ENDBRANCH   3   4
ENDBRANCH   2   3
ENDBRANCH   1   2
BRANCH   1  20
ATOM     20  O   UNL A   1      33.583  29.783  27.983  1.00  0.00    -0.458 OA
BRANCH  20  21
ATOM     21  C   UNL A   1      34.473  30.745  28.328  1.00  0.00     0.338 C 
ATOM     22  O   UNL A   1      34.215  31.916  28.550  1.00  0.00    -0.246 OA
BRANCH  21  23
ATOM     23  C   UNL A   1      35.837  30.164  28.453  1.00  0.00     0.060 A 
ATOM     24  C   UNL A   1      36.310  29.682  29.671  1.00  0.00     0.016 A 
ATOM     25  C   UNL A   1      36.697  30.177  27.354  1.00  0.00     0.016 A 
ATOM     26  C   UNL A   1      37.660  29.352  29.829  1.00  0.00     0.010 A 
ATOM     27  C   UNL A   1      38.014  29.709  27.484  1.00  0.00     0.010 A 
ATOM     28  C   UNL A   1      38.535  29.328  28.735  1.00  0.00    -0.014 A 
BRANCH  28  29
ATOM     29  C   UNL A   1      39.975  28.929  28.877  1.00  0.00     0.031 A 
ATOM     30  C   UNL A   1      41.004  29.939  29.334  1.00  0.00     0.074 A 
ATOM     31  C   UNL A   1      40.400  27.681  28.578  1.00  0.00     0.049 A 
ATOM     32  N   UNL A   1      42.309  29.903  29.219  1.00  0.00    -0.248 NA
ATOM     33  C   UNL A   1      40.496  31.159  29.982  1.00  0.00     0.031 C 
ATOM     34  C   UNL A   1      39.553  26.556  28.174  1.00  0.00     0.029 A 
ATOM     35  N   UNL A   1      41.670  27.148  28.566  1.00  0.00    -0.354 N 
ATOM     36  C   UNL A   1      42.766  31.134  29.682  1.00  0.00     0.074 A 
ATOM     37  C   UNL A   1      41.600  31.883  30.101  1.00  0.00     0.031 C 
ATOM     38  C   UNL A   1      40.312  25.463  28.012  1.00  0.00     0.029 A 
ATOM     39  C   UNL A   1      41.713  25.831  28.171  1.00  0.00     0.049 A 
ATOM     40  H   UNL A   1      42.471  27.662  28.818  1.00  0.00     0.167 HD
ATOM     41  C   UNL A   1      44.037  31.605  29.735  1.00  0.00     0.031 A 
ATOM     42  C   UNL A   1      42.749  25.014  27.895  1.00  0.00     0.031 A 
ATOM     43  C   UNL A   1      45.205  30.832  29.396  1.00  0.00     0.049 A 
ATOM     44  C   UNL A   1      44.150  25.545  27.961  1.00  0.00     0.074 A 
ATOM     45  C   UNL A   1      46.535  31.217  29.435  1.00  0.00     0.029 A 
ATOM     46  N   UNL A   1      45.187  29.508  28.986  1.00  0.00    -0.354 N 
ATOM     47  N   UNL A   1      44.557  26.747  28.286  1.00  0.00    -0.248 NA
ATOM     48  C   UNL A   1      45.228  24.617  27.593  1.00  0.00     0.031 C 
ATOM     49  C   UNL A   1      47.319  30.133  29.022  1.00  0.00     0.029 A 
ATOM     50  C   UNL A   1      46.479  29.061  28.767  1.00  0.00     0.049 A 
ATOM     51  H   UNL A   1      44.374  28.965  28.869  1.00  0.00     0.167 HD
ATOM     52  C   UNL A   1      45.942  26.722  28.158  1.00  0.00     0.074 A 
ATOM     53  C   UNL A   1      46.303  25.380  27.750  1.00  0.00     0.031 C 
ATOM     54  C   UNL A   1      46.830  27.727  28.354  1.00  0.00     0.031 A 
BRANCH  41  55
ATOM     55  C   UNL A   1      44.231  33.050  30.120  1.00  0.00    -0.014 A 
ATOM     56  C   UNL A   1      44.460  33.443  31.448  1.00  0.00     0.010 A 
ATOM     57  C   UNL A   1      44.209  34.032  29.111  1.00  0.00     0.010 A 
ATOM     58  C   UNL A   1      44.613  34.796  31.769  1.00  0.00     0.020 A 
ATOM     59  C   UNL A   1      44.387  35.382  29.422  1.00  0.00     0.020 A 
ATOM     60  C   UNL A   1      44.566  35.758  30.754  1.00  0.00     0.054 A 
BRANCH  60  61
ATOM     61  S   UNL A   1      44.768  37.508  31.190  1.00  0.00     0.124 S 
ATOM     62  O   UNL A   1      46.211  37.685  31.055  1.00  0.00    -0.237 OA
ATOM     63  O   UNL A   1      43.957  38.190  30.184  1.00  0.00    -0.237 OA
ATOM     64  O   UNL A   1      44.255  37.586  32.556  1.00  0.00    -0.744 OA
ENDBRANCH  60  61
ENDBRANCH  41  55
BRANCH  42  65
ATOM     65  C   UNL A   1      42.478  23.617  27.457  1.00  0.00    -0.014 A 
ATOM     66  C   UNL A   1      42.320  23.315  26.094  1.00  0.00     0.010 A 
ATOM     67  C   UNL A   1      42.446  22.572  28.400  1.00  0.00     0.010 A 
ATOM     68  C   UNL A   1      42.157  21.990  25.680  1.00  0.00     0.020 A 
ATOM     69  C   UNL A   1      42.312  21.245  27.987  1.00  0.00     0.020 A 
ATOM     70  C   UNL A   1      42.166  20.962  26.628  1.00  0.00     0.054 A 
BRANCH  70  71
ATOM     71  S   UNL A   1      42.076  19.240  26.062  1.00  0.00     0.124 S 
ATOM     72  O   UNL A   1      43.033  19.232  24.960  1.00  0.00    -0.237 OA
ATOM     73  O   UNL A   1      42.474  18.491  27.251  1.00  0.00    -0.237 OA
ATOM     74  O   UNL A   1      40.674  19.083  25.678  1.00  0.00    -0.744 OA
ENDBRANCH  70  71
ENDBRANCH  42  65
BRANCH  54  75
ATOM     75  C   UNL A   1      48.284  27.407  28.152  1.00  0.00    -0.014 A 
ATOM     76  C   UNL A   1      49.050  26.836  29.184  1.00  0.00     0.010 A 
ATOM     77  C   UNL A   1      48.881  27.646  26.902  1.00  0.00     0.010 A 
ATOM     78  C   UNL A   1      50.400  26.537  28.977  1.00  0.00     0.020 A 
ATOM     79  C   UNL A   1      50.226  27.330  26.686  1.00  0.00     0.020 A 
ATOM     80  C   UNL A   1      50.980  26.790  27.729  1.00  0.00     0.054 A 
BRANCH  80  81
ATOM     81  S   UNL A   1      52.724  26.363  27.470  1.00  0.00     0.124 S 
ATOM     82  O   UNL A   1      53.190  27.478  26.649  1.00  0.00    -0.237 OA
ATOM     83  O   UNL A   1      53.253  26.321  28.830  1.00  0.00    -0.237 OA
ATOM     84  O   UNL A   1      52.665  25.071  26.789  1.00  0.00    -0.744 OA
ENDBRANCH  80  81
ENDBRANCH  54  75
ENDBRANCH  28  29
ENDBRANCH  21  23
ENDBRANCH  20  21
ENDBRANCH   1  20
TORSDOF 16
ENDMDL
MODEL 2
REMARK VINA RESULT:      -9.9      1.198      2.591
REMARK SMILES C[C@@H]1C[N@@H+](C[C@]2(C(=O)OCCOC(=O)c3ccc(-c4c5nc(c(-c6ccc(S(=O)(=O)[O-])cc6)c6ccc([nH]6)c(-c6ccc(S(=O)(=O)[O-])cc6)c6nc(c(-c7ccc(S(=O)(=O)[O-])cc7)c7ccc4[nH]7)C=C6)C=C5)cc3)CCOC2)C[C@@H]1C
REMARK SMILES IDX 11 1 10 2 9 3 7 4 8 5 6 6 75 7 78 8 76 9 77 10 5 11 4 12
REMARK SMILES IDX 1 13 2 14 3 15 80 16 79 17 81 18 12 20 13 21 14 22 15 23
REMARK SMILES IDX 16 24 74 25 17 26 73 27 18 28 19 29 20 30 67 31 21 32 72 33
REMARK SMILES IDX 66 34 68 35 22 36 71 37 65 38 64 39 23 41 53 42 34 43 52 44
REMARK SMILES IDX 35 45 38 46 51 47 69 48 36 49 37 50 50 52 70 53 39 54 24 55
REMARK SMILES IDX 25 56 33 57 26 58 32 59 27 60 28 61 29 62 30 63 31 64 54 65
REMARK SMILES IDX 55 66 63 67 56 68 62 69 57 70 58 71 59 72 60 73 61 74 40 75
REMARK SMILES IDX 41 76 49 77 42 78 48 79 43 80 44 81 45 82 46 83 47 84
REMARK H PARENT 4 19 68 40 38 51
REMARK Flexibility Score: inf
ROOT
ATOM      1  C   UNL A   1      32.833  30.846  26.982  1.00  0.00     0.275 C 
ENDROOT
BRANCH   1   2
ATOM      2  C   UNL A   1      31.750  29.801  26.719  1.00  0.00     0.274 C 
BRANCH   2   3
ATOM      3  O   UNL A   1      32.326  28.635  26.091  1.00  0.00    -0.461 OA
BRANCH   3   4
ATOM      4  C   UNL A   1      31.654  27.464  26.277  1.00  0.00     0.320 C 
ATOM      5  O   UNL A   1      31.064  27.165  27.309  1.00  0.00    -0.251 OA
BRANCH   4   6
ATOM      6  C   UNL A   1      31.755  26.530  25.073  1.00  0.00     0.142 C 
ATOM      7  C   UNL A   1      30.566  26.792  24.157  1.00  0.00     0.055 C 
ATOM      8  C   UNL A   1      32.911  26.935  24.168  1.00  0.00     0.185 C 
ATOM      9  C   UNL A   1      31.095  26.699  22.744  1.00  0.00     0.161 C 
ATOM     10  O   UNL A   1      32.522  26.660  22.819  1.00  0.00    -0.380 OA
BRANCH   6  11
ATOM     11  C   UNL A   1      31.829  25.094  25.661  1.00  0.00     0.283 C 
BRANCH  11  12
ATOM     12  N   UNL A   1      32.602  24.016  25.064  1.00  0.00    -0.333 N 
ATOM     13  C   UNL A   1      32.232  20.960  22.995  1.00  0.00     0.014 C 
ATOM     14  C   UNL A   1      32.198  21.862  24.215  1.00  0.00     0.049 C 
ATOM     15  C   UNL A   1      32.131  23.344  23.869  1.00  0.00     0.265 C 
ATOM     16  C   UNL A   1      33.377  21.758  25.192  1.00  0.00     0.049 C 
ATOM     17  C   UNL A   1      33.363  23.113  25.912  1.00  0.00     0.265 C 
ATOM     18  C   UNL A   1      34.730  21.486  24.546  1.00  0.00     0.014 C 
ATOM     19  H   UNL A   1      33.269  24.708  24.724  1.00  0.00     0.348 HD
ENDBRANCH  11  12
ENDBRANCH   6  11
ENDBRANCH   4   6
ENDBRANCH   3   4
ENDBRANCH   2   3
ENDBRANCH   1   2
BRANCH   1  20
ATOM     20  O   UNL A   1      34.042  30.182  27.388  1.00  0.00    -0.458 OA
BRANCH  20  21
ATOM     21  C   UNL A   1      34.728  30.758  28.405  1.00  0.00     0.338 C 
ATOM     22  O   UNL A   1      34.304  31.612  29.165  1.00  0.00    -0.246 OA
BRANCH  21  23
ATOM     23  C   UNL A   1      36.089  30.166  28.508  1.00  0.00     0.060 A 
ATOM     24  C   UNL A   1      36.564  29.649  29.711  1.00  0.00     0.016 A 
ATOM     25  C   UNL A   1      36.945  30.203  27.407  1.00  0.00     0.016 A 
ATOM     26  C   UNL A   1      37.913  29.307  29.856  1.00  0.00     0.010 A 
ATOM     27  C   UNL A   1      38.259  29.724  27.520  1.00  0.00     0.010 A 
ATOM     28  C   UNL A   1      38.783  29.306  28.757  1.00  0.00    -0.014 A 
BRANCH  28  29
ATOM     29  C   UNL A   1      40.221  28.895  28.883  1.00  0.00     0.031 A 
ATOM     30  C   UNL A   1      41.261  29.891  29.347  1.00  0.00     0.074 A 
ATOM     31  C   UNL A   1      40.634  27.649  28.563  1.00  0.00     0.049 A 
ATOM     32  N   UNL A   1      42.564  29.848  29.222  1.00  0.00    -0.248 NA
ATOM     33  C   UNL A   1      40.767  31.106  30.015  1.00  0.00     0.031 C 
ATOM     34  C   UNL A   1      39.777  26.536  28.150  1.00  0.00     0.029 A 
ATOM     35  N   UNL A   1      41.901  27.107  28.535  1.00  0.00    -0.354 N 
ATOM     36  C   UNL A   1      43.034  31.069  29.698  1.00  0.00     0.074 A 
ATOM     37  C   UNL A   1      41.877  31.820  30.136  1.00  0.00     0.031 C 
ATOM     38  C   UNL A   1      40.526  25.440  27.967  1.00  0.00     0.029 A 
ATOM     39  C   UNL A   1      41.931  25.795  28.121  1.00  0.00     0.049 A 
ATOM     40  H   UNL A   1      42.707  27.611  28.788  1.00  0.00     0.167 HD
ATOM     41  C   UNL A   1      44.309  31.529  29.748  1.00  0.00     0.031 A 
ATOM     42  C   UNL A   1      42.959  24.975  27.825  1.00  0.00     0.031 A 
ATOM     43  C   UNL A   1      45.468  30.753  29.389  1.00  0.00     0.049 A 
ATOM     44  C   UNL A   1      44.364  25.495  27.888  1.00  0.00     0.074 A 
ATOM     45  C   UNL A   1      46.801  31.128  29.424  1.00  0.00     0.029 A 
ATOM     46  N   UNL A   1      45.438  29.435  28.961  1.00  0.00    -0.354 N 
ATOM     47  N   UNL A   1      44.783  26.689  28.227  1.00  0.00    -0.248 NA
ATOM     48  C   UNL A   1      45.433  24.564  27.499  1.00  0.00     0.031 C 
ATOM     49  C   UNL A   1      47.574  30.044  28.990  1.00  0.00     0.029 A 
ATOM     50  C   UNL A   1      46.725  28.982  28.726  1.00  0.00     0.049 A 
ATOM     51  H   UNL A   1      44.620  28.899  28.842  1.00  0.00     0.167 HD
ATOM     52  C   UNL A   1      46.166  26.656  28.089  1.00  0.00     0.074 A 
ATOM     53  C   UNL A   1      46.514  25.317  27.659  1.00  0.00     0.031 C 
ATOM     54  C   UNL A   1      47.063  27.652  28.292  1.00  0.00     0.031 A 
BRANCH  41  55
ATOM     55  C   UNL A   1      44.516  32.967  30.152  1.00  0.00    -0.014 A 
ATOM     56  C   UNL A   1      44.796  33.336  31.478  1.00  0.00     0.010 A 
ATOM     57  C   UNL A   1      44.454  33.968  29.163  1.00  0.00     0.010 A 
ATOM     58  C   UNL A   1      44.960  34.683  31.817  1.00  0.00     0.020 A 
ATOM     59  C   UNL A   1      44.644  35.313  29.492  1.00  0.00     0.020 A 
ATOM     60  C   UNL A   1      44.873  35.664  30.823  1.00  0.00     0.054 A 
BRANCH  60  61
ATOM     61  S   UNL A   1      45.090  37.406  31.283  1.00  0.00     0.124 S 
ATOM     62  O   UNL A   1      44.953  38.075  29.992  1.00  0.00    -0.237 OA
ATOM     63  O   UNL A   1      43.998  37.633  32.226  1.00  0.00    -0.237 OA
ATOM     64  O   UNL A   1      46.430  37.445  31.866  1.00  0.00    -0.744 OA
ENDBRANCH  60  61
ENDBRANCH  41  55
BRANCH  42  65
ATOM     65  C   UNL A   1      42.674  23.586  27.370  1.00  0.00    -0.014 A 
ATOM     66  C   UNL A   1      42.749  23.253  26.007  1.00  0.00     0.010 A 
ATOM     67  C   UNL A   1      42.396  22.575  28.309  1.00  0.00     0.010 A 
ATOM     68  C   UNL A   1      42.571  21.930  25.593  1.00  0.00     0.020 A 
ATOM     69  C   UNL A   1      42.246  21.248  27.902  1.00  0.00     0.020 A 
ATOM     70  C   UNL A   1      42.333  20.933  26.545  1.00  0.00     0.054 A 
BRANCH  70  71
ATOM     71  S   UNL A   1      42.226  19.205  26.003  1.00  0.00     0.124 S 
ATOM     72  O   UNL A   1      43.133  19.188  24.860  1.00  0.00    -0.237 OA
ATOM     73  O   UNL A   1      42.680  18.471  27.182  1.00  0.00    -0.237 OA
ATOM     74  O   UNL A   1      40.809  19.037  25.684  1.00  0.00    -0.744 OA
ENDBRANCH  70  71
ENDBRANCH  42  65
BRANCH  54  75
ATOM     75  C   UNL A   1      48.513  27.324  28.075  1.00  0.00    -0.014 A 
ATOM     76  C   UNL A   1      49.313  26.842  29.126  1.00  0.00     0.010 A 
ATOM     77  C   UNL A   1      49.073  27.465  26.792  1.00  0.00     0.010 A 
ATOM     78  C   UNL A   1      50.658  26.533  28.905  1.00  0.00     0.020 A 
ATOM     79  C   UNL A   1      50.413  27.140  26.564  1.00  0.00     0.020 A 
ATOM     80  C   UNL A   1      51.201  26.689  27.625  1.00  0.00     0.054 A 
BRANCH  80  81
ATOM     81  S   UNL A   1      52.940  26.251  27.350  1.00  0.00     0.124 S 
ATOM     82  O   UNL A   1      52.824  24.988  26.627  1.00  0.00    -0.237 OA
ATOM     83  O   UNL A   1      53.439  27.380  26.568  1.00  0.00    -0.237 OA
ATOM     84  O   UNL A   1      53.487  26.147  28.701  1.00  0.00    -0.744 OA
ENDBRANCH  80  81
ENDBRANCH  54  75
ENDBRANCH  28  29
ENDBRANCH  21  23
ENDBRANCH  20  21
ENDBRANCH   1  20
TORSDOF 16
ENDMDL
MODEL 3
REMARK VINA RESULT:      -9.8      5.459     11.004
REMARK SMILES C[C@@H]1C[N@@H+](C[C@]2(C(=O)OCCOC(=O)c3ccc(-c4c5nc(c(-c6ccc(S(=O)(=O)[O-])cc6)c6ccc([nH]6)c(-c6ccc(S(=O)(=O)[O-])cc6)c6nc(c(-c7ccc(S(=O)(=O)[O-])cc7)c7ccc4[nH]7)C=C6)C=C5)cc3)CCOC2)C[C@@H]1C
REMARK SMILES IDX 11 1 10 2 9 3 7 4 8 5 6 6 75 7 78 8 76 9 77 10 5 11 4 12
REMARK SMILES IDX 1 13 2 14 3 15 80 16 79 17 81 18 12 20 13 21 14 22 15 23
REMARK SMILES IDX 16 24 74 25 17 26 73 27 18 28 19 29 20 30 67 31 21 32 72 33
REMARK SMILES IDX 66 34 68 35 22 36 71 37 65 38 64 39 23 41 53 42 34 43 52 44
REMARK SMILES IDX 35 45 38 46 51 47 69 48 36 49 37 50 50 52 70 53 39 54 24 55
REMARK SMILES IDX 25 56 33 57 26 58 32 59 27 60 28 61 29 62 30 63 31 64 54 65
REMARK SMILES IDX 55 66 63 67 56 68 62 69 57 70 58 71 59 72 60 73 61 74 40 75
REMARK SMILES IDX 41 76 49 77 42 78 48 79 43 80 44 81 45 82 46 83 47 84
REMARK H PARENT 4 19 68 40 38 51
REMARK Flexibility Score: inf
ROOT
ATOM      1  C   UNL A   1      37.742  23.896  25.867  1.00  0.00     0.275 C 
ENDROOT
BRANCH   1   2
ATOM      2  C   UNL A   1      36.493  23.015  25.897  1.00  0.00     0.274 C 
BRANCH   2   3
ATOM      3  O   UNL A   1      35.316  23.828  26.097  1.00  0.00    -0.461 OA
BRANCH   3   4
ATOM      4  C   UNL A   1      34.517  23.999  25.008  1.00  0.00     0.320 C 
ATOM      5  O   UNL A   1      34.931  24.106  23.859  1.00  0.00    -0.251 OA
BRANCH   4   6
ATOM      6  C   UNL A   1      33.037  24.097  25.372  1.00  0.00     0.142 C 
ATOM      7  C   UNL A   1      32.358  22.786  24.993  1.00  0.00     0.055 C 
ATOM      8  C   UNL A   1      32.849  24.092  26.883  1.00  0.00     0.185 C 
ATOM      9  C   UNL A   1      31.367  22.493  26.095  1.00  0.00     0.161 C 
ATOM     10  O   UNL A   1      31.629  23.401  27.166  1.00  0.00    -0.380 OA
BRANCH   6  11
ATOM     11  C   UNL A   1      32.504  25.353  24.629  1.00  0.00     0.283 C 
BRANCH  11  12
ATOM     12  N   UNL A   1      32.511  26.691  25.199  1.00  0.00    -0.333 N 
ATOM     13  C   UNL A   1      34.677  29.055  27.065  1.00  0.00     0.014 C 
ATOM     14  C   UNL A   1      33.750  27.882  26.803  1.00  0.00     0.049 C 
ATOM     15  C   UNL A   1      33.754  27.422  25.350  1.00  0.00     0.265 C 
ATOM     16  C   UNL A   1      32.264  28.081  27.129  1.00  0.00     0.049 C 
ATOM     17  C   UNL A   1      31.563  27.040  26.244  1.00  0.00     0.265 C 
ATOM     18  C   UNL A   1      31.726  29.483  26.869  1.00  0.00     0.014 C 
ATOM     19  H   UNL A   1      32.110  27.043  24.330  1.00  0.00     0.348 HD
ENDBRANCH  11  12
ENDBRANCH   6  11
ENDBRANCH   4   6
ENDBRANCH   3   4
ENDBRANCH   2   3
ENDBRANCH   1   2
BRANCH   1  20
ATOM     20  O   UNL A   1      38.734  23.339  26.745  1.00  0.00    -0.458 OA
BRANCH  20  21
ATOM     21  C   UNL A   1      39.947  23.946  26.739  1.00  0.00     0.338 C 
ATOM     22  O   UNL A   1      40.931  23.577  26.122  1.00  0.00    -0.246 OA
BRANCH  21  23
ATOM     23  C   UNL A   1      39.909  25.181  27.568  1.00  0.00     0.060 A 
ATOM     24  C   UNL A   1      40.668  26.300  27.235  1.00  0.00     0.016 A 
ATOM     25  C   UNL A   1      39.169  25.197  28.750  1.00  0.00     0.016 A 
ATOM     26  C   UNL A   1      40.803  27.362  28.135  1.00  0.00     0.010 A 
ATOM     27  C   UNL A   1      39.195  26.327  29.583  1.00  0.00     0.010 A 
ATOM     28  C   UNL A   1      40.046  27.415  29.313  1.00  0.00    -0.014 A 
BRANCH  28  29
ATOM     29  C   UNL A   1      40.141  28.571  30.267  1.00  0.00     0.031 A 
ATOM     30  C   UNL A   1      41.196  28.580  31.351  1.00  0.00     0.074 A 
ATOM     31  C   UNL A   1      39.281  29.612  30.209  1.00  0.00     0.049 A 
ATOM     32  N   UNL A   1      41.251  29.294  32.448  1.00  0.00    -0.248 NA
ATOM     33  C   UNL A   1      42.321  27.645  31.191  1.00  0.00     0.031 C 
ATOM     34  C   UNL A   1      38.234  29.810  29.205  1.00  0.00     0.029 A 
ATOM     35  N   UNL A   1      39.153  30.712  31.028  1.00  0.00    -0.354 N 
ATOM     36  C   UNL A   1      42.354  28.822  33.155  1.00  0.00     0.074 A 
ATOM     37  C   UNL A   1      42.951  27.778  32.351  1.00  0.00     0.031 C 
ATOM     38  C   UNL A   1      37.614  30.977  29.431  1.00  0.00     0.029 A 
ATOM     39  C   UNL A   1      38.127  31.554  30.667  1.00  0.00     0.049 A 
ATOM     40  H   UNL A   1      39.742  30.880  31.799  1.00  0.00     0.167 HD
ATOM     41  C   UNL A   1      42.815  29.211  34.370  1.00  0.00     0.031 A 
ATOM     42  C   UNL A   1      37.596  32.630  31.281  1.00  0.00     0.031 A 
ATOM     43  C   UNL A   1      42.272  30.304  35.135  1.00  0.00     0.049 A 
ATOM     44  C   UNL A   1      38.117  33.051  32.622  1.00  0.00     0.074 A 
ATOM     45  C   UNL A   1      42.684  30.782  36.367  1.00  0.00     0.029 A 
ATOM     46  N   UNL A   1      41.222  31.111  34.726  1.00  0.00    -0.354 N 
ATOM     47  N   UNL A   1      39.083  32.520  33.331  1.00  0.00    -0.248 NA
ATOM     48  C   UNL A   1      37.455  34.198  33.260  1.00  0.00     0.031 C 
ATOM     49  C   UNL A   1      41.864  31.862  36.717  1.00  0.00     0.029 A 
ATOM     50  C   UNL A   1      40.970  32.082  35.682  1.00  0.00     0.049 A 
ATOM     51  H   UNL A   1      40.728  31.010  33.881  1.00  0.00     0.167 HD
ATOM     52  C   UNL A   1      39.144  33.267  34.502  1.00  0.00     0.074 A 
ATOM     53  C   UNL A   1      38.134  34.300  34.396  1.00  0.00     0.031 C 
ATOM     54  C   UNL A   1      39.959  33.101  35.572  1.00  0.00     0.031 A 
BRANCH  41  55
ATOM     55  C   UNL A   1      43.932  28.404  34.983  1.00  0.00    -0.014 A 
ATOM     56  C   UNL A   1      43.684  27.317  35.837  1.00  0.00     0.010 A 
ATOM     57  C   UNL A   1      45.264  28.734  34.665  1.00  0.00     0.010 A 
ATOM     58  C   UNL A   1      44.748  26.607  36.404  1.00  0.00     0.020 A 
ATOM     59  C   UNL A   1      46.330  28.010  35.207  1.00  0.00     0.020 A 
ATOM     60  C   UNL A   1      46.065  26.964  36.093  1.00  0.00     0.054 A 
BRANCH  60  61
ATOM     61  S   UNL A   1      47.430  26.029  36.836  1.00  0.00     0.124 S 
ATOM     62  O   UNL A   1      48.320  27.100  37.279  1.00  0.00    -0.237 OA
ATOM     63  O   UNL A   1      46.770  25.282  37.903  1.00  0.00    -0.237 OA
ATOM     64  O   UNL A   1      47.934  25.216  35.731  1.00  0.00    -0.744 OA
ENDBRANCH  60  61
ENDBRANCH  41  55
BRANCH  42  65
ATOM     65  C   UNL A   1      36.450  33.338  30.646  1.00  0.00    -0.014 A 
ATOM     66  C   UNL A   1      35.153  33.208  31.170  1.00  0.00     0.010 A 
ATOM     67  C   UNL A   1      36.666  34.202  29.556  1.00  0.00     0.010 A 
ATOM     68  C   UNL A   1      34.096  33.945  30.628  1.00  0.00     0.020 A 
ATOM     69  C   UNL A   1      35.618  34.961  29.031  1.00  0.00     0.020 A 
ATOM     70  C   UNL A   1      34.337  34.826  29.570  1.00  0.00     0.054 A 
BRANCH  70  71
ATOM     71  S   UNL A   1      32.980  35.864  28.960  1.00  0.00     0.124 S 
ATOM     72  O   UNL A   1      33.700  36.962  28.322  1.00  0.00    -0.237 OA
ATOM     73  O   UNL A   1      32.268  34.964  28.057  1.00  0.00    -0.237 OA
ATOM     74  O   UNL A   1      32.250  36.216  30.177  1.00  0.00    -0.744 OA
ENDBRANCH  70  71
ENDBRANCH  42  65
BRANCH  54  75
ATOM     75  C   UNL A   1      39.810  34.076  36.706  1.00  0.00    -0.014 A 
ATOM     76  C   UNL A   1      40.510  35.295  36.711  1.00  0.00     0.010 A 
ATOM     77  C   UNL A   1      38.928  33.783  37.762  1.00  0.00     0.010 A 
ATOM     78  C   UNL A   1      40.353  36.194  37.770  1.00  0.00     0.020 A 
ATOM     79  C   UNL A   1      38.755  34.689  38.813  1.00  0.00     0.020 A 
ATOM     80  C   UNL A   1      39.479  35.882  38.818  1.00  0.00     0.054 A 
BRANCH  80  81
ATOM     81  S   UNL A   1      39.264  37.077  40.165  1.00  0.00     0.124 S 
ATOM     82  O   UNL A   1      38.557  38.166  39.495  1.00  0.00    -0.237 OA
ATOM     83  O   UNL A   1      38.479  36.327  41.142  1.00  0.00    -0.237 OA
ATOM     84  O   UNL A   1      40.632  37.384  40.577  1.00  0.00    -0.744 OA
ENDBRANCH  80  81
ENDBRANCH  54  75
ENDBRANCH  28  29
ENDBRANCH  21  23
ENDBRANCH  20  21
ENDBRANCH   1  20
TORSDOF 16
ENDMDL
