MODEL 1
REMARK VINA RESULT:     -11.6      0.000      0.000
REMARK SMILES Cc1nn(-c2cc(Cl)ccc2Cl)nc1C(=O)OCCOC(=O)c1ccc(-c2c3nc(c(-c4ccc(S(=O)(=O)[O-])cc4)c4ccc([nH]4)c(-c4ccc(S(=O)(=O)[O-])cc4)c4nc(c(-c5ccc(S(=O)(=O)[O-])cc5)c5ccc2[nH]5)C=C4)C=C3)cc1
REMARK SMILES IDX 19 1 18 2 17 3 15 4 16 5 14 6 1 7 2 8 3 9 4 10 13 11 5 12
REMARK SMILES IDX 6 13 11 14 7 15 10 16 12 17 8 18 9 19 20 20 21 21 22 22
REMARK SMILES IDX 23 23 24 24 82 25 25 26 81 27 26 28 27 29 28 30 75 31 29 32
REMARK SMILES IDX 80 33 74 34 76 35 30 36 79 37 73 38 72 39 31 41 61 42 42 43
REMARK SMILES IDX 60 44 43 45 46 46 59 47 77 48 44 49 45 50 58 52 78 53 47 54
REMARK SMILES IDX 32 55 33 56 41 57 34 58 40 59 35 60 36 61 37 62 38 63 39 64
REMARK SMILES IDX 62 65 63 66 71 67 64 68 70 69 65 70 66 71 67 72 68 73 69 74
REMARK SMILES IDX 48 75 49 76 57 77 50 78 56 79 51 80 52 81 53 82 54 83 55 84
REMARK H PARENT 76 40 46 51
REMARK Flexibility Score: inf
ROOT
ATOM      1  C   UNL A   1      37.835  22.260  25.593  1.00  0.00     0.275 C 
ENDROOT
BRANCH   1   2
ATOM      2  C   UNL A   1      36.875  23.292  25.012  1.00  0.00     0.275 C 
BRANCH   2   3
ATOM      3  O   UNL A   1      35.944  23.765  26.005  1.00  0.00    -0.457 OA
BRANCH   3   4
ATOM      4  C   UNL A   1      34.712  24.152  25.538  1.00  0.00     0.360 C 
ATOM      5  O   UNL A   1      34.457  25.301  25.181  1.00  0.00    -0.244 OA
BRANCH   4   6
ATOM      6  C   UNL A   1      33.759  23.042  25.442  1.00  0.00     0.193 A 
ATOM      7  C   UNL A   1      31.631  23.964  26.660  1.00  0.00     0.071 C 
ATOM      8  C   UNL A   1      32.419  22.968  25.900  1.00  0.00     0.095 A 
ATOM      9  N   UNL A   1      31.875  21.803  25.520  1.00  0.00    -0.153 NA
ATOM     10  N   UNL A   1      32.927  21.170  24.957  1.00  0.00    -0.149 N 
ATOM     11  N   UNL A   1      34.092  21.849  24.909  1.00  0.00    -0.141 NA
BRANCH  10  12
ATOM     12  C   UNL A   1      32.820  19.888  24.396  1.00  0.00     0.106 A 
ATOM     13  C   UNL A   1      33.243  18.785  25.155  1.00  0.00     0.052 A 
ATOM     14  C   UNL A   1      32.358  19.723  23.085  1.00  0.00     0.068 A 
ATOM     15  C   UNL A   1      33.173  17.510  24.598  1.00  0.00     0.043 A 
ATOM     16  C   UNL A   1      32.333  18.439  22.530  1.00  0.00     0.024 A 
ATOM     17  Cl  UNL A   1      31.935  21.041  22.051  1.00  0.00    -0.082 Cl
ATOM     18  Cl  UNL A   1      33.630  16.137  25.527  1.00  0.00    -0.084 Cl
ATOM     19  C   UNL A   1      32.731  17.334  23.286  1.00  0.00     0.022 A 
ENDBRANCH  10  12
ENDBRANCH   4   6
ENDBRANCH   3   4
ENDBRANCH   2   3
ENDBRANCH   1   2
BRANCH   1  20
ATOM     20  O   UNL A   1      38.707  22.868  26.541  1.00  0.00    -0.458 OA
BRANCH  20  21
ATOM     21  C   UNL A   1      40.026  22.641  26.338  1.00  0.00     0.338 C 
ATOM     22  O   UNL A   1      40.561  21.557  26.172  1.00  0.00    -0.246 OA
BRANCH  21  23
ATOM     23  C   UNL A   1      40.762  23.892  26.534  1.00  0.00     0.060 A 
ATOM     24  C   UNL A   1      41.808  23.866  27.463  1.00  0.00     0.016 A 
ATOM     25  C   UNL A   1      40.179  25.087  26.093  1.00  0.00     0.016 A 
ATOM     26  C   UNL A   1      42.104  25.027  28.139  1.00  0.00     0.010 A 
ATOM     27  C   UNL A   1      40.448  26.233  26.790  1.00  0.00     0.010 A 
ATOM     28  C   UNL A   1      41.339  26.161  27.860  1.00  0.00    -0.014 A 
BRANCH  28  29
ATOM     29  C   UNL A   1      41.487  27.320  28.704  1.00  0.00     0.031 A 
ATOM     30  C   UNL A   1      42.700  28.113  28.413  1.00  0.00     0.074 A 
ATOM     31  C   UNL A   1      40.495  27.688  29.537  1.00  0.00     0.049 A 
ATOM     32  N   UNL A   1      43.682  28.370  29.207  1.00  0.00    -0.248 NA
ATOM     33  C   UNL A   1      42.927  28.530  27.018  1.00  0.00     0.031 C 
ATOM     34  C   UNL A   1      39.154  27.104  29.654  1.00  0.00     0.029 A 
ATOM     35  N   UNL A   1      40.425  28.775  30.344  1.00  0.00    -0.354 N 
ATOM     36  C   UNL A   1      44.570  29.143  28.468  1.00  0.00     0.074 A 
ATOM     37  C   UNL A   1      44.152  29.046  27.095  1.00  0.00     0.031 C 
ATOM     38  C   UNL A   1      38.340  27.997  30.263  1.00  0.00     0.029 A 
ATOM     39  C   UNL A   1      39.127  29.152  30.664  1.00  0.00     0.049 A 
ATOM     40  H   UNL A   1      41.220  29.253  30.672  1.00  0.00     0.167 HD
ATOM     41  C   UNL A   1      45.442  29.999  29.066  1.00  0.00     0.031 A 
ATOM     42  C   UNL A   1      38.732  30.377  31.102  1.00  0.00     0.031 A 
ATOM     43  C   UNL A   1      45.547  29.747  30.478  1.00  0.00     0.049 A 
ATOM     44  C   UNL A   1      39.948  31.068  31.615  1.00  0.00     0.074 A 
ATOM     45  C   UNL A   1      45.963  28.669  31.231  1.00  0.00     0.029 A 
ATOM     46  N   UNL A   1      44.794  30.541  31.316  1.00  0.00    -0.354 N 
ATOM     47  N   UNL A   1      40.609  30.663  32.665  1.00  0.00    -0.248 NA
ATOM     48  C   UNL A   1      40.714  31.896  30.690  1.00  0.00     0.031 C 
ATOM     49  C   UNL A   1      45.065  28.627  32.335  1.00  0.00     0.029 A 
ATOM     50  C   UNL A   1      44.198  29.718  32.238  1.00  0.00     0.049 A 
ATOM     51  H   UNL A   1      44.702  31.519  31.262  1.00  0.00     0.167 HD
ATOM     52  C   UNL A   1      41.949  30.799  32.322  1.00  0.00     0.074 A 
ATOM     53  C   UNL A   1      41.951  31.659  31.140  1.00  0.00     0.031 C 
ATOM     54  C   UNL A   1      42.903  29.966  32.839  1.00  0.00     0.031 A 
BRANCH  41  55
ATOM     55  C   UNL A   1      45.886  31.297  28.448  1.00  0.00    -0.014 A 
ATOM     56  C   UNL A   1      44.942  32.331  28.300  1.00  0.00     0.010 A 
ATOM     57  C   UNL A   1      47.107  31.437  27.754  1.00  0.00     0.010 A 
ATOM     58  C   UNL A   1      45.172  33.402  27.429  1.00  0.00     0.020 A 
ATOM     59  C   UNL A   1      47.365  32.524  26.921  1.00  0.00     0.020 A 
ATOM     60  C   UNL A   1      46.376  33.476  26.729  1.00  0.00     0.054 A 
BRANCH  60  61
ATOM     61  S   UNL A   1      46.604  34.776  25.492  1.00  0.00     0.124 S 
ATOM     62  O   UNL A   1      45.496  34.515  24.579  1.00  0.00    -0.237 OA
ATOM     63  O   UNL A   1      46.493  35.991  26.296  1.00  0.00    -0.237 OA
ATOM     64  O   UNL A   1      47.936  34.508  24.955  1.00  0.00    -0.744 OA
ENDBRANCH  60  61
ENDBRANCH  41  55
BRANCH  42  65
ATOM     65  C   UNL A   1      37.465  31.078  30.755  1.00  0.00    -0.014 A 
ATOM     66  C   UNL A   1      36.967  32.138  31.536  1.00  0.00     0.010 A 
ATOM     67  C   UNL A   1      36.856  30.863  29.498  1.00  0.00     0.010 A 
ATOM     68  C   UNL A   1      35.943  32.977  31.056  1.00  0.00     0.020 A 
ATOM     69  C   UNL A   1      35.828  31.682  29.019  1.00  0.00     0.020 A 
ATOM     70  C   UNL A   1      35.392  32.754  29.790  1.00  0.00     0.054 A 
BRANCH  70  71
ATOM     71  S   UNL A   1      34.203  33.938  29.094  1.00  0.00     0.124 S 
ATOM     72  O   UNL A   1      33.483  33.124  28.120  1.00  0.00    -0.237 OA
ATOM     73  O   UNL A   1      33.438  34.348  30.267  1.00  0.00    -0.237 OA
ATOM     74  O   UNL A   1      35.053  34.983  28.520  1.00  0.00    -0.744 OA
ENDBRANCH  70  71
ENDBRANCH  42  65
BRANCH  54  75
ATOM     75  C   UNL A   1      42.515  29.034  33.966  1.00  0.00    -0.014 A 
ATOM     76  C   UNL A   1      41.775  27.850  33.773  1.00  0.00     0.010 A 
ATOM     77  C   UNL A   1      43.088  29.262  35.229  1.00  0.00     0.010 A 
ATOM     78  C   UNL A   1      41.595  26.934  34.819  1.00  0.00     0.020 A 
ATOM     79  C   UNL A   1      42.931  28.345  36.270  1.00  0.00     0.020 A 
ATOM     80  C   UNL A   1      42.177  27.188  36.064  1.00  0.00     0.054 A 
BRANCH  80  81
ATOM     81  S   UNL A   1      41.994  25.972  37.399  1.00  0.00     0.124 S 
ATOM     82  O   UNL A   1      42.339  24.718  36.736  1.00  0.00    -0.237 OA
ATOM     83  O   UNL A   1      42.951  26.439  38.400  1.00  0.00    -0.237 OA
ATOM     84  O   UNL A   1      40.591  26.097  37.793  1.00  0.00    -0.744 OA
ENDBRANCH  80  81
ENDBRANCH  54  75
ENDBRANCH  28  29
ENDBRANCH  21  23
ENDBRANCH  20  21
ENDBRANCH   1  20
TORSDOF 15
ENDMDL
MODEL 2
REMARK VINA RESULT:     -11.5      5.270     11.505
REMARK SMILES Cc1nn(-c2cc(Cl)ccc2Cl)nc1C(=O)OCCOC(=O)c1ccc(-c2c3nc(c(-c4ccc(S(=O)(=O)[O-])cc4)c4ccc([nH]4)c(-c4ccc(S(=O)(=O)[O-])cc4)c4nc(c(-c5ccc(S(=O)(=O)[O-])cc5)c5ccc2[nH]5)C=C4)C=C3)cc1
REMARK SMILES IDX 19 1 18 2 17 3 15 4 16 5 14 6 1 7 2 8 3 9 4 10 13 11 5 12
REMARK SMILES IDX 6 13 11 14 7 15 10 16 12 17 8 18 9 19 20 20 21 21 22 22
REMARK SMILES IDX 23 23 24 24 82 25 25 26 81 27 26 28 27 29 28 30 75 31 29 32
REMARK SMILES IDX 80 33 74 34 76 35 30 36 79 37 73 38 72 39 31 41 61 42 42 43
REMARK SMILES IDX 60 44 43 45 46 46 59 47 77 48 44 49 45 50 58 52 78 53 47 54
REMARK SMILES IDX 32 55 33 56 41 57 34 58 40 59 35 60 36 61 37 62 38 63 39 64
REMARK SMILES IDX 62 65 63 66 71 67 64 68 70 69 65 70 66 71 67 72 68 73 69 74
REMARK SMILES IDX 48 75 49 76 57 77 50 78 56 79 51 80 52 81 53 82 54 83 55 84
REMARK H PARENT 76 40 46 51
REMARK Flexibility Score: inf
ROOT
ATOM      1  C   UNL A   1      40.663  33.672  33.794  1.00  0.00     0.275 C 
ENDROOT
BRANCH   1   2
ATOM      2  C   UNL A   1      39.990  33.105  35.039  1.00  0.00     0.275 C 
BRANCH   2   3
ATOM      3  O   UNL A   1      38.557  33.241  34.973  1.00  0.00    -0.457 OA
BRANCH   3   4
ATOM      4  C   UNL A   1      37.853  32.081  34.763  1.00  0.00     0.360 C 
ATOM      5  O   UNL A   1      37.729  31.204  35.616  1.00  0.00    -0.244 OA
BRANCH   4   6
ATOM      6  C   UNL A   1      37.207  32.030  33.448  1.00  0.00     0.193 A 
ATOM      7  C   UNL A   1      37.394  29.504  32.778  1.00  0.00     0.071 C 
ATOM      8  C   UNL A   1      36.983  30.915  32.601  1.00  0.00     0.095 A 
ATOM      9  N   UNL A   1      36.271  31.296  31.531  1.00  0.00    -0.153 NA
ATOM     10  N   UNL A   1      36.194  32.633  31.704  1.00  0.00    -0.149 N 
ATOM     11  N   UNL A   1      36.764  33.137  32.818  1.00  0.00    -0.141 NA
BRANCH  10  12
ATOM     12  C   UNL A   1      35.511  33.469  30.806  1.00  0.00     0.106 A 
ATOM     13  C   UNL A   1      34.482  34.286  31.300  1.00  0.00     0.052 A 
ATOM     14  C   UNL A   1      35.811  33.440  29.440  1.00  0.00     0.068 A 
ATOM     15  C   UNL A   1      33.774  35.097  30.415  1.00  0.00     0.043 A 
ATOM     16  C   UNL A   1      35.063  34.230  28.562  1.00  0.00     0.024 A 
ATOM     17  Cl  UNL A   1      36.980  32.374  28.744  1.00  0.00    -0.082 Cl
ATOM     18  Cl  UNL A   1      32.548  36.150  31.002  1.00  0.00    -0.084 Cl
ATOM     19  C   UNL A   1      34.052  35.063  29.048  1.00  0.00     0.022 A 
ENDBRANCH  10  12
ENDBRANCH   4   6
ENDBRANCH   3   4
ENDBRANCH   2   3
ENDBRANCH   1   2
BRANCH   1  20
ATOM     20  O   UNL A   1      40.756  32.676  32.779  1.00  0.00    -0.458 OA
BRANCH  20  21
ATOM     21  C   UNL A   1      40.325  33.059  31.555  1.00  0.00     0.338 C 
ATOM     22  O   UNL A   1      39.595  34.004  31.303  1.00  0.00    -0.246 OA
BRANCH  21  23
ATOM     23  C   UNL A   1      40.717  32.048  30.572  1.00  0.00     0.060 A 
ATOM     24  C   UNL A   1      39.848  30.964  30.406  1.00  0.00     0.016 A 
ATOM     25  C   UNL A   1      42.050  32.015  30.142  1.00  0.00     0.016 A 
ATOM     26  C   UNL A   1      40.385  29.754  30.031  1.00  0.00     0.010 A 
ATOM     27  C   UNL A   1      42.590  30.805  29.804  1.00  0.00     0.010 A 
ATOM     28  C   UNL A   1      41.767  29.680  29.844  1.00  0.00    -0.014 A 
BRANCH  28  29
ATOM     29  C   UNL A   1      42.373  28.384  29.666  1.00  0.00     0.031 A 
ATOM     30  C   UNL A   1      43.122  27.914  30.851  1.00  0.00     0.074 A 
ATOM     31  C   UNL A   1      42.102  27.649  28.571  1.00  0.00     0.049 A 
ATOM     32  N   UNL A   1      44.377  27.632  30.928  1.00  0.00    -0.248 NA
ATOM     33  C   UNL A   1      42.423  27.918  32.148  1.00  0.00     0.031 C 
ATOM     34  C   UNL A   1      41.139  27.943  27.503  1.00  0.00     0.029 A 
ATOM     35  N   UNL A   1      42.517  26.394  28.269  1.00  0.00    -0.354 N 
ATOM     36  C   UNL A   1      44.593  27.240  32.244  1.00  0.00     0.074 A 
ATOM     37  C   UNL A   1      43.416  27.618  32.981  1.00  0.00     0.031 C 
ATOM     38  C   UNL A   1      40.853  26.797  26.844  1.00  0.00     0.029 A 
ATOM     39  C   UNL A   1      41.686  25.730  27.375  1.00  0.00     0.049 A 
ATOM     40  H   UNL A   1      43.330  25.990  28.648  1.00  0.00     0.167 HD
ATOM     41  C   UNL A   1      45.623  26.421  32.587  1.00  0.00     0.031 A 
ATOM     42  C   UNL A   1      41.614  24.385  27.194  1.00  0.00     0.031 A 
ATOM     43  C   UNL A   1      46.588  26.312  31.526  1.00  0.00     0.049 A 
ATOM     44  C   UNL A   1      42.866  23.803  27.754  1.00  0.00     0.074 A 
ATOM     45  C   UNL A   1      47.412  27.212  30.883  1.00  0.00     0.029 A 
ATOM     46  N   UNL A   1      46.495  25.211  30.703  1.00  0.00    -0.354 N 
ATOM     47  N   UNL A   1      44.046  24.028  27.245  1.00  0.00    -0.248 NA
ATOM     48  C   UNL A   1      42.870  23.387  29.151  1.00  0.00     0.031 C 
ATOM     49  C   UNL A   1      47.394  26.812  29.517  1.00  0.00     0.029 A 
ATOM     50  C   UNL A   1      46.623  25.651  29.410  1.00  0.00     0.049 A 
ATOM     51  H   UNL A   1      46.362  24.279  30.991  1.00  0.00     0.167 HD
ATOM     52  C   UNL A   1      44.881  24.218  28.340  1.00  0.00     0.074 A 
ATOM     53  C   UNL A   1      44.125  23.707  29.484  1.00  0.00     0.031 C 
ATOM     54  C   UNL A   1      45.972  25.038  28.269  1.00  0.00     0.031 A 
BRANCH  41  55
ATOM     55  C   UNL A   1      45.552  25.424  33.712  1.00  0.00    -0.014 A 
ATOM     56  C   UNL A   1      46.552  25.455  34.703  1.00  0.00     0.010 A 
ATOM     57  C   UNL A   1      44.713  24.290  33.680  1.00  0.00     0.010 A 
ATOM     58  C   UNL A   1      46.760  24.365  35.555  1.00  0.00     0.020 A 
ATOM     59  C   UNL A   1      44.882  23.219  34.555  1.00  0.00     0.020 A 
ATOM     60  C   UNL A   1      45.934  23.244  35.457  1.00  0.00     0.054 A 
BRANCH  60  61
ATOM     61  S   UNL A   1      46.304  21.781  36.453  1.00  0.00     0.124 S 
ATOM     62  O   UNL A   1      45.630  22.098  37.708  1.00  0.00    -0.237 OA
ATOM     63  O   UNL A   1      45.706  20.709  35.663  1.00  0.00    -0.237 OA
ATOM     64  O   UNL A   1      47.764  21.767  36.512  1.00  0.00    -0.744 OA
ENDBRANCH  60  61
ENDBRANCH  41  55
BRANCH  42  65
ATOM     65  C   UNL A   1      40.385  23.591  26.912  1.00  0.00    -0.014 A 
ATOM     66  C   UNL A   1      39.141  24.209  26.688  1.00  0.00     0.010 A 
ATOM     67  C   UNL A   1      40.483  22.213  26.620  1.00  0.00     0.010 A 
ATOM     68  C   UNL A   1      38.059  23.489  26.144  1.00  0.00     0.020 A 
ATOM     69  C   UNL A   1      39.410  21.486  26.093  1.00  0.00     0.020 A 
ATOM     70  C   UNL A   1      38.208  22.133  25.832  1.00  0.00     0.054 A 
BRANCH  70  71
ATOM     71  S   UNL A   1      36.878  21.249  24.964  1.00  0.00     0.124 S 
ATOM     72  O   UNL A   1      37.496  19.958  24.678  1.00  0.00    -0.237 OA
ATOM     73  O   UNL A   1      35.807  21.233  25.955  1.00  0.00    -0.237 OA
ATOM     74  O   UNL A   1      36.617  22.084  23.792  1.00  0.00    -0.744 OA
ENDBRANCH  70  71
ENDBRANCH  42  65
BRANCH  54  75
ATOM     75  C   UNL A   1      46.394  25.565  26.914  1.00  0.00    -0.014 A 
ATOM     76  C   UNL A   1      45.749  26.638  26.265  1.00  0.00     0.010 A 
ATOM     77  C   UNL A   1      47.601  25.089  26.374  1.00  0.00     0.010 A 
ATOM     78  C   UNL A   1      46.286  27.201  25.099  1.00  0.00     0.020 A 
ATOM     79  C   UNL A   1      48.152  25.658  25.225  1.00  0.00     0.020 A 
ATOM     80  C   UNL A   1      47.489  26.707  24.586  1.00  0.00     0.054 A 
BRANCH  80  81
ATOM     81  S   UNL A   1      48.212  27.476  23.110  1.00  0.00     0.124 S 
ATOM     82  O   UNL A   1      47.209  28.473  22.748  1.00  0.00    -0.237 OA
ATOM     83  O   UNL A   1      49.479  28.010  23.607  1.00  0.00    -0.237 OA
ATOM     84  O   UNL A   1      48.347  26.365  22.169  1.00  0.00    -0.744 OA
ENDBRANCH  80  81
ENDBRANCH  54  75
ENDBRANCH  28  29
ENDBRANCH  21  23
ENDBRANCH  20  21
ENDBRANCH   1  20
TORSDOF 15
ENDMDL
MODEL 3
REMARK VINA RESULT:     -11.5      3.460      8.805
REMARK SMILES Cc1nn(-c2cc(Cl)ccc2Cl)nc1C(=O)OCCOC(=O)c1ccc(-c2c3nc(c(-c4ccc(S(=O)(=O)[O-])cc4)c4ccc([nH]4)c(-c4ccc(S(=O)(=O)[O-])cc4)c4nc(c(-c5ccc(S(=O)(=O)[O-])cc5)c5ccc2[nH]5)C=C4)C=C3)cc1
REMARK SMILES IDX 19 1 18 2 17 3 15 4 16 5 14 6 1 7 2 8 3 9 4 10 13 11 5 12
REMARK SMILES IDX 6 13 11 14 7 15 10 16 12 17 8 18 9 19 20 20 21 21 22 22
REMARK SMILES IDX 23 23 24 24 82 25 25 26 81 27 26 28 27 29 28 30 75 31 29 32
REMARK SMILES IDX 80 33 74 34 76 35 30 36 79 37 73 38 72 39 31 41 61 42 42 43
REMARK SMILES IDX 60 44 43 45 46 46 59 47 77 48 44 49 45 50 58 52 78 53 47 54
REMARK SMILES IDX 32 55 33 56 41 57 34 58 40 59 35 60 36 61 37 62 38 63 39 64
REMARK SMILES IDX 62 65 63 66 71 67 64 68 70 69 65 70 66 71 67 72 68 73 69 74
REMARK SMILES IDX 48 75 49 76 57 77 50 78 56 79 51 80 52 81 53 82 54 83 55 84
REMARK H PARENT 76 40 46 51
REMARK Flexibility Score: inf
ROOT
ATOM      1  C   UNL A   1      37.783  20.284  24.745  1.00  0.00     0.275 C 
ENDROOT
BRANCH   1   2
ATOM      2  C   UNL A   1      36.434  20.947  25.005  1.00  0.00     0.275 C 
BRANCH   2   3
ATOM      3  O   UNL A   1      36.554  22.382  25.061  1.00  0.00    -0.457 OA
BRANCH   3   4
ATOM      4  C   UNL A   1      35.760  23.085  24.189  1.00  0.00     0.360 C 
ATOM      5  O   UNL A   1      35.824  22.959  22.968  1.00  0.00    -0.244 OA
BRANCH   4   6
ATOM      6  C   UNL A   1      34.785  23.946  24.866  1.00  0.00     0.193 A 
ATOM      7  C   UNL A   1      33.744  22.372  26.681  1.00  0.00     0.071 C 
ATOM      8  C   UNL A   1      33.934  23.650  25.960  1.00  0.00     0.095 A 
ATOM      9  N   UNL A   1      33.270  24.755  26.329  1.00  0.00    -0.153 NA
ATOM     10  N   UNL A   1      33.647  25.641  25.381  1.00  0.00    -0.149 N 
ATOM     11  N   UNL A   1      34.529  25.206  24.457  1.00  0.00    -0.141 NA
BRANCH  10  12
ATOM     12  C   UNL A   1      33.195  26.969  25.372  1.00  0.00     0.106 A 
ATOM     13  C   UNL A   1      33.824  27.898  26.217  1.00  0.00     0.052 A 
ATOM     14  C   UNL A   1      32.100  27.342  24.584  1.00  0.00     0.068 A 
ATOM     15  C   UNL A   1      33.364  29.213  26.243  1.00  0.00     0.043 A 
ATOM     16  C   UNL A   1      31.628  28.657  24.654  1.00  0.00     0.024 A 
ATOM     17  Cl  UNL A   1      31.202  26.230  23.614  1.00  0.00    -0.082 Cl
ATOM     18  Cl  UNL A   1      34.154  30.384  27.224  1.00  0.00    -0.084 Cl
ATOM     19  C   UNL A   1      32.263  29.593  25.475  1.00  0.00     0.022 A 
ENDBRANCH  10  12
ENDBRANCH   4   6
ENDBRANCH   3   4
ENDBRANCH   2   3
ENDBRANCH   1   2
BRANCH   1  20
ATOM     20  O   UNL A   1      38.784  20.843  25.591  1.00  0.00    -0.458 OA
BRANCH  20  21
ATOM     21  C   UNL A   1      39.887  20.078  25.760  1.00  0.00     0.338 C 
ATOM     22  O   UNL A   1      39.976  18.875  25.570  1.00  0.00    -0.246 OA
BRANCH  21  23
ATOM     23  C   UNL A   1      40.933  20.881  26.395  1.00  0.00     0.060 A 
ATOM     24  C   UNL A   1      40.977  20.864  27.793  1.00  0.00     0.016 A 
ATOM     25  C   UNL A   1      41.567  21.874  25.636  1.00  0.00     0.016 A 
ATOM     26  C   UNL A   1      41.447  21.983  28.441  1.00  0.00     0.010 A 
ATOM     27  C   UNL A   1      42.001  23.000  26.279  1.00  0.00     0.010 A 
ATOM     28  C   UNL A   1      41.849  23.070  27.663  1.00  0.00    -0.014 A 
BRANCH  28  29
ATOM     29  C   UNL A   1      42.138  24.322  28.319  1.00  0.00     0.031 A 
ATOM     30  C   UNL A   1      41.054  25.319  28.191  1.00  0.00     0.074 A 
ATOM     31  C   UNL A   1      43.226  24.446  29.102  1.00  0.00     0.049 A 
ATOM     32  N   UNL A   1      41.117  26.483  27.640  1.00  0.00    -0.248 NA
ATOM     33  C   UNL A   1      39.693  24.905  28.573  1.00  0.00     0.031 C 
ATOM     34  C   UNL A   1      44.177  23.401  29.496  1.00  0.00     0.029 A 
ATOM     35  N   UNL A   1      43.616  25.510  29.847  1.00  0.00    -0.354 N 
ATOM     36  C   UNL A   1      39.846  27.030  27.772  1.00  0.00     0.074 A 
ATOM     37  C   UNL A   1      38.978  25.954  28.173  1.00  0.00     0.031 C 
ATOM     38  C   UNL A   1      44.847  23.811  30.597  1.00  0.00     0.029 A 
ATOM     39  C   UNL A   1      44.445  25.174  30.910  1.00  0.00     0.049 A 
ATOM     40  H   UNL A   1      43.338  26.433  29.653  1.00  0.00     0.167 HD
ATOM     41  C   UNL A   1      39.642  28.374  27.775  1.00  0.00     0.031 A 
ATOM     42  C   UNL A   1      44.669  25.924  32.021  1.00  0.00     0.031 A 
ATOM     43  C   UNL A   1      40.799  29.086  27.304  1.00  0.00     0.049 A 
ATOM     44  C   UNL A   1      44.263  27.319  31.693  1.00  0.00     0.074 A 
ATOM     45  C   UNL A   1      41.490  29.111  26.109  1.00  0.00     0.029 A 
ATOM     46  N   UNL A   1      41.650  29.603  28.256  1.00  0.00    -0.354 N 
ATOM     47  N   UNL A   1      44.881  28.052  30.807  1.00  0.00    -0.248 NA
ATOM     48  C   UNL A   1      42.890  27.723  31.972  1.00  0.00     0.031 C 
ATOM     49  C   UNL A   1      42.860  29.200  26.481  1.00  0.00     0.029 A 
ATOM     50  C   UNL A   1      42.932  29.298  27.874  1.00  0.00     0.049 A 
ATOM     51  H   UNL A   1      41.386  30.101  29.063  1.00  0.00     0.167 HD
ATOM     52  C   UNL A   1      43.871  28.703  30.109  1.00  0.00     0.074 A 
ATOM     53  C   UNL A   1      42.676  28.544  30.938  1.00  0.00     0.031 C 
ATOM     54  C   UNL A   1      44.023  29.046  28.794  1.00  0.00     0.031 A 
BRANCH  41  55
ATOM     55  C   UNL A   1      38.554  29.047  28.567  1.00  0.00    -0.014 A 
ATOM     56  C   UNL A   1      37.908  30.166  28.008  1.00  0.00     0.010 A 
ATOM     57  C   UNL A   1      38.342  28.802  29.940  1.00  0.00     0.010 A 
ATOM     58  C   UNL A   1      37.165  31.046  28.804  1.00  0.00     0.020 A 
ATOM     59  C   UNL A   1      37.565  29.645  30.733  1.00  0.00     0.020 A 
ATOM     60  C   UNL A   1      37.019  30.788  30.167  1.00  0.00     0.054 A 
BRANCH  60  61
ATOM     61  S   UNL A   1      36.190  32.005  31.216  1.00  0.00     0.124 S 
ATOM     62  O   UNL A   1      36.134  31.306  32.496  1.00  0.00    -0.237 OA
ATOM     63  O   UNL A   1      37.103  33.143  31.151  1.00  0.00    -0.237 OA
ATOM     64  O   UNL A   1      34.902  32.206  30.555  1.00  0.00    -0.744 OA
ENDBRANCH  60  61
ENDBRANCH  41  55
BRANCH  42  65
ATOM     65  C   UNL A   1      44.853  25.420  33.410  1.00  0.00    -0.014 A 
ATOM     66  C   UNL A   1      43.941  24.525  34.001  1.00  0.00     0.010 A 
ATOM     67  C   UNL A   1      46.075  25.632  34.086  1.00  0.00     0.010 A 
ATOM     68  C   UNL A   1      44.263  23.834  35.185  1.00  0.00     0.020 A 
ATOM     69  C   UNL A   1      46.398  24.961  35.270  1.00  0.00     0.020 A 
ATOM     70  C   UNL A   1      45.500  24.044  35.803  1.00  0.00     0.054 A 
BRANCH  70  71
ATOM     71  S   UNL A   1      45.991  23.024  37.224  1.00  0.00     0.124 S 
ATOM     72  O   UNL A   1      45.545  21.693  36.823  1.00  0.00    -0.237 OA
ATOM     73  O   UNL A   1      47.436  23.220  37.273  1.00  0.00    -0.237 OA
ATOM     74  O   UNL A   1      45.254  23.613  38.343  1.00  0.00    -0.744 OA
ENDBRANCH  70  71
ENDBRANCH  42  65
BRANCH  54  75
ATOM     75  C   UNL A   1      45.393  28.912  28.166  1.00  0.00    -0.014 A 
ATOM     76  C   UNL A   1      46.353  29.943  28.173  1.00  0.00     0.010 A 
ATOM     77  C   UNL A   1      45.790  27.635  27.732  1.00  0.00     0.010 A 
ATOM     78  C   UNL A   1      47.665  29.709  27.736  1.00  0.00     0.020 A 
ATOM     79  C   UNL A   1      47.100  27.389  27.315  1.00  0.00     0.020 A 
ATOM     80  C   UNL A   1      48.031  28.429  27.310  1.00  0.00     0.054 A 
BRANCH  80  81
ATOM     81  S   UNL A   1      49.744  28.113  26.802  1.00  0.00     0.124 S 
ATOM     82  O   UNL A   1      50.512  28.852  27.800  1.00  0.00    -0.237 OA
ATOM     83  O   UNL A   1      49.846  26.657  26.881  1.00  0.00    -0.237 OA
ATOM     84  O   UNL A   1      49.810  28.656  25.446  1.00  0.00    -0.744 OA
ENDBRANCH  80  81
ENDBRANCH  54  75
ENDBRANCH  28  29
ENDBRANCH  21  23
ENDBRANCH  20  21
ENDBRANCH   1  20
TORSDOF 15
ENDMDL
