MODEL 1
REMARK VINA RESULT:     -10.7      0.000      0.000
REMARK SMILES CC(C)(C)c1nnsc1C(=O)N[C@](C)(C(=O)OCCOC(=O)c1ccc(-c2c3nc(c(-c4ccc(S(=O)(=O)[O-])cc4)c4ccc([nH]4)c(-c4ccc(S(=O)(=O)[O-])cc4)c4nc(c(-c5ccc(S(=O)(=O)[O-])cc5)c5ccc2[nH]5)C=C4)C=C3)cc1)C(F)(F)F
REMARK SMILES IDX 18 1 17 2 15 3 16 4 13 5 14 6 12 7 10 8 11 9 9 11 5 12 6 13
REMARK SMILES IDX 7 14 8 15 2 16 1 17 3 18 4 19 83 20 84 21 85 22 86 23 19 24
REMARK SMILES IDX 20 25 21 26 22 27 23 28 24 29 82 30 25 31 81 32 26 33 27 34
REMARK SMILES IDX 28 35 75 36 29 37 80 38 74 39 76 40 30 41 79 42 73 43 72 44
REMARK SMILES IDX 31 46 61 47 42 48 60 49 43 50 46 51 59 52 77 53 44 54 45 55
REMARK SMILES IDX 58 57 78 58 47 59 32 60 33 61 41 62 34 63 40 64 35 65 36 66
REMARK SMILES IDX 37 67 38 68 39 69 62 70 63 71 71 72 64 73 70 74 65 75 66 76
REMARK SMILES IDX 67 77 68 78 69 79 48 80 49 81 57 82 50 83 56 84 51 85 52 86
REMARK SMILES IDX 53 87 54 88 55 89
REMARK H PARENT 12 10 76 45 46 56
REMARK Flexibility Score: inf
ROOT
ATOM      1  C   UNL A   1      32.938  29.300  25.431  1.00  0.00     0.274 C 
ENDROOT
BRANCH   1   2
ATOM      2  O   UNL A   1      32.158  28.192  24.902  1.00  0.00    -0.460 OA
BRANCH   2   3
ATOM      3  C   UNL A   1      32.879  27.083  24.560  1.00  0.00     0.341 C 
ATOM      4  O   UNL A   1      34.076  27.135  24.296  1.00  0.00    -0.249 OA
BRANCH   3   5
ATOM      5  C   UNL A   1      32.062  25.783  24.480  1.00  0.00     0.231 C 
ATOM      6  C   UNL A   1      30.525  25.875  24.405  1.00  0.00     0.058 C 
BRANCH   5   7
ATOM      7  N   UNL A   1      32.634  24.777  23.474  1.00  0.00    -0.328 N 
ATOM      8  C   UNL A   1      33.319  23.638  23.173  1.00  0.00     0.266 C 
ATOM      9  O   UNL A   1      33.471  23.625  21.937  1.00  0.00    -0.268 OA
ATOM     10  H   UNL A   1      32.376  25.142  22.597  1.00  0.00     0.165 HD
BRANCH   8  11
ATOM     11  C   UNL A   1      33.843  22.523  23.966  1.00  0.00     0.137 A 
ATOM     12  C   UNL A   1      35.018  21.977  24.513  1.00  0.00     0.094 A 
ATOM     13  N   UNL A   1      34.846  20.820  25.281  1.00  0.00    -0.142 NA
ATOM     14  N   UNL A   1      33.595  20.445  25.369  1.00  0.00    -0.090 NA
ATOM     15  S   UNL A   1      32.572  21.437  24.535  1.00  0.00    -0.006 S 
BRANCH  12  16
ATOM     16  C   UNL A   1      36.434  22.485  24.478  1.00  0.00     0.008 C 
ATOM     17  C   UNL A   1      36.764  22.932  23.056  1.00  0.00     0.018 C 
ATOM     18  C   UNL A   1      37.521  21.440  24.823  1.00  0.00     0.018 C 
ATOM     19  C   UNL A   1      36.534  23.539  25.580  1.00  0.00     0.018 C 
ENDBRANCH  12  16
ENDBRANCH   8  11
ENDBRANCH   5   7
BRANCH   5  20
ATOM     20  C   UNL A   1      32.342  25.226  25.917  1.00  0.00     0.422 C 
ATOM     21  F   UNL A   1      33.653  24.990  26.131  1.00  0.00    -0.168 F 
ATOM     22  F   UNL A   1      31.941  26.139  26.844  1.00  0.00    -0.168 F 
ATOM     23  F   UNL A   1      31.654  24.100  26.192  1.00  0.00    -0.168 F 
ENDBRANCH   5  20
ENDBRANCH   3   5
ENDBRANCH   2   3
ENDBRANCH   1   2
BRANCH   1  24
ATOM     24  C   UNL A   1      32.798  29.412  26.963  1.00  0.00     0.275 C 
BRANCH  24  25
ATOM     25  O   UNL A   1      34.068  29.171  27.582  1.00  0.00    -0.458 OA
BRANCH  25  26
ATOM     26  C   UNL A   1      34.704  30.294  27.982  1.00  0.00     0.338 C 
ATOM     27  O   UNL A   1      34.201  31.340  28.371  1.00  0.00    -0.246 OA
BRANCH  26  28
ATOM     28  C   UNL A   1      36.059  29.847  28.309  1.00  0.00     0.060 A 
ATOM     29  C   UNL A   1      36.996  29.950  27.276  1.00  0.00     0.016 A 
ATOM     30  C   UNL A   1      36.437  29.492  29.601  1.00  0.00     0.016 A 
ATOM     31  C   UNL A   1      38.336  29.734  27.527  1.00  0.00     0.010 A 
ATOM     32  C   UNL A   1      37.783  29.236  29.847  1.00  0.00     0.010 A 
ATOM     33  C   UNL A   1      38.730  29.364  28.812  1.00  0.00    -0.014 A 
BRANCH  33  34
ATOM     34  C   UNL A   1      40.122  28.954  29.038  1.00  0.00     0.031 A 
ATOM     35  C   UNL A   1      41.063  29.991  29.560  1.00  0.00     0.074 A 
ATOM     36  C   UNL A   1      40.511  27.692  28.791  1.00  0.00     0.049 A 
ATOM     37  N   UNL A   1      42.365  29.998  29.561  1.00  0.00    -0.248 NA
ATOM     38  C   UNL A   1      40.444  31.196  30.141  1.00  0.00     0.031 C 
ATOM     39  C   UNL A   1      39.628  26.589  28.404  1.00  0.00     0.029 A 
ATOM     40  N   UNL A   1      41.758  27.130  28.818  1.00  0.00    -0.354 N 
ATOM     41  C   UNL A   1      42.724  31.237  30.078  1.00  0.00     0.074 A 
ATOM     42  C   UNL A   1      41.506  31.943  30.400  1.00  0.00     0.031 C 
ATOM     43  C   UNL A   1      40.368  25.483  28.212  1.00  0.00     0.029 A 
ATOM     44  C   UNL A   1      41.775  25.826  28.385  1.00  0.00     0.049 A 
ATOM     45  H   UNL A   1      42.563  27.611  29.118  1.00  0.00     0.167 HD
ATOM     46  C   UNL A   1      43.972  31.734  30.234  1.00  0.00     0.031 A 
ATOM     47  C   UNL A   1      42.824  25.030  28.100  1.00  0.00     0.031 A 
ATOM     48  C   UNL A   1      45.150  30.985  29.898  1.00  0.00     0.049 A 
ATOM     49  C   UNL A   1      44.203  25.616  28.240  1.00  0.00     0.074 A 
ATOM     50  C   UNL A   1      46.474  31.374  29.944  1.00  0.00     0.029 A 
ATOM     51  N   UNL A   1      45.131  29.663  29.467  1.00  0.00    -0.354 N 
ATOM     52  N   UNL A   1      44.547  26.828  28.614  1.00  0.00    -0.248 NA
ATOM     53  C   UNL A   1      45.332  24.742  27.905  1.00  0.00     0.031 C 
ATOM     54  C   UNL A   1      47.255  30.292  29.519  1.00  0.00     0.029 A 
ATOM     55  C   UNL A   1      46.420  29.216  29.251  1.00  0.00     0.049 A 
ATOM     56  H   UNL A   1      44.319  29.124  29.334  1.00  0.00     0.167 HD
ATOM     57  C   UNL A   1      45.934  26.861  28.569  1.00  0.00     0.074 A 
ATOM     58  C   UNL A   1      46.364  25.539  28.150  1.00  0.00     0.031 C 
ATOM     59  C   UNL A   1      46.784  27.884  28.839  1.00  0.00     0.031 A 
BRANCH  46  60
ATOM     60  C   UNL A   1      44.090  33.156  30.710  1.00  0.00    -0.014 A 
ATOM     61  C   UNL A   1      44.193  33.468  32.078  1.00  0.00     0.010 A 
ATOM     62  C   UNL A   1      44.062  34.203  29.771  1.00  0.00     0.010 A 
ATOM     63  C   UNL A   1      44.219  34.801  32.499  1.00  0.00     0.020 A 
ATOM     64  C   UNL A   1      44.113  35.537  30.186  1.00  0.00     0.020 A 
ATOM     65  C   UNL A   1      44.169  35.828  31.551  1.00  0.00     0.054 A 
BRANCH  65  66
ATOM     66  S   UNL A   1      44.197  37.550  32.121  1.00  0.00     0.124 S 
ATOM     67  O   UNL A   1      43.733  38.267  30.935  1.00  0.00    -0.237 OA
ATOM     68  O   UNL A   1      43.266  37.532  33.246  1.00  0.00    -0.237 OA
ATOM     69  O   UNL A   1      45.596  37.774  32.477  1.00  0.00    -0.744 OA
ENDBRANCH  65  66
ENDBRANCH  46  60
BRANCH  47  70
ATOM     70  C   UNL A   1      42.604  23.649  27.590  1.00  0.00    -0.014 A 
ATOM     71  C   UNL A   1      42.562  23.390  26.209  1.00  0.00     0.010 A 
ATOM     72  C   UNL A   1      42.459  22.574  28.487  1.00  0.00     0.010 A 
ATOM     73  C   UNL A   1      42.375  22.086  25.735  1.00  0.00     0.020 A 
ATOM     74  C   UNL A   1      42.299  21.266  28.018  1.00  0.00     0.020 A 
ATOM     75  C   UNL A   1      42.247  21.031  26.644  1.00  0.00     0.054 A 
BRANCH  75  76
ATOM     76  S   UNL A   1      42.070  19.339  26.010  1.00  0.00     0.124 S 
ATOM     77  O   UNL A   1      40.634  19.257  25.761  1.00  0.00    -0.237 OA
ATOM     78  O   UNL A   1      42.920  19.354  24.822  1.00  0.00    -0.237 OA
ATOM     79  O   UNL A   1      42.564  18.512  27.108  1.00  0.00    -0.744 OA
ENDBRANCH  75  76
ENDBRANCH  47  70
BRANCH  59  80
ATOM     80  C   UNL A   1      48.250  27.584  28.730  1.00  0.00    -0.014 A 
ATOM     81  C   UNL A   1      48.940  27.784  27.523  1.00  0.00     0.010 A 
ATOM     82  C   UNL A   1      48.948  27.151  29.870  1.00  0.00     0.010 A 
ATOM     83  C   UNL A   1      50.309  27.524  27.452  1.00  0.00     0.020 A 
ATOM     84  C   UNL A   1      50.319  26.912  29.807  1.00  0.00     0.020 A 
ATOM     85  C   UNL A   1      50.989  27.088  28.593  1.00  0.00     0.054 A 
BRANCH  85  86
ATOM     86  S   UNL A   1      52.776  26.799  28.491  1.00  0.00     0.124 S 
ATOM     87  O   UNL A   1      52.859  25.787  27.442  1.00  0.00    -0.237 OA
ATOM     88  O   UNL A   1      53.296  28.118  28.137  1.00  0.00    -0.237 OA
ATOM     89  O   UNL A   1      53.128  26.338  29.833  1.00  0.00    -0.744 OA
ENDBRANCH  85  86
ENDBRANCH  59  80
ENDBRANCH  33  34
ENDBRANCH  26  28
ENDBRANCH  25  26
ENDBRANCH  24  25
ENDBRANCH   1  24
TORSDOF 18
ENDMDL
MODEL 2
REMARK VINA RESULT:     -10.4      3.588      9.589
REMARK SMILES CC(C)(C)c1nnsc1C(=O)N[C@](C)(C(=O)OCCOC(=O)c1ccc(-c2c3nc(c(-c4ccc(S(=O)(=O)[O-])cc4)c4ccc([nH]4)c(-c4ccc(S(=O)(=O)[O-])cc4)c4nc(c(-c5ccc(S(=O)(=O)[O-])cc5)c5ccc2[nH]5)C=C4)C=C3)cc1)C(F)(F)F
REMARK SMILES IDX 18 1 17 2 15 3 16 4 13 5 14 6 12 7 10 8 11 9 9 11 5 12 6 13
REMARK SMILES IDX 7 14 8 15 2 16 1 17 3 18 4 19 83 20 84 21 85 22 86 23 19 24
REMARK SMILES IDX 20 25 21 26 22 27 23 28 24 29 82 30 25 31 81 32 26 33 27 34
REMARK SMILES IDX 28 35 75 36 29 37 80 38 74 39 76 40 30 41 79 42 73 43 72 44
REMARK SMILES IDX 31 46 61 47 42 48 60 49 43 50 46 51 59 52 77 53 44 54 45 55
REMARK SMILES IDX 58 57 78 58 47 59 32 60 33 61 41 62 34 63 40 64 35 65 36 66
REMARK SMILES IDX 37 67 38 68 39 69 62 70 63 71 71 72 64 73 70 74 65 75 66 76
REMARK SMILES IDX 67 77 68 78 69 79 48 80 49 81 57 82 50 83 56 84 51 85 52 86
REMARK SMILES IDX 53 87 54 88 55 89
REMARK H PARENT 12 10 76 45 46 56
REMARK Flexibility Score: inf
ROOT
ATOM      1  C   UNL A   1      36.072  23.019  23.459  1.00  0.00     0.274 C 
ENDROOT
BRANCH   1   2
ATOM      2  O   UNL A   1      35.127  23.908  24.117  1.00  0.00    -0.460 OA
BRANCH   2   3
ATOM      3  C   UNL A   1      33.865  23.409  24.269  1.00  0.00     0.341 C 
ATOM      4  O   UNL A   1      33.109  23.237  23.318  1.00  0.00    -0.249 OA
BRANCH   3   5
ATOM      5  C   UNL A   1      33.453  23.132  25.724  1.00  0.00     0.231 C 
ATOM      6  C   UNL A   1      34.503  23.301  26.839  1.00  0.00     0.058 C 
BRANCH   5   7
ATOM      7  N   UNL A   1      32.105  23.764  26.095  1.00  0.00    -0.328 N 
ATOM      8  C   UNL A   1      31.193  24.774  26.025  1.00  0.00     0.266 C 
ATOM      9  O   UNL A   1      30.302  24.514  26.855  1.00  0.00    -0.268 OA
ATOM     10  H   UNL A   1      31.684  23.100  26.687  1.00  0.00     0.165 HD
BRANCH   8  11
ATOM     11  C   UNL A   1      31.077  25.988  25.213  1.00  0.00     0.137 A 
ATOM     12  C   UNL A   1      31.442  27.344  25.146  1.00  0.00     0.094 A 
ATOM     13  N   UNL A   1      31.032  28.024  23.994  1.00  0.00    -0.142 NA
ATOM     14  N   UNL A   1      30.376  27.262  23.155  1.00  0.00    -0.090 NA
ATOM     15  S   UNL A   1      30.204  25.714  23.702  1.00  0.00    -0.006 S 
BRANCH  12  16
ATOM     16  C   UNL A   1      32.283  28.172  26.080  1.00  0.00     0.008 C 
ATOM     17  C   UNL A   1      32.458  29.566  25.481  1.00  0.00     0.018 C 
ATOM     18  C   UNL A   1      33.725  27.658  26.305  1.00  0.00     0.018 C 
ATOM     19  C   UNL A   1      31.612  28.082  27.449  1.00  0.00     0.018 C 
ENDBRANCH  12  16
ENDBRANCH   8  11
ENDBRANCH   5   7
BRANCH   5  20
ATOM     20  C   UNL A   1      33.239  21.583  25.631  1.00  0.00     0.422 C 
ATOM     21  F   UNL A   1      31.951  21.255  25.398  1.00  0.00    -0.168 F 
ATOM     22  F   UNL A   1      33.974  21.084  24.600  1.00  0.00    -0.168 F 
ATOM     23  F   UNL A   1      33.656  20.924  26.731  1.00  0.00    -0.168 F 
ENDBRANCH   5  20
ENDBRANCH   3   5
ENDBRANCH   2   3
ENDBRANCH   1   2
BRANCH   1  24
ATOM     24  C   UNL A   1      37.084  22.426  24.460  1.00  0.00     0.275 C 
BRANCH  24  25
ATOM     25  O   UNL A   1      37.641  23.475  25.261  1.00  0.00    -0.458 OA
BRANCH  25  26
ATOM     26  C   UNL A   1      38.702  23.092  26.005  1.00  0.00     0.338 C 
ATOM     27  O   UNL A   1      39.391  22.091  25.863  1.00  0.00    -0.246 OA
BRANCH  26  28
ATOM     28  C   UNL A   1      39.139  24.319  26.672  1.00  0.00     0.060 A 
ATOM     29  C   UNL A   1      38.714  24.472  27.996  1.00  0.00     0.016 A 
ATOM     30  C   UNL A   1      40.047  25.202  26.094  1.00  0.00     0.016 A 
ATOM     31  C   UNL A   1      39.218  25.493  28.776  1.00  0.00     0.010 A 
ATOM     32  C   UNL A   1      40.527  26.256  26.868  1.00  0.00     0.010 A 
ATOM     33  C   UNL A   1      40.116  26.394  28.208  1.00  0.00    -0.014 A 
BRANCH  33  34
ATOM     34  C   UNL A   1      40.510  27.585  28.974  1.00  0.00     0.031 A 
ATOM     35  C   UNL A   1      41.815  27.529  29.699  1.00  0.00     0.074 A 
ATOM     36  C   UNL A   1      39.721  28.672  29.000  1.00  0.00     0.049 A 
ATOM     37  N   UNL A   1      42.255  28.282  30.666  1.00  0.00    -0.248 NA
ATOM     38  C   UNL A   1      42.742  26.459  29.288  1.00  0.00     0.031 C 
ATOM     39  C   UNL A   1      38.496  28.854  28.216  1.00  0.00     0.029 A 
ATOM     40  N   UNL A   1      39.829  29.826  29.727  1.00  0.00    -0.354 N 
ATOM     41  C   UNL A   1      43.480  27.736  31.028  1.00  0.00     0.074 A 
ATOM     42  C   UNL A   1      43.724  26.604  30.164  1.00  0.00     0.031 C 
ATOM     43  C   UNL A   1      37.956  30.047  28.521  1.00  0.00     0.029 A 
ATOM     44  C   UNL A   1      38.754  30.667  29.572  1.00  0.00     0.049 A 
ATOM     45  H   UNL A   1      40.601  30.033  30.302  1.00  0.00     0.167 HD
ATOM     46  C   UNL A   1      44.302  28.142  32.022  1.00  0.00     0.031 A 
ATOM     47  C   UNL A   1      38.429  31.778  30.260  1.00  0.00     0.031 A 
ATOM     48  C   UNL A   1      44.009  29.278  32.850  1.00  0.00     0.049 A 
ATOM     49  C   UNL A   1      39.335  32.191  31.390  1.00  0.00     0.074 A 
ATOM     50  C   UNL A   1      44.712  29.774  33.931  1.00  0.00     0.029 A 
ATOM     51  N   UNL A   1      42.913  30.113  32.663  1.00  0.00    -0.354 N 
ATOM     52  N   UNL A   1      40.433  31.609  31.816  1.00  0.00    -0.248 NA
ATOM     53  C   UNL A   1      38.954  33.391  32.141  1.00  0.00     0.031 C 
ATOM     54  C   UNL A   1      44.027  30.897  34.410  1.00  0.00     0.029 A 
ATOM     55  C   UNL A   1      42.923  31.126  33.601  1.00  0.00     0.049 A 
ATOM     56  H   UNL A   1      42.229  29.998  31.965  1.00  0.00     0.167 HD
ATOM     57  C   UNL A   1      40.882  32.378  32.881  1.00  0.00     0.074 A 
ATOM     58  C   UNL A   1      39.945  33.477  33.019  1.00  0.00     0.031 C 
ATOM     59  C   UNL A   1      41.962  32.198  33.683  1.00  0.00     0.031 A 
BRANCH  46  60
ATOM     60  C   UNL A   1      45.523  27.306  32.289  1.00  0.00    -0.014 A 
ATOM     61  C   UNL A   1      45.484  26.207  33.166  1.00  0.00     0.010 A 
ATOM     62  C   UNL A   1      46.743  27.649  31.678  1.00  0.00     0.010 A 
ATOM     63  C   UNL A   1      46.652  25.497  33.462  1.00  0.00     0.020 A 
ATOM     64  C   UNL A   1      47.908  26.926  31.952  1.00  0.00     0.020 A 
ATOM     65  C   UNL A   1      47.858  25.867  32.860  1.00  0.00     0.054 A 
BRANCH  65  66
ATOM     66  S   UNL A   1      49.361  24.934  33.264  1.00  0.00     0.124 S 
ATOM     67  O   UNL A   1      48.812  23.752  33.927  1.00  0.00    -0.237 OA
ATOM     68  O   UNL A   1      49.956  24.696  31.952  1.00  0.00    -0.237 OA
ATOM     69  O   UNL A   1      50.110  25.842  34.129  1.00  0.00    -0.744 OA
ENDBRANCH  65  66
ENDBRANCH  46  60
BRANCH  47  70
ATOM     70  C   UNL A   1      37.173  32.514  29.951  1.00  0.00    -0.014 A 
ATOM     71  C   UNL A   1      35.978  32.216  30.629  1.00  0.00     0.010 A 
ATOM     72  C   UNL A   1      37.168  33.543  28.989  1.00  0.00     0.010 A 
ATOM     73  C   UNL A   1      34.804  32.925  30.348  1.00  0.00     0.020 A 
ATOM     74  C   UNL A   1      36.005  34.271  28.724  1.00  0.00     0.020 A 
ATOM     75  C   UNL A   1      34.826  33.951  29.399  1.00  0.00     0.054 A 
BRANCH  75  76
ATOM     76  S   UNL A   1      33.310  34.902  29.094  1.00  0.00     0.124 S 
ATOM     77  O   UNL A   1      32.734  34.994  30.433  1.00  0.00    -0.237 OA
ATOM     78  O   UNL A   1      33.825  36.152  28.539  1.00  0.00    -0.237 OA
ATOM     79  O   UNL A   1      32.571  34.069  28.149  1.00  0.00    -0.744 OA
ENDBRANCH  75  76
ENDBRANCH  47  70
BRANCH  59  80
ATOM     80  C   UNL A   1      42.196  33.240  34.736  1.00  0.00    -0.014 A 
ATOM     81  C   UNL A   1      42.832  34.453  34.425  1.00  0.00     0.010 A 
ATOM     82  C   UNL A   1      41.719  33.016  36.039  1.00  0.00     0.010 A 
ATOM     83  C   UNL A   1      43.014  35.419  35.414  1.00  0.00     0.020 A 
ATOM     84  C   UNL A   1      41.881  33.989  37.025  1.00  0.00     0.020 A 
ATOM     85  C   UNL A   1      42.540  35.180  36.708  1.00  0.00     0.054 A 
BRANCH  85  86
ATOM     86  S   UNL A   1      42.747  36.467  37.967  1.00  0.00     0.124 S 
ATOM     87  O   UNL A   1      43.331  35.715  39.075  1.00  0.00    -0.237 OA
ATOM     88  O   UNL A   1      43.641  37.419  37.312  1.00  0.00    -0.237 OA
ATOM     89  O   UNL A   1      41.387  36.953  38.191  1.00  0.00    -0.744 OA
ENDBRANCH  85  86
ENDBRANCH  59  80
ENDBRANCH  33  34
ENDBRANCH  26  28
ENDBRANCH  25  26
ENDBRANCH  24  25
ENDBRANCH   1  24
TORSDOF 18
ENDMDL
MODEL 3
REMARK VINA RESULT:      -9.9      3.797      8.829
REMARK SMILES CC(C)(C)c1nnsc1C(=O)N[C@](C)(C(=O)OCCOC(=O)c1ccc(-c2c3nc(c(-c4ccc(S(=O)(=O)[O-])cc4)c4ccc([nH]4)c(-c4ccc(S(=O)(=O)[O-])cc4)c4nc(c(-c5ccc(S(=O)(=O)[O-])cc5)c5ccc2[nH]5)C=C4)C=C3)cc1)C(F)(F)F
REMARK SMILES IDX 18 1 17 2 15 3 16 4 13 5 14 6 12 7 10 8 11 9 9 11 5 12 6 13
REMARK SMILES IDX 7 14 8 15 2 16 1 17 3 18 4 19 83 20 84 21 85 22 86 23 19 24
REMARK SMILES IDX 20 25 21 26 22 27 23 28 24 29 82 30 25 31 81 32 26 33 27 34
REMARK SMILES IDX 28 35 75 36 29 37 80 38 74 39 76 40 30 41 79 42 73 43 72 44
REMARK SMILES IDX 31 46 61 47 42 48 60 49 43 50 46 51 59 52 77 53 44 54 45 55
REMARK SMILES IDX 58 57 78 58 47 59 32 60 33 61 41 62 34 63 40 64 35 65 36 66
REMARK SMILES IDX 37 67 38 68 39 69 62 70 63 71 71 72 64 73 70 74 65 75 66 76
REMARK SMILES IDX 67 77 68 78 69 79 48 80 49 81 57 82 50 83 56 84 51 85 52 86
REMARK SMILES IDX 53 87 54 88 55 89
REMARK H PARENT 12 10 76 45 46 56
REMARK Flexibility Score: inf
ROOT
ATOM      1  C   UNL A   1      33.154  29.140  25.278  1.00  0.00     0.274 C 
ENDROOT
BRANCH   1   2
ATOM      2  O   UNL A   1      32.835  28.137  24.274  1.00  0.00    -0.460 OA
BRANCH   2   3
ATOM      3  C   UNL A   1      31.558  27.655  24.317  1.00  0.00     0.341 C 
ATOM      4  O   UNL A   1      30.583  28.390  24.443  1.00  0.00    -0.249 OA
BRANCH   3   5
ATOM      5  C   UNL A   1      31.445  26.123  24.249  1.00  0.00     0.231 C 
ATOM      6  C   UNL A   1      30.065  25.490  23.984  1.00  0.00     0.058 C 
BRANCH   5   7
ATOM      7  N   UNL A   1      32.552  25.479  23.406  1.00  0.00    -0.328 N 
ATOM      8  C   UNL A   1      33.412  24.458  23.131  1.00  0.00     0.266 C 
ATOM      9  O   UNL A   1      34.170  24.858  22.227  1.00  0.00    -0.268 OA
ATOM     10  H   UNL A   1      32.737  26.144  22.704  1.00  0.00     0.165 HD
BRANCH   8  11
ATOM     11  C   UNL A   1      33.577  23.097  23.648  1.00  0.00     0.137 A 
ATOM     12  C   UNL A   1      34.515  22.194  24.178  1.00  0.00     0.094 A 
ATOM     13  N   UNL A   1      34.005  20.949  24.563  1.00  0.00    -0.142 NA
ATOM     14  N   UNL A   1      32.715  20.842  24.369  1.00  0.00    -0.090 NA
ATOM     15  S   UNL A   1      32.054  22.204  23.710  1.00  0.00    -0.006 S 
BRANCH  12  16
ATOM     16  C   UNL A   1      35.978  22.377  24.483  1.00  0.00     0.008 C 
ATOM     17  C   UNL A   1      36.704  22.769  23.199  1.00  0.00     0.018 C 
ATOM     18  C   UNL A   1      36.714  21.112  24.981  1.00  0.00     0.018 C 
ATOM     19  C   UNL A   1      36.048  23.361  25.650  1.00  0.00     0.018 C 
ENDBRANCH  12  16
ENDBRANCH   8  11
ENDBRANCH   5   7
BRANCH   5  20
ATOM     20  C   UNL A   1      31.738  25.786  25.750  1.00  0.00     0.422 C 
ATOM     21  F   UNL A   1      31.244  26.717  26.593  1.00  0.00    -0.168 F 
ATOM     22  F   UNL A   1      31.152  24.601  26.073  1.00  0.00    -0.168 F 
ATOM     23  F   UNL A   1      33.051  25.627  26.011  1.00  0.00    -0.168 F 
ENDBRANCH   5  20
ENDBRANCH   3   5
ENDBRANCH   2   3
ENDBRANCH   1   2
BRANCH   1  24
ATOM     24  C   UNL A   1      34.272  28.657  26.226  1.00  0.00     0.275 C 
BRANCH  24  25
ATOM     25  O   UNL A   1      34.047  29.180  27.541  1.00  0.00    -0.458 OA
BRANCH  25  26
ATOM     26  C   UNL A   1      34.433  30.467  27.691  1.00  0.00     0.338 C 
ATOM     27  O   UNL A   1      33.724  31.465  27.693  1.00  0.00    -0.246 OA
BRANCH  26  28
ATOM     28  C   UNL A   1      35.752  30.378  28.320  1.00  0.00     0.060 A 
ATOM     29  C   UNL A   1      35.836  29.536  29.433  1.00  0.00     0.016 A 
ATOM     30  C   UNL A   1      36.887  30.961  27.762  1.00  0.00     0.016 A 
ATOM     31  C   UNL A   1      37.063  29.234  29.987  1.00  0.00     0.010 A 
ATOM     32  C   UNL A   1      38.122  30.688  28.344  1.00  0.00     0.010 A 
ATOM     33  C   UNL A   1      38.208  29.820  29.450  1.00  0.00    -0.014 A 
BRANCH  33  34
ATOM     34  C   UNL A   1      39.489  29.649  30.148  1.00  0.00     0.031 A 
ATOM     35  C   UNL A   1      40.417  28.600  29.626  1.00  0.00     0.074 A 
ATOM     36  C   UNL A   1      39.800  30.420  31.204  1.00  0.00     0.049 A 
ATOM     37  N   UNL A   1      41.438  28.039  30.205  1.00  0.00    -0.248 NA
ATOM     38  C   UNL A   1      40.135  28.102  28.267  1.00  0.00     0.031 C 
ATOM     39  C   UNL A   1      39.008  31.551  31.694  1.00  0.00     0.029 A 
ATOM     40  N   UNL A   1      40.865  30.359  32.060  1.00  0.00    -0.354 N 
ATOM     41  C   UNL A   1      41.881  27.072  29.312  1.00  0.00     0.074 A 
ATOM     42  C   UNL A   1      41.034  27.137  28.145  1.00  0.00     0.031 C 
ATOM     43  C   UNL A   1      39.608  32.065  32.781  1.00  0.00     0.029 A 
ATOM     44  C   UNL A   1      40.776  31.252  33.101  1.00  0.00     0.049 A 
ATOM     45  H   UNL A   1      41.619  29.737  31.943  1.00  0.00     0.167 HD
ATOM     46  C   UNL A   1      42.894  26.193  29.485  1.00  0.00     0.031 A 
ATOM     47  C   UNL A   1      41.524  31.346  34.217  1.00  0.00     0.031 A 
ATOM     48  C   UNL A   1      43.708  26.174  30.668  1.00  0.00     0.049 A 
ATOM     49  C   UNL A   1      42.621  30.332  34.410  1.00  0.00     0.074 A 
ATOM     50  C   UNL A   1      44.727  25.308  31.012  1.00  0.00     0.029 A 
ATOM     51  N   UNL A   1      43.594  27.097  31.702  1.00  0.00    -0.354 N 
ATOM     52  N   UNL A   1      42.968  29.337  33.624  1.00  0.00    -0.248 NA
ATOM     53  C   UNL A   1      43.411  30.437  35.640  1.00  0.00     0.031 C 
ATOM     54  C   UNL A   1      45.216  25.697  32.266  1.00  0.00     0.029 A 
ATOM     55  C   UNL A   1      44.530  26.831  32.681  1.00  0.00     0.049 A 
ATOM     56  H   UNL A   1      42.942  27.834  31.732  1.00  0.00     0.167 HD
ATOM     57  C   UNL A   1      44.025  28.702  34.260  1.00  0.00     0.074 A 
ATOM     58  C   UNL A   1      44.271  29.438  35.486  1.00  0.00     0.031 C 
ATOM     59  C   UNL A   1      44.730  27.606  33.879  1.00  0.00     0.031 A 
BRANCH  46  60
ATOM     60  C   UNL A   1      43.101  25.162  28.410  1.00  0.00    -0.014 A 
ATOM     61  C   UNL A   1      42.406  23.939  28.419  1.00  0.00     0.010 A 
ATOM     62  C   UNL A   1      44.036  25.408  27.387  1.00  0.00     0.010 A 
ATOM     63  C   UNL A   1      42.678  22.964  27.455  1.00  0.00     0.020 A 
ATOM     64  C   UNL A   1      44.292  24.445  26.406  1.00  0.00     0.020 A 
ATOM     65  C   UNL A   1      43.626  23.220  26.460  1.00  0.00     0.054 A 
BRANCH  65  66
ATOM     66  S   UNL A   1      43.965  21.936  25.222  1.00  0.00     0.124 S 
ATOM     67  O   UNL A   1      45.327  21.535  25.571  1.00  0.00    -0.237 OA
ATOM     68  O   UNL A   1      42.930  20.943  25.495  1.00  0.00    -0.237 OA
ATOM     69  O   UNL A   1      43.830  22.639  23.949  1.00  0.00    -0.744 OA
ENDBRANCH  65  66
ENDBRANCH  46  60
BRANCH  47  70
ATOM     70  C   UNL A   1      41.213  32.373  35.247  1.00  0.00    -0.014 A 
ATOM     71  C   UNL A   1      41.792  33.652  35.186  1.00  0.00     0.010 A 
ATOM     72  C   UNL A   1      40.309  32.086  36.288  1.00  0.00     0.010 A 
ATOM     73  C   UNL A   1      41.480  34.621  36.147  1.00  0.00     0.020 A 
ATOM     74  C   UNL A   1      39.973  33.060  37.234  1.00  0.00     0.020 A 
ATOM     75  C   UNL A   1      40.570  34.320  37.164  1.00  0.00     0.054 A 
BRANCH  75  76
ATOM     76  S   UNL A   1      40.128  35.610  38.363  1.00  0.00     0.124 S 
ATOM     77  O   UNL A   1      38.963  35.026  39.021  1.00  0.00    -0.237 OA
ATOM     78  O   UNL A   1      41.335  35.708  39.182  1.00  0.00    -0.237 OA
ATOM     79  O   UNL A   1      39.858  36.775  37.525  1.00  0.00    -0.744 OA
ENDBRANCH  75  76
ENDBRANCH  47  70
BRANCH  59  80
ATOM     80  C   UNL A   1      45.852  27.184  34.782  1.00  0.00    -0.014 A 
ATOM     81  C   UNL A   1      45.641  26.248  35.808  1.00  0.00     0.010 A 
ATOM     82  C   UNL A   1      47.142  27.694  34.557  1.00  0.00     0.010 A 
ATOM     83  C   UNL A   1      46.705  25.850  36.617  1.00  0.00     0.020 A 
ATOM     84  C   UNL A   1      48.210  27.282  35.351  1.00  0.00     0.020 A 
ATOM     85  C   UNL A   1      47.982  26.371  36.386  1.00  0.00     0.054 A 
BRANCH  85  86
ATOM     86  S   UNL A   1      49.358  25.806  37.421  1.00  0.00     0.124 S 
ATOM     87  O   UNL A   1      50.231  26.977  37.427  1.00  0.00    -0.237 OA
ATOM     88  O   UNL A   1      48.703  25.502  38.691  1.00  0.00    -0.237 OA
ATOM     89  O   UNL A   1      49.877  24.645  36.701  1.00  0.00    -0.744 OA
ENDBRANCH  85  86
ENDBRANCH  59  80
ENDBRANCH  33  34
ENDBRANCH  26  28
ENDBRANCH  25  26
ENDBRANCH  24  25
ENDBRANCH   1  24
TORSDOF 18
ENDMDL
