MODEL 1
REMARK VINA RESULT:     -12.0      0.000      0.000
REMARK SMILES O=C(OCCOC(=O)c1ccc(-c2c3nc(c(-c4ccc(S(=O)(=O)[O-])cc4)c4ccc([nH]4)c(-c4ccc(S(=O)(=O)[O-])cc4)c4nc(c(-c5ccc(S(=O)(=O)[O-])cc5)c5ccc2[nH]5)C=C4)C=C3)cc1)c1ccc(NC(=O)[C@@H]2CC=CC[C@H]2C(=O)Nc2cccc([N+](=O)[O-])c2)cc1
REMARK SMILES IDX 4 1 3 2 2 3 1 4 69 5 70 6 95 7 71 8 94 9 72 10 73 11 74 12
REMARK SMILES IDX 75 14 76 15 77 16 81 17 78 18 80 19 79 20 82 21 83 22 84 23
REMARK SMILES IDX 85 25 86 26 93 27 87 28 89 29 88 30 90 31 91 32 92 33 5 34
REMARK SMILES IDX 6 35 7 36 8 37 9 38 10 39 68 40 11 41 67 42 12 43 13 44
REMARK SMILES IDX 14 45 61 46 15 47 66 48 60 49 62 50 16 51 65 52 59 53 58 54
REMARK SMILES IDX 17 56 47 57 28 58 46 59 29 60 32 61 45 62 63 63 30 64 31 65
REMARK SMILES IDX 44 67 64 68 33 69 18 70 19 71 27 72 20 73 26 74 21 75 22 76
REMARK SMILES IDX 23 77 24 78 25 79 48 80 49 81 57 82 50 83 56 84 51 85 52 86
REMARK SMILES IDX 53 87 54 88 55 89 34 90 35 91 43 92 36 93 42 94 37 95 38 96
REMARK SMILES IDX 39 97 40 98 41 99
REMARK H PARENT 73 13 84 24 62 55 32 66
REMARK Flexibility Score: inf
ROOT
ATOM      1  C   UNL A   1      43.118  21.397  25.923  1.00  0.00     0.275 C 
ENDROOT
BRANCH   1   2
ATOM      2  O   UNL A   1      41.865  21.428  26.640  1.00  0.00    -0.458 OA
BRANCH   2   3
ATOM      3  C   UNL A   1      40.651  20.883  26.369  1.00  0.00     0.338 C 
ATOM      4  O   UNL A   1      40.579  19.658  26.283  1.00  0.00    -0.246 OA
BRANCH   3   5
ATOM      5  C   UNL A   1      39.399  21.667  26.095  1.00  0.00     0.060 A 
ATOM      6  C   UNL A   1      39.187  22.970  26.500  1.00  0.00     0.018 A 
ATOM      7  C   UNL A   1      38.417  21.115  25.253  1.00  0.00     0.018 A 
ATOM      8  C   UNL A   1      38.138  23.729  25.991  1.00  0.00     0.027 A 
ATOM      9  C   UNL A   1      37.302  21.871  24.815  1.00  0.00     0.027 A 
ATOM     10  C   UNL A   1      37.165  23.215  25.165  1.00  0.00     0.041 A 
BRANCH  10  11
ATOM     11  N   UNL A   1      36.124  23.990  24.614  1.00  0.00    -0.326 N 
ATOM     12  C   UNL A   1      34.751  23.902  24.626  1.00  0.00     0.228 C 
ATOM     13  H   UNL A   1      36.453  24.768  24.110  1.00  0.00     0.169 HD
ATOM     14  O   UNL A   1      34.118  24.844  24.138  1.00  0.00    -0.274 OA
BRANCH  12  15
ATOM     15  C   UNL A   1      33.990  22.665  25.132  1.00  0.00     0.095 C 
ATOM     16  C   UNL A   1      34.222  21.501  24.145  1.00  0.00     0.041 C 
ATOM     17  C   UNL A   1      32.474  22.935  25.345  1.00  0.00     0.095 C 
ATOM     18  C   UNL A   1      33.376  20.302  24.463  1.00  0.00    -0.030 C 
ATOM     19  C   UNL A   1      31.490  21.770  25.086  1.00  0.00     0.041 C 
ATOM     20  C   UNL A   1      32.119  20.431  24.901  1.00  0.00    -0.030 C 
BRANCH  17  21
ATOM     21  C   UNL A   1      32.014  23.592  26.642  1.00  0.00     0.228 C 
ATOM     22  O   UNL A   1      32.154  22.957  27.697  1.00  0.00    -0.274 OA
ATOM     23  N   UNL A   1      31.586  24.877  26.807  1.00  0.00    -0.326 N 
ATOM     24  H   UNL A   1      31.648  25.149  27.752  1.00  0.00     0.169 HD
BRANCH  23  25
ATOM     25  C   UNL A   1      31.083  25.926  26.015  1.00  0.00     0.048 A 
ATOM     26  C   UNL A   1      30.061  25.599  25.111  1.00  0.00     0.026 A 
ATOM     27  C   UNL A   1      31.602  27.211  25.961  1.00  0.00     0.111 A 
ATOM     28  C   UNL A   1      29.600  26.523  24.161  1.00  0.00     0.009 A 
ATOM     29  C   UNL A   1      31.219  28.103  24.949  1.00  0.00     0.271 A 
ATOM     30  C   UNL A   1      30.204  27.772  24.053  1.00  0.00     0.086 A 
BRANCH  29  31
ATOM     31  N   UNL A   1      31.968  29.357  24.780  1.00  0.00     0.062 N 
ATOM     32  O   UNL A   1      32.845  29.388  23.906  1.00  0.00    -0.258 OA
ATOM     33  O   UNL A   1      31.703  30.293  25.547  1.00  0.00    -0.258 OA
ENDBRANCH  29  31
ENDBRANCH  23  25
ENDBRANCH  17  21
ENDBRANCH  12  15
ENDBRANCH  10  11
ENDBRANCH   3   5
ENDBRANCH   2   3
ENDBRANCH   1   2
BRANCH   1  34
ATOM     34  C   UNL A   1      43.791  22.780  25.871  1.00  0.00     0.275 C 
BRANCH  34  35
ATOM     35  O   UNL A   1      42.835  23.853  25.971  1.00  0.00    -0.458 OA
BRANCH  35  36
ATOM     36  C   UNL A   1      43.340  25.112  25.872  1.00  0.00     0.338 C 
ATOM     37  O   UNL A   1      43.999  25.548  24.944  1.00  0.00    -0.246 OA
BRANCH  36  38
ATOM     38  C   UNL A   1      42.844  25.944  26.996  1.00  0.00     0.060 A 
ATOM     39  C   UNL A   1      43.365  27.230  27.161  1.00  0.00     0.016 A 
ATOM     40  C   UNL A   1      41.865  25.490  27.877  1.00  0.00     0.016 A 
ATOM     41  C   UNL A   1      42.930  28.039  28.222  1.00  0.00     0.010 A 
ATOM     42  C   UNL A   1      41.395  26.319  28.907  1.00  0.00     0.010 A 
ATOM     43  C   UNL A   1      41.950  27.590  29.122  1.00  0.00    -0.014 A 
BRANCH  43  44
ATOM     44  C   UNL A   1      41.564  28.405  30.315  1.00  0.00     0.031 A 
ATOM     45  C   UNL A   1      42.326  28.260  31.615  1.00  0.00     0.074 A 
ATOM     46  C   UNL A   1      40.535  29.278  30.264  1.00  0.00     0.049 A 
ATOM     47  N   UNL A   1      42.218  28.962  32.716  1.00  0.00    -0.248 NA
ATOM     48  C   UNL A   1      43.335  27.193  31.688  1.00  0.00     0.031 C 
ATOM     49  C   UNL A   1      39.683  29.513  29.101  1.00  0.00     0.029 A 
ATOM     50  N   UNL A   1      40.026  30.129  31.218  1.00  0.00    -0.354 N 
ATOM     51  C   UNL A   1      43.152  28.433  33.600  1.00  0.00     0.074 A 
ATOM     52  C   UNL A   1      43.765  27.305  32.936  1.00  0.00     0.031 C 
ATOM     53  C   UNL A   1      38.752  30.432  29.408  1.00  0.00     0.029 A 
ATOM     54  C   UNL A   1      38.949  30.870  30.788  1.00  0.00     0.049 A 
ATOM     55  H   UNL A   1      40.399  30.203  32.126  1.00  0.00     0.167 HD
ATOM     56  C   UNL A   1      43.500  28.861  34.839  1.00  0.00     0.031 A 
ATOM     57  C   UNL A   1      38.215  31.814  31.414  1.00  0.00     0.031 A 
ATOM     58  C   UNL A   1      42.889  29.972  35.518  1.00  0.00     0.049 A 
ATOM     59  C   UNL A   1      38.600  32.261  32.802  1.00  0.00     0.074 A 
ATOM     60  C   UNL A   1      43.227  30.523  36.742  1.00  0.00     0.029 A 
ATOM     61  N   UNL A   1      41.804  30.691  35.043  1.00  0.00    -0.354 N 
ATOM     62  N   UNL A   1      39.580  31.836  33.561  1.00  0.00    -0.248 NA
ATOM     63  C   UNL A   1      37.804  33.345  33.397  1.00  0.00     0.031 C 
ATOM     64  C   UNL A   1      42.306  31.534  37.037  1.00  0.00     0.029 A 
ATOM     65  C   UNL A   1      41.440  31.660  35.964  1.00  0.00     0.049 A 
ATOM     66  H   UNL A   1      41.358  30.537  34.179  1.00  0.00     0.167 HD
ATOM     67  C   UNL A   1      39.545  32.631  34.705  1.00  0.00     0.074 A 
ATOM     68  C   UNL A   1      38.453  33.565  34.533  1.00  0.00     0.031 C 
ATOM     69  C   UNL A   1      40.354  32.594  35.792  1.00  0.00     0.031 A 
BRANCH  56  70
ATOM     70  C   UNL A   1      44.617  28.127  35.543  1.00  0.00    -0.014 A 
ATOM     71  C   UNL A   1      45.934  28.625  35.516  1.00  0.00     0.010 A 
ATOM     72  C   UNL A   1      44.341  26.966  36.286  1.00  0.00     0.010 A 
ATOM     73  C   UNL A   1      46.959  27.951  36.185  1.00  0.00     0.020 A 
ATOM     74  C   UNL A   1      45.359  26.306  36.982  1.00  0.00     0.020 A 
ATOM     75  C   UNL A   1      46.665  26.795  36.913  1.00  0.00     0.054 A 
BRANCH  75  76
ATOM     76  S   UNL A   1      48.014  25.959  37.793  1.00  0.00     0.124 S 
ATOM     77  O   UNL A   1      47.319  24.829  38.407  1.00  0.00    -0.237 OA
ATOM     78  O   UNL A   1      48.936  25.617  36.714  1.00  0.00    -0.237 OA
ATOM     79  O   UNL A   1      48.501  26.971  38.727  1.00  0.00    -0.744 OA
ENDBRANCH  75  76
ENDBRANCH  56  70
BRANCH  57  80
ATOM     80  C   UNL A   1      37.064  32.451  30.711  1.00  0.00    -0.014 A 
ATOM     81  C   UNL A   1      35.762  31.938  30.851  1.00  0.00     0.010 A 
ATOM     82  C   UNL A   1      37.269  33.574  29.888  1.00  0.00     0.010 A 
ATOM     83  C   UNL A   1      34.692  32.517  30.163  1.00  0.00     0.020 A 
ATOM     84  C   UNL A   1      36.197  34.174  29.219  1.00  0.00     0.020 A 
ATOM     85  C   UNL A   1      34.915  33.634  29.352  1.00  0.00     0.054 A 
BRANCH  85  86
ATOM     86  S   UNL A   1      33.503  34.397  28.505  1.00  0.00     0.124 S 
ATOM     87  O   UNL A   1      32.636  34.758  29.621  1.00  0.00    -0.237 OA
ATOM     88  O   UNL A   1      34.127  35.514  27.801  1.00  0.00    -0.237 OA
ATOM     89  O   UNL A   1      33.003  33.328  27.642  1.00  0.00    -0.744 OA
ENDBRANCH  85  86
ENDBRANCH  57  80
BRANCH  69  90
ATOM     90  C   UNL A   1      40.130  33.618  36.876  1.00  0.00    -0.014 A 
ATOM     91  C   UNL A   1      40.924  34.774  36.972  1.00  0.00     0.010 A 
ATOM     92  C   UNL A   1      39.060  33.449  37.775  1.00  0.00     0.010 A 
ATOM     93  C   UNL A   1      40.671  35.726  37.964  1.00  0.00     0.020 A 
ATOM     94  C   UNL A   1      38.785  34.414  38.748  1.00  0.00     0.020 A 
ATOM     95  C   UNL A   1      39.602  35.540  38.845  1.00  0.00     0.054 A 
BRANCH  95  96
ATOM     96  S   UNL A   1      39.265  36.815  40.091  1.00  0.00     0.124 S 
ATOM     97  O   UNL A   1      38.648  37.869  39.291  1.00  0.00    -0.237 OA
ATOM     98  O   UNL A   1      38.372  36.128  41.021  1.00  0.00    -0.237 OA
ATOM     99  O   UNL A   1      40.586  37.134  40.629  1.00  0.00    -0.744 OA
ENDBRANCH  95  96
ENDBRANCH  69  90
ENDBRANCH  43  44
ENDBRANCH  36  38
ENDBRANCH  35  36
ENDBRANCH  34  35
ENDBRANCH   1  34
TORSDOF 19
ENDMDL
MODEL 2
REMARK VINA RESULT:     -12.0      6.036     12.040
REMARK SMILES O=C(OCCOC(=O)c1ccc(-c2c3nc(c(-c4ccc(S(=O)(=O)[O-])cc4)c4ccc([nH]4)c(-c4ccc(S(=O)(=O)[O-])cc4)c4nc(c(-c5ccc(S(=O)(=O)[O-])cc5)c5ccc2[nH]5)C=C4)C=C3)cc1)c1ccc(NC(=O)[C@@H]2CC=CC[C@H]2C(=O)Nc2cccc([N+](=O)[O-])c2)cc1
REMARK SMILES IDX 4 1 3 2 2 3 1 4 69 5 70 6 95 7 71 8 94 9 72 10 73 11 74 12
REMARK SMILES IDX 75 14 76 15 77 16 81 17 78 18 80 19 79 20 82 21 83 22 84 23
REMARK SMILES IDX 85 25 86 26 93 27 87 28 89 29 88 30 90 31 91 32 92 33 5 34
REMARK SMILES IDX 6 35 7 36 8 37 9 38 10 39 68 40 11 41 67 42 12 43 13 44
REMARK SMILES IDX 14 45 61 46 15 47 66 48 60 49 62 50 16 51 65 52 59 53 58 54
REMARK SMILES IDX 17 56 47 57 28 58 46 59 29 60 32 61 45 62 63 63 30 64 31 65
REMARK SMILES IDX 44 67 64 68 33 69 18 70 19 71 27 72 20 73 26 74 21 75 22 76
REMARK SMILES IDX 23 77 24 78 25 79 48 80 49 81 57 82 50 83 56 84 51 85 52 86
REMARK SMILES IDX 53 87 54 88 55 89 34 90 35 91 43 92 36 93 42 94 37 95 38 96
REMARK SMILES IDX 39 97 40 98 41 99
REMARK H PARENT 73 13 84 24 62 55 32 66
REMARK Flexibility Score: inf
ROOT
ATOM      1  C   UNL A   1      34.028  31.535  27.859  1.00  0.00     0.275 C 
ENDROOT
BRANCH   1   2
ATOM      2  O   UNL A   1      33.594  30.247  27.371  1.00  0.00    -0.458 OA
BRANCH   2   3
ATOM      3  C   UNL A   1      32.508  29.868  26.650  1.00  0.00     0.338 C 
ATOM      4  O   UNL A   1      31.428  30.390  26.921  1.00  0.00    -0.246 OA
BRANCH   3   5
ATOM      5  C   UNL A   1      32.511  28.805  25.588  1.00  0.00     0.060 A 
ATOM      6  C   UNL A   1      33.595  28.497  24.791  1.00  0.00     0.018 A 
ATOM      7  C   UNL A   1      31.397  27.954  25.470  1.00  0.00     0.018 A 
ATOM      8  C   UNL A   1      33.629  27.336  24.024  1.00  0.00     0.027 A 
ATOM      9  C   UNL A   1      31.409  26.826  24.614  1.00  0.00     0.027 A 
ATOM     10  C   UNL A   1      32.555  26.486  23.892  1.00  0.00     0.041 A 
BRANCH  10  11
ATOM     11  N   UNL A   1      32.598  25.289  23.150  1.00  0.00    -0.326 N 
ATOM     12  C   UNL A   1      33.062  24.018  23.401  1.00  0.00     0.228 C 
ATOM     13  H   UNL A   1      32.210  25.383  22.250  1.00  0.00     0.169 HD
ATOM     14  O   UNL A   1      32.822  23.150  22.555  1.00  0.00    -0.274 OA
BRANCH  12  15
ATOM     15  C   UNL A   1      33.922  23.661  24.624  1.00  0.00     0.095 C 
ATOM     16  C   UNL A   1      35.335  24.254  24.428  1.00  0.00     0.041 C 
ATOM     17  C   UNL A   1      33.980  22.132  24.895  1.00  0.00     0.095 C 
ATOM     18  C   UNL A   1      36.297  23.807  25.491  1.00  0.00    -0.030 C 
ATOM     19  C   UNL A   1      35.285  21.554  25.491  1.00  0.00     0.041 C 
ATOM     20  C   UNL A   1      36.267  22.563  25.981  1.00  0.00    -0.030 C 
BRANCH  17  21
ATOM     21  C   UNL A   1      32.840  21.472  25.664  1.00  0.00     0.228 C 
ATOM     22  O   UNL A   1      32.195  22.170  26.459  1.00  0.00    -0.274 OA
ATOM     23  N   UNL A   1      32.340  20.216  25.477  1.00  0.00    -0.326 N 
ATOM     24  H   UNL A   1      31.435  20.139  25.858  1.00  0.00     0.169 HD
BRANCH  23  25
ATOM     25  C   UNL A   1      32.746  19.000  24.897  1.00  0.00     0.048 A 
ATOM     26  C   UNL A   1      32.871  18.979  23.499  1.00  0.00     0.026 A 
ATOM     27  C   UNL A   1      32.899  17.800  25.573  1.00  0.00     0.111 A 
ATOM     28  C   UNL A   1      33.108  17.785  22.802  1.00  0.00     0.009 A 
ATOM     29  C   UNL A   1      33.032  16.589  24.877  1.00  0.00     0.271 A 
ATOM     30  C   UNL A   1      33.155  16.575  23.488  1.00  0.00     0.086 A 
BRANCH  29  31
ATOM     31  N   UNL A   1      32.944  15.324  25.620  1.00  0.00     0.062 N 
ATOM     32  O   UNL A   1      33.813  14.469  25.400  1.00  0.00    -0.258 OA
ATOM     33  O   UNL A   1      31.987  15.175  26.391  1.00  0.00    -0.258 OA
ENDBRANCH  29  31
ENDBRANCH  23  25
ENDBRANCH  17  21
ENDBRANCH  12  15
ENDBRANCH  10  11
ENDBRANCH   3   5
ENDBRANCH   2   3
ENDBRANCH   1   2
BRANCH   1  34
ATOM     34  C   UNL A   1      35.186  31.415  28.865  1.00  0.00     0.275 C 
BRANCH  34  35
ATOM     35  O   UNL A   1      35.803  30.114  28.829  1.00  0.00    -0.458 OA
BRANCH  35  36
ATOM     36  C   UNL A   1      36.554  29.780  29.912  1.00  0.00     0.338 C 
ATOM     37  O   UNL A   1      36.136  29.591  31.042  1.00  0.00    -0.246 OA
BRANCH  36  38
ATOM     38  C   UNL A   1      37.956  29.524  29.496  1.00  0.00     0.060 A 
ATOM     39  C   UNL A   1      38.256  29.490  28.132  1.00  0.00     0.016 A 
ATOM     40  C   UNL A   1      38.979  29.334  30.422  1.00  0.00     0.016 A 
ATOM     41  C   UNL A   1      39.568  29.235  27.702  1.00  0.00     0.010 A 
ATOM     42  C   UNL A   1      40.298  29.129  29.991  1.00  0.00     0.010 A 
ATOM     43  C   UNL A   1      40.607  29.035  28.626  1.00  0.00    -0.014 A 
BRANCH  43  44
ATOM     44  C   UNL A   1      41.981  28.655  28.173  1.00  0.00     0.031 A 
ATOM     45  C   UNL A   1      43.064  29.706  28.062  1.00  0.00     0.074 A 
ATOM     46  C   UNL A   1      42.285  27.379  27.852  1.00  0.00     0.049 A 
ATOM     47  N   UNL A   1      44.340  29.551  27.804  1.00  0.00    -0.248 NA
ATOM     48  C   UNL A   1      42.665  31.107  28.264  1.00  0.00     0.031 C 
ATOM     49  C   UNL A   1      41.350  26.255  27.877  1.00  0.00     0.029 A 
ATOM     50  N   UNL A   1      43.467  26.810  27.438  1.00  0.00    -0.354 N 
ATOM     51  C   UNL A   1      44.893  30.827  27.830  1.00  0.00     0.074 A 
ATOM     52  C   UNL A   1      43.804  31.751  28.054  1.00  0.00     0.031 C 
ATOM     53  C   UNL A   1      41.985  25.139  27.484  1.00  0.00     0.029 A 
ATOM     54  C   UNL A   1      43.382  25.457  27.196  1.00  0.00     0.049 A 
ATOM     55  H   UNL A   1      44.300  27.323  27.326  1.00  0.00     0.167 HD
ATOM     56  C   UNL A   1      46.191  31.202  27.715  1.00  0.00     0.031 A 
ATOM     57  C   UNL A   1      44.318  24.565  26.812  1.00  0.00     0.031 A 
ATOM     58  C   UNL A   1      47.282  30.296  27.479  1.00  0.00     0.049 A 
ATOM     59  C   UNL A   1      45.753  25.003  26.664  1.00  0.00     0.074 A 
ATOM     60  C   UNL A   1      48.637  30.577  27.422  1.00  0.00     0.029 A 
ATOM     61  N   UNL A   1      47.147  28.938  27.241  1.00  0.00    -0.354 N 
ATOM     62  N   UNL A   1      46.271  26.196  26.832  1.00  0.00    -0.248 NA
ATOM     63  C   UNL A   1      46.734  23.965  26.316  1.00  0.00     0.031 C 
ATOM     64  C   UNL A   1      49.315  29.401  27.087  1.00  0.00     0.029 A 
ATOM     65  C   UNL A   1      48.390  28.373  27.006  1.00  0.00     0.049 A 
ATOM     66  H   UNL A   1      46.294  28.446  27.239  1.00  0.00     0.167 HD
ATOM     67  C   UNL A   1      47.643  26.041  26.654  1.00  0.00     0.074 A 
ATOM     68  C   UNL A   1      47.875  24.640  26.373  1.00  0.00     0.031 C 
ATOM     69  C   UNL A   1      48.621  26.977  26.729  1.00  0.00     0.031 A 
BRANCH  56  70
ATOM     70  C   UNL A   1      46.508  32.671  27.863  1.00  0.00    -0.014 A 
ATOM     71  C   UNL A   1      46.834  33.215  29.120  1.00  0.00     0.010 A 
ATOM     72  C   UNL A   1      46.540  33.504  26.730  1.00  0.00     0.010 A 
ATOM     73  C   UNL A   1      47.146  34.571  29.247  1.00  0.00     0.020 A 
ATOM     74  C   UNL A   1      46.881  34.856  26.848  1.00  0.00     0.020 A 
ATOM     75  C   UNL A   1      47.166  35.383  28.110  1.00  0.00     0.054 A 
BRANCH  75  76
ATOM     76  S   UNL A   1      47.600  37.134  28.304  1.00  0.00     0.124 S 
ATOM     77  O   UNL A   1      47.644  37.274  29.759  1.00  0.00    -0.237 OA
ATOM     78  O   UNL A   1      48.891  37.220  27.627  1.00  0.00    -0.237 OA
ATOM     79  O   UNL A   1      46.505  37.840  27.645  1.00  0.00    -0.744 OA
ENDBRANCH  75  76
ENDBRANCH  56  70
BRANCH  57  80
ATOM     80  C   UNL A   1      43.942  23.138  26.593  1.00  0.00    -0.014 A 
ATOM     81  C   UNL A   1      44.500  22.402  25.532  1.00  0.00     0.010 A 
ATOM     82  C   UNL A   1      43.013  22.510  27.443  1.00  0.00     0.010 A 
ATOM     83  C   UNL A   1      44.118  21.075  25.309  1.00  0.00     0.020 A 
ATOM     84  C   UNL A   1      42.649  21.175  27.240  1.00  0.00     0.020 A 
ATOM     85  C   UNL A   1      43.197  20.468  26.166  1.00  0.00     0.054 A 
BRANCH  85  86
ATOM     86  S   UNL A   1      42.751  18.732  25.884  1.00  0.00     0.124 S 
ATOM     87  O   UNL A   1      43.124  18.111  27.151  1.00  0.00    -0.237 OA
ATOM     88  O   UNL A   1      41.316  18.816  25.619  1.00  0.00    -0.237 OA
ATOM     89  O   UNL A   1      43.567  18.351  24.734  1.00  0.00    -0.744 OA
ENDBRANCH  85  86
ENDBRANCH  57  80
BRANCH  69  90
ATOM     90  C   UNL A   1      50.049  26.524  26.548  1.00  0.00    -0.014 A 
ATOM     91  C   UNL A   1      50.620  26.384  25.272  1.00  0.00     0.010 A 
ATOM     92  C   UNL A   1      50.851  26.299  27.683  1.00  0.00     0.010 A 
ATOM     93  C   UNL A   1      51.958  25.999  25.133  1.00  0.00     0.020 A 
ATOM     94  C   UNL A   1      52.196  25.944  27.549  1.00  0.00     0.020 A 
ATOM     95  C   UNL A   1      52.738  25.783  26.273  1.00  0.00     0.054 A 
BRANCH  95  96
ATOM     96  S   UNL A   1      54.483  25.332  26.066  1.00  0.00     0.124 S 
ATOM     97  O   UNL A   1      55.118  26.637  25.906  1.00  0.00    -0.237 OA
ATOM     98  O   UNL A   1      54.785  24.634  27.313  1.00  0.00    -0.237 OA
ATOM     99  O   UNL A   1      54.485  24.489  24.872  1.00  0.00    -0.744 OA
ENDBRANCH  95  96
ENDBRANCH  69  90
ENDBRANCH  43  44
ENDBRANCH  36  38
ENDBRANCH  35  36
ENDBRANCH  34  35
ENDBRANCH   1  34
TORSDOF 19
ENDMDL
MODEL 3
REMARK VINA RESULT:     -11.9      6.217     12.002
REMARK SMILES O=C(OCCOC(=O)c1ccc(-c2c3nc(c(-c4ccc(S(=O)(=O)[O-])cc4)c4ccc([nH]4)c(-c4ccc(S(=O)(=O)[O-])cc4)c4nc(c(-c5ccc(S(=O)(=O)[O-])cc5)c5ccc2[nH]5)C=C4)C=C3)cc1)c1ccc(NC(=O)[C@@H]2CC=CC[C@H]2C(=O)Nc2cccc([N+](=O)[O-])c2)cc1
REMARK SMILES IDX 4 1 3 2 2 3 1 4 69 5 70 6 95 7 71 8 94 9 72 10 73 11 74 12
REMARK SMILES IDX 75 14 76 15 77 16 81 17 78 18 80 19 79 20 82 21 83 22 84 23
REMARK SMILES IDX 85 25 86 26 93 27 87 28 89 29 88 30 90 31 91 32 92 33 5 34
REMARK SMILES IDX 6 35 7 36 8 37 9 38 10 39 68 40 11 41 67 42 12 43 13 44
REMARK SMILES IDX 14 45 61 46 15 47 66 48 60 49 62 50 16 51 65 52 59 53 58 54
REMARK SMILES IDX 17 56 47 57 28 58 46 59 29 60 32 61 45 62 63 63 30 64 31 65
REMARK SMILES IDX 44 67 64 68 33 69 18 70 19 71 27 72 20 73 26 74 21 75 22 76
REMARK SMILES IDX 23 77 24 78 25 79 48 80 49 81 57 82 50 83 56 84 51 85 52 86
REMARK SMILES IDX 53 87 54 88 55 89 34 90 35 91 43 92 36 93 42 94 37 95 38 96
REMARK SMILES IDX 39 97 40 98 41 99
REMARK H PARENT 73 13 84 24 62 55 32 66
REMARK Flexibility Score: inf
ROOT
ATOM      1  C   UNL A   1      34.302  30.867  27.977  1.00  0.00     0.275 C 
ENDROOT
BRANCH   1   2
ATOM      2  O   UNL A   1      33.408  31.236  26.905  1.00  0.00    -0.458 OA
BRANCH   2   3
ATOM      3  C   UNL A   1      32.249  30.687  26.459  1.00  0.00     0.338 C 
ATOM      4  O   UNL A   1      31.227  31.367  26.531  1.00  0.00    -0.246 OA
BRANCH   3   5
ATOM      5  C   UNL A   1      32.106  29.280  25.950  1.00  0.00     0.060 A 
ATOM      6  C   UNL A   1      31.778  28.193  26.734  1.00  0.00     0.018 A 
ATOM      7  C   UNL A   1      32.165  29.046  24.564  1.00  0.00     0.018 A 
ATOM      8  C   UNL A   1      31.395  26.979  26.172  1.00  0.00     0.027 A 
ATOM      9  C   UNL A   1      31.863  27.779  24.010  1.00  0.00     0.027 A 
ATOM     10  C   UNL A   1      31.441  26.724  24.821  1.00  0.00     0.041 A 
BRANCH  10  11
ATOM     11  N   UNL A   1      31.016  25.510  24.245  1.00  0.00    -0.326 N 
ATOM     12  C   UNL A   1      31.525  24.232  24.210  1.00  0.00     0.228 C 
ATOM     13  H   UNL A   1      30.164  25.595  23.759  1.00  0.00     0.169 HD
ATOM     14  O   UNL A   1      30.815  23.352  23.710  1.00  0.00    -0.274 OA
BRANCH  12  15
ATOM     15  C   UNL A   1      32.946  23.878  24.678  1.00  0.00     0.095 C 
ATOM     16  C   UNL A   1      33.960  24.692  23.845  1.00  0.00     0.041 C 
ATOM     17  C   UNL A   1      33.243  22.354  24.603  1.00  0.00     0.095 C 
ATOM     18  C   UNL A   1      35.381  24.282  24.111  1.00  0.00    -0.030 C 
ATOM     19  C   UNL A   1      34.690  21.916  24.276  1.00  0.00     0.041 C 
ATOM     20  C   UNL A   1      35.711  23.002  24.313  1.00  0.00    -0.030 C 
BRANCH  17  21
ATOM     21  C   UNL A   1      32.780  21.452  25.743  1.00  0.00     0.228 C 
ATOM     22  O   UNL A   1      32.412  21.991  26.796  1.00  0.00    -0.274 OA
ATOM     23  N   UNL A   1      32.583  20.103  25.696  1.00  0.00    -0.326 N 
ATOM     24  H   UNL A   1      32.000  19.808  26.433  1.00  0.00     0.169 HD
BRANCH  23  25
ATOM     25  C   UNL A   1      32.974  19.012  24.898  1.00  0.00     0.048 A 
ATOM     26  C   UNL A   1      32.508  19.000  23.574  1.00  0.00     0.026 A 
ATOM     27  C   UNL A   1      33.660  17.894  25.347  1.00  0.00     0.111 A 
ATOM     28  C   UNL A   1      32.696  17.887  22.741  1.00  0.00     0.009 A 
ATOM     29  C   UNL A   1      33.761  16.741  24.556  1.00  0.00     0.271 A 
ATOM     30  C   UNL A   1      33.295  16.735  23.241  1.00  0.00     0.086 A 
BRANCH  29  31
ATOM     31  N   UNL A   1      34.277  15.503  25.158  1.00  0.00     0.062 N 
ATOM     32  O   UNL A   1      33.461  14.608  25.417  1.00  0.00    -0.258 OA
ATOM     33  O   UNL A   1      35.489  15.445  25.404  1.00  0.00    -0.258 OA
ENDBRANCH  29  31
ENDBRANCH  23  25
ENDBRANCH  17  21
ENDBRANCH  12  15
ENDBRANCH  10  11
ENDBRANCH   3   5
ENDBRANCH   2   3
ENDBRANCH   1   2
BRANCH   1  34
ATOM     34  C   UNL A   1      35.159  29.640  27.622  1.00  0.00     0.275 C 
BRANCH  34  35
ATOM     35  O   UNL A   1      36.569  29.914  27.726  1.00  0.00    -0.458 OA
BRANCH  35  36
ATOM     36  C   UNL A   1      37.191  29.427  28.833  1.00  0.00     0.338 C 
ATOM     37  O   UNL A   1      36.646  29.100  29.874  1.00  0.00    -0.246 OA
BRANCH  36  38
ATOM     38  C   UNL A   1      38.629  29.199  28.546  1.00  0.00     0.060 A 
ATOM     39  C   UNL A   1      39.481  28.866  29.603  1.00  0.00     0.016 A 
ATOM     40  C   UNL A   1      39.150  29.292  27.257  1.00  0.00     0.016 A 
ATOM     41  C   UNL A   1      40.849  28.659  29.371  1.00  0.00     0.010 A 
ATOM     42  C   UNL A   1      40.508  29.035  27.020  1.00  0.00     0.010 A 
ATOM     43  C   UNL A   1      41.388  28.756  28.077  1.00  0.00    -0.014 A 
BRANCH  43  44
ATOM     44  C   UNL A   1      42.861  28.645  27.843  1.00  0.00     0.031 A 
ATOM     45  C   UNL A   1      43.451  27.359  27.306  1.00  0.00     0.074 A 
ATOM     46  C   UNL A   1      43.692  29.677  28.105  1.00  0.00     0.049 A 
ATOM     47  N   UNL A   1      44.681  27.113  26.926  1.00  0.00    -0.248 NA
ATOM     48  C   UNL A   1      42.549  26.205  27.179  1.00  0.00     0.031 C 
ATOM     49  C   UNL A   1      43.287  30.970  28.652  1.00  0.00     0.029 A 
ATOM     50  N   UNL A   1      45.053  29.801  27.949  1.00  0.00    -0.354 N 
ATOM     51  C   UNL A   1      44.693  25.787  26.503  1.00  0.00     0.074 A 
ATOM     52  C   UNL A   1      43.369  25.260  26.743  1.00  0.00     0.031 C 
ATOM     53  C   UNL A   1      44.371  31.750  28.801  1.00  0.00     0.029 A 
ATOM     54  C   UNL A   1      45.552  31.023  28.340  1.00  0.00     0.049 A 
ATOM     55  H   UNL A   1      45.620  29.080  27.590  1.00  0.00     0.167 HD
ATOM     56  C   UNL A   1      45.698  25.077  25.935  1.00  0.00     0.031 A 
ATOM     57  C   UNL A   1      46.806  31.519  28.311  1.00  0.00     0.031 A 
ATOM     58  C   UNL A   1      47.024  25.583  25.704  1.00  0.00     0.049 A 
ATOM     59  C   UNL A   1      47.917  30.706  27.698  1.00  0.00     0.074 A 
ATOM     60  C   UNL A   1      48.084  24.961  25.067  1.00  0.00     0.029 A 
ATOM     61  N   UNL A   1      47.480  26.825  26.115  1.00  0.00    -0.354 N 
ATOM     62  N   UNL A   1      47.868  29.503  27.178  1.00  0.00    -0.248 NA
ATOM     63  C   UNL A   1      49.245  31.336  27.630  1.00  0.00     0.031 C 
ATOM     64  C   UNL A   1      49.199  25.800  25.150  1.00  0.00     0.029 A 
ATOM     65  C   UNL A   1      48.815  26.975  25.775  1.00  0.00     0.049 A 
ATOM     66  H   UNL A   1      46.937  27.502  26.581  1.00  0.00     0.167 HD
ATOM     67  C   UNL A   1      49.145  29.252  26.682  1.00  0.00     0.074 A 
ATOM     68  C   UNL A   1      49.941  30.429  26.958  1.00  0.00     0.031 C 
ATOM     69  C   UNL A   1      49.608  28.148  26.046  1.00  0.00     0.031 A 
BRANCH  56  70
ATOM     70  C   UNL A   1      45.394  23.663  25.501  1.00  0.00    -0.014 A 
ATOM     71  C   UNL A   1      44.915  23.394  24.205  1.00  0.00     0.010 A 
ATOM     72  C   UNL A   1      45.643  22.587  26.373  1.00  0.00     0.010 A 
ATOM     73  C   UNL A   1      44.654  22.081  23.803  1.00  0.00     0.020 A 
ATOM     74  C   UNL A   1      45.412  21.270  25.964  1.00  0.00     0.020 A 
ATOM     75  C   UNL A   1      44.903  21.027  24.687  1.00  0.00     0.054 A 
BRANCH  75  76
ATOM     76  S   UNL A   1      44.579  19.332  24.126  1.00  0.00     0.124 S 
ATOM     77  O   UNL A   1      43.272  19.062  24.722  1.00  0.00    -0.237 OA
ATOM     78  O   UNL A   1      44.589  19.469  22.673  1.00  0.00    -0.237 OA
ATOM     79  O   UNL A   1      45.687  18.562  24.684  1.00  0.00    -0.744 OA
ENDBRANCH  75  76
ENDBRANCH  56  70
BRANCH  57  80
ATOM     80  C   UNL A   1      47.077  32.891  28.831  1.00  0.00    -0.014 A 
ATOM     81  C   UNL A   1      47.602  33.080  30.122  1.00  0.00     0.010 A 
ATOM     82  C   UNL A   1      46.801  34.018  28.036  1.00  0.00     0.010 A 
ATOM     83  C   UNL A   1      47.822  34.369  30.619  1.00  0.00     0.020 A 
ATOM     84  C   UNL A   1      47.045  35.308  28.518  1.00  0.00     0.020 A 
ATOM     85  C   UNL A   1      47.544  35.476  29.813  1.00  0.00     0.054 A 
BRANCH  85  86
ATOM     86  S   UNL A   1      47.880  37.137  30.461  1.00  0.00     0.124 S 
ATOM     87  O   UNL A   1      49.335  37.135  30.567  1.00  0.00    -0.237 OA
ATOM     88  O   UNL A   1      47.323  37.998  29.421  1.00  0.00    -0.237 OA
ATOM     89  O   UNL A   1      47.158  37.161  31.731  1.00  0.00    -0.744 OA
ENDBRANCH  85  86
ENDBRANCH  57  80
BRANCH  69  90
ATOM     90  C   UNL A   1      51.035  28.160  25.557  1.00  0.00    -0.014 A 
ATOM     91  C   UNL A   1      52.093  27.705  26.363  1.00  0.00     0.010 A 
ATOM     92  C   UNL A   1      51.310  28.574  24.241  1.00  0.00     0.010 A 
ATOM     93  C   UNL A   1      53.402  27.691  25.871  1.00  0.00     0.020 A 
ATOM     94  C   UNL A   1      52.612  28.533  23.735  1.00  0.00     0.020 A 
ATOM     95  C   UNL A   1      53.653  28.104  24.559  1.00  0.00     0.054 A 
BRANCH  95  96
ATOM     96  S   UNL A   1      55.353  28.030  23.930  1.00  0.00     0.124 S 
ATOM     97  O   UNL A   1      55.309  26.852  23.069  1.00  0.00    -0.237 OA
ATOM     98  O   UNL A   1      55.495  29.309  23.238  1.00  0.00    -0.237 OA
ATOM     99  O   UNL A   1      56.165  27.890  25.137  1.00  0.00    -0.744 OA
ENDBRANCH  95  96
ENDBRANCH  69  90
ENDBRANCH  43  44
ENDBRANCH  36  38
ENDBRANCH  35  36
ENDBRANCH  34  35
ENDBRANCH   1  34
TORSDOF 19
ENDMDL
