MODEL 1
REMARK VINA RESULT:     -11.3      0.000      0.000
REMARK SMILES C[C@H](Oc1ccnc2c(F)cc(F)cc12)C(=O)OCCOC(=O)c1ccc(-c2c3nc(c(-c4ccc(S(=O)(=O)[O-])cc4)c4ccc([nH]4)c(-c4ccc(S(=O)(=O)[O-])cc4)c4nc(c(-c5ccc(S(=O)(=O)[O-])cc5)c5ccc2[nH]5)C=C4)C=C3)cc1
REMARK SMILES IDX 20 1 19 2 18 3 16 4 17 5 2 6 1 7 3 8 4 9 5 10 15 11 6 12
REMARK SMILES IDX 8 13 14 14 7 15 9 16 12 17 10 18 11 19 13 20 21 21 22 22
REMARK SMILES IDX 23 23 24 24 25 25 83 26 26 27 82 28 27 29 28 30 29 31 76 32
REMARK SMILES IDX 30 33 81 34 75 35 77 36 31 37 80 38 74 39 73 40 32 42 62 43
REMARK SMILES IDX 43 44 61 45 44 46 47 47 60 48 78 49 45 50 46 51 59 53 79 54
REMARK SMILES IDX 48 55 33 56 34 57 42 58 35 59 41 60 36 61 37 62 38 63 39 64
REMARK SMILES IDX 40 65 63 66 64 67 72 68 65 69 71 70 66 71 67 72 68 73 69 74
REMARK SMILES IDX 70 75 49 76 50 77 58 78 51 79 57 80 52 81 53 82 54 83 55 84
REMARK SMILES IDX 56 85
REMARK H PARENT 77 41 47 52
REMARK Flexibility Score: inf
ROOT
ATOM      1  C   UNL A   1      42.881  25.124  25.107  1.00  0.00     0.275 C 
ENDROOT
BRANCH   1   2
ATOM      2  C   UNL A   1      43.414  24.800  26.500  1.00  0.00     0.274 C 
BRANCH   2   3
ATOM      3  O   UNL A   1      44.845  24.967  26.552  1.00  0.00    -0.459 OA
BRANCH   3   4
ATOM      4  C   UNL A   1      45.552  23.852  26.892  1.00  0.00     0.347 C 
ATOM      5  O   UNL A   1      45.693  23.443  28.040  1.00  0.00    -0.248 OA
BRANCH   4   6
ATOM      6  C   UNL A   1      46.195  23.159  25.684  1.00  0.00     0.279 C 
ATOM      7  C   UNL A   1      46.788  24.256  24.803  1.00  0.00     0.066 C 
BRANCH   6   8
ATOM      8  O   UNL A   1      45.335  22.397  24.846  1.00  0.00    -0.478 OA
BRANCH   8   9
ATOM      9  C   UNL A   1      45.232  21.037  25.010  1.00  0.00     0.131 A 
ATOM     10  C   UNL A   1      46.265  20.133  24.809  1.00  0.00     0.067 A 
ATOM     11  C   UNL A   1      43.967  20.559  25.422  1.00  0.00     0.048 A 
ATOM     12  C   UNL A   1      46.027  18.796  25.059  1.00  0.00     0.115 A 
ATOM     13  C   UNL A   1      43.821  19.172  25.651  1.00  0.00     0.110 A 
ATOM     14  C   UNL A   1      42.853  21.409  25.604  1.00  0.00     0.053 A 
ATOM     15  N   UNL A   1      44.844  18.314  25.479  1.00  0.00    -0.253 NA
ATOM     16  C   UNL A   1      42.570  18.706  26.066  1.00  0.00     0.152 A 
ATOM     17  C   UNL A   1      41.628  20.895  26.004  1.00  0.00     0.127 A 
ATOM     18  F   UNL A   1      42.394  17.398  26.315  1.00  0.00    -0.204 F 
ATOM     19  C   UNL A   1      41.475  19.545  26.242  1.00  0.00     0.080 A 
ATOM     20  F   UNL A   1      40.585  21.721  26.161  1.00  0.00    -0.207 F 
ENDBRANCH   8   9
ENDBRANCH   6   8
ENDBRANCH   4   6
ENDBRANCH   3   4
ENDBRANCH   2   3
ENDBRANCH   1   2
BRANCH   1  21
ATOM     21  O   UNL A   1      41.743  25.997  25.215  1.00  0.00    -0.458 OA
BRANCH  21  22
ATOM     22  C   UNL A   1      42.031  27.305  25.395  1.00  0.00     0.338 C 
ATOM     23  O   UNL A   1      42.447  28.075  24.539  1.00  0.00    -0.246 OA
BRANCH  22  24
ATOM     24  C   UNL A   1      41.729  27.739  26.782  1.00  0.00     0.060 A 
ATOM     25  C   UNL A   1      40.816  27.064  27.603  1.00  0.00     0.016 A 
ATOM     26  C   UNL A   1      42.311  28.928  27.232  1.00  0.00     0.016 A 
ATOM     27  C   UNL A   1      40.440  27.614  28.835  1.00  0.00     0.010 A 
ATOM     28  C   UNL A   1      41.982  29.441  28.487  1.00  0.00     0.010 A 
ATOM     29  C   UNL A   1      41.025  28.805  29.292  1.00  0.00    -0.014 A 
BRANCH  29  30
ATOM     30  C   UNL A   1      40.672  29.406  30.605  1.00  0.00     0.031 A 
ATOM     31  C   UNL A   1      39.534  30.388  30.706  1.00  0.00     0.074 A 
ATOM     32  C   UNL A   1      41.409  29.128  31.698  1.00  0.00     0.049 A 
ATOM     33  N   UNL A   1      39.232  31.200  31.687  1.00  0.00    -0.248 NA
ATOM     34  C   UNL A   1      38.621  30.471  29.555  1.00  0.00     0.031 C 
ATOM     35  C   UNL A   1      42.508  28.163  31.762  1.00  0.00     0.029 A 
ATOM     36  N   UNL A   1      41.352  29.651  32.967  1.00  0.00    -0.354 N 
ATOM     37  C   UNL A   1      38.116  31.912  31.261  1.00  0.00     0.074 A 
ATOM     38  C   UNL A   1      37.793  31.437  29.934  1.00  0.00     0.031 C 
ATOM     39  C   UNL A   1      43.012  28.154  33.006  1.00  0.00     0.029 A 
ATOM     40  C   UNL A   1      42.326  29.164  33.805  1.00  0.00     0.049 A 
ATOM     41  H   UNL A   1      40.678  30.311  33.247  1.00  0.00     0.167 HD
ATOM     42  C   UNL A   1      37.427  32.876  31.918  1.00  0.00     0.031 A 
ATOM     43  C   UNL A   1      42.667  29.521  35.058  1.00  0.00     0.031 A 
ATOM     44  C   UNL A   1      37.737  33.338  33.244  1.00  0.00     0.049 A 
ATOM     45  C   UNL A   1      41.947  30.652  35.731  1.00  0.00     0.074 A 
ATOM     46  C   UNL A   1      37.092  34.313  33.986  1.00  0.00     0.029 A 
ATOM     47  N   UNL A   1      38.767  32.854  34.032  1.00  0.00    -0.354 N 
ATOM     48  N   UNL A   1      40.942  31.367  35.285  1.00  0.00    -0.248 NA
ATOM     49  C   UNL A   1      42.427  31.045  37.064  1.00  0.00     0.031 C 
ATOM     50  C   UNL A   1      37.753  34.441  35.212  1.00  0.00     0.029 A 
ATOM     51  C   UNL A   1      38.787  33.519  35.246  1.00  0.00     0.049 A 
ATOM     52  H   UNL A   1      39.394  32.142  33.768  1.00  0.00     0.167 HD
ATOM     53  C   UNL A   1      40.669  32.294  36.284  1.00  0.00     0.074 A 
ATOM     54  C   UNL A   1      41.603  32.041  37.363  1.00  0.00     0.031 C 
ATOM     55  C   UNL A   1      39.731  33.271  36.302  1.00  0.00     0.031 A 
BRANCH  42  56
ATOM     56  C   UNL A   1      36.269  33.521  31.211  1.00  0.00    -0.014 A 
ATOM     57  C   UNL A   1      35.127  33.925  31.923  1.00  0.00     0.010 A 
ATOM     58  C   UNL A   1      36.372  33.825  29.841  1.00  0.00     0.010 A 
ATOM     59  C   UNL A   1      34.106  34.626  31.275  1.00  0.00     0.020 A 
ATOM     60  C   UNL A   1      35.359  34.538  29.194  1.00  0.00     0.020 A 
ATOM     61  C   UNL A   1      34.232  34.936  29.916  1.00  0.00     0.054 A 
BRANCH  61  62
ATOM     62  S   UNL A   1      32.917  35.902  29.123  1.00  0.00     0.124 S 
ATOM     63  O   UNL A   1      32.359  34.939  28.177  1.00  0.00    -0.237 OA
ATOM     64  O   UNL A   1      32.057  36.247  30.250  1.00  0.00    -0.237 OA
ATOM     65  O   UNL A   1      33.627  37.025  28.516  1.00  0.00    -0.744 OA
ENDBRANCH  61  62
ENDBRANCH  42  56
BRANCH  43  66
ATOM     66  C   UNL A   1      43.789  28.826  35.740  1.00  0.00    -0.014 A 
ATOM     67  C   UNL A   1      43.544  27.677  36.509  1.00  0.00     0.010 A 
ATOM     68  C   UNL A   1      45.108  29.294  35.597  1.00  0.00     0.010 A 
ATOM     69  C   UNL A   1      44.602  27.003  37.124  1.00  0.00     0.020 A 
ATOM     70  C   UNL A   1      46.170  28.612  36.195  1.00  0.00     0.020 A 
ATOM     71  C   UNL A   1      45.909  27.470  36.956  1.00  0.00     0.054 A 
BRANCH  71  72
ATOM     72  S   UNL A   1      47.267  26.538  37.715  1.00  0.00     0.124 S 
ATOM     73  O   UNL A   1      46.754  26.291  39.059  1.00  0.00    -0.237 OA
ATOM     74  O   UNL A   1      47.361  25.366  36.847  1.00  0.00    -0.237 OA
ATOM     75  O   UNL A   1      48.402  27.456  37.637  1.00  0.00    -0.744 OA
ENDBRANCH  71  72
ENDBRANCH  43  66
BRANCH  55  76
ATOM     76  C   UNL A   1      39.659  34.137  37.526  1.00  0.00    -0.014 A 
ATOM     77  C   UNL A   1      38.828  33.786  38.604  1.00  0.00     0.010 A 
ATOM     78  C   UNL A   1      40.470  35.281  37.622  1.00  0.00     0.010 A 
ATOM     79  C   UNL A   1      38.797  34.578  39.754  1.00  0.00     0.020 A 
ATOM     80  C   UNL A   1      40.453  36.066  38.778  1.00  0.00     0.020 A 
ATOM     81  C   UNL A   1      39.610  35.713  39.834  1.00  0.00     0.054 A 
BRANCH  81  82
ATOM     82  S   UNL A   1      39.568  36.704  41.352  1.00  0.00     0.124 S 
ATOM     83  O   UNL A   1      40.987  36.842  41.668  1.00  0.00    -0.237 OA
ATOM     84  O   UNL A   1      38.900  37.927  40.912  1.00  0.00    -0.237 OA
ATOM     85  O   UNL A   1      38.800  35.882  42.285  1.00  0.00    -0.744 OA
ENDBRANCH  81  82
ENDBRANCH  55  76
ENDBRANCH  29  30
ENDBRANCH  22  24
ENDBRANCH  21  22
ENDBRANCH   1  21
TORSDOF 16
ENDMDL
MODEL 2
REMARK VINA RESULT:     -11.2      5.963     11.270
REMARK SMILES C[C@H](Oc1ccnc2c(F)cc(F)cc12)C(=O)OCCOC(=O)c1ccc(-c2c3nc(c(-c4ccc(S(=O)(=O)[O-])cc4)c4ccc([nH]4)c(-c4ccc(S(=O)(=O)[O-])cc4)c4nc(c(-c5ccc(S(=O)(=O)[O-])cc5)c5ccc2[nH]5)C=C4)C=C3)cc1
REMARK SMILES IDX 20 1 19 2 18 3 16 4 17 5 2 6 1 7 3 8 4 9 5 10 15 11 6 12
REMARK SMILES IDX 8 13 14 14 7 15 9 16 12 17 10 18 11 19 13 20 21 21 22 22
REMARK SMILES IDX 23 23 24 24 25 25 83 26 26 27 82 28 27 29 28 30 29 31 76 32
REMARK SMILES IDX 30 33 81 34 75 35 77 36 31 37 80 38 74 39 73 40 32 42 62 43
REMARK SMILES IDX 43 44 61 45 44 46 47 47 60 48 78 49 45 50 46 51 59 53 79 54
REMARK SMILES IDX 48 55 33 56 34 57 42 58 35 59 41 60 36 61 37 62 38 63 39 64
REMARK SMILES IDX 40 65 63 66 64 67 72 68 65 69 71 70 66 71 67 72 68 73 69 74
REMARK SMILES IDX 70 75 49 76 50 77 58 78 51 79 57 80 52 81 53 82 54 83 55 84
REMARK SMILES IDX 56 85
REMARK H PARENT 77 41 47 52
REMARK Flexibility Score: inf
ROOT
ATOM      1  C   UNL A   1      32.616  30.172  26.639  1.00  0.00     0.275 C 
ENDROOT
BRANCH   1   2
ATOM      2  C   UNL A   1      31.803  29.019  26.057  1.00  0.00     0.274 C 
BRANCH   2   3
ATOM      3  O   UNL A   1      32.658  27.911  25.712  1.00  0.00    -0.459 OA
BRANCH   3   4
ATOM      4  C   UNL A   1      32.291  27.211  24.602  1.00  0.00     0.347 C 
ATOM      5  O   UNL A   1      31.917  27.723  23.551  1.00  0.00    -0.248 OA
BRANCH   4   6
ATOM      6  C   UNL A   1      32.360  25.692  24.801  1.00  0.00     0.279 C 
ATOM      7  C   UNL A   1      32.331  25.438  26.307  1.00  0.00     0.066 C 
BRANCH   6   8
ATOM      8  O   UNL A   1      33.517  25.029  24.308  1.00  0.00    -0.478 OA
BRANCH   8   9
ATOM      9  C   UNL A   1      33.579  23.658  24.298  1.00  0.00     0.131 A 
ATOM     10  C   UNL A   1      32.536  22.819  23.932  1.00  0.00     0.067 A 
ATOM     11  C   UNL A   1      34.815  23.091  24.688  1.00  0.00     0.048 A 
ATOM     12  C   UNL A   1      32.758  21.457  23.925  1.00  0.00     0.115 A 
ATOM     13  C   UNL A   1      34.945  21.685  24.650  1.00  0.00     0.110 A 
ATOM     14  C   UNL A   1      35.909  23.875  25.119  1.00  0.00     0.053 A 
ATOM     15  N   UNL A   1      33.930  20.889  24.263  1.00  0.00    -0.253 NA
ATOM     16  C   UNL A   1      36.171  21.132  25.030  1.00  0.00     0.152 A 
ATOM     17  C   UNL A   1      37.102  23.276  25.499  1.00  0.00     0.127 A 
ATOM     18  F   UNL A   1      36.345  19.800  24.989  1.00  0.00    -0.204 F 
ATOM     19  C   UNL A   1      37.246  21.905  25.455  1.00  0.00     0.080 A 
ATOM     20  F   UNL A   1      38.122  24.040  25.910  1.00  0.00    -0.207 F 
ENDBRANCH   8   9
ENDBRANCH   6   8
ENDBRANCH   4   6
ENDBRANCH   3   4
ENDBRANCH   2   3
ENDBRANCH   1   2
BRANCH   1  21
ATOM     21  O   UNL A   1      33.772  29.654  27.319  1.00  0.00    -0.458 OA
BRANCH  21  22
ATOM     22  C   UNL A   1      34.492  30.563  28.014  1.00  0.00     0.338 C 
ATOM     23  O   UNL A   1      34.089  31.648  28.412  1.00  0.00    -0.246 OA
BRANCH  22  24
ATOM     24  C   UNL A   1      35.860  30.063  28.299  1.00  0.00     0.060 A 
ATOM     25  C   UNL A   1      36.275  29.685  29.583  1.00  0.00     0.016 A 
ATOM     26  C   UNL A   1      36.787  30.074  27.251  1.00  0.00     0.016 A 
ATOM     27  C   UNL A   1      37.622  29.388  29.826  1.00  0.00     0.010 A 
ATOM     28  C   UNL A   1      38.115  29.715  27.483  1.00  0.00     0.010 A 
ATOM     29  C   UNL A   1      38.554  29.393  28.777  1.00  0.00    -0.014 A 
BRANCH  29  30
ATOM     30  C   UNL A   1      39.986  29.057  28.990  1.00  0.00     0.031 A 
ATOM     31  C   UNL A   1      40.950  30.116  29.461  1.00  0.00     0.074 A 
ATOM     32  C   UNL A   1      40.444  27.824  28.699  1.00  0.00     0.049 A 
ATOM     33  N   UNL A   1      42.258  30.094  29.466  1.00  0.00    -0.248 NA
ATOM     34  C   UNL A   1      40.367  31.359  29.990  1.00  0.00     0.031 C 
ATOM     35  C   UNL A   1      39.623  26.687  28.280  1.00  0.00     0.029 A 
ATOM     36  N   UNL A   1      41.725  27.328  28.696  1.00  0.00    -0.354 N 
ATOM     37  C   UNL A   1      42.656  31.329  29.968  1.00  0.00     0.074 A 
ATOM     38  C   UNL A   1      41.452  32.077  30.256  1.00  0.00     0.031 C 
ATOM     39  C   UNL A   1      40.417  25.625  28.073  1.00  0.00     0.029 A 
ATOM     40  C   UNL A   1      41.807  26.024  28.270  1.00  0.00     0.049 A 
ATOM     41  H   UNL A   1      42.508  27.856  28.973  1.00  0.00     0.167 HD
ATOM     42  C   UNL A   1      43.913  31.795  30.165  1.00  0.00     0.031 A 
ATOM     43  C   UNL A   1      42.877  25.248  28.014  1.00  0.00     0.031 A 
ATOM     44  C   UNL A   1      45.111  31.048  29.894  1.00  0.00     0.049 A 
ATOM     45  C   UNL A   1      44.259  25.816  28.155  1.00  0.00     0.074 A 
ATOM     46  C   UNL A   1      46.427  31.444  30.063  1.00  0.00     0.029 A 
ATOM     47  N   UNL A   1      45.144  29.751  29.410  1.00  0.00    -0.354 N 
ATOM     48  N   UNL A   1      44.617  27.011  28.557  1.00  0.00    -0.248 NA
ATOM     49  C   UNL A   1      45.377  24.941  27.776  1.00  0.00     0.031 C 
ATOM     50  C   UNL A   1      47.257  30.396  29.651  1.00  0.00     0.029 A 
ATOM     51  C   UNL A   1      46.456  29.336  29.260  1.00  0.00     0.049 A 
ATOM     52  H   UNL A   1      44.352  29.204  29.203  1.00  0.00     0.167 HD
ATOM     53  C   UNL A   1      46.005  27.031  28.482  1.00  0.00     0.074 A 
ATOM     54  C   UNL A   1      46.422  25.726  28.011  1.00  0.00     0.031 C 
ATOM     55  C   UNL A   1      46.857  28.043  28.774  1.00  0.00     0.031 A 
BRANCH  42  56
ATOM     56  C   UNL A   1      44.072  33.195  30.687  1.00  0.00    -0.014 A 
ATOM     57  C   UNL A   1      44.135  34.288  29.808  1.00  0.00     0.010 A 
ATOM     58  C   UNL A   1      44.047  33.426  32.076  1.00  0.00     0.010 A 
ATOM     59  C   UNL A   1      44.169  35.593  30.308  1.00  0.00     0.020 A 
ATOM     60  C   UNL A   1      44.067  34.730  32.579  1.00  0.00     0.020 A 
ATOM     61  C   UNL A   1      44.126  35.806  31.691  1.00  0.00     0.054 A 
BRANCH  61  62
ATOM     62  S   UNL A   1      44.106  37.514  32.303  1.00  0.00     0.124 S 
ATOM     63  O   UNL A   1      45.471  37.676  32.797  1.00  0.00    -0.237 OA
ATOM     64  O   UNL A   1      43.778  38.275  31.102  1.00  0.00    -0.237 OA
ATOM     65  O   UNL A   1      43.071  37.503  33.335  1.00  0.00    -0.744 OA
ENDBRANCH  61  62
ENDBRANCH  42  56
BRANCH  43  66
ATOM     66  C   UNL A   1      42.677  23.853  27.543  1.00  0.00    -0.014 A 
ATOM     67  C   UNL A   1      42.704  22.789  28.458  1.00  0.00     0.010 A 
ATOM     68  C   UNL A   1      42.429  23.590  26.183  1.00  0.00     0.010 A 
ATOM     69  C   UNL A   1      42.484  21.480  28.022  1.00  0.00     0.020 A 
ATOM     70  C   UNL A   1      42.189  22.285  25.747  1.00  0.00     0.020 A 
ATOM     71  C   UNL A   1      42.219  21.238  26.670  1.00  0.00     0.054 A 
BRANCH  71  72
ATOM     72  S   UNL A   1      41.875  19.536  26.146  1.00  0.00     0.124 S 
ATOM     73  O   UNL A   1      40.451  19.595  25.833  1.00  0.00    -0.237 OA
ATOM     74  O   UNL A   1      42.769  19.378  25.002  1.00  0.00    -0.237 OA
ATOM     75  O   UNL A   1      42.225  18.736  27.318  1.00  0.00    -0.744 OA
ENDBRANCH  71  72
ENDBRANCH  43  66
BRANCH  55  76
ATOM     76  C   UNL A   1      48.324  27.782  28.599  1.00  0.00    -0.014 A 
ATOM     77  C   UNL A   1      48.960  28.059  27.376  1.00  0.00     0.010 A 
ATOM     78  C   UNL A   1      49.086  27.309  29.682  1.00  0.00     0.010 A 
ATOM     79  C   UNL A   1      50.334  27.849  27.234  1.00  0.00     0.020 A 
ATOM     80  C   UNL A   1      50.463  27.113  29.548  1.00  0.00     0.020 A 
ATOM     81  C   UNL A   1      51.077  27.378  28.321  1.00  0.00     0.054 A 
BRANCH  81  82
ATOM     82  S   UNL A   1      52.863  27.142  28.113  1.00  0.00     0.124 S 
ATOM     83  O   UNL A   1      52.934  26.466  26.821  1.00  0.00    -0.237 OA
ATOM     84  O   UNL A   1      53.366  28.514  28.133  1.00  0.00    -0.237 OA
ATOM     85  O   UNL A   1      53.244  26.327  29.264  1.00  0.00    -0.744 OA
ENDBRANCH  81  82
ENDBRANCH  55  76
ENDBRANCH  29  30
ENDBRANCH  22  24
ENDBRANCH  21  22
ENDBRANCH   1  21
TORSDOF 16
ENDMDL
MODEL 3
REMARK VINA RESULT:     -11.1      5.940     14.450
REMARK SMILES C[C@H](Oc1ccnc2c(F)cc(F)cc12)C(=O)OCCOC(=O)c1ccc(-c2c3nc(c(-c4ccc(S(=O)(=O)[O-])cc4)c4ccc([nH]4)c(-c4ccc(S(=O)(=O)[O-])cc4)c4nc(c(-c5ccc(S(=O)(=O)[O-])cc5)c5ccc2[nH]5)C=C4)C=C3)cc1
REMARK SMILES IDX 20 1 19 2 18 3 16 4 17 5 2 6 1 7 3 8 4 9 5 10 15 11 6 12
REMARK SMILES IDX 8 13 14 14 7 15 9 16 12 17 10 18 11 19 13 20 21 21 22 22
REMARK SMILES IDX 23 23 24 24 25 25 83 26 26 27 82 28 27 29 28 30 29 31 76 32
REMARK SMILES IDX 30 33 81 34 75 35 77 36 31 37 80 38 74 39 73 40 32 42 62 43
REMARK SMILES IDX 43 44 61 45 44 46 47 47 60 48 78 49 45 50 46 51 59 53 79 54
REMARK SMILES IDX 48 55 33 56 34 57 42 58 35 59 41 60 36 61 37 62 38 63 39 64
REMARK SMILES IDX 40 65 63 66 64 67 72 68 65 69 71 70 66 71 67 72 68 73 69 74
REMARK SMILES IDX 70 75 49 76 50 77 58 78 51 79 57 80 52 81 53 82 54 83 55 84
REMARK SMILES IDX 56 85
REMARK H PARENT 77 41 47 52
REMARK Flexibility Score: inf
ROOT
ATOM      1  C   UNL A   1      35.246  31.968  29.755  1.00  0.00     0.275 C 
ENDROOT
BRANCH   1   2
ATOM      2  C   UNL A   1      34.855  33.401  30.104  1.00  0.00     0.274 C 
BRANCH   2   3
ATOM      3  O   UNL A   1      34.215  33.458  31.394  1.00  0.00    -0.459 OA
BRANCH   3   4
ATOM      4  C   UNL A   1      33.790  34.693  31.783  1.00  0.00     0.347 C 
ATOM      5  O   UNL A   1      32.885  35.319  31.239  1.00  0.00    -0.248 OA
BRANCH   4   6
ATOM      6  C   UNL A   1      34.585  35.254  32.969  1.00  0.00     0.279 C 
ATOM      7  C   UNL A   1      34.061  36.665  33.229  1.00  0.00     0.066 C 
BRANCH   6   8
ATOM      8  O   UNL A   1      35.992  35.378  32.801  1.00  0.00    -0.478 OA
BRANCH   8   9
ATOM      9  C   UNL A   1      36.840  34.444  33.344  1.00  0.00     0.131 A 
ATOM     10  C   UNL A   1      36.695  33.879  34.603  1.00  0.00     0.067 A 
ATOM     11  C   UNL A   1      37.925  34.047  32.530  1.00  0.00     0.048 A 
ATOM     12  C   UNL A   1      37.601  32.915  34.999  1.00  0.00     0.115 A 
ATOM     13  C   UNL A   1      38.800  33.054  33.024  1.00  0.00     0.110 A 
ATOM     14  C   UNL A   1      38.167  34.609  31.256  1.00  0.00     0.053 A 
ATOM     15  N   UNL A   1      38.627  32.496  34.237  1.00  0.00    -0.253 NA
ATOM     16  C   UNL A   1      39.867  32.660  32.211  1.00  0.00     0.152 A 
ATOM     17  C   UNL A   1      39.249  34.193  30.493  1.00  0.00     0.127 A 
ATOM     18  F   UNL A   1      40.711  31.704  32.634  1.00  0.00    -0.204 F 
ATOM     19  C   UNL A   1      40.104  33.216  30.958  1.00  0.00     0.080 A 
ATOM     20  F   UNL A   1      39.461  34.746  29.292  1.00  0.00    -0.207 F 
ENDBRANCH   8   9
ENDBRANCH   6   8
ENDBRANCH   4   6
ENDBRANCH   3   4
ENDBRANCH   2   3
ENDBRANCH   1   2
BRANCH   1  21
ATOM     21  O   UNL A   1      36.577  31.700  30.231  1.00  0.00    -0.458 OA
BRANCH  21  22
ATOM     22  C   UNL A   1      36.812  30.424  30.608  1.00  0.00     0.338 C 
ATOM     23  O   UNL A   1      36.058  29.715  31.262  1.00  0.00    -0.246 OA
BRANCH  22  24
ATOM     24  C   UNL A   1      38.110  29.935  30.079  1.00  0.00     0.060 A 
ATOM     25  C   UNL A   1      39.140  29.476  30.910  1.00  0.00     0.016 A 
ATOM     26  C   UNL A   1      38.332  30.042  28.703  1.00  0.00     0.016 A 
ATOM     27  C   UNL A   1      40.401  29.191  30.372  1.00  0.00     0.010 A 
ATOM     28  C   UNL A   1      39.570  29.697  28.161  1.00  0.00     0.010 A 
ATOM     29  C   UNL A   1      40.627  29.292  28.992  1.00  0.00    -0.014 A 
BRANCH  29  30
ATOM     30  C   UNL A   1      41.944  28.974  28.380  1.00  0.00     0.031 A 
ATOM     31  C   UNL A   1      42.257  27.564  27.949  1.00  0.00     0.074 A 
ATOM     32  C   UNL A   1      42.888  29.928  28.267  1.00  0.00     0.049 A 
ATOM     33  N   UNL A   1      43.413  27.037  27.633  1.00  0.00    -0.248 NA
ATOM     34  C   UNL A   1      41.126  26.626  27.868  1.00  0.00     0.031 C 
ATOM     35  C   UNL A   1      42.713  31.344  28.597  1.00  0.00     0.029 A 
ATOM     36  N   UNL A   1      44.197  29.842  27.859  1.00  0.00    -0.354 N 
ATOM     37  C   UNL A   1      43.155  25.701  27.346  1.00  0.00     0.074 A 
ATOM     38  C   UNL A   1      41.735  25.496  27.525  1.00  0.00     0.031 C 
ATOM     39  C   UNL A   1      43.864  31.994  28.366  1.00  0.00     0.029 A 
ATOM     40  C   UNL A   1      44.878  31.032  27.946  1.00  0.00     0.049 A 
ATOM     41  H   UNL A   1      44.606  29.008  27.534  1.00  0.00     0.167 HD
ATOM     42  C   UNL A   1      44.027  24.734  26.972  1.00  0.00     0.031 A 
ATOM     43  C   UNL A   1      46.182  31.315  27.762  1.00  0.00     0.031 A 
ATOM     44  C   UNL A   1      45.437  24.939  26.778  1.00  0.00     0.049 A 
ATOM     45  C   UNL A   1      47.144  30.210  27.435  1.00  0.00     0.074 A 
ATOM     46  C   UNL A   1      46.396  24.014  26.401  1.00  0.00     0.029 A 
ATOM     47  N   UNL A   1      46.091  26.150  26.934  1.00  0.00    -0.354 N 
ATOM     48  N   UNL A   1      46.896  28.937  27.242  1.00  0.00    -0.248 NA
ATOM     49  C   UNL A   1      48.563  30.576  27.332  1.00  0.00     0.031 C 
ATOM     50  C   UNL A   1      47.636  24.660  26.359  1.00  0.00     0.029 A 
ATOM     51  C   UNL A   1      47.442  25.994  26.675  1.00  0.00     0.049 A 
ATOM     52  H   UNL A   1      45.659  26.997  27.191  1.00  0.00     0.167 HD
ATOM     53  C   UNL A   1      48.131  28.349  26.993  1.00  0.00     0.074 A 
ATOM     54  C   UNL A   1      49.121  29.406  27.045  1.00  0.00     0.031 C 
ATOM     55  C   UNL A   1      48.417  27.048  26.747  1.00  0.00     0.031 A 
BRANCH  42  56
ATOM     56  C   UNL A   1      43.492  23.347  26.759  1.00  0.00    -0.014 A 
ATOM     57  C   UNL A   1      43.537  22.746  25.489  1.00  0.00     0.010 A 
ATOM     58  C   UNL A   1      43.042  22.597  27.862  1.00  0.00     0.010 A 
ATOM     59  C   UNL A   1      43.141  21.415  25.327  1.00  0.00     0.020 A 
ATOM     60  C   UNL A   1      42.660  21.262  27.704  1.00  0.00     0.020 A 
ATOM     61  C   UNL A   1      42.714  20.679  26.437  1.00  0.00     0.054 A 
BRANCH  61  62
ATOM     62  S   UNL A   1      42.269  18.935  26.200  1.00  0.00     0.124 S 
ATOM     63  O   UNL A   1      40.878  19.032  25.767  1.00  0.00    -0.237 OA
ATOM     64  O   UNL A   1      43.218  18.505  25.177  1.00  0.00    -0.237 OA
ATOM     65  O   UNL A   1      42.467  18.342  27.521  1.00  0.00    -0.744 OA
ENDBRANCH  61  62
ENDBRANCH  42  56
BRANCH  43  66
ATOM     66  C   UNL A   1      46.663  32.709  27.937  1.00  0.00    -0.014 A 
ATOM     67  C   UNL A   1      46.728  33.577  26.835  1.00  0.00     0.010 A 
ATOM     68  C   UNL A   1      47.029  33.181  29.212  1.00  0.00     0.010 A 
ATOM     69  C   UNL A   1      47.149  34.898  27.005  1.00  0.00     0.020 A 
ATOM     70  C   UNL A   1      47.431  34.507  29.387  1.00  0.00     0.020 A 
ATOM     71  C   UNL A   1      47.490  35.357  28.280  1.00  0.00     0.054 A 
BRANCH  71  72
ATOM     72  S   UNL A   1      47.972  37.094  28.477  1.00  0.00     0.124 S 
ATOM     73  O   UNL A   1      46.966  37.586  29.413  1.00  0.00    -0.237 OA
ATOM     74  O   UNL A   1      49.328  36.981  29.007  1.00  0.00    -0.237 OA
ATOM     75  O   UNL A   1      47.882  37.633  27.121  1.00  0.00    -0.744 OA
ENDBRANCH  71  72
ENDBRANCH  43  66
BRANCH  55  76
ATOM     76  C   UNL A   1      49.856  26.691  26.511  1.00  0.00    -0.014 A 
ATOM     77  C   UNL A   1      50.663  26.232  27.566  1.00  0.00     0.010 A 
ATOM     78  C   UNL A   1      50.391  26.762  25.213  1.00  0.00     0.010 A 
ATOM     79  C   UNL A   1      51.990  25.866  27.329  1.00  0.00     0.020 A 
ATOM     80  C   UNL A   1      51.713  26.382  24.969  1.00  0.00     0.020 A 
ATOM     81  C   UNL A   1      52.507  25.942  26.032  1.00  0.00     0.054 A 
BRANCH  81  82
ATOM     82  S   UNL A   1      54.224  25.433  25.752  1.00  0.00     0.124 S 
ATOM     83  O   UNL A   1      54.732  25.305  27.115  1.00  0.00    -0.237 OA
ATOM     84  O   UNL A   1      54.066  24.179  25.019  1.00  0.00    -0.237 OA
ATOM     85  O   UNL A   1      54.793  26.534  24.977  1.00  0.00    -0.744 OA
ENDBRANCH  81  82
ENDBRANCH  55  76
ENDBRANCH  29  30
ENDBRANCH  22  24
ENDBRANCH  21  22
ENDBRANCH   1  21
TORSDOF 16
ENDMDL
