MODEL 1
REMARK VINA RESULT:     -13.4      0.000      0.000
REMARK SMILES O=C(OCCOC(=O)c1ccn(-c2cc(-c3ccncc3)nc(-c3ccccc3F)n2)n1)c1ccc(-c2c3nc(c(-c4ccc(S(=O)(=O)[O-])cc4)c4ccc([nH]4)c(-c4ccc(S(=O)(=O)[O-])cc4)c4nc(c(-c5ccc(S(=O)(=O)[O-])cc5)c5ccc2[nH]5)C=C4)C=C3)cc1
REMARK SMILES IDX 4 1 3 2 2 3 1 4 33 5 34 6 92 7 35 8 91 9 36 10 37 11 38 12
REMARK SMILES IDX 85 13 39 14 90 15 84 16 86 17 40 18 89 19 83 20 82 21 41 23
REMARK SMILES IDX 71 24 52 25 70 26 53 27 56 28 69 29 87 30 54 31 55 32 68 34
REMARK SMILES IDX 88 35 57 36 42 37 43 38 51 39 44 40 50 41 45 42 46 43 47 44
REMARK SMILES IDX 48 45 49 46 72 47 73 48 81 49 74 50 80 51 75 52 76 53 77 54
REMARK SMILES IDX 78 55 79 56 58 57 59 58 67 59 60 60 66 61 61 62 62 63 63 64
REMARK SMILES IDX 64 65 65 66 5 67 6 68 7 69 8 70 9 71 10 72 32 73 11 74 12 75
REMARK SMILES IDX 13 76 14 77 31 78 15 79 23 80 22 81 16 82 17 83 21 84 18 85
REMARK SMILES IDX 20 86 19 87 24 88 25 89 29 90 26 91 28 92 30 93 27 94
REMARK H PARENT 86 22 56 33
REMARK Flexibility Score: inf
ROOT
ATOM      1  C   UNL A   1      37.198  21.433  25.355  1.00  0.00     0.275 C 
ENDROOT
BRANCH   1   2
ATOM      2  O   UNL A   1      38.534  21.956  25.235  1.00  0.00    -0.458 OA
BRANCH   2   3
ATOM      3  C   UNL A   1      39.399  21.855  26.267  1.00  0.00     0.338 C 
ATOM      4  O   UNL A   1      40.059  20.849  26.484  1.00  0.00    -0.246 OA
BRANCH   3   5
ATOM      5  C   UNL A   1      39.672  23.151  26.940  1.00  0.00     0.060 A 
ATOM      6  C   UNL A   1      38.872  24.288  26.780  1.00  0.00     0.016 A 
ATOM      7  C   UNL A   1      40.817  23.216  27.743  1.00  0.00     0.016 A 
ATOM      8  C   UNL A   1      39.265  25.501  27.329  1.00  0.00     0.010 A 
ATOM      9  C   UNL A   1      41.209  24.425  28.292  1.00  0.00     0.010 A 
ATOM     10  C   UNL A   1      40.461  25.575  28.042  1.00  0.00    -0.014 A 
BRANCH  10  11
ATOM     11  C   UNL A   1      40.875  26.861  28.600  1.00  0.00     0.031 A 
ATOM     12  C   UNL A   1      42.101  27.448  27.975  1.00  0.00     0.074 A 
ATOM     13  C   UNL A   1      40.106  27.508  29.507  1.00  0.00     0.049 A 
ATOM     14  N   UNL A   1      43.203  27.809  28.540  1.00  0.00    -0.248 NA
ATOM     15  C   UNL A   1      42.166  27.542  26.509  1.00  0.00     0.031 C 
ATOM     16  C   UNL A   1      38.783  27.100  30.004  1.00  0.00     0.029 A 
ATOM     17  N   UNL A   1      40.274  28.725  30.096  1.00  0.00    -0.354 N 
ATOM     18  C   UNL A   1      43.985  28.406  27.548  1.00  0.00     0.074 A 
ATOM     19  C   UNL A   1      43.346  28.120  26.297  1.00  0.00     0.031 C 
ATOM     20  C   UNL A   1      38.177  28.149  30.604  1.00  0.00     0.029 A 
ATOM     21  C   UNL A   1      39.117  29.251  30.679  1.00  0.00     0.049 A 
ATOM     22  H   UNL A   1      41.138  29.194  30.111  1.00  0.00     0.167 HD
ATOM     23  C   UNL A   1      44.976  29.281  27.869  1.00  0.00     0.031 A 
ATOM     24  C   UNL A   1      38.930  30.508  31.167  1.00  0.00     0.031 A 
ATOM     25  C   UNL A   1      45.364  29.122  29.244  1.00  0.00     0.049 A 
ATOM     26  C   UNL A   1      40.279  31.052  31.447  1.00  0.00     0.074 A 
ATOM     27  C   UNL A   1      45.898  28.086  29.980  1.00  0.00     0.029 A 
ATOM     28  N   UNL A   1      44.799  29.996  30.140  1.00  0.00    -0.354 N 
ATOM     29  N   UNL A   1      41.079  30.551  32.347  1.00  0.00    -0.248 NA
ATOM     30  C   UNL A   1      40.921  31.861  30.426  1.00  0.00     0.031 C 
ATOM     31  C   UNL A   1      45.228  28.154  31.235  1.00  0.00     0.029 A 
ATOM     32  C   UNL A   1      44.405  29.285  31.239  1.00  0.00     0.049 A 
ATOM     33  H   UNL A   1      44.696  30.968  30.013  1.00  0.00     0.167 HD
ATOM     34  C   UNL A   1      42.334  30.583  31.756  1.00  0.00     0.074 A 
ATOM     35  C   UNL A   1      42.192  31.502  30.627  1.00  0.00     0.031 C 
ATOM     36  C   UNL A   1      43.281  29.653  32.075  1.00  0.00     0.031 A 
BRANCH  23  37
ATOM     37  C   UNL A   1      45.243  30.567  27.115  1.00  0.00    -0.014 A 
ATOM     38  C   UNL A   1      46.589  30.905  26.857  1.00  0.00     0.010 A 
ATOM     39  C   UNL A   1      44.287  31.591  26.957  1.00  0.00     0.010 A 
ATOM     40  C   UNL A   1      46.974  32.225  26.602  1.00  0.00     0.020 A 
ATOM     41  C   UNL A   1      44.659  32.910  26.669  1.00  0.00     0.020 A 
ATOM     42  C   UNL A   1      46.006  33.224  26.537  1.00  0.00     0.054 A 
BRANCH  42  43
ATOM     43  S   UNL A   1      46.542  34.942  26.349  1.00  0.00     0.124 S 
ATOM     44  O   UNL A   1      47.299  35.156  27.578  1.00  0.00    -0.237 OA
ATOM     45  O   UNL A   1      47.331  34.883  25.121  1.00  0.00    -0.237 OA
ATOM     46  O   UNL A   1      45.286  35.681  26.244  1.00  0.00    -0.744 OA
ENDBRANCH  42  43
ENDBRANCH  23  37
BRANCH  24  47
ATOM     47  C   UNL A   1      37.709  31.364  31.126  1.00  0.00    -0.014 A 
ATOM     48  C   UNL A   1      36.587  31.093  31.937  1.00  0.00     0.010 A 
ATOM     49  C   UNL A   1      37.758  32.629  30.507  1.00  0.00     0.010 A 
ATOM     50  C   UNL A   1      35.609  32.077  32.191  1.00  0.00     0.020 A 
ATOM     51  C   UNL A   1      36.793  33.617  30.760  1.00  0.00     0.020 A 
ATOM     52  C   UNL A   1      35.736  33.347  31.624  1.00  0.00     0.054 A 
BRANCH  52  53
ATOM     53  S   UNL A   1      34.597  34.682  32.110  1.00  0.00     0.124 S 
ATOM     54  O   UNL A   1      35.466  35.566  32.883  1.00  0.00    -0.237 OA
ATOM     55  O   UNL A   1      34.145  35.209  30.826  1.00  0.00    -0.237 OA
ATOM     56  O   UNL A   1      33.570  33.991  32.888  1.00  0.00    -0.744 OA
ENDBRANCH  52  53
ENDBRANCH  24  47
BRANCH  36  57
ATOM     57  C   UNL A   1      43.076  28.805  33.309  1.00  0.00    -0.014 A 
ATOM     58  C   UNL A   1      43.685  29.041  34.557  1.00  0.00     0.010 A 
ATOM     59  C   UNL A   1      42.091  27.806  33.221  1.00  0.00     0.010 A 
ATOM     60  C   UNL A   1      43.333  28.270  35.678  1.00  0.00     0.020 A 
ATOM     61  C   UNL A   1      41.721  27.054  34.335  1.00  0.00     0.020 A 
ATOM     62  C   UNL A   1      42.353  27.279  35.556  1.00  0.00     0.054 A 
BRANCH  62  63
ATOM     63  S   UNL A   1      41.877  26.296  37.006  1.00  0.00     0.124 S 
ATOM     64  O   UNL A   1      40.604  26.895  37.392  1.00  0.00    -0.237 OA
ATOM     65  O   UNL A   1      41.799  24.940  36.469  1.00  0.00    -0.237 OA
ATOM     66  O   UNL A   1      42.974  26.514  37.950  1.00  0.00    -0.744 OA
ENDBRANCH  62  63
ENDBRANCH  36  57
ENDBRANCH  10  11
ENDBRANCH   3   5
ENDBRANCH   2   3
ENDBRANCH   1   2
BRANCH   1  67
ATOM     67  C   UNL A   1      36.169  21.898  24.326  1.00  0.00     0.275 C 
BRANCH  67  68
ATOM     68  O   UNL A   1      35.183  22.743  24.943  1.00  0.00    -0.457 OA
BRANCH  68  69
ATOM     69  C   UNL A   1      33.880  22.382  24.745  1.00  0.00     0.358 C 
ATOM     70  O   UNL A   1      33.455  21.227  24.830  1.00  0.00    -0.244 OA
BRANCH  69  71
ATOM     71  C   UNL A   1      33.049  23.498  24.304  1.00  0.00     0.170 A 
ATOM     72  C   UNL A   1      31.799  23.378  23.650  1.00  0.00     0.058 A 
ATOM     73  N   UNL A   1      33.363  24.794  24.513  1.00  0.00    -0.159 NA
ATOM     74  C   UNL A   1      31.271  24.643  23.662  1.00  0.00     0.118 A 
ATOM     75  N   UNL A   1      32.220  25.467  24.224  1.00  0.00    -0.222 N 
BRANCH  75  76
ATOM     76  C   UNL A   1      32.054  26.858  24.467  1.00  0.00     0.158 A 
ATOM     77  C   UNL A   1      31.166  27.569  23.689  1.00  0.00     0.078 A 
ATOM     78  N   UNL A   1      32.704  27.392  25.523  1.00  0.00    -0.209 NA
ATOM     79  C   UNL A   1      30.845  28.834  24.141  1.00  0.00     0.077 A 
ATOM     80  C   UNL A   1      32.457  28.690  25.759  1.00  0.00     0.165 A 
ATOM     81  N   UNL A   1      31.523  29.423  25.140  1.00  0.00    -0.228 NA
BRANCH  79  82
ATOM     82  C   UNL A   1      29.688  29.589  23.660  1.00  0.00     0.003 A 
ATOM     83  C   UNL A   1      28.626  28.935  23.016  1.00  0.00     0.030 A 
ATOM     84  C   UNL A   1      29.555  30.955  23.901  1.00  0.00     0.030 A 
ATOM     85  C   UNL A   1      27.537  29.671  22.576  1.00  0.00     0.111 A 
ATOM     86  C   UNL A   1      28.408  31.597  23.463  1.00  0.00     0.111 A 
ATOM     87  N   UNL A   1      27.418  30.993  22.774  1.00  0.00    -0.265 NA
ENDBRANCH  79  82
BRANCH  80  88
ATOM     88  C   UNL A   1      33.386  29.407  26.613  1.00  0.00     0.055 A 
ATOM     89  C   UNL A   1      34.653  28.865  26.902  1.00  0.00     0.015 A 
ATOM     90  C   UNL A   1      33.075  30.666  27.124  1.00  0.00     0.134 A 
ATOM     91  C   UNL A   1      35.575  29.572  27.677  1.00  0.00     0.001 A 
ATOM     92  C   UNL A   1      33.988  31.376  27.902  1.00  0.00     0.040 A 
ATOM     93  F   UNL A   1      31.875  31.216  26.888  1.00  0.00    -0.206 F 
ATOM     94  C   UNL A   1      35.240  30.828  28.178  1.00  0.00     0.003 A 
ENDBRANCH  80  88
ENDBRANCH  75  76
ENDBRANCH  69  71
ENDBRANCH  68  69
ENDBRANCH  67  68
ENDBRANCH   1  67
TORSDOF 17
ENDMDL
MODEL 2
REMARK VINA RESULT:     -13.3      3.161      9.684
REMARK SMILES O=C(OCCOC(=O)c1ccn(-c2cc(-c3ccncc3)nc(-c3ccccc3F)n2)n1)c1ccc(-c2c3nc(c(-c4ccc(S(=O)(=O)[O-])cc4)c4ccc([nH]4)c(-c4ccc(S(=O)(=O)[O-])cc4)c4nc(c(-c5ccc(S(=O)(=O)[O-])cc5)c5ccc2[nH]5)C=C4)C=C3)cc1
REMARK SMILES IDX 4 1 3 2 2 3 1 4 33 5 34 6 92 7 35 8 91 9 36 10 37 11 38 12
REMARK SMILES IDX 85 13 39 14 90 15 84 16 86 17 40 18 89 19 83 20 82 21 41 23
REMARK SMILES IDX 71 24 52 25 70 26 53 27 56 28 69 29 87 30 54 31 55 32 68 34
REMARK SMILES IDX 88 35 57 36 42 37 43 38 51 39 44 40 50 41 45 42 46 43 47 44
REMARK SMILES IDX 48 45 49 46 72 47 73 48 81 49 74 50 80 51 75 52 76 53 77 54
REMARK SMILES IDX 78 55 79 56 58 57 59 58 67 59 60 60 66 61 61 62 62 63 63 64
REMARK SMILES IDX 64 65 65 66 5 67 6 68 7 69 8 70 9 71 10 72 32 73 11 74 12 75
REMARK SMILES IDX 13 76 14 77 31 78 15 79 23 80 22 81 16 82 17 83 21 84 18 85
REMARK SMILES IDX 20 86 19 87 24 88 25 89 29 90 26 91 28 92 30 93 27 94
REMARK H PARENT 86 22 56 33
REMARK Flexibility Score: inf
ROOT
ATOM      1  C   UNL A   1      32.241  30.763  26.663  1.00  0.00     0.275 C 
ENDROOT
BRANCH   1   2
ATOM      2  O   UNL A   1      33.657  30.647  26.895  1.00  0.00    -0.458 OA
BRANCH   2   3
ATOM      3  C   UNL A   1      34.314  31.601  27.589  1.00  0.00     0.338 C 
ATOM      4  O   UNL A   1      33.800  32.665  27.902  1.00  0.00    -0.246 OA
BRANCH   3   5
ATOM      5  C   UNL A   1      35.603  31.136  28.163  1.00  0.00     0.060 A 
ATOM      6  C   UNL A   1      36.589  32.001  28.648  1.00  0.00     0.016 A 
ATOM      7  C   UNL A   1      35.826  29.753  28.171  1.00  0.00     0.016 A 
ATOM      8  C   UNL A   1      37.823  31.502  29.041  1.00  0.00     0.010 A 
ATOM      9  C   UNL A   1      37.057  29.255  28.563  1.00  0.00     0.010 A 
ATOM     10  C   UNL A   1      38.070  30.132  28.949  1.00  0.00    -0.014 A 
BRANCH  10  11
ATOM     11  C   UNL A   1      39.379  29.619  29.347  1.00  0.00     0.031 A 
ATOM     12  C   UNL A   1      39.654  29.681  30.816  1.00  0.00     0.074 A 
ATOM     13  C   UNL A   1      40.192  29.011  28.451  1.00  0.00     0.049 A 
ATOM     14  N   UNL A   1      40.634  30.251  31.433  1.00  0.00    -0.248 NA
ATOM     15  C   UNL A   1      38.648  29.140  31.742  1.00  0.00     0.031 C 
ATOM     16  C   UNL A   1      39.899  28.717  27.041  1.00  0.00     0.029 A 
ATOM     17  N   UNL A   1      41.406  28.417  28.625  1.00  0.00    -0.354 N 
ATOM     18  C   UNL A   1      40.504  29.920  32.784  1.00  0.00     0.074 A 
ATOM     19  C   UNL A   1      39.208  29.326  32.936  1.00  0.00     0.031 C 
ATOM     20  C   UNL A   1      40.777  27.800  26.574  1.00  0.00     0.029 A 
ATOM     21  C   UNL A   1      41.786  27.560  27.587  1.00  0.00     0.049 A 
ATOM     22  H   UNL A   1      41.969  28.578  29.416  1.00  0.00     0.167 HD
ATOM     23  C   UNL A   1      41.575  29.962  33.622  1.00  0.00     0.031 A 
ATOM     24  C   UNL A   1      42.837  26.696  27.566  1.00  0.00     0.031 A 
ATOM     25  C   UNL A   1      42.617  30.783  33.067  1.00  0.00     0.049 A 
ATOM     26  C   UNL A   1      43.792  27.175  28.590  1.00  0.00     0.074 A 
ATOM     27  C   UNL A   1      42.710  32.111  32.712  1.00  0.00     0.029 A 
ATOM     28  N   UNL A   1      43.622  30.122  32.404  1.00  0.00    -0.354 N 
ATOM     29  N   UNL A   1      44.410  28.322  28.511  1.00  0.00    -0.248 NA
ATOM     30  C   UNL A   1      43.724  26.597  29.921  1.00  0.00     0.031 C 
ATOM     31  C   UNL A   1      43.467  32.108  31.505  1.00  0.00     0.029 A 
ATOM     32  C   UNL A   1      43.885  30.799  31.245  1.00  0.00     0.049 A 
ATOM     33  H   UNL A   1      44.075  29.303  32.710  1.00  0.00     0.167 HD
ATOM     34  C   UNL A   1      44.388  28.820  29.805  1.00  0.00     0.074 A 
ATOM     35  C   UNL A   1      44.058  27.669  30.645  1.00  0.00     0.031 C 
ATOM     36  C   UNL A   1      44.368  30.167  30.036  1.00  0.00     0.031 A 
BRANCH  23  37
ATOM     37  C   UNL A   1      41.869  28.908  34.669  1.00  0.00    -0.014 A 
ATOM     38  C   UNL A   1      42.466  29.335  35.875  1.00  0.00     0.010 A 
ATOM     39  C   UNL A   1      41.903  27.526  34.395  1.00  0.00     0.010 A 
ATOM     40  C   UNL A   1      43.184  28.451  36.687  1.00  0.00     0.020 A 
ATOM     41  C   UNL A   1      42.592  26.627  35.218  1.00  0.00     0.020 A 
ATOM     42  C   UNL A   1      43.265  27.106  36.336  1.00  0.00     0.054 A 
BRANCH  42  43
ATOM     43  S   UNL A   1      44.317  26.013  37.322  1.00  0.00     0.124 S 
ATOM     44  O   UNL A   1      45.652  26.470  36.952  1.00  0.00    -0.237 OA
ATOM     45  O   UNL A   1      43.893  26.328  38.684  1.00  0.00    -0.237 OA
ATOM     46  O   UNL A   1      43.954  24.678  36.854  1.00  0.00    -0.744 OA
ENDBRANCH  42  43
ENDBRANCH  23  37
BRANCH  24  47
ATOM     47  C   UNL A   1      42.932  25.342  26.946  1.00  0.00    -0.014 A 
ATOM     48  C   UNL A   1      42.875  25.163  25.548  1.00  0.00     0.010 A 
ATOM     49  C   UNL A   1      43.382  24.248  27.711  1.00  0.00     0.010 A 
ATOM     50  C   UNL A   1      43.338  23.977  24.940  1.00  0.00     0.020 A 
ATOM     51  C   UNL A   1      43.852  23.067  27.115  1.00  0.00     0.020 A 
ATOM     52  C   UNL A   1      43.853  22.946  25.728  1.00  0.00     0.054 A 
BRANCH  52  53
ATOM     53  S   UNL A   1      44.641  21.504  24.944  1.00  0.00     0.124 S 
ATOM     54  O   UNL A   1      44.678  21.895  23.538  1.00  0.00    -0.237 OA
ATOM     55  O   UNL A   1      45.937  21.436  25.613  1.00  0.00    -0.237 OA
ATOM     56  O   UNL A   1      43.730  20.404  25.256  1.00  0.00    -0.744 OA
ENDBRANCH  52  53
ENDBRANCH  24  47
BRANCH  36  57
ATOM     57  C   UNL A   1      44.708  31.101  28.897  1.00  0.00    -0.014 A 
ATOM     58  C   UNL A   1      43.824  31.461  27.862  1.00  0.00     0.010 A 
ATOM     59  C   UNL A   1      45.947  31.759  28.982  1.00  0.00     0.010 A 
ATOM     60  C   UNL A   1      44.192  32.435  26.918  1.00  0.00     0.020 A 
ATOM     61  C   UNL A   1      46.308  32.743  28.063  1.00  0.00     0.020 A 
ATOM     62  C   UNL A   1      45.436  33.067  27.027  1.00  0.00     0.054 A 
BRANCH  62  63
ATOM     63  S   UNL A   1      45.908  34.344  25.825  1.00  0.00     0.124 S 
ATOM     64  O   UNL A   1      45.035  34.053  24.692  1.00  0.00    -0.237 OA
ATOM     65  O   UNL A   1      45.622  35.586  26.539  1.00  0.00    -0.237 OA
ATOM     66  O   UNL A   1      47.330  34.092  25.589  1.00  0.00    -0.744 OA
ENDBRANCH  62  63
ENDBRANCH  36  57
ENDBRANCH  10  11
ENDBRANCH   3   5
ENDBRANCH   2   3
ENDBRANCH   1   2
BRANCH   1  67
ATOM     67  C   UNL A   1      31.662  30.003  25.472  1.00  0.00     0.275 C 
BRANCH  67  68
ATOM     68  O   UNL A   1      32.192  28.668  25.417  1.00  0.00    -0.457 OA
BRANCH  68  69
ATOM     69  C   UNL A   1      32.843  28.331  24.263  1.00  0.00     0.358 C 
ATOM     70  O   UNL A   1      33.277  29.144  23.444  1.00  0.00    -0.244 OA
BRANCH  69  71
ATOM     71  C   UNL A   1      32.873  26.889  24.037  1.00  0.00     0.170 A 
ATOM     72  C   UNL A   1      32.288  26.223  22.933  1.00  0.00     0.058 A 
ATOM     73  N   UNL A   1      33.511  26.017  24.847  1.00  0.00    -0.159 NA
ATOM     74  C   UNL A   1      32.778  24.943  22.994  1.00  0.00     0.118 A 
ATOM     75  N   UNL A   1      33.543  24.861  24.136  1.00  0.00    -0.222 N 
BRANCH  75  76
ATOM     76  C   UNL A   1      34.273  23.713  24.549  1.00  0.00     0.158 A 
ATOM     77  C   UNL A   1      33.628  22.496  24.598  1.00  0.00     0.078 A 
ATOM     78  N   UNL A   1      35.596  23.859  24.776  1.00  0.00    -0.209 NA
ATOM     79  C   UNL A   1      34.441  21.388  24.738  1.00  0.00     0.077 A 
ATOM     80  C   UNL A   1      36.257  22.734  25.089  1.00  0.00     0.165 A 
ATOM     81  N   UNL A   1      35.745  21.498  25.038  1.00  0.00    -0.228 NA
BRANCH  79  82
ATOM     82  C   UNL A   1      33.990  20.022  24.465  1.00  0.00     0.003 A 
ATOM     83  C   UNL A   1      32.732  19.788  23.891  1.00  0.00     0.030 A 
ATOM     84  C   UNL A   1      34.820  18.923  24.678  1.00  0.00     0.030 A 
ATOM     85  C   UNL A   1      32.330  18.486  23.634  1.00  0.00     0.111 A 
ATOM     86  C   UNL A   1      34.347  17.663  24.349  1.00  0.00     0.111 A 
ATOM     87  N   UNL A   1      33.110  17.419  23.870  1.00  0.00    -0.265 NA
ENDBRANCH  79  82
BRANCH  80  88
ATOM     88  C   UNL A   1      37.564  22.873  25.705  1.00  0.00     0.055 A 
ATOM     89  C   UNL A   1      37.932  24.077  26.334  1.00  0.00     0.015 A 
ATOM     90  C   UNL A   1      38.464  21.809  25.739  1.00  0.00     0.134 A 
ATOM     91  C   UNL A   1      39.166  24.201  26.978  1.00  0.00     0.001 A 
ATOM     92  C   UNL A   1      39.699  21.926  26.374  1.00  0.00     0.040 A 
ATOM     93  F   UNL A   1      38.163  20.647  25.139  1.00  0.00    -0.206 F 
ATOM     94  C   UNL A   1      40.049  23.124  26.996  1.00  0.00     0.003 A 
ENDBRANCH  80  88
ENDBRANCH  75  76
ENDBRANCH  69  71
ENDBRANCH  68  69
ENDBRANCH  67  68
ENDBRANCH   1  67
TORSDOF 17
ENDMDL
MODEL 3
REMARK VINA RESULT:     -13.1      4.898      8.094
REMARK SMILES O=C(OCCOC(=O)c1ccn(-c2cc(-c3ccncc3)nc(-c3ccccc3F)n2)n1)c1ccc(-c2c3nc(c(-c4ccc(S(=O)(=O)[O-])cc4)c4ccc([nH]4)c(-c4ccc(S(=O)(=O)[O-])cc4)c4nc(c(-c5ccc(S(=O)(=O)[O-])cc5)c5ccc2[nH]5)C=C4)C=C3)cc1
REMARK SMILES IDX 4 1 3 2 2 3 1 4 33 5 34 6 92 7 35 8 91 9 36 10 37 11 38 12
REMARK SMILES IDX 85 13 39 14 90 15 84 16 86 17 40 18 89 19 83 20 82 21 41 23
REMARK SMILES IDX 71 24 52 25 70 26 53 27 56 28 69 29 87 30 54 31 55 32 68 34
REMARK SMILES IDX 88 35 57 36 42 37 43 38 51 39 44 40 50 41 45 42 46 43 47 44
REMARK SMILES IDX 48 45 49 46 72 47 73 48 81 49 74 50 80 51 75 52 76 53 77 54
REMARK SMILES IDX 78 55 79 56 58 57 59 58 67 59 60 60 66 61 61 62 62 63 63 64
REMARK SMILES IDX 64 65 65 66 5 67 6 68 7 69 8 70 9 71 10 72 32 73 11 74 12 75
REMARK SMILES IDX 13 76 14 77 31 78 15 79 23 80 22 81 16 82 17 83 21 84 18 85
REMARK SMILES IDX 20 86 19 87 24 88 25 89 29 90 26 91 28 92 30 93 27 94
REMARK H PARENT 86 22 56 33
REMARK Flexibility Score: inf
ROOT
ATOM      1  C   UNL A   1      40.772  20.119  26.175  1.00  0.00     0.275 C 
ENDROOT
BRANCH   1   2
ATOM      2  O   UNL A   1      40.546  21.275  27.004  1.00  0.00    -0.458 OA
BRANCH   2   3
ATOM      3  C   UNL A   1      39.822  22.315  26.538  1.00  0.00     0.338 C 
ATOM      4  O   UNL A   1      38.796  22.170  25.887  1.00  0.00    -0.246 OA
BRANCH   3   5
ATOM      5  C   UNL A   1      40.229  23.624  27.109  1.00  0.00     0.060 A 
ATOM      6  C   UNL A   1      41.405  23.814  27.842  1.00  0.00     0.016 A 
ATOM      7  C   UNL A   1      39.350  24.697  26.916  1.00  0.00     0.016 A 
ATOM      8  C   UNL A   1      41.651  25.031  28.462  1.00  0.00     0.010 A 
ATOM      9  C   UNL A   1      39.595  25.911  27.534  1.00  0.00     0.010 A 
ATOM     10  C   UNL A   1      40.718  26.062  28.347  1.00  0.00    -0.014 A 
BRANCH  10  11
ATOM     11  C   UNL A   1      40.978  27.333  29.019  1.00  0.00     0.031 A 
ATOM     12  C   UNL A   1      42.141  28.101  28.476  1.00  0.00     0.074 A 
ATOM     13  C   UNL A   1      40.127  27.812  29.957  1.00  0.00     0.049 A 
ATOM     14  N   UNL A   1      43.187  28.531  29.097  1.00  0.00    -0.248 NA
ATOM     15  C   UNL A   1      42.218  28.326  27.025  1.00  0.00     0.031 C 
ATOM     16  C   UNL A   1      38.850  27.222  30.385  1.00  0.00     0.029 A 
ATOM     17  N   UNL A   1      40.150  28.986  30.649  1.00  0.00    -0.354 N 
ATOM     18  C   UNL A   1      43.914  29.292  28.177  1.00  0.00     0.074 A 
ATOM     19  C   UNL A   1      43.331  29.045  26.891  1.00  0.00     0.031 C 
ATOM     20  C   UNL A   1      38.122  28.145  31.054  1.00  0.00     0.029 A 
ATOM     21  C   UNL A   1      38.933  29.332  31.244  1.00  0.00     0.049 A 
ATOM     22  H   UNL A   1      40.957  29.544  30.724  1.00  0.00     0.167 HD
ATOM     23  C   UNL A   1      44.796  30.239  28.594  1.00  0.00     0.031 A 
ATOM     24  C   UNL A   1      38.601  30.515  31.829  1.00  0.00     0.031 A 
ATOM     25  C   UNL A   1      45.178  30.007  29.961  1.00  0.00     0.049 A 
ATOM     26  C   UNL A   1      39.876  31.177  32.187  1.00  0.00     0.074 A 
ATOM     27  C   UNL A   1      45.811  28.976  30.621  1.00  0.00     0.029 A 
ATOM     28  N   UNL A   1      44.506  30.735  30.911  1.00  0.00    -0.354 N 
ATOM     29  N   UNL A   1      40.712  30.691  33.062  1.00  0.00    -0.248 NA
ATOM     30  C   UNL A   1      40.441  32.135  31.253  1.00  0.00     0.031 C 
ATOM     31  C   UNL A   1      45.118  28.864  31.861  1.00  0.00     0.029 A 
ATOM     32  C   UNL A   1      44.175  29.894  31.937  1.00  0.00     0.049 A 
ATOM     33  H   UNL A   1      44.297  31.697  30.862  1.00  0.00     0.167 HD
ATOM     34  C   UNL A   1      41.965  30.910  32.507  1.00  0.00     0.074 A 
ATOM     35  C   UNL A   1      41.740  31.901  31.455  1.00  0.00     0.031 C 
ATOM     36  C   UNL A   1      43.005  30.065  32.773  1.00  0.00     0.031 A 
BRANCH  23  37
ATOM     37  C   UNL A   1      44.931  31.606  27.956  1.00  0.00    -0.014 A 
ATOM     38  C   UNL A   1      46.231  32.144  27.834  1.00  0.00     0.010 A 
ATOM     39  C   UNL A   1      43.854  32.499  27.792  1.00  0.00     0.010 A 
ATOM     40  C   UNL A   1      46.442  33.520  27.704  1.00  0.00     0.020 A 
ATOM     41  C   UNL A   1      44.054  33.875  27.628  1.00  0.00     0.020 A 
ATOM     42  C   UNL A   1      45.349  34.380  27.629  1.00  0.00     0.054 A 
BRANCH  42  43
ATOM     43  S   UNL A   1      45.647  36.165  27.606  1.00  0.00     0.124 S 
ATOM     44  O   UNL A   1      47.084  36.231  27.852  1.00  0.00    -0.237 OA
ATOM     45  O   UNL A   1      45.217  36.528  26.259  1.00  0.00    -0.237 OA
ATOM     46  O   UNL A   1      44.798  36.665  28.684  1.00  0.00    -0.744 OA
ENDBRANCH  42  43
ENDBRANCH  23  37
BRANCH  24  47
ATOM     47  C   UNL A   1      37.293  31.233  31.828  1.00  0.00    -0.014 A 
ATOM     48  C   UNL A   1      36.612  31.532  33.027  1.00  0.00     0.010 A 
ATOM     49  C   UNL A   1      36.854  31.894  30.664  1.00  0.00     0.010 A 
ATOM     50  C   UNL A   1      35.604  32.518  33.073  1.00  0.00     0.020 A 
ATOM     51  C   UNL A   1      35.857  32.881  30.701  1.00  0.00     0.020 A 
ATOM     52  C   UNL A   1      35.254  33.210  31.911  1.00  0.00     0.054 A 
BRANCH  52  53
ATOM     53  S   UNL A   1      34.106  34.621  32.000  1.00  0.00     0.124 S 
ATOM     54  O   UNL A   1      34.969  35.693  32.491  1.00  0.00    -0.237 OA
ATOM     55  O   UNL A   1      33.653  34.760  30.620  1.00  0.00    -0.237 OA
ATOM     56  O   UNL A   1      33.082  34.172  32.942  1.00  0.00    -0.744 OA
ENDBRANCH  52  53
ENDBRANCH  24  47
BRANCH  36  57
ATOM     57  C   UNL A   1      42.875  29.098  33.927  1.00  0.00    -0.014 A 
ATOM     58  C   UNL A   1      42.979  29.450  35.286  1.00  0.00     0.010 A 
ATOM     59  C   UNL A   1      42.475  27.790  33.601  1.00  0.00     0.010 A 
ATOM     60  C   UNL A   1      42.718  28.502  36.290  1.00  0.00     0.020 A 
ATOM     61  C   UNL A   1      42.193  26.852  34.592  1.00  0.00     0.020 A 
ATOM     62  C   UNL A   1      42.329  27.206  35.932  1.00  0.00     0.054 A 
BRANCH  62  63
ATOM     63  S   UNL A   1      41.967  25.983  37.224  1.00  0.00     0.124 S 
ATOM     64  O   UNL A   1      40.560  26.234  37.515  1.00  0.00    -0.237 OA
ATOM     65  O   UNL A   1      42.258  24.713  36.561  1.00  0.00    -0.237 OA
ATOM     66  O   UNL A   1      42.893  26.332  38.302  1.00  0.00    -0.744 OA
ENDBRANCH  62  63
ENDBRANCH  36  57
ENDBRANCH  10  11
ENDBRANCH   3   5
ENDBRANCH   2   3
ENDBRANCH   1   2
BRANCH   1  67
ATOM     67  C   UNL A   1      42.122  19.417  26.306  1.00  0.00     0.275 C 
BRANCH  67  68
ATOM     68  O   UNL A   1      42.770  19.322  25.026  1.00  0.00    -0.457 OA
BRANCH  68  69
ATOM     69  C   UNL A   1      44.136  19.334  25.047  1.00  0.00     0.358 C 
ATOM     70  O   UNL A   1      44.842  18.326  25.129  1.00  0.00    -0.244 OA
BRANCH  69  71
ATOM     71  C   UNL A   1      44.685  20.687  25.077  1.00  0.00     0.170 A 
ATOM     72  C   UNL A   1      44.775  21.556  23.963  1.00  0.00     0.058 A 
ATOM     73  N   UNL A   1      45.135  21.287  26.199  1.00  0.00    -0.159 NA
ATOM     74  C   UNL A   1      45.100  22.777  24.495  1.00  0.00     0.118 A 
ATOM     75  N   UNL A   1      45.271  22.592  25.848  1.00  0.00    -0.222 N 
BRANCH  75  76
ATOM     76  C   UNL A   1      45.570  23.621  26.783  1.00  0.00     0.158 A 
ATOM     77  C   UNL A   1      46.353  24.680  26.380  1.00  0.00     0.078 A 
ATOM     78  N   UNL A   1      44.981  23.556  27.996  1.00  0.00    -0.209 NA
ATOM     79  C   UNL A   1      46.382  25.768  27.230  1.00  0.00     0.077 A 
ATOM     80  C   UNL A   1      45.231  24.589  28.817  1.00  0.00     0.165 A 
ATOM     81  N   UNL A   1      45.872  25.712  28.471  1.00  0.00    -0.228 NA
BRANCH  79  82
ATOM     82  C   UNL A   1      46.860  27.091  26.825  1.00  0.00     0.003 A 
ATOM     83  C   UNL A   1      46.366  27.704  25.664  1.00  0.00     0.030 A 
ATOM     84  C   UNL A   1      47.744  27.822  27.617  1.00  0.00     0.030 A 
ATOM     85  C   UNL A   1      46.828  28.961  25.306  1.00  0.00     0.111 A 
ATOM     86  C   UNL A   1      48.115  29.090  27.199  1.00  0.00     0.111 A 
ATOM     87  N   UNL A   1      47.707  29.656  26.045  1.00  0.00    -0.265 NA
ENDBRANCH  79  82
BRANCH  80  88
ATOM     88  C   UNL A   1      44.955  24.406  30.230  1.00  0.00     0.055 A 
ATOM     89  C   UNL A   1      45.491  25.293  31.183  1.00  0.00     0.015 A 
ATOM     90  C   UNL A   1      44.116  23.386  30.677  1.00  0.00     0.134 A 
ATOM     91  C   UNL A   1      45.185  25.158  32.539  1.00  0.00     0.001 A 
ATOM     92  C   UNL A   1      43.811  23.241  32.029  1.00  0.00     0.040 A 
ATOM     93  F   UNL A   1      43.595  22.507  29.808  1.00  0.00    -0.206 F 
ATOM     94  C   UNL A   1      44.346  24.129  32.961  1.00  0.00     0.003 A 
ENDBRANCH  80  88
ENDBRANCH  75  76
ENDBRANCH  69  71
ENDBRANCH  68  69
ENDBRANCH  67  68
ENDBRANCH   1  67
TORSDOF 17
ENDMDL
