MODEL 1
REMARK VINA RESULT:     -12.7      0.000      0.000
REMARK SMILES CS(=O)(=O)c1ccc(C2=NN(c3ccc(C(=O)OCCOC(=O)c4ccc(-c5c6nc(c(-c7ccc(S(=O)(=O)[O-])cc7)c7ccc([nH]7)c(-c7ccc(S(=O)(=O)[O-])cc7)c7nc(c(-c8ccc(S(=O)(=O)[O-])cc8)c8ccc5[nH]8)C=C7)C=C6)cc4)cc3)[C@H](c3ccccc3)C2)cc1
REMARK SMILES IDX 19 1 18 2 16 3 17 4 15 5 12 6 13 7 85 8 14 9 84 10 11 11
REMARK SMILES IDX 9 12 10 13 93 14 86 15 8 16 5 17 6 18 95 19 7 20 94 21 2 22
REMARK SMILES IDX 1 23 3 24 4 25 87 26 88 27 92 28 89 29 91 30 90 31 20 32
REMARK SMILES IDX 21 33 22 34 23 35 24 36 25 37 83 38 26 39 82 40 27 41 28 42
REMARK SMILES IDX 29 43 76 44 30 45 81 46 75 47 77 48 31 49 80 50 74 51 73 52
REMARK SMILES IDX 32 54 62 55 43 56 61 57 44 58 47 59 60 60 78 61 45 62 46 63
REMARK SMILES IDX 59 65 79 66 48 67 33 68 34 69 42 70 35 71 41 72 36 73 37 74
REMARK SMILES IDX 38 75 39 76 40 77 63 78 64 79 72 80 65 81 71 82 66 83 67 84
REMARK SMILES IDX 68 85 69 86 70 87 49 88 50 89 58 90 51 91 57 92 52 93 53 94
REMARK SMILES IDX 54 95 55 96 56 97
REMARK H PARENT 77 53 47 64
REMARK Flexibility Score: inf
ROOT
ATOM      1  C   UNL A   1      35.621  32.059  29.618  1.00  0.00     0.275 C 
ENDROOT
BRANCH   1   2
ATOM      2  O   UNL A   1      35.163  31.133  28.614  1.00  0.00    -0.458 OA
BRANCH   2   3
ATOM      3  C   UNL A   1      34.034  31.491  27.955  1.00  0.00     0.338 C 
ATOM      4  O   UNL A   1      33.465  32.570  28.031  1.00  0.00    -0.246 OA
BRANCH   3   5
ATOM      5  C   UNL A   1      33.578  30.408  27.049  1.00  0.00     0.060 A 
ATOM      6  C   UNL A   1      32.569  28.339  25.436  1.00  0.00     0.060 A 
ATOM      7  C   UNL A   1      31.758  29.426  25.777  1.00  0.00     0.029 A 
ATOM      8  C   UNL A   1      33.903  28.328  25.864  1.00  0.00     0.029 A 
ATOM      9  C   UNL A   1      32.249  30.435  26.603  1.00  0.00     0.018 A 
ATOM     10  C   UNL A   1      34.413  29.358  26.662  1.00  0.00     0.018 A 
BRANCH   6  11
ATOM     11  N   UNL A   1      32.033  27.212  24.803  1.00  0.00    -0.257 N 
ATOM     12  C   UNL A   1      32.374  25.186  24.221  1.00  0.00     0.071 C 
ATOM     13  N   UNL A   1      32.409  25.982  25.243  1.00  0.00    -0.176 NA
ATOM     14  C   UNL A   1      32.032  25.823  22.902  1.00  0.00     0.091 C 
ATOM     15  C   UNL A   1      31.852  27.281  23.343  1.00  0.00     0.144 C 
BRANCH  12  16
ATOM     16  C   UNL A   1      32.609  23.735  24.341  1.00  0.00    -0.002 A 
ATOM     17  C   UNL A   1      32.899  20.971  24.546  1.00  0.00     0.067 A 
ATOM     18  C   UNL A   1      31.814  21.596  25.163  1.00  0.00     0.021 A 
ATOM     19  C   UNL A   1      33.853  21.724  23.848  1.00  0.00     0.021 A 
ATOM     20  C   UNL A   1      31.680  22.982  25.070  1.00  0.00     0.011 A 
ATOM     21  C   UNL A   1      33.702  23.110  23.733  1.00  0.00     0.011 A 
BRANCH  17  22
ATOM     22  S   UNL A   1      33.096  19.205  24.616  1.00  0.00     0.175 S 
ATOM     23  C   UNL A   1      32.450  18.558  23.098  1.00  0.00     0.163 C 
ATOM     24  O   UNL A   1      32.244  18.728  25.690  1.00  0.00    -0.224 OA
ATOM     25  O   UNL A   1      34.527  18.962  24.638  1.00  0.00    -0.224 OA
ENDBRANCH  17  22
ENDBRANCH  12  16
BRANCH  15  26
ATOM     26  C   UNL A   1      30.540  27.985  23.028  1.00  0.00    -0.023 A 
ATOM     27  C   UNL A   1      29.290  27.532  23.473  1.00  0.00     0.006 A 
ATOM     28  C   UNL A   1      30.592  29.224  22.357  1.00  0.00     0.006 A 
ATOM     29  C   UNL A   1      28.136  28.291  23.250  1.00  0.00     0.000 A 
ATOM     30  C   UNL A   1      29.445  29.995  22.162  1.00  0.00     0.000 A 
ATOM     31  C   UNL A   1      28.215  29.524  22.606  1.00  0.00     0.000 A 
ENDBRANCH  15  26
ENDBRANCH   6  11
ENDBRANCH   3   5
ENDBRANCH   2   3
ENDBRANCH   1   2
BRANCH   1  32
ATOM     32  C   UNL A   1      35.714  31.380  30.983  1.00  0.00     0.275 C 
BRANCH  32  33
ATOM     33  O   UNL A   1      36.044  29.987  30.840  1.00  0.00    -0.458 OA
BRANCH  33  34
ATOM     34  C   UNL A   1      37.001  29.529  31.680  1.00  0.00     0.338 C 
ATOM     35  O   UNL A   1      36.924  29.385  32.887  1.00  0.00    -0.246 OA
BRANCH  34  36
ATOM     36  C   UNL A   1      38.199  29.181  30.904  1.00  0.00     0.060 A 
ATOM     37  C   UNL A   1      39.324  28.705  31.575  1.00  0.00     0.016 A 
ATOM     38  C   UNL A   1      38.250  29.433  29.535  1.00  0.00     0.016 A 
ATOM     39  C   UNL A   1      40.529  28.534  30.897  1.00  0.00     0.010 A 
ATOM     40  C   UNL A   1      39.440  29.193  28.841  1.00  0.00     0.010 A 
ATOM     41  C   UNL A   1      40.600  28.766  29.518  1.00  0.00    -0.014 A 
BRANCH  41  42
ATOM     42  C   UNL A   1      41.877  28.602  28.774  1.00  0.00     0.031 A 
ATOM     43  C   UNL A   1      42.211  27.269  28.158  1.00  0.00     0.074 A 
ATOM     44  C   UNL A   1      42.755  29.622  28.679  1.00  0.00     0.049 A 
ATOM     45  N   UNL A   1      43.357  26.832  27.704  1.00  0.00    -0.248 NA
ATOM     46  C   UNL A   1      41.112  26.293  28.052  1.00  0.00     0.031 C 
ATOM     47  C   UNL A   1      42.534  30.987  29.166  1.00  0.00     0.029 A 
ATOM     48  N   UNL A   1      44.023  29.663  28.151  1.00  0.00    -0.354 N 
ATOM     49  C   UNL A   1      43.135  25.510  27.327  1.00  0.00     0.074 A 
ATOM     50  C   UNL A   1      41.743  25.222  27.589  1.00  0.00     0.031 C 
ATOM     51  C   UNL A   1      43.622  31.729  28.908  1.00  0.00     0.029 A 
ATOM     52  C   UNL A   1      44.650  30.877  28.321  1.00  0.00     0.049 A 
ATOM     53  H   UNL A   1      44.443  28.899  27.694  1.00  0.00     0.167 HD
ATOM     54  C   UNL A   1      44.022  24.619  26.824  1.00  0.00     0.031 A 
ATOM     55  C   UNL A   1      45.924  31.249  28.088  1.00  0.00     0.031 A 
ATOM     56  C   UNL A   1      45.393  24.934  26.520  1.00  0.00     0.049 A 
ATOM     57  C   UNL A   1      46.902  30.227  27.573  1.00  0.00     0.074 A 
ATOM     58  C   UNL A   1      46.363  24.109  25.977  1.00  0.00     0.029 A 
ATOM     59  N   UNL A   1      45.983  26.172  26.717  1.00  0.00    -0.354 N 
ATOM     60  N   UNL A   1      46.690  28.972  27.258  1.00  0.00    -0.248 NA
ATOM     61  C   UNL A   1      48.294  30.666  27.399  1.00  0.00     0.031 C 
ATOM     62  C   UNL A   1      47.553  24.837  25.889  1.00  0.00     0.029 A 
ATOM     63  C   UNL A   1      47.309  26.129  26.326  1.00  0.00     0.049 A 
ATOM     64  H   UNL A   1      45.527  26.964  27.082  1.00  0.00     0.167 HD
ATOM     65  C   UNL A   1      47.915  28.481  26.822  1.00  0.00     0.074 A 
ATOM     66  C   UNL A   1      48.862  29.573  26.907  1.00  0.00     0.031 C 
ATOM     67  C   UNL A   1      48.228  27.236  26.391  1.00  0.00     0.031 A 
BRANCH  54  68
ATOM     68  C   UNL A   1      43.564  23.202  26.613  1.00  0.00    -0.014 A 
ATOM     69  C   UNL A   1      43.766  22.533  25.395  1.00  0.00     0.010 A 
ATOM     70  C   UNL A   1      42.991  22.501  27.692  1.00  0.00     0.010 A 
ATOM     71  C   UNL A   1      43.385  21.194  25.253  1.00  0.00     0.020 A 
ATOM     72  C   UNL A   1      42.631  21.158  27.563  1.00  0.00     0.020 A 
ATOM     73  C   UNL A   1      42.820  20.515  26.337  1.00  0.00     0.054 A 
BRANCH  73  74
ATOM     74  S   UNL A   1      42.382  18.765  26.142  1.00  0.00     0.124 S 
ATOM     75  O   UNL A   1      42.616  18.245  27.487  1.00  0.00    -0.237 OA
ATOM     76  O   UNL A   1      40.982  18.829  25.730  1.00  0.00    -0.237 OA
ATOM     77  O   UNL A   1      43.308  18.286  25.119  1.00  0.00    -0.744 OA
ENDBRANCH  73  74
ENDBRANCH  54  68
BRANCH  55  78
ATOM     78  C   UNL A   1      46.372  32.634  28.405  1.00  0.00    -0.014 A 
ATOM     79  C   UNL A   1      46.302  33.648  27.434  1.00  0.00     0.010 A 
ATOM     80  C   UNL A   1      46.887  32.942  29.678  1.00  0.00     0.010 A 
ATOM     81  C   UNL A   1      46.761  34.937  27.722  1.00  0.00     0.020 A 
ATOM     82  C   UNL A   1      47.318  34.237  29.979  1.00  0.00     0.020 A 
ATOM     83  C   UNL A   1      47.269  35.223  28.992  1.00  0.00     0.054 A 
BRANCH  83  84
ATOM     84  S   UNL A   1      47.835  36.907  29.356  1.00  0.00     0.124 S 
ATOM     85  O   UNL A   1      46.639  37.509  29.938  1.00  0.00    -0.237 OA
ATOM     86  O   UNL A   1      48.943  36.678  30.282  1.00  0.00    -0.237 OA
ATOM     87  O   UNL A   1      48.225  37.426  28.048  1.00  0.00    -0.744 OA
ENDBRANCH  83  84
ENDBRANCH  55  78
BRANCH  67  88
ATOM     88  C   UNL A   1      49.632  26.994  25.910  1.00  0.00    -0.014 A 
ATOM     89  C   UNL A   1      50.582  26.359  26.728  1.00  0.00     0.010 A 
ATOM     90  C   UNL A   1      49.971  27.325  24.586  1.00  0.00     0.010 A 
ATOM     91  C   UNL A   1      51.854  26.064  26.229  1.00  0.00     0.020 A 
ATOM     92  C   UNL A   1      51.233  27.014  24.077  1.00  0.00     0.020 A 
ATOM     93  C   UNL A   1      52.169  26.389  24.905  1.00  0.00     0.054 A 
BRANCH  93  94
ATOM     94  S   UNL A   1      53.797  25.923  24.254  1.00  0.00     0.124 S 
ATOM     95  O   UNL A   1      53.575  25.976  22.812  1.00  0.00    -0.237 OA
ATOM     96  O   UNL A   1      54.669  26.962  24.794  1.00  0.00    -0.237 OA
ATOM     97  O   UNL A   1      54.018  24.586  24.801  1.00  0.00    -0.744 OA
ENDBRANCH  93  94
ENDBRANCH  67  88
ENDBRANCH  41  42
ENDBRANCH  34  36
ENDBRANCH  33  34
ENDBRANCH  32  33
ENDBRANCH   1  32
TORSDOF 18
ENDMDL
MODEL 2
REMARK VINA RESULT:     -12.4      5.817      8.118
REMARK SMILES CS(=O)(=O)c1ccc(C2=NN(c3ccc(C(=O)OCCOC(=O)c4ccc(-c5c6nc(c(-c7ccc(S(=O)(=O)[O-])cc7)c7ccc([nH]7)c(-c7ccc(S(=O)(=O)[O-])cc7)c7nc(c(-c8ccc(S(=O)(=O)[O-])cc8)c8ccc5[nH]8)C=C7)C=C6)cc4)cc3)[C@H](c3ccccc3)C2)cc1
REMARK SMILES IDX 19 1 18 2 16 3 17 4 15 5 12 6 13 7 85 8 14 9 84 10 11 11
REMARK SMILES IDX 9 12 10 13 93 14 86 15 8 16 5 17 6 18 95 19 7 20 94 21 2 22
REMARK SMILES IDX 1 23 3 24 4 25 87 26 88 27 92 28 89 29 91 30 90 31 20 32
REMARK SMILES IDX 21 33 22 34 23 35 24 36 25 37 83 38 26 39 82 40 27 41 28 42
REMARK SMILES IDX 29 43 76 44 30 45 81 46 75 47 77 48 31 49 80 50 74 51 73 52
REMARK SMILES IDX 32 54 62 55 43 56 61 57 44 58 47 59 60 60 78 61 45 62 46 63
REMARK SMILES IDX 59 65 79 66 48 67 33 68 34 69 42 70 35 71 41 72 36 73 37 74
REMARK SMILES IDX 38 75 39 76 40 77 63 78 64 79 72 80 65 81 71 82 66 83 67 84
REMARK SMILES IDX 68 85 69 86 70 87 49 88 50 89 58 90 51 91 57 92 52 93 53 94
REMARK SMILES IDX 54 95 55 96 56 97
REMARK H PARENT 77 53 47 64
REMARK Flexibility Score: inf
ROOT
ATOM      1  C   UNL A   1      33.131  32.273  26.982  1.00  0.00     0.275 C 
ENDROOT
BRANCH   1   2
ATOM      2  O   UNL A   1      33.340  31.226  27.948  1.00  0.00    -0.458 OA
BRANCH   2   3
ATOM      3  C   UNL A   1      34.273  30.300  27.620  1.00  0.00     0.338 C 
ATOM      4  O   UNL A   1      35.478  30.396  27.793  1.00  0.00    -0.246 OA
BRANCH   3   5
ATOM      5  C   UNL A   1      33.642  29.080  27.058  1.00  0.00     0.060 A 
ATOM      6  C   UNL A   1      32.492  26.827  25.833  1.00  0.00     0.060 A 
ATOM      7  C   UNL A   1      33.803  27.203  25.527  1.00  0.00     0.029 A 
ATOM      8  C   UNL A   1      31.785  27.555  26.798  1.00  0.00     0.029 A 
ATOM      9  C   UNL A   1      34.361  28.339  26.110  1.00  0.00     0.018 A 
ATOM     10  C   UNL A   1      32.354  28.673  27.417  1.00  0.00     0.018 A 
BRANCH   6  11
ATOM     11  N   UNL A   1      31.838  25.833  25.096  1.00  0.00    -0.257 N 
ATOM     12  C   UNL A   1      31.993  23.884  24.236  1.00  0.00     0.071 C 
ATOM     13  N   UNL A   1      32.144  24.533  25.348  1.00  0.00    -0.176 NA
ATOM     14  C   UNL A   1      31.626  24.712  23.036  1.00  0.00     0.091 C 
ATOM     15  C   UNL A   1      31.581  26.108  23.672  1.00  0.00     0.144 C 
BRANCH  12  16
ATOM     16  C   UNL A   1      32.124  22.418  24.153  1.00  0.00    -0.002 A 
ATOM     17  C   UNL A   1      32.462  19.666  23.870  1.00  0.00     0.067 A 
ATOM     18  C   UNL A   1      32.253  20.453  22.736  1.00  0.00     0.021 A 
ATOM     19  C   UNL A   1      32.478  20.244  25.147  1.00  0.00     0.021 A 
ATOM     20  C   UNL A   1      32.071  21.829  22.883  1.00  0.00     0.011 A 
ATOM     21  C   UNL A   1      32.321  21.627  25.289  1.00  0.00     0.011 A 
BRANCH  17  22
ATOM     22  S   UNL A   1      32.727  17.913  23.728  1.00  0.00     0.175 S 
ATOM     23  C   UNL A   1      34.423  17.616  24.146  1.00  0.00     0.163 C 
ATOM     24  O   UNL A   1      32.558  17.573  22.328  1.00  0.00    -0.224 OA
ATOM     25  O   UNL A   1      31.897  17.298  24.749  1.00  0.00    -0.224 OA
ENDBRANCH  17  22
ENDBRANCH  12  16
BRANCH  15  26
ATOM     26  C   UNL A   1      30.310  26.935  23.537  1.00  0.00    -0.023 A 
ATOM     27  C   UNL A   1      30.253  28.165  22.868  1.00  0.00     0.006 A 
ATOM     28  C   UNL A   1      29.101  26.379  24.003  1.00  0.00     0.006 A 
ATOM     29  C   UNL A   1      29.029  28.816  22.677  1.00  0.00     0.000 A 
ATOM     30  C   UNL A   1      27.878  27.014  23.786  1.00  0.00     0.000 A 
ATOM     31  C   UNL A   1      27.844  28.237  23.125  1.00  0.00     0.000 A 
ENDBRANCH  15  26
ENDBRANCH   6  11
ENDBRANCH   3   5
ENDBRANCH   2   3
ENDBRANCH   1   2
BRANCH   1  32
ATOM     32  C   UNL A   1      32.323  33.420  27.587  1.00  0.00     0.275 C 
BRANCH  32  33
ATOM     33  O   UNL A   1      33.181  34.518  27.943  1.00  0.00    -0.458 OA
BRANCH  33  34
ATOM     34  C   UNL A   1      33.277  34.772  29.268  1.00  0.00     0.338 C 
ATOM     35  O   UNL A   1      32.487  35.381  29.968  1.00  0.00    -0.246 OA
BRANCH  34  36
ATOM     36  C   UNL A   1      34.509  34.165  29.789  1.00  0.00     0.060 A 
ATOM     37  C   UNL A   1      34.417  33.223  30.813  1.00  0.00     0.016 A 
ATOM     38  C   UNL A   1      35.754  34.608  29.350  1.00  0.00     0.016 A 
ATOM     39  C   UNL A   1      35.566  32.760  31.449  1.00  0.00     0.010 A 
ATOM     40  C   UNL A   1      36.910  34.089  29.941  1.00  0.00     0.010 A 
ATOM     41  C   UNL A   1      36.830  33.179  31.014  1.00  0.00    -0.014 A 
BRANCH  41  42
ATOM     42  C   UNL A   1      38.071  32.709  31.684  1.00  0.00     0.031 A 
ATOM     43  C   UNL A   1      38.819  31.530  31.118  1.00  0.00     0.074 A 
ATOM     44  C   UNL A   1      38.512  33.301  32.813  1.00  0.00     0.049 A 
ATOM     45  N   UNL A   1      39.752  30.799  31.671  1.00  0.00    -0.248 NA
ATOM     46  C   UNL A   1      38.457  31.109  29.753  1.00  0.00     0.031 C 
ATOM     47  C   UNL A   1      37.928  34.493  33.435  1.00  0.00     0.029 A 
ATOM     48  N   UNL A   1      39.548  32.967  33.651  1.00  0.00    -0.354 N 
ATOM     49  C   UNL A   1      40.037  29.792  30.755  1.00  0.00     0.074 A 
ATOM     50  C   UNL A   1      39.192  30.014  29.603  1.00  0.00     0.031 C 
ATOM     51  C   UNL A   1      38.619  34.794  34.547  1.00  0.00     0.029 A 
ATOM     52  C   UNL A   1      39.633  33.769  34.767  1.00  0.00     0.049 A 
ATOM     53  H   UNL A   1      40.172  32.227  33.471  1.00  0.00     0.167 HD
ATOM     54  C   UNL A   1      40.914  28.767  30.877  1.00  0.00     0.031 A 
ATOM     55  C   UNL A   1      40.396  33.660  35.873  1.00  0.00     0.031 A 
ATOM     56  C   UNL A   1      41.787  28.587  32.006  1.00  0.00     0.049 A 
ATOM     57  C   UNL A   1      41.330  32.487  36.004  1.00  0.00     0.074 A 
ATOM     58  C   UNL A   1      42.735  27.599  32.210  1.00  0.00     0.029 A 
ATOM     59  N   UNL A   1      41.830  29.418  33.114  1.00  0.00    -0.354 N 
ATOM     60  N   UNL A   1      41.561  31.521  35.149  1.00  0.00    -0.248 NA
ATOM     61  C   UNL A   1      42.091  32.380  37.257  1.00  0.00     0.031 C 
ATOM     62  C   UNL A   1      43.319  27.808  33.462  1.00  0.00     0.029 A 
ATOM     63  C   UNL A   1      42.773  28.956  34.013  1.00  0.00     0.049 A 
ATOM     64  H   UNL A   1      41.272  30.219  33.242  1.00  0.00     0.167 HD
ATOM     65  C   UNL A   1      42.517  30.708  35.748  1.00  0.00     0.074 A 
ATOM     66  C   UNL A   1      42.824  31.296  37.035  1.00  0.00     0.031 C 
ATOM     67  C   UNL A   1      43.086  29.573  35.276  1.00  0.00     0.031 A 
BRANCH  54  68
ATOM     68  C   UNL A   1      40.949  27.728  29.789  1.00  0.00    -0.014 A 
ATOM     69  C   UNL A   1      42.129  27.430  29.088  1.00  0.00     0.010 A 
ATOM     70  C   UNL A   1      39.787  26.977  29.525  1.00  0.00     0.010 A 
ATOM     71  C   UNL A   1      42.142  26.413  28.128  1.00  0.00     0.020 A 
ATOM     72  C   UNL A   1      39.801  25.945  28.584  1.00  0.00     0.020 A 
ATOM     73  C   UNL A   1      40.978  25.677  27.882  1.00  0.00     0.054 A 
BRANCH  73  74
ATOM     74  S   UNL A   1      41.036  24.329  26.667  1.00  0.00     0.124 S 
ATOM     75  O   UNL A   1      41.659  24.985  25.520  1.00  0.00    -0.237 OA
ATOM     76  O   UNL A   1      41.858  23.326  27.340  1.00  0.00    -0.237 OA
ATOM     77  O   UNL A   1      39.633  23.962  26.488  1.00  0.00    -0.744 OA
ENDBRANCH  73  74
ENDBRANCH  54  68
BRANCH  55  78
ATOM     78  C   UNL A   1      40.264  34.651  36.977  1.00  0.00    -0.014 A 
ATOM     79  C   UNL A   1      41.108  35.773  37.037  1.00  0.00     0.010 A 
ATOM     80  C   UNL A   1      39.300  34.468  37.985  1.00  0.00     0.010 A 
ATOM     81  C   UNL A   1      41.009  36.679  38.097  1.00  0.00     0.020 A 
ATOM     82  C   UNL A   1      39.176  35.388  39.030  1.00  0.00     0.020 A 
ATOM     83  C   UNL A   1      40.044  36.479  39.089  1.00  0.00     0.054 A 
BRANCH  83  84
ATOM     84  S   UNL A   1      39.910  37.679  40.442  1.00  0.00     0.124 S 
ATOM     85  O   UNL A   1      40.440  36.923  41.572  1.00  0.00    -0.237 OA
ATOM     86  O   UNL A   1      40.745  38.784  39.972  1.00  0.00    -0.237 OA
ATOM     87  O   UNL A   1      38.480  37.971  40.499  1.00  0.00    -0.744 OA
ENDBRANCH  83  84
ENDBRANCH  55  78
BRANCH  67  88
ATOM     88  C   UNL A   1      44.151  28.923  36.115  1.00  0.00    -0.014 A 
ATOM     89  C   UNL A   1      43.843  27.874  36.997  1.00  0.00     0.010 A 
ATOM     90  C   UNL A   1      45.492  29.310  35.943  1.00  0.00     0.010 A 
ATOM     91  C   UNL A   1      44.862  27.226  37.701  1.00  0.00     0.020 A 
ATOM     92  C   UNL A   1      46.515  28.651  36.627  1.00  0.00     0.020 A 
ATOM     93  C   UNL A   1      46.192  27.615  37.507  1.00  0.00     0.054 A 
BRANCH  93  94
ATOM     94  S   UNL A   1      47.504  26.705  38.367  1.00  0.00     0.124 S 
ATOM     95  O   UNL A   1      48.629  26.852  37.448  1.00  0.00    -0.237 OA
ATOM     96  O   UNL A   1      47.624  27.429  39.629  1.00  0.00    -0.237 OA
ATOM     97  O   UNL A   1      46.967  25.350  38.481  1.00  0.00    -0.744 OA
ENDBRANCH  93  94
ENDBRANCH  67  88
ENDBRANCH  41  42
ENDBRANCH  34  36
ENDBRANCH  33  34
ENDBRANCH  32  33
ENDBRANCH   1  32
TORSDOF 18
ENDMDL
MODEL 3
REMARK VINA RESULT:     -12.3      2.697      8.977
REMARK SMILES CS(=O)(=O)c1ccc(C2=NN(c3ccc(C(=O)OCCOC(=O)c4ccc(-c5c6nc(c(-c7ccc(S(=O)(=O)[O-])cc7)c7ccc([nH]7)c(-c7ccc(S(=O)(=O)[O-])cc7)c7nc(c(-c8ccc(S(=O)(=O)[O-])cc8)c8ccc5[nH]8)C=C7)C=C6)cc4)cc3)[C@H](c3ccccc3)C2)cc1
REMARK SMILES IDX 19 1 18 2 16 3 17 4 15 5 12 6 13 7 85 8 14 9 84 10 11 11
REMARK SMILES IDX 9 12 10 13 93 14 86 15 8 16 5 17 6 18 95 19 7 20 94 21 2 22
REMARK SMILES IDX 1 23 3 24 4 25 87 26 88 27 92 28 89 29 91 30 90 31 20 32
REMARK SMILES IDX 21 33 22 34 23 35 24 36 25 37 83 38 26 39 82 40 27 41 28 42
REMARK SMILES IDX 29 43 76 44 30 45 81 46 75 47 77 48 31 49 80 50 74 51 73 52
REMARK SMILES IDX 32 54 62 55 43 56 61 57 44 58 47 59 60 60 78 61 45 62 46 63
REMARK SMILES IDX 59 65 79 66 48 67 33 68 34 69 42 70 35 71 41 72 36 73 37 74
REMARK SMILES IDX 38 75 39 76 40 77 63 78 64 79 72 80 65 81 71 82 66 83 67 84
REMARK SMILES IDX 68 85 69 86 70 87 49 88 50 89 58 90 51 91 57 92 52 93 53 94
REMARK SMILES IDX 54 95 55 96 56 97
REMARK H PARENT 77 53 47 64
REMARK Flexibility Score: inf
ROOT
ATOM      1  C   UNL A   1      38.944  20.505  26.138  1.00  0.00     0.275 C 
ENDROOT
BRANCH   1   2
ATOM      2  O   UNL A   1      39.043  21.670  25.297  1.00  0.00    -0.458 OA
BRANCH   2   3
ATOM      3  C   UNL A   1      38.589  22.827  25.838  1.00  0.00     0.338 C 
ATOM      4  O   UNL A   1      39.193  23.544  26.620  1.00  0.00    -0.246 OA
BRANCH   3   5
ATOM      5  C   UNL A   1      37.246  23.173  25.310  1.00  0.00     0.060 A 
ATOM      6  C   UNL A   1      34.634  23.781  24.467  1.00  0.00     0.060 A 
ATOM      7  C   UNL A   1      35.123  24.293  25.673  1.00  0.00     0.029 A 
ATOM      8  C   UNL A   1      35.485  23.011  23.664  1.00  0.00     0.029 A 
ATOM      9  C   UNL A   1      36.406  23.964  26.106  1.00  0.00     0.018 A 
ATOM     10  C   UNL A   1      36.788  22.711  24.074  1.00  0.00     0.018 A 
BRANCH   6  11
ATOM     11  N   UNL A   1      33.283  23.910  24.126  1.00  0.00    -0.257 N 
ATOM     12  C   UNL A   1      31.570  25.184  24.154  1.00  0.00     0.071 C 
ATOM     13  N   UNL A   1      32.814  25.141  23.793  1.00  0.00    -0.176 NA
ATOM     14  C   UNL A   1      31.050  23.968  24.870  1.00  0.00     0.091 C 
ATOM     15  C   UNL A   1      32.315  23.100  24.886  1.00  0.00     0.144 C 
BRANCH  12  16
ATOM     16  C   UNL A   1      30.696  26.331  23.845  1.00  0.00    -0.002 A 
ATOM     17  C   UNL A   1      29.148  28.542  23.150  1.00  0.00     0.067 A 
ATOM     18  C   UNL A   1      30.535  28.674  23.237  1.00  0.00     0.021 A 
ATOM     19  C   UNL A   1      28.529  27.317  23.433  1.00  0.00     0.021 A 
ATOM     20  C   UNL A   1      31.305  27.568  23.599  1.00  0.00     0.011 A 
ATOM     21  C   UNL A   1      29.306  26.202  23.769  1.00  0.00     0.011 A 
BRANCH  17  22
ATOM     22  S   UNL A   1      28.129  29.917  22.668  1.00  0.00     0.175 S 
ATOM     23  C   UNL A   1      28.936  31.382  23.253  1.00  0.00     0.163 C 
ATOM     24  O   UNL A   1      26.879  29.790  23.393  1.00  0.00    -0.224 OA
ATOM     25  O   UNL A   1      28.148  29.940  21.216  1.00  0.00    -0.224 OA
ENDBRANCH  17  22
ENDBRANCH  12  16
BRANCH  15  26
ATOM     26  C   UNL A   1      32.251  21.699  24.293  1.00  0.00    -0.023 A 
ATOM     27  C   UNL A   1      32.106  21.443  22.923  1.00  0.00     0.006 A 
ATOM     28  C   UNL A   1      32.471  20.602  25.151  1.00  0.00     0.006 A 
ATOM     29  C   UNL A   1      32.175  20.135  22.432  1.00  0.00     0.000 A 
ATOM     30  C   UNL A   1      32.569  19.301  24.656  1.00  0.00     0.000 A 
ATOM     31  C   UNL A   1      32.417  19.068  23.295  1.00  0.00     0.000 A 
ENDBRANCH  15  26
ENDBRANCH   6  11
ENDBRANCH   3   5
ENDBRANCH   2   3
ENDBRANCH   1   2
BRANCH   1  32
ATOM     32  C   UNL A   1      39.858  19.390  25.633  1.00  0.00     0.275 C 
BRANCH  32  33
ATOM     33  O   UNL A   1      41.214  19.854  25.516  1.00  0.00    -0.458 OA
BRANCH  33  34
ATOM     34  C   UNL A   1      41.881  19.998  26.684  1.00  0.00     0.338 C 
ATOM     35  O   UNL A   1      42.024  19.168  27.566  1.00  0.00    -0.246 OA
BRANCH  34  36
ATOM     36  C   UNL A   1      42.466  21.344  26.745  1.00  0.00     0.060 A 
ATOM     37  C   UNL A   1      42.913  21.831  27.972  1.00  0.00     0.016 A 
ATOM     38  C   UNL A   1      42.468  22.163  25.619  1.00  0.00     0.016 A 
ATOM     39  C   UNL A   1      43.308  23.160  28.100  1.00  0.00     0.010 A 
ATOM     40  C   UNL A   1      42.932  23.477  25.733  1.00  0.00     0.010 A 
ATOM     41  C   UNL A   1      43.333  23.999  26.979  1.00  0.00    -0.014 A 
BRANCH  41  42
ATOM     42  C   UNL A   1      43.740  25.425  27.091  1.00  0.00     0.031 A 
ATOM     43  C   UNL A   1      45.151  25.823  26.747  1.00  0.00     0.074 A 
ATOM     44  C   UNL A   1      42.870  26.356  27.534  1.00  0.00     0.049 A 
ATOM     45  N   UNL A   1      45.785  26.935  27.018  1.00  0.00    -0.248 NA
ATOM     46  C   UNL A   1      45.960  24.834  26.015  1.00  0.00     0.031 C 
ATOM     47  C   UNL A   1      41.455  26.127  27.837  1.00  0.00     0.029 A 
ATOM     48  N   UNL A   1      43.057  27.687  27.824  1.00  0.00    -0.354 N 
ATOM     49  C   UNL A   1      47.085  26.751  26.556  1.00  0.00     0.074 A 
ATOM     50  C   UNL A   1      47.144  25.429  25.971  1.00  0.00     0.031 C 
ATOM     51  C   UNL A   1      40.902  27.275  28.261  1.00  0.00     0.029 A 
ATOM     52  C   UNL A   1      41.939  28.297  28.346  1.00  0.00     0.049 A 
ATOM     53  H   UNL A   1      43.908  28.158  27.672  1.00  0.00     0.167 HD
ATOM     54  C   UNL A   1      48.133  27.605  26.629  1.00  0.00     0.031 A 
ATOM     55  C   UNL A   1      41.777  29.521  28.889  1.00  0.00     0.031 A 
ATOM     56  C   UNL A   1      48.048  28.937  27.167  1.00  0.00     0.049 A 
ATOM     57  C   UNL A   1      42.968  30.434  29.001  1.00  0.00     0.074 A 
ATOM     58  C   UNL A   1      49.046  29.892  27.256  1.00  0.00     0.029 A 
ATOM     59  N   UNL A   1      46.898  29.507  27.690  1.00  0.00    -0.354 N 
ATOM     60  N   UNL A   1      44.199  30.233  28.596  1.00  0.00    -0.248 NA
ATOM     61  C   UNL A   1      42.753  31.730  29.660  1.00  0.00     0.031 C 
ATOM     62  C   UNL A   1      48.510  31.024  27.876  1.00  0.00     0.029 A 
ATOM     63  C   UNL A   1      47.166  30.793  28.123  1.00  0.00     0.049 A 
ATOM     64  H   UNL A   1      46.022  29.062  27.747  1.00  0.00     0.167 HD
ATOM     65  C   UNL A   1      44.897  31.390  28.924  1.00  0.00     0.074 A 
ATOM     66  C   UNL A   1      43.953  32.287  29.556  1.00  0.00     0.031 C 
ATOM     67  C   UNL A   1      46.204  31.681  28.723  1.00  0.00     0.031 A 
BRANCH  54  68
ATOM     68  C   UNL A   1      49.479  27.120  26.165  1.00  0.00    -0.014 A 
ATOM     69  C   UNL A   1      50.342  26.407  27.013  1.00  0.00     0.010 A 
ATOM     70  C   UNL A   1      49.849  27.314  24.820  1.00  0.00     0.010 A 
ATOM     71  C   UNL A   1      51.559  25.915  26.531  1.00  0.00     0.020 A 
ATOM     72  C   UNL A   1      51.052  26.804  24.327  1.00  0.00     0.020 A 
ATOM     73  C   UNL A   1      51.907  26.116  25.191  1.00  0.00     0.054 A 
BRANCH  73  74
ATOM     74  S   UNL A   1      53.468  25.423  24.578  1.00  0.00     0.124 S 
ATOM     75  O   UNL A   1      53.349  24.021  24.970  1.00  0.00    -0.237 OA
ATOM     76  O   UNL A   1      53.391  25.680  23.142  1.00  0.00    -0.237 OA
ATOM     77  O   UNL A   1      54.491  26.184  25.290  1.00  0.00    -0.744 OA
ENDBRANCH  73  74
ENDBRANCH  54  68
BRANCH  55  78
ATOM     78  C   UNL A   1      40.453  29.932  29.433  1.00  0.00    -0.014 A 
ATOM     79  C   UNL A   1      39.398  30.268  28.568  1.00  0.00     0.010 A 
ATOM     80  C   UNL A   1      40.246  30.005  30.823  1.00  0.00     0.010 A 
ATOM     81  C   UNL A   1      38.169  30.693  29.081  1.00  0.00     0.020 A 
ATOM     82  C   UNL A   1      39.009  30.399  31.340  1.00  0.00     0.020 A 
ATOM     83  C   UNL A   1      37.983  30.758  30.465  1.00  0.00     0.054 A 
BRANCH  83  84
ATOM     84  S   UNL A   1      36.373  31.285  31.114  1.00  0.00     0.124 S 
ATOM     85  O   UNL A   1      35.603  31.480  29.890  1.00  0.00    -0.237 OA
ATOM     86  O   UNL A   1      35.974  30.147  31.939  1.00  0.00    -0.237 OA
ATOM     87  O   UNL A   1      36.688  32.502  31.858  1.00  0.00    -0.744 OA
ENDBRANCH  83  84
ENDBRANCH  55  78
BRANCH  67  88
ATOM     88  C   UNL A   1      46.686  33.048  29.123  1.00  0.00    -0.014 A 
ATOM     89  C   UNL A   1      46.517  34.157  28.276  1.00  0.00     0.010 A 
ATOM     90  C   UNL A   1      47.229  33.236  30.407  1.00  0.00     0.010 A 
ATOM     91  C   UNL A   1      46.891  35.433  28.706  1.00  0.00     0.020 A 
ATOM     92  C   UNL A   1      47.584  34.512  30.848  1.00  0.00     0.020 A 
ATOM     93  C   UNL A   1      47.418  35.603  29.991  1.00  0.00     0.054 A 
BRANCH  93  94
ATOM     94  S   UNL A   1      47.818  37.279  30.558  1.00  0.00     0.124 S 
ATOM     95  O   UNL A   1      49.214  37.137  30.963  1.00  0.00    -0.237 OA
ATOM     96  O   UNL A   1      47.590  38.086  29.362  1.00  0.00    -0.237 OA
ATOM     97  O   UNL A   1      46.873  37.510  31.648  1.00  0.00    -0.744 OA
ENDBRANCH  93  94
ENDBRANCH  67  88
ENDBRANCH  41  42
ENDBRANCH  34  36
ENDBRANCH  33  34
ENDBRANCH  32  33
ENDBRANCH   1  32
TORSDOF 18
ENDMDL
