MODEL 1
REMARK VINA RESULT:     -12.5      0.000      0.000
REMARK SMILES NS(=O)(=O)c1ccc(-n2nc(C(F)(F)F)cc2-c2ccc(C(=O)OCCOC(=O)c3ccc(-c4c5nc(c(-c6ccc(S(=O)(=O)[O-])cc6)c6ccc([nH]6)c(-c6ccc(S(=O)(=O)[O-])cc6)c6nc(c(-c7ccc(S(=O)(=O)[O-])cc7)c7ccc4[nH]7)C=C6)C=C5)cc3)cc2)cc1
REMARK SMILES IDX 25 1 24 2 22 3 23 4 21 5 18 6 19 7 91 8 20 9 90 10 17 11
REMARK SMILES IDX 9 12 10 13 11 14 16 15 8 16 5 17 6 18 93 19 7 20 92 21 2 22
REMARK SMILES IDX 3 23 4 24 1 25 12 28 13 29 14 30 15 31 26 32 27 33 28 34
REMARK SMILES IDX 29 35 30 36 31 37 89 38 32 39 88 40 33 41 34 42 35 43 82 44
REMARK SMILES IDX 36 45 87 46 81 47 83 48 37 49 86 50 80 51 79 52 38 54 68 55
REMARK SMILES IDX 49 56 67 57 50 58 53 59 66 60 84 61 51 62 52 63 65 65 85 66
REMARK SMILES IDX 54 67 39 68 40 69 48 70 41 71 47 72 42 73 43 74 44 75 45 76
REMARK SMILES IDX 46 77 69 78 70 79 78 80 71 81 77 82 72 83 73 84 74 85 75 86
REMARK SMILES IDX 76 87 55 88 56 89 64 90 57 91 63 92 58 93 59 94 60 95 61 96
REMARK SMILES IDX 62 97
REMARK H PARENT 1 26 1 27 83 53 53 64
REMARK Flexibility Score: inf
ROOT
ATOM      1  C   UNL A   1      32.211  28.534  25.610  1.00  0.00     0.275 C 
ENDROOT
BRANCH   1   2
ATOM      2  O   UNL A   1      32.485  27.696  24.475  1.00  0.00    -0.458 OA
BRANCH   2   3
ATOM      3  C   UNL A   1      32.027  26.420  24.565  1.00  0.00     0.338 C 
ATOM      4  O   UNL A   1      30.866  26.059  24.453  1.00  0.00    -0.246 OA
BRANCH   3   5
ATOM      5  C   UNL A   1      33.155  25.470  24.733  1.00  0.00     0.060 A 
ATOM      6  C   UNL A   1      35.370  23.799  25.164  1.00  0.00     0.000 A 
ATOM      7  C   UNL A   1      34.559  24.191  26.238  1.00  0.00     0.011 A 
ATOM      8  C   UNL A   1      35.029  24.205  23.868  1.00  0.00     0.011 A 
ATOM      9  C   UNL A   1      33.455  25.018  26.025  1.00  0.00     0.016 A 
ATOM     10  C   UNL A   1      33.922  25.030  23.651  1.00  0.00     0.016 A 
BRANCH   6  11
ATOM     11  C   UNL A   1      36.624  23.078  25.395  1.00  0.00     0.075 A 
ATOM     12  N   UNL A   1      36.782  21.702  25.502  1.00  0.00    -0.233 N 
ATOM     13  N   UNL A   1      37.987  21.372  26.042  1.00  0.00    -0.163 NA
ATOM     14  C   UNL A   1      38.674  22.528  26.097  1.00  0.00     0.167 A 
ATOM     15  C   UNL A   1      37.851  23.616  25.729  1.00  0.00     0.064 A 
BRANCH  12  16
ATOM     16  C   UNL A   1      35.850  20.692  25.159  1.00  0.00     0.065 A 
ATOM     17  C   UNL A   1      34.045  18.788  24.248  1.00  0.00     0.082 A 
ATOM     18  C   UNL A   1      35.388  18.439  24.408  1.00  0.00     0.024 A 
ATOM     19  C   UNL A   1      33.589  20.068  24.581  1.00  0.00     0.024 A 
ATOM     20  C   UNL A   1      36.297  19.399  24.850  1.00  0.00     0.030 A 
ATOM     21  C   UNL A   1      34.489  21.016  25.070  1.00  0.00     0.030 A 
BRANCH  17  22
ATOM     22  S   UNL A   1      32.922  17.603  23.567  1.00  0.00     0.238 S 
ATOM     23  O   UNL A   1      33.624  16.366  23.359  1.00  0.00    -0.207 OA
ATOM     24  O   UNL A   1      32.161  18.270  22.533  1.00  0.00    -0.207 OA
BRANCH  22  25
ATOM     25  N   UNL A   1      31.859  17.322  24.839  1.00  0.00    -0.225 NA
ATOM     26  H   UNL A   1      31.389  16.427  24.698  1.00  0.00     0.137 HD
ATOM     27  H   UNL A   1      31.164  18.068  24.873  1.00  0.00     0.137 HD
ENDBRANCH  22  25
ENDBRANCH  17  22
ENDBRANCH  12  16
BRANCH  14  28
ATOM     28  C   UNL A   1      40.110  22.622  26.531  1.00  0.00     0.435 C 
ATOM     29  F   UNL A   1      40.971  21.985  25.696  1.00  0.00    -0.164 F 
ATOM     30  F   UNL A   1      40.531  23.911  26.635  1.00  0.00    -0.164 F 
ATOM     31  F   UNL A   1      40.297  22.066  27.765  1.00  0.00    -0.164 F 
ENDBRANCH  14  28
ENDBRANCH   6  11
ENDBRANCH   3   5
ENDBRANCH   2   3
ENDBRANCH   1   2
BRANCH   1  32
ATOM     32  C   UNL A   1      33.182  29.703  25.681  1.00  0.00     0.275 C 
BRANCH  32  33
ATOM     33  O   UNL A   1      34.020  29.604  26.830  1.00  0.00    -0.458 OA
BRANCH  33  34
ATOM     34  C   UNL A   1      34.389  30.789  27.367  1.00  0.00     0.338 C 
ATOM     35  O   UNL A   1      34.009  31.902  27.040  1.00  0.00    -0.246 OA
BRANCH  34  36
ATOM     36  C   UNL A   1      35.547  30.575  28.234  1.00  0.00     0.060 A 
ATOM     37  C   UNL A   1      36.402  31.663  28.436  1.00  0.00     0.016 A 
ATOM     38  C   UNL A   1      35.939  29.255  28.494  1.00  0.00     0.016 A 
ATOM     39  C   UNL A   1      37.729  31.407  28.704  1.00  0.00     0.010 A 
ATOM     40  C   UNL A   1      37.263  29.002  28.727  1.00  0.00     0.010 A 
ATOM     41  C   UNL A   1      38.152  30.076  28.754  1.00  0.00    -0.014 A 
BRANCH  41  42
ATOM     42  C   UNL A   1      39.541  29.787  29.042  1.00  0.00     0.031 A 
ATOM     43  C   UNL A   1      39.822  29.878  30.498  1.00  0.00     0.074 A 
ATOM     44  C   UNL A   1      40.364  29.302  28.089  1.00  0.00     0.049 A 
ATOM     45  N   UNL A   1      40.677  30.641  31.088  1.00  0.00    -0.248 NA
ATOM     46  C   UNL A   1      38.906  29.182  31.428  1.00  0.00     0.031 C 
ATOM     47  C   UNL A   1      40.032  28.958  26.701  1.00  0.00     0.029 A 
ATOM     48  N   UNL A   1      41.647  28.869  28.195  1.00  0.00    -0.354 N 
ATOM     49  C   UNL A   1      40.566  30.347  32.443  1.00  0.00     0.074 A 
ATOM     50  C   UNL A   1      39.339  29.616  32.609  1.00  0.00     0.031 C 
ATOM     51  C   UNL A   1      40.983  28.133  26.204  1.00  0.00     0.029 A 
ATOM     52  C   UNL A   1      42.041  27.987  27.190  1.00  0.00     0.049 A 
ATOM     53  H   UNL A   1      42.248  29.154  28.920  1.00  0.00     0.167 HD
ATOM     54  C   UNL A   1      41.637  30.460  33.272  1.00  0.00     0.031 A 
ATOM     55  C   UNL A   1      43.107  27.139  27.216  1.00  0.00     0.031 A 
ATOM     56  C   UNL A   1      42.654  31.302  32.699  1.00  0.00     0.049 A 
ATOM     57  C   UNL A   1      44.009  27.617  28.296  1.00  0.00     0.074 A 
ATOM     58  C   UNL A   1      42.681  32.617  32.277  1.00  0.00     0.029 A 
ATOM     59  N   UNL A   1      43.708  30.671  32.081  1.00  0.00    -0.354 N 
ATOM     60  N   UNL A   1      44.640  28.758  28.244  1.00  0.00    -0.248 NA
ATOM     61  C   UNL A   1      43.805  27.080  29.635  1.00  0.00     0.031 C 
ATOM     62  C   UNL A   1      43.451  32.598  31.080  1.00  0.00     0.029 A 
ATOM     63  C   UNL A   1      43.932  31.301  30.885  1.00  0.00     0.049 A 
ATOM     64  H   UNL A   1      44.213  29.903  32.436  1.00  0.00     0.167 HD
ATOM     65  C   UNL A   1      44.503  29.295  29.517  1.00  0.00     0.074 A 
ATOM     66  C   UNL A   1      44.054  28.180  30.353  1.00  0.00     0.031 C 
ATOM     67  C   UNL A   1      44.474  30.646  29.713  1.00  0.00     0.031 A 
BRANCH  54  68
ATOM     68  C   UNL A   1      41.933  29.448  34.349  1.00  0.00    -0.014 A 
ATOM     69  C   UNL A   1      42.437  28.190  33.968  1.00  0.00     0.010 A 
ATOM     70  C   UNL A   1      41.462  29.577  35.674  1.00  0.00     0.010 A 
ATOM     71  C   UNL A   1      42.397  27.099  34.845  1.00  0.00     0.020 A 
ATOM     72  C   UNL A   1      41.456  28.507  36.569  1.00  0.00     0.020 A 
ATOM     73  C   UNL A   1      41.893  27.264  36.136  1.00  0.00     0.054 A 
BRANCH  73  74
ATOM     74  S   UNL A   1      41.756  25.827  37.223  1.00  0.00     0.124 S 
ATOM     75  O   UNL A   1      40.385  25.949  37.710  1.00  0.00    -0.237 OA
ATOM     76  O   UNL A   1      42.006  24.722  36.303  1.00  0.00    -0.237 OA
ATOM     77  O   UNL A   1      42.799  26.051  38.221  1.00  0.00    -0.744 OA
ENDBRANCH  73  74
ENDBRANCH  54  68
BRANCH  55  78
ATOM     78  C   UNL A   1      43.216  25.768  26.635  1.00  0.00    -0.014 A 
ATOM     79  C   UNL A   1      43.384  25.565  25.249  1.00  0.00     0.010 A 
ATOM     80  C   UNL A   1      43.437  24.661  27.478  1.00  0.00     0.010 A 
ATOM     81  C   UNL A   1      43.816  24.323  24.740  1.00  0.00     0.020 A 
ATOM     82  C   UNL A   1      43.861  23.422  26.979  1.00  0.00     0.020 A 
ATOM     83  C   UNL A   1      44.075  23.265  25.612  1.00  0.00     0.054 A 
BRANCH  83  84
ATOM     84  S   UNL A   1      44.814  21.726  24.980  1.00  0.00     0.124 S 
ATOM     85  O   UNL A   1      44.673  21.880  23.535  1.00  0.00    -0.237 OA
ATOM     86  O   UNL A   1      46.179  21.792  25.493  1.00  0.00    -0.237 OA
ATOM     87  O   UNL A   1      43.985  20.676  25.573  1.00  0.00    -0.744 OA
ENDBRANCH  83  84
ENDBRANCH  55  78
BRANCH  67  88
ATOM     88  C   UNL A   1      44.846  31.550  28.560  1.00  0.00    -0.014 A 
ATOM     89  C   UNL A   1      43.923  32.094  27.642  1.00  0.00     0.010 A 
ATOM     90  C   UNL A   1      46.178  31.993  28.507  1.00  0.00     0.010 A 
ATOM     91  C   UNL A   1      44.336  33.032  26.681  1.00  0.00     0.020 A 
ATOM     92  C   UNL A   1      46.590  32.939  27.569  1.00  0.00     0.020 A 
ATOM     93  C   UNL A   1      45.671  33.446  26.651  1.00  0.00     0.054 A 
BRANCH  93  94
ATOM     94  S   UNL A   1      46.209  34.676  25.428  1.00  0.00     0.124 S 
ATOM     95  O   UNL A   1      45.423  34.318  24.251  1.00  0.00    -0.237 OA
ATOM     96  O   UNL A   1      45.854  35.945  26.060  1.00  0.00    -0.237 OA
ATOM     97  O   UNL A   1      47.647  34.439  25.305  1.00  0.00    -0.744 OA
ENDBRANCH  93  94
ENDBRANCH  67  88
ENDBRANCH  41  42
ENDBRANCH  34  36
ENDBRANCH  33  34
ENDBRANCH  32  33
ENDBRANCH   1  32
TORSDOF 19
ENDMDL
MODEL 2
REMARK VINA RESULT:     -12.1      3.956      9.786
REMARK SMILES NS(=O)(=O)c1ccc(-n2nc(C(F)(F)F)cc2-c2ccc(C(=O)OCCOC(=O)c3ccc(-c4c5nc(c(-c6ccc(S(=O)(=O)[O-])cc6)c6ccc([nH]6)c(-c6ccc(S(=O)(=O)[O-])cc6)c6nc(c(-c7ccc(S(=O)(=O)[O-])cc7)c7ccc4[nH]7)C=C6)C=C5)cc3)cc2)cc1
REMARK SMILES IDX 25 1 24 2 22 3 23 4 21 5 18 6 19 7 91 8 20 9 90 10 17 11
REMARK SMILES IDX 9 12 10 13 11 14 16 15 8 16 5 17 6 18 93 19 7 20 92 21 2 22
REMARK SMILES IDX 3 23 4 24 1 25 12 28 13 29 14 30 15 31 26 32 27 33 28 34
REMARK SMILES IDX 29 35 30 36 31 37 89 38 32 39 88 40 33 41 34 42 35 43 82 44
REMARK SMILES IDX 36 45 87 46 81 47 83 48 37 49 86 50 80 51 79 52 38 54 68 55
REMARK SMILES IDX 49 56 67 57 50 58 53 59 66 60 84 61 51 62 52 63 65 65 85 66
REMARK SMILES IDX 54 67 39 68 40 69 48 70 41 71 47 72 42 73 43 74 44 75 45 76
REMARK SMILES IDX 46 77 69 78 70 79 78 80 71 81 77 82 72 83 73 84 74 85 75 86
REMARK SMILES IDX 76 87 55 88 56 89 64 90 57 91 63 92 58 93 59 94 60 95 61 96
REMARK SMILES IDX 62 97
REMARK H PARENT 1 26 1 27 83 53 53 64
REMARK Flexibility Score: inf
ROOT
ATOM      1  C   UNL A   1      35.312  22.857  25.256  1.00  0.00     0.275 C 
ENDROOT
BRANCH   1   2
ATOM      2  O   UNL A   1      34.615  22.470  24.060  1.00  0.00    -0.458 OA
BRANCH   2   3
ATOM      3  C   UNL A   1      33.354  22.960  23.931  1.00  0.00     0.338 C 
ATOM      4  O   UNL A   1      32.386  22.359  23.493  1.00  0.00    -0.246 OA
BRANCH   3   5
ATOM      5  C   UNL A   1      33.267  24.332  24.490  1.00  0.00     0.060 A 
ATOM      6  C   UNL A   1      33.290  26.927  25.562  1.00  0.00     0.000 A 
ATOM      7  C   UNL A   1      33.947  26.654  24.354  1.00  0.00     0.011 A 
ATOM      8  C   UNL A   1      32.576  25.903  26.197  1.00  0.00     0.011 A 
ATOM      9  C   UNL A   1      33.932  25.365  23.818  1.00  0.00     0.016 A 
ATOM     10  C   UNL A   1      32.556  24.613  25.660  1.00  0.00     0.016 A 
BRANCH   6  11
ATOM     11  C   UNL A   1      33.441  28.226  26.221  1.00  0.00     0.075 A 
ATOM     12  N   UNL A   1      32.798  29.409  25.879  1.00  0.00    -0.233 N 
ATOM     13  N   UNL A   1      33.392  30.491  26.453  1.00  0.00    -0.163 NA
ATOM     14  C   UNL A   1      34.291  29.981  27.315  1.00  0.00     0.167 A 
ATOM     15  C   UNL A   1      34.370  28.577  27.180  1.00  0.00     0.064 A 
BRANCH  12  16
ATOM     16  C   UNL A   1      31.685  29.575  25.019  1.00  0.00     0.065 A 
ATOM     17  C   UNL A   1      29.360  29.810  23.518  1.00  0.00     0.082 A 
ATOM     18  C   UNL A   1      29.830  30.915  24.232  1.00  0.00     0.024 A 
ATOM     19  C   UNL A   1      30.066  28.602  23.514  1.00  0.00     0.024 A 
ATOM     20  C   UNL A   1      30.989  30.793  24.998  1.00  0.00     0.030 A 
ATOM     21  C   UNL A   1      31.252  28.493  24.241  1.00  0.00     0.030 A 
BRANCH  17  22
ATOM     22  S   UNL A   1      27.823  29.935  22.651  1.00  0.00     0.238 S 
ATOM     23  O   UNL A   1      26.891  29.003  23.224  1.00  0.00    -0.207 OA
ATOM     24  O   UNL A   1      28.126  29.992  21.237  1.00  0.00    -0.207 OA
BRANCH  22  25
ATOM     25  N   UNL A   1      27.273  31.464  23.085  1.00  0.00    -0.225 NA
ATOM     26  H   UNL A   1      27.867  32.174  22.655  1.00  0.00     0.137 HD
ATOM     27  H   UNL A   1      27.308  31.562  24.100  1.00  0.00     0.137 HD
ENDBRANCH  22  25
ENDBRANCH  17  22
ENDBRANCH  12  16
BRANCH  14  28
ATOM     28  C   UNL A   1      35.112  30.820  28.254  1.00  0.00     0.435 C 
ATOM     29  F   UNL A   1      34.365  31.612  29.065  1.00  0.00    -0.164 F 
ATOM     30  F   UNL A   1      35.908  30.062  29.055  1.00  0.00    -0.164 F 
ATOM     31  F   UNL A   1      35.951  31.656  27.574  1.00  0.00    -0.164 F 
ENDBRANCH  14  28
ENDBRANCH   6  11
ENDBRANCH   3   5
ENDBRANCH   2   3
ENDBRANCH   1   2
BRANCH   1  32
ATOM     32  C   UNL A   1      36.663  22.165  25.356  1.00  0.00     0.275 C 
BRANCH  32  33
ATOM     33  O   UNL A   1      37.463  22.751  26.381  1.00  0.00    -0.458 OA
BRANCH  33  34
ATOM     34  C   UNL A   1      38.774  22.425  26.332  1.00  0.00     0.338 C 
ATOM     35  O   UNL A   1      39.261  21.306  26.338  1.00  0.00    -0.246 OA
BRANCH  34  36
ATOM     36  C   UNL A   1      39.570  23.631  26.556  1.00  0.00     0.060 A 
ATOM     37  C   UNL A   1      40.747  23.490  27.299  1.00  0.00     0.016 A 
ATOM     38  C   UNL A   1      38.950  24.873  26.363  1.00  0.00     0.016 A 
ATOM     39  C   UNL A   1      41.192  24.572  28.025  1.00  0.00     0.010 A 
ATOM     40  C   UNL A   1      39.374  25.937  27.111  1.00  0.00     0.010 A 
ATOM     41  C   UNL A   1      40.443  25.752  27.988  1.00  0.00    -0.014 A 
BRANCH  41  42
ATOM     42  C   UNL A   1      40.899  26.902  28.738  1.00  0.00     0.031 A 
ATOM     43  C   UNL A   1      42.128  27.486  28.140  1.00  0.00     0.074 A 
ATOM     44  C   UNL A   1      40.142  27.442  29.716  1.00  0.00     0.049 A 
ATOM     45  N   UNL A   1      43.276  27.652  28.703  1.00  0.00    -0.248 NA
ATOM     46  C   UNL A   1      42.141  27.734  26.682  1.00  0.00     0.031 C 
ATOM     47  C   UNL A   1      38.800  27.031  30.147  1.00  0.00     0.029 A 
ATOM     48  N   UNL A   1      40.345  28.572  30.442  1.00  0.00    -0.354 N 
ATOM     49  C   UNL A   1      44.083  28.240  27.736  1.00  0.00     0.074 A 
ATOM     50  C   UNL A   1      43.412  28.073  26.476  1.00  0.00     0.031 C 
ATOM     51  C   UNL A   1      38.221  28.043  30.834  1.00  0.00     0.029 A 
ATOM     52  C   UNL A   1      39.187  29.119  30.991  1.00  0.00     0.049 A 
ATOM     53  H   UNL A   1      41.236  28.971  30.569  1.00  0.00     0.167 HD
ATOM     54  C   UNL A   1      45.089  29.084  28.087  1.00  0.00     0.031 A 
ATOM     55  C   UNL A   1      39.020  30.389  31.454  1.00  0.00     0.031 A 
ATOM     56  C   UNL A   1      45.460  28.911  29.466  1.00  0.00     0.049 A 
ATOM     57  C   UNL A   1      40.381  30.949  31.667  1.00  0.00     0.074 A 
ATOM     58  C   UNL A   1      45.930  27.841  30.203  1.00  0.00     0.029 A 
ATOM     59  N   UNL A   1      44.935  29.806  30.369  1.00  0.00    -0.354 N 
ATOM     60  N   UNL A   1      41.203  30.495  32.571  1.00  0.00    -0.248 NA
ATOM     61  C   UNL A   1      41.006  31.651  30.554  1.00  0.00     0.031 C 
ATOM     62  C   UNL A   1      45.250  27.932  31.451  1.00  0.00     0.029 A 
ATOM     63  C   UNL A   1      44.479  29.096  31.449  1.00  0.00     0.049 A 
ATOM     64  H   UNL A   1      44.896  30.784  30.259  1.00  0.00     0.167 HD
ATOM     65  C   UNL A   1      42.435  30.442  31.932  1.00  0.00     0.074 A 
ATOM     66  C   UNL A   1      42.268  31.246  30.720  1.00  0.00     0.031 C 
ATOM     67  C   UNL A   1      43.373  29.515  32.285  1.00  0.00     0.031 A 
BRANCH  54  68
ATOM     68  C   UNL A   1      45.385  30.348  27.321  1.00  0.00    -0.014 A 
ATOM     69  C   UNL A   1      46.728  30.666  27.043  1.00  0.00     0.010 A 
ATOM     70  C   UNL A   1      44.430  31.371  27.127  1.00  0.00     0.010 A 
ATOM     71  C   UNL A   1      47.102  31.962  26.667  1.00  0.00     0.020 A 
ATOM     72  C   UNL A   1      44.787  32.654  26.712  1.00  0.00     0.020 A 
ATOM     73  C   UNL A   1      46.128  32.950  26.518  1.00  0.00     0.054 A 
BRANCH  73  74
ATOM     74  S   UNL A   1      46.633  34.641  26.128  1.00  0.00     0.124 S 
ATOM     75  O   UNL A   1      45.534  35.095  25.283  1.00  0.00    -0.237 OA
ATOM     76  O   UNL A   1      46.709  35.250  27.453  1.00  0.00    -0.237 OA
ATOM     77  O   UNL A   1      47.916  34.469  25.452  1.00  0.00    -0.744 OA
ENDBRANCH  73  74
ENDBRANCH  54  68
BRANCH  55  78
ATOM     78  C   UNL A   1      37.806  31.253  31.374  1.00  0.00    -0.014 A 
ATOM     79  C   UNL A   1      36.684  31.027  32.198  1.00  0.00     0.010 A 
ATOM     80  C   UNL A   1      37.857  32.479  30.681  1.00  0.00     0.010 A 
ATOM     81  C   UNL A   1      35.690  32.013  32.368  1.00  0.00     0.020 A 
ATOM     82  C   UNL A   1      36.871  33.462  30.840  1.00  0.00     0.020 A 
ATOM     83  C   UNL A   1      35.803  33.236  31.704  1.00  0.00     0.054 A 
BRANCH  83  84
ATOM     84  S   UNL A   1      34.630  34.580  32.068  1.00  0.00     0.124 S 
ATOM     85  O   UNL A   1      33.608  33.899  32.858  1.00  0.00    -0.237 OA
ATOM     86  O   UNL A   1      35.456  35.539  32.795  1.00  0.00    -0.237 OA
ATOM     87  O   UNL A   1      34.193  35.024  30.744  1.00  0.00    -0.744 OA
ENDBRANCH  83  84
ENDBRANCH  55  78
BRANCH  67  88
ATOM     88  C   UNL A   1      43.155  28.711  33.547  1.00  0.00    -0.014 A 
ATOM     89  C   UNL A   1      43.331  29.213  34.853  1.00  0.00     0.010 A 
ATOM     90  C   UNL A   1      42.589  27.434  33.393  1.00  0.00     0.010 A 
ATOM     91  C   UNL A   1      42.976  28.440  35.972  1.00  0.00     0.020 A 
ATOM     92  C   UNL A   1      42.217  26.671  34.499  1.00  0.00     0.020 A 
ATOM     93  C   UNL A   1      42.424  27.169  35.784  1.00  0.00     0.054 A 
BRANCH  93  94
ATOM     94  S   UNL A   1      41.941  26.173  37.223  1.00  0.00     0.124 S 
ATOM     95  O   UNL A   1      40.660  26.764  37.604  1.00  0.00    -0.237 OA
ATOM     96  O   UNL A   1      41.872  24.819  36.678  1.00  0.00    -0.237 OA
ATOM     97  O   UNL A   1      43.028  26.390  38.177  1.00  0.00    -0.744 OA
ENDBRANCH  93  94
ENDBRANCH  67  88
ENDBRANCH  41  42
ENDBRANCH  34  36
ENDBRANCH  33  34
ENDBRANCH  32  33
ENDBRANCH   1  32
TORSDOF 19
ENDMDL
MODEL 3
REMARK VINA RESULT:     -12.1      4.437     10.150
REMARK SMILES NS(=O)(=O)c1ccc(-n2nc(C(F)(F)F)cc2-c2ccc(C(=O)OCCOC(=O)c3ccc(-c4c5nc(c(-c6ccc(S(=O)(=O)[O-])cc6)c6ccc([nH]6)c(-c6ccc(S(=O)(=O)[O-])cc6)c6nc(c(-c7ccc(S(=O)(=O)[O-])cc7)c7ccc4[nH]7)C=C6)C=C5)cc3)cc2)cc1
REMARK SMILES IDX 25 1 24 2 22 3 23 4 21 5 18 6 19 7 91 8 20 9 90 10 17 11
REMARK SMILES IDX 9 12 10 13 11 14 16 15 8 16 5 17 6 18 93 19 7 20 92 21 2 22
REMARK SMILES IDX 3 23 4 24 1 25 12 28 13 29 14 30 15 31 26 32 27 33 28 34
REMARK SMILES IDX 29 35 30 36 31 37 89 38 32 39 88 40 33 41 34 42 35 43 82 44
REMARK SMILES IDX 36 45 87 46 81 47 83 48 37 49 86 50 80 51 79 52 38 54 68 55
REMARK SMILES IDX 49 56 67 57 50 58 53 59 66 60 84 61 51 62 52 63 65 65 85 66
REMARK SMILES IDX 54 67 39 68 40 69 48 70 41 71 47 72 42 73 43 74 44 75 45 76
REMARK SMILES IDX 46 77 69 78 70 79 78 80 71 81 77 82 72 83 73 84 74 85 75 86
REMARK SMILES IDX 76 87 55 88 56 89 64 90 57 91 63 92 58 93 59 94 60 95 61 96
REMARK SMILES IDX 62 97
REMARK H PARENT 1 26 1 27 83 53 53 64
REMARK Flexibility Score: inf
ROOT
ATOM      1  C   UNL A   1      35.593  21.573  25.820  1.00  0.00     0.275 C 
ENDROOT
BRANCH   1   2
ATOM      2  O   UNL A   1      34.775  22.690  25.433  1.00  0.00    -0.458 OA
BRANCH   2   3
ATOM      3  C   UNL A   1      33.814  23.048  26.324  1.00  0.00     0.338 C 
ATOM      4  O   UNL A   1      33.682  22.616  27.459  1.00  0.00    -0.246 OA
BRANCH   3   5
ATOM      5  C   UNL A   1      32.964  24.132  25.769  1.00  0.00     0.060 A 
ATOM      6  C   UNL A   1      31.515  26.278  24.685  1.00  0.00     0.000 A 
ATOM      7  C   UNL A   1      32.448  25.585  23.901  1.00  0.00     0.011 A 
ATOM      8  C   UNL A   1      31.275  25.850  25.997  1.00  0.00     0.011 A 
ATOM      9  C   UNL A   1      33.166  24.515  24.437  1.00  0.00     0.016 A 
ATOM     10  C   UNL A   1      31.989  24.776  26.535  1.00  0.00     0.016 A 
BRANCH   6  11
ATOM     11  C   UNL A   1      30.884  27.504  24.192  1.00  0.00     0.075 A 
ATOM     12  N   UNL A   1      31.160  28.802  24.604  1.00  0.00    -0.233 N 
ATOM     13  N   UNL A   1      30.190  29.674  24.212  1.00  0.00    -0.163 NA
ATOM     14  C   UNL A   1      29.398  28.966  23.384  1.00  0.00     0.167 A 
ATOM     15  C   UNL A   1      29.781  27.606  23.368  1.00  0.00     0.064 A 
BRANCH  12  16
ATOM     16  C   UNL A   1      32.261  29.254  25.372  1.00  0.00     0.065 A 
ATOM     17  C   UNL A   1      34.347  29.979  27.056  1.00  0.00     0.082 A 
ATOM     18  C   UNL A   1      34.562  29.007  26.075  1.00  0.00     0.024 A 
ATOM     19  C   UNL A   1      33.110  30.622  27.173  1.00  0.00     0.024 A 
ATOM     20  C   UNL A   1      33.511  28.632  25.240  1.00  0.00     0.030 A 
ATOM     21  C   UNL A   1      32.070  30.282  26.305  1.00  0.00     0.030 A 
BRANCH  17  22
ATOM     22  S   UNL A   1      35.648  30.359  28.193  1.00  0.00     0.238 S 
ATOM     23  O   UNL A   1      35.701  29.330  29.195  1.00  0.00    -0.207 OA
ATOM     24  O   UNL A   1      35.556  31.769  28.502  1.00  0.00    -0.207 OA
BRANCH  22  25
ATOM     25  N   UNL A   1      37.031  30.163  27.256  1.00  0.00    -0.225 NA
ATOM     26  H   UNL A   1      37.668  29.514  27.721  1.00  0.00     0.137 HD
ATOM     27  H   UNL A   1      37.492  31.065  27.137  1.00  0.00     0.137 HD
ENDBRANCH  22  25
ENDBRANCH  17  22
ENDBRANCH  12  16
BRANCH  14  28
ATOM     28  C   UNL A   1      28.247  29.563  22.624  1.00  0.00     0.435 C 
ATOM     29  F   UNL A   1      27.868  30.783  23.085  1.00  0.00    -0.164 F 
ATOM     30  F   UNL A   1      28.524  29.703  21.300  1.00  0.00    -0.164 F 
ATOM     31  F   UNL A   1      27.137  28.769  22.693  1.00  0.00    -0.164 F 
ENDBRANCH  14  28
ENDBRANCH   6  11
ENDBRANCH   3   5
ENDBRANCH   2   3
ENDBRANCH   1   2
BRANCH   1  32
ATOM     32  C   UNL A   1      37.019  21.732  25.316  1.00  0.00     0.275 C 
BRANCH  32  33
ATOM     33  O   UNL A   1      37.737  22.684  26.099  1.00  0.00    -0.458 OA
BRANCH  33  34
ATOM     34  C   UNL A   1      39.036  22.379  26.311  1.00  0.00     0.338 C 
ATOM     35  O   UNL A   1      39.514  21.277  26.528  1.00  0.00    -0.246 OA
BRANCH  34  36
ATOM     36  C   UNL A   1      39.782  23.617  26.528  1.00  0.00     0.060 A 
ATOM     37  C   UNL A   1      41.001  23.517  27.208  1.00  0.00     0.016 A 
ATOM     38  C   UNL A   1      39.095  24.832  26.398  1.00  0.00     0.016 A 
ATOM     39  C   UNL A   1      41.430  24.602  27.940  1.00  0.00     0.010 A 
ATOM     40  C   UNL A   1      39.504  25.897  27.152  1.00  0.00     0.010 A 
ATOM     41  C   UNL A   1      40.623  25.744  27.970  1.00  0.00    -0.014 A 
BRANCH  41  42
ATOM     42  C   UNL A   1      41.061  26.897  28.727  1.00  0.00     0.031 A 
ATOM     43  C   UNL A   1      42.274  27.511  28.127  1.00  0.00     0.074 A 
ATOM     44  C   UNL A   1      40.299  27.413  29.715  1.00  0.00     0.049 A 
ATOM     45  N   UNL A   1      43.421  27.695  28.685  1.00  0.00    -0.248 NA
ATOM     46  C   UNL A   1      42.272  27.771  26.671  1.00  0.00     0.031 C 
ATOM     47  C   UNL A   1      38.968  26.971  30.150  1.00  0.00     0.029 A 
ATOM     48  N   UNL A   1      40.483  28.541  30.449  1.00  0.00    -0.354 N 
ATOM     49  C   UNL A   1      44.210  28.308  27.718  1.00  0.00     0.074 A 
ATOM     50  C   UNL A   1      43.534  28.138  26.461  1.00  0.00     0.031 C 
ATOM     51  C   UNL A   1      38.373  27.966  30.849  1.00  0.00     0.029 A 
ATOM     52  C   UNL A   1      39.318  29.059  31.009  1.00  0.00     0.049 A 
ATOM     53  H   UNL A   1      41.367  28.957  30.574  1.00  0.00     0.167 HD
ATOM     54  C   UNL A   1      45.201  29.170  28.069  1.00  0.00     0.031 A 
ATOM     55  C   UNL A   1      39.128  30.322  31.484  1.00  0.00     0.031 A 
ATOM     56  C   UNL A   1      45.584  28.992  29.445  1.00  0.00     0.049 A 
ATOM     57  C   UNL A   1      40.478  30.908  31.694  1.00  0.00     0.074 A 
ATOM     58  C   UNL A   1      46.080  27.926  30.169  1.00  0.00     0.029 A 
ATOM     59  N   UNL A   1      45.047  29.870  30.358  1.00  0.00    -0.354 N 
ATOM     60  N   UNL A   1      41.315  30.463  32.589  1.00  0.00    -0.248 NA
ATOM     61  C   UNL A   1      41.081  31.632  30.582  1.00  0.00     0.031 C 
ATOM     62  C   UNL A   1      45.407  27.993  31.422  1.00  0.00     0.029 A 
ATOM     63  C   UNL A   1      44.612  29.141  31.434  1.00  0.00     0.049 A 
ATOM     64  H   UNL A   1      44.987  30.847  30.257  1.00  0.00     0.167 HD
ATOM     65  C   UNL A   1      42.544  30.441  31.942  1.00  0.00     0.074 A 
ATOM     66  C   UNL A   1      42.353  31.251  30.737  1.00  0.00     0.031 C 
ATOM     67  C   UNL A   1      43.503  29.530  32.281  1.00  0.00     0.031 A 
BRANCH  54  68
ATOM     68  C   UNL A   1      45.466  30.446  27.312  1.00  0.00    -0.014 A 
ATOM     69  C   UNL A   1      46.799  30.783  27.010  1.00  0.00     0.010 A 
ATOM     70  C   UNL A   1      44.495  31.459  27.150  1.00  0.00     0.010 A 
ATOM     71  C   UNL A   1      47.150  32.087  26.642  1.00  0.00     0.020 A 
ATOM     72  C   UNL A   1      44.828  32.751  26.743  1.00  0.00     0.020 A 
ATOM     73  C   UNL A   1      46.161  33.065  26.525  1.00  0.00     0.054 A 
BRANCH  73  74
ATOM     74  S   UNL A   1      46.639  34.766  26.144  1.00  0.00     0.124 S 
ATOM     75  O   UNL A   1      47.619  34.571  25.080  1.00  0.00    -0.237 OA
ATOM     76  O   UNL A   1      45.368  35.357  25.736  1.00  0.00    -0.237 OA
ATOM     77  O   UNL A   1      47.176  35.263  27.408  1.00  0.00    -0.744 OA
ENDBRANCH  73  74
ENDBRANCH  54  68
BRANCH  55  78
ATOM     78  C   UNL A   1      37.896  31.161  31.419  1.00  0.00    -0.014 A 
ATOM     79  C   UNL A   1      36.673  30.722  31.968  1.00  0.00     0.010 A 
ATOM     80  C   UNL A   1      37.987  32.522  31.063  1.00  0.00     0.010 A 
ATOM     81  C   UNL A   1      35.613  31.621  32.208  1.00  0.00     0.020 A 
ATOM     82  C   UNL A   1      36.937  33.421  31.293  1.00  0.00     0.020 A 
ATOM     83  C   UNL A   1      35.762  32.972  31.889  1.00  0.00     0.054 A 
BRANCH  83  84
ATOM     84  S   UNL A   1      34.475  34.166  32.371  1.00  0.00     0.124 S 
ATOM     85  O   UNL A   1      33.656  34.249  31.165  1.00  0.00    -0.237 OA
ATOM     86  O   UNL A   1      33.847  33.514  33.517  1.00  0.00    -0.237 OA
ATOM     87  O   UNL A   1      35.230  35.377  32.690  1.00  0.00    -0.744 OA
ENDBRANCH  83  84
ENDBRANCH  55  78
BRANCH  67  88
ATOM     88  C   UNL A   1      43.309  28.712  33.538  1.00  0.00    -0.014 A 
ATOM     89  C   UNL A   1      43.764  29.094  34.817  1.00  0.00     0.010 A 
ATOM     90  C   UNL A   1      42.485  27.579  33.433  1.00  0.00     0.010 A 
ATOM     91  C   UNL A   1      43.423  28.340  35.953  1.00  0.00     0.020 A 
ATOM     92  C   UNL A   1      42.128  26.838  34.559  1.00  0.00     0.020 A 
ATOM     93  C   UNL A   1      42.608  27.212  35.813  1.00  0.00     0.054 A 
BRANCH  93  94
ATOM     94  S   UNL A   1      42.144  26.246  37.278  1.00  0.00     0.124 S 
ATOM     95  O   UNL A   1      43.154  26.645  38.255  1.00  0.00    -0.237 OA
ATOM     96  O   UNL A   1      40.784  26.702  37.556  1.00  0.00    -0.237 OA
ATOM     97  O   UNL A   1      42.240  24.859  36.825  1.00  0.00    -0.744 OA
ENDBRANCH  93  94
ENDBRANCH  67  88
ENDBRANCH  41  42
ENDBRANCH  34  36
ENDBRANCH  33  34
ENDBRANCH  32  33
ENDBRANCH   1  32
TORSDOF 19
ENDMDL
