MODEL 1
REMARK VINA RESULT:     -13.3      0.000      0.000
REMARK SMILES COc1ccc(-c2cnc(N)c(C(=O)OCCOC(=O)c3ccc(-c4c5nc(c(-c6ccc(S(=O)(=O)[O-])cc6)c6ccc([nH]6)c(-c6ccc(S(=O)(=O)[O-])cc6)c6nc(c(-c7ccc(S(=O)(=O)[O-])cc7)c7ccc4[nH]7)C=C6)C=C5)cc3)c2)c(C)c1
REMARK SMILES IDX 17 1 16 2 15 3 13 4 14 5 12 6 7 7 8 8 81 9 9 10 10 11 6 12
REMARK SMILES IDX 3 13 4 14 84 15 5 16 82 17 83 18 2 19 1 20 11 21 18 24 19 25
REMARK SMILES IDX 20 26 21 27 22 28 80 29 23 30 79 31 24 32 25 33 26 34 73 35
REMARK SMILES IDX 27 36 78 37 72 38 74 39 28 40 77 41 71 42 70 43 29 45 59 46
REMARK SMILES IDX 40 47 58 48 41 49 44 50 57 51 75 52 42 53 43 54 56 56 76 57
REMARK SMILES IDX 45 58 30 59 31 60 39 61 32 62 38 63 33 64 34 65 35 66 36 67
REMARK SMILES IDX 37 68 60 69 61 70 69 71 62 72 68 73 63 74 64 75 65 76 66 77
REMARK SMILES IDX 67 78 46 79 47 80 55 81 48 82 54 83 49 84 50 85 51 86 52 87
REMARK SMILES IDX 53 88
REMARK H PARENT 11 22 11 23 74 44 44 55
REMARK Flexibility Score: inf
ROOT
ATOM      1  C   UNL A   1      34.663  31.863  27.658  1.00  0.00     0.275 C 
ENDROOT
BRANCH   1   2
ATOM      2  C   UNL A   1      33.864  30.621  27.231  1.00  0.00     0.275 C 
BRANCH   2   3
ATOM      3  O   UNL A   1      32.463  30.951  27.198  1.00  0.00    -0.458 OA
BRANCH   3   4
ATOM      4  C   UNL A   1      31.753  30.776  25.871  1.00  0.00     0.342 C 
ATOM      5  O   UNL A   1      31.045  31.831  25.909  1.00  0.00    -0.246 OA
BRANCH   4   6
ATOM      6  C   UNL A   1      31.971  29.171  24.454  1.00  0.00     0.102 A 
ATOM      7  C   UNL A   1      32.717  26.535  23.983  1.00  0.00     0.001 A 
ATOM      8  C   UNL A   1      32.148  26.592  22.754  1.00  0.00     0.122 A 
ATOM      9  C   UNL A   1      32.666  27.759  24.700  1.00  0.00     0.030 A 
ATOM     10  N   UNL A   1      31.639  27.727  22.248  1.00  0.00    -0.238 NA
ATOM     11  C   UNL A   1      31.559  28.903  22.991  1.00  0.00     0.138 A 
BRANCH   7  12
ATOM     12  C   UNL A   1      33.267  25.304  24.607  1.00  0.00    -0.014 A 
ATOM     13  C   UNL A   1      34.475  23.040  25.868  1.00  0.00     0.119 A 
ATOM     14  C   UNL A   1      35.008  23.555  24.693  1.00  0.00     0.047 A 
ATOM     15  C   UNL A   1      33.336  23.635  26.402  1.00  0.00     0.050 A 
ATOM     16  C   UNL A   1      34.410  24.673  24.071  1.00  0.00     0.013 A 
ATOM     17  C   UNL A   1      32.725  24.753  25.793  1.00  0.00    -0.040 A 
ATOM     18  C   UNL A   1      31.509  25.300  26.498  1.00  0.00     0.045 C 
BRANCH  13  19
ATOM     19  O   UNL A   1      34.915  21.923  26.526  1.00  0.00    -0.497 OA
ATOM     20  C   UNL A   1      33.908  21.047  27.019  1.00  0.00     0.278 C 
ENDBRANCH  13  19
ENDBRANCH   7  12
BRANCH  11  21
ATOM     21  N   UNL A   1      31.076  29.775  22.017  1.00  0.00    -0.383 N 
ATOM     22  H   UNL A   1      31.694  30.172  21.361  1.00  0.00     0.158 HD
ATOM     23  H   UNL A   1      30.117  29.996  21.983  1.00  0.00     0.158 HD
ENDBRANCH  11  21
ENDBRANCH   4   6
ENDBRANCH   3   4
ENDBRANCH   2   3
ENDBRANCH   1   2
BRANCH   1  24
ATOM     24  O   UNL A   1      35.409  31.718  28.892  1.00  0.00    -0.458 OA
BRANCH  24  25
ATOM     25  C   UNL A   1      36.762  31.596  28.821  1.00  0.00     0.338 C 
ATOM     26  O   UNL A   1      37.589  32.463  29.038  1.00  0.00    -0.246 OA
BRANCH  25  27
ATOM     27  C   UNL A   1      37.102  30.178  28.616  1.00  0.00     0.060 A 
ATOM     28  C   UNL A   1      37.171  29.142  30.086  1.00  0.00     0.016 A 
ATOM     29  C   UNL A   1      38.290  29.941  27.293  1.00  0.00     0.016 A 
ATOM     30  C   UNL A   1      38.480  27.848  30.258  1.00  0.00     0.010 A 
ATOM     31  C   UNL A   1      39.631  28.700  27.490  1.00  0.00     0.010 A 
ATOM     32  C   UNL A   1      39.712  27.668  28.974  1.00  0.00    -0.014 A 
BRANCH  32  33
ATOM     33  C   UNL A   1      41.061  27.216  29.259  1.00  0.00     0.031 A 
ATOM     34  C   UNL A   1      41.318  25.824  28.876  1.00  0.00     0.074 A 
ATOM     35  C   UNL A   1      42.002  28.134  29.605  1.00  0.00     0.049 A 
ATOM     36  N   UNL A   1      42.385  25.195  29.176  1.00  0.00    -0.248 NA
ATOM     37  C   UNL A   1      40.372  24.974  28.146  1.00  0.00     0.031 C 
ATOM     38  C   UNL A   1      43.463  28.070  29.551  1.00  0.00     0.029 A 
ATOM     39  N   UNL A   1      41.784  29.335  30.271  1.00  0.00    -0.354 N 
ATOM     40  C   UNL A   1      42.428  24.059  28.402  1.00  0.00     0.074 A 
ATOM     41  C   UNL A   1      41.122  23.916  27.831  1.00  0.00     0.031 C 
ATOM     42  C   UNL A   1      43.986  29.005  30.374  1.00  0.00     0.029 A 
ATOM     43  C   UNL A   1      42.886  29.652  31.071  1.00  0.00     0.049 A 
ATOM     44  H   UNL A   1      40.971  29.884  30.191  1.00  0.00     0.167 HD
ATOM     45  C   UNL A   1      43.642  23.478  28.245  1.00  0.00     0.031 A 
ATOM     46  C   UNL A   1      42.717  29.643  32.431  1.00  0.00     0.031 A 
ATOM     47  C   UNL A   1      44.599  24.116  29.156  1.00  0.00     0.049 A 
ATOM     48  C   UNL A   1      43.255  28.349  33.045  1.00  0.00     0.074 A 
ATOM     49  C   UNL A   1      45.541  25.118  29.009  1.00  0.00     0.029 A 
ATOM     50  N   UNL A   1      44.281  24.099  30.508  1.00  0.00    -0.354 N 
ATOM     51  N   UNL A   1      43.685  27.331  32.342  1.00  0.00    -0.248 NA
ATOM     52  C   UNL A   1      43.365  28.092  34.478  1.00  0.00     0.031 C 
ATOM     53  C   UNL A   1      45.746  25.720  30.296  1.00  0.00     0.029 A 
ATOM     54  C   UNL A   1      44.949  25.070  31.224  1.00  0.00     0.049 A 
ATOM     55  H   UNL A   1      43.646  23.463  30.910  1.00  0.00     0.167 HD
ATOM     56  C   UNL A   1      44.128  26.324  33.152  1.00  0.00     0.074 A 
ATOM     57  C   UNL A   1      43.842  26.831  34.490  1.00  0.00     0.031 C 
ATOM     58  C   UNL A   1      44.695  25.171  32.664  1.00  0.00     0.031 A 
BRANCH  45  59
ATOM     59  C   UNL A   1      44.001  22.519  27.145  1.00  0.00    -0.014 A 
ATOM     60  C   UNL A   1      43.104  21.468  26.888  1.00  0.00     0.010 A 
ATOM     61  C   UNL A   1      45.180  22.544  26.368  1.00  0.00     0.010 A 
ATOM     62  C   UNL A   1      43.361  20.489  25.923  1.00  0.00     0.020 A 
ATOM     63  C   UNL A   1      45.456  21.559  25.401  1.00  0.00     0.020 A 
ATOM     64  C   UNL A   1      44.534  20.541  25.181  1.00  0.00     0.054 A 
BRANCH  64  65
ATOM     65  S   UNL A   1      44.801  19.280  23.909  1.00  0.00     0.124 S 
ATOM     66  O   UNL A   1      46.201  18.917  24.117  1.00  0.00    -0.237 OA
ATOM     67  O   UNL A   1      43.824  18.259  24.278  1.00  0.00    -0.237 OA
ATOM     68  O   UNL A   1      44.524  19.982  22.658  1.00  0.00    -0.744 OA
ENDBRANCH  64  65
ENDBRANCH  45  59
BRANCH  46  69
ATOM     69  C   UNL A   1      41.512  30.458  32.831  1.00  0.00    -0.014 A 
ATOM     70  C   UNL A   1      40.295  29.739  32.963  1.00  0.00     0.010 A 
ATOM     71  C   UNL A   1      41.609  31.694  33.488  1.00  0.00     0.010 A 
ATOM     72  C   UNL A   1      39.313  30.119  33.886  1.00  0.00     0.020 A 
ATOM     73  C   UNL A   1      40.590  32.108  34.385  1.00  0.00     0.020 A 
ATOM     74  C   UNL A   1      39.482  31.286  34.624  1.00  0.00     0.054 A 
BRANCH  74  75
ATOM     75  S   UNL A   1      38.292  31.631  35.962  1.00  0.00     0.124 S 
ATOM     76  O   UNL A   1      38.188  30.342  36.637  1.00  0.00    -0.237 OA
ATOM     77  O   UNL A   1      38.954  32.679  36.733  1.00  0.00    -0.237 OA
ATOM     78  O   UNL A   1      37.091  32.058  35.247  1.00  0.00    -0.744 OA
ENDBRANCH  74  75
ENDBRANCH  46  69
BRANCH  58  79
ATOM     79  C   UNL A   1      45.060  23.971  33.517  1.00  0.00    -0.014 A 
ATOM     80  C   UNL A   1      44.148  22.972  33.865  1.00  0.00     0.010 A 
ATOM     81  C   UNL A   1      46.363  23.843  34.063  1.00  0.00     0.010 A 
ATOM     82  C   UNL A   1      44.551  21.843  34.589  1.00  0.00     0.020 A 
ATOM     83  C   UNL A   1      46.773  22.747  34.815  1.00  0.00     0.020 A 
ATOM     84  C   UNL A   1      45.864  21.733  35.047  1.00  0.00     0.054 A 
BRANCH  84  85
ATOM     85  S   UNL A   1      46.343  20.291  36.013  1.00  0.00     0.124 S 
ATOM     86  O   UNL A   1      46.046  20.722  37.377  1.00  0.00    -0.237 OA
ATOM     87  O   UNL A   1      45.461  19.259  35.473  1.00  0.00    -0.237 OA
ATOM     88  O   UNL A   1      47.761  20.119  35.711  1.00  0.00    -0.744 OA
ENDBRANCH  84  85
ENDBRANCH  58  79
ENDBRANCH  32  33
ENDBRANCH  25  27
ENDBRANCH  24  25
ENDBRANCH   1  24
TORSDOF 17
ENDMDL
MODEL 2
REMARK VINA RESULT:     -12.2      4.476     11.418
REMARK SMILES COc1ccc(-c2cnc(N)c(C(=O)OCCOC(=O)c3ccc(-c4c5nc(c(-c6ccc(S(=O)(=O)[O-])cc6)c6ccc([nH]6)c(-c6ccc(S(=O)(=O)[O-])cc6)c6nc(c(-c7ccc(S(=O)(=O)[O-])cc7)c7ccc4[nH]7)C=C6)C=C5)cc3)c2)c(C)c1
REMARK SMILES IDX 17 1 16 2 15 3 13 4 14 5 12 6 7 7 8 8 81 9 9 10 10 11 6 12
REMARK SMILES IDX 3 13 4 14 84 15 5 16 82 17 83 18 2 19 1 20 11 21 18 24 19 25
REMARK SMILES IDX 20 26 21 27 22 28 80 29 23 30 79 31 24 32 25 33 26 34 73 35
REMARK SMILES IDX 27 36 78 37 72 38 74 39 28 40 77 41 71 42 70 43 29 45 59 46
REMARK SMILES IDX 40 47 58 48 41 49 44 50 57 51 75 52 42 53 43 54 56 56 76 57
REMARK SMILES IDX 45 58 30 59 31 60 39 61 32 62 38 63 33 64 34 65 35 66 36 67
REMARK SMILES IDX 37 68 60 69 61 70 69 71 62 72 68 73 63 74 64 75 65 76 66 77
REMARK SMILES IDX 67 78 46 79 47 80 55 81 48 82 54 83 49 84 50 85 51 86 52 87
REMARK SMILES IDX 53 88
REMARK H PARENT 11 22 11 23 74 44 44 55
REMARK Flexibility Score: inf
ROOT
ATOM      1  C   UNL A   1      39.585  21.102  26.306  1.00  0.00     0.275 C 
ENDROOT
BRANCH   1   2
ATOM      2  C   UNL A   1      38.390  21.361  25.374  1.00  0.00     0.275 C 
BRANCH   2   3
ATOM      3  O   UNL A   1      37.545  22.368  25.962  1.00  0.00    -0.458 OA
BRANCH   3   4
ATOM      4  C   UNL A   1      36.294  22.741  25.191  1.00  0.00     0.342 C 
ATOM      5  O   UNL A   1      36.750  22.564  24.018  1.00  0.00    -0.246 OA
BRANCH   4   6
ATOM      6  C   UNL A   1      34.393  23.371  25.977  1.00  0.00     0.102 A 
ATOM      7  C   UNL A   1      32.284  25.179  25.866  1.00  0.00     0.001 A 
ATOM      8  C   UNL A   1      31.552  24.378  26.678  1.00  0.00     0.122 A 
ATOM      9  C   UNL A   1      33.601  24.707  25.623  1.00  0.00     0.030 A 
ATOM     10  N   UNL A   1      32.059  23.271  27.244  1.00  0.00    -0.238 NA
ATOM     11  C   UNL A   1      33.339  22.804  26.952  1.00  0.00     0.138 A 
BRANCH   7  12
ATOM     12  C   UNL A   1      31.769  26.397  25.188  1.00  0.00    -0.014 A 
ATOM     13  C   UNL A   1      30.602  28.687  23.937  1.00  0.00     0.119 A 
ATOM     14  C   UNL A   1      30.461  27.428  23.367  1.00  0.00     0.047 A 
ATOM     15  C   UNL A   1      31.336  28.809  25.112  1.00  0.00     0.050 A 
ATOM     16  C   UNL A   1      31.038  26.298  23.985  1.00  0.00     0.013 A 
ATOM     17  C   UNL A   1      31.921  27.690  25.744  1.00  0.00    -0.040 A 
ATOM     18  C   UNL A   1      32.670  27.976  27.021  1.00  0.00     0.045 C 
BRANCH  13  19
ATOM     19  O   UNL A   1      30.155  29.864  23.401  1.00  0.00    -0.497 OA
ATOM     20  C   UNL A   1      29.293  29.754  22.274  1.00  0.00     0.278 C 
ENDBRANCH  13  19
ENDBRANCH   7  12
BRANCH  11  21
ATOM     21  N   UNL A   1      33.419  21.735  27.843  1.00  0.00    -0.383 N 
ATOM     22  H   UNL A   1      33.824  20.884  27.557  1.00  0.00     0.158 HD
ATOM     23  H   UNL A   1      33.071  21.829  28.759  1.00  0.00     0.158 HD
ENDBRANCH  11  21
ENDBRANCH   4   6
ENDBRANCH   3   4
ENDBRANCH   2   3
ENDBRANCH   1   2
BRANCH   1  24
ATOM     24  O   UNL A   1      40.839  21.683  25.870  1.00  0.00    -0.458 OA
BRANCH  24  25
ATOM     25  C   UNL A   1      41.431  22.617  26.662  1.00  0.00     0.338 C 
ATOM     26  O   UNL A   1      42.479  22.505  27.271  1.00  0.00    -0.246 OA
BRANCH  25  27
ATOM     27  C   UNL A   1      40.696  23.887  26.530  1.00  0.00     0.060 A 
ATOM     28  C   UNL A   1      41.509  25.200  25.608  1.00  0.00     0.016 A 
ATOM     29  C   UNL A   1      39.734  24.278  27.993  1.00  0.00     0.016 A 
ATOM     30  C   UNL A   1      41.386  26.956  26.173  1.00  0.00     0.010 A 
ATOM     31  C   UNL A   1      39.664  26.014  28.594  1.00  0.00     0.010 A 
ATOM     32  C   UNL A   1      40.494  27.333  27.677  1.00  0.00    -0.014 A 
BRANCH  32  33
ATOM     33  C   UNL A   1      40.857  28.452  28.527  1.00  0.00     0.031 A 
ATOM     34  C   UNL A   1      39.829  29.495  28.614  1.00  0.00     0.074 A 
ATOM     35  C   UNL A   1      41.948  28.340  29.330  1.00  0.00     0.049 A 
ATOM     36  N   UNL A   1      40.011  30.620  29.184  1.00  0.00    -0.248 NA
ATOM     37  C   UNL A   1      38.490  29.394  28.025  1.00  0.00     0.031 C 
ATOM     38  C   UNL A   1      42.322  29.073  30.540  1.00  0.00     0.029 A 
ATOM     39  N   UNL A   1      43.087  27.581  29.082  1.00  0.00    -0.354 N 
ATOM     40  C   UNL A   1      38.777  31.199  29.361  1.00  0.00     0.074 A 
ATOM     41  C   UNL A   1      37.863  30.444  28.557  1.00  0.00     0.031 C 
ATOM     42  C   UNL A   1      43.649  28.943  30.754  1.00  0.00     0.029 A 
ATOM     43  C   UNL A   1      44.211  28.197  29.638  1.00  0.00     0.049 A 
ATOM     44  H   UNL A   1      43.099  26.731  28.585  1.00  0.00     0.167 HD
ATOM     45  C   UNL A   1      38.692  32.171  30.302  1.00  0.00     0.031 A 
ATOM     46  C   UNL A   1      45.167  28.683  28.784  1.00  0.00     0.031 A 
ATOM     47  C   UNL A   1      40.045  32.516  30.757  1.00  0.00     0.049 A 
ATOM     48  C   UNL A   1      45.027  30.195  28.602  1.00  0.00     0.074 A 
ATOM     49  C   UNL A   1      40.818  32.136  31.838  1.00  0.00     0.029 A 
ATOM     50  N   UNL A   1      40.943  32.931  29.783  1.00  0.00    -0.354 N 
ATOM     51  N   UNL A   1      44.034  30.901  29.085  1.00  0.00    -0.248 NA
ATOM     52  C   UNL A   1      45.977  31.037  27.880  1.00  0.00     0.031 C 
ATOM     53  C   UNL A   1      42.196  32.300  31.471  1.00  0.00     0.029 A 
ATOM     54  C   UNL A   1      42.257  32.799  30.180  1.00  0.00     0.049 A 
ATOM     55  H   UNL A   1      40.671  33.281  28.903  1.00  0.00     0.167 HD
ATOM     56  C   UNL A   1      44.181  32.226  28.789  1.00  0.00     0.074 A 
ATOM     57  C   UNL A   1      45.389  32.247  27.971  1.00  0.00     0.031 C 
ATOM     58  C   UNL A   1      43.312  33.190  29.240  1.00  0.00     0.031 A 
BRANCH  45  59
ATOM     59  C   UNL A   1      37.418  32.633  30.950  1.00  0.00    -0.014 A 
ATOM     60  C   UNL A   1      36.862  33.839  30.490  1.00  0.00     0.010 A 
ATOM     61  C   UNL A   1      36.742  31.993  32.012  1.00  0.00     0.010 A 
ATOM     62  C   UNL A   1      35.707  34.390  31.055  1.00  0.00     0.020 A 
ATOM     63  C   UNL A   1      35.585  32.542  32.596  1.00  0.00     0.020 A 
ATOM     64  C   UNL A   1      35.071  33.736  32.104  1.00  0.00     0.054 A 
BRANCH  64  65
ATOM     65  S   UNL A   1      33.552  34.462  32.770  1.00  0.00     0.124 S 
ATOM     66  O   UNL A   1      32.890  33.305  33.371  1.00  0.00    -0.237 OA
ATOM     67  O   UNL A   1      34.070  35.450  33.713  1.00  0.00    -0.237 OA
ATOM     68  O   UNL A   1      32.883  35.014  31.594  1.00  0.00    -0.744 OA
ENDBRANCH  64  65
ENDBRANCH  45  59
BRANCH  46  69
ATOM     69  C   UNL A   1      45.574  27.636  27.777  1.00  0.00    -0.014 A 
ATOM     70  C   UNL A   1      45.127  27.851  26.447  1.00  0.00     0.010 A 
ATOM     71  C   UNL A   1      46.672  26.782  27.963  1.00  0.00     0.010 A 
ATOM     72  C   UNL A   1      45.876  27.424  25.343  1.00  0.00     0.020 A 
ATOM     73  C   UNL A   1      47.402  26.305  26.844  1.00  0.00     0.020 A 
ATOM     74  C   UNL A   1      47.035  26.683  25.546  1.00  0.00     0.054 A 
BRANCH  74  75
ATOM     75  S   UNL A   1      48.091  26.334  24.101  1.00  0.00     0.124 S 
ATOM     76  O   UNL A   1      47.637  27.320  23.128  1.00  0.00    -0.237 OA
ATOM     77  O   UNL A   1      49.441  26.551  24.616  1.00  0.00    -0.237 OA
ATOM     78  O   UNL A   1      47.774  24.945  23.776  1.00  0.00    -0.744 OA
ENDBRANCH  74  75
ENDBRANCH  46  69
BRANCH  58  79
ATOM     79  C   UNL A   1      43.352  34.645  28.812  1.00  0.00    -0.014 A 
ATOM     80  C   UNL A   1      43.487  35.706  29.710  1.00  0.00     0.010 A 
ATOM     81  C   UNL A   1      43.186  35.000  27.448  1.00  0.00     0.010 A 
ATOM     82  C   UNL A   1      43.597  37.027  29.260  1.00  0.00     0.020 A 
ATOM     83  C   UNL A   1      43.256  36.311  26.986  1.00  0.00     0.020 A 
ATOM     84  C   UNL A   1      43.494  37.318  27.900  1.00  0.00     0.054 A 
BRANCH  84  85
ATOM     85  S   UNL A   1      43.596  39.030  27.354  1.00  0.00     0.124 S 
ATOM     86  O   UNL A   1      43.728  39.749  28.619  1.00  0.00    -0.237 OA
ATOM     87  O   UNL A   1      44.791  39.009  26.514  1.00  0.00    -0.237 OA
ATOM     88  O   UNL A   1      42.339  39.250  26.643  1.00  0.00    -0.744 OA
ENDBRANCH  84  85
ENDBRANCH  58  79
ENDBRANCH  32  33
ENDBRANCH  25  27
ENDBRANCH  24  25
ENDBRANCH   1  24
TORSDOF 17
ENDMDL
MODEL 3
REMARK VINA RESULT:     -11.9      1.624      2.382
REMARK SMILES COc1ccc(-c2cnc(N)c(C(=O)OCCOC(=O)c3ccc(-c4c5nc(c(-c6ccc(S(=O)(=O)[O-])cc6)c6ccc([nH]6)c(-c6ccc(S(=O)(=O)[O-])cc6)c6nc(c(-c7ccc(S(=O)(=O)[O-])cc7)c7ccc4[nH]7)C=C6)C=C5)cc3)c2)c(C)c1
REMARK SMILES IDX 17 1 16 2 15 3 13 4 14 5 12 6 7 7 8 8 81 9 9 10 10 11 6 12
REMARK SMILES IDX 3 13 4 14 84 15 5 16 82 17 83 18 2 19 1 20 11 21 18 24 19 25
REMARK SMILES IDX 20 26 21 27 22 28 80 29 23 30 79 31 24 32 25 33 26 34 73 35
REMARK SMILES IDX 27 36 78 37 72 38 74 39 28 40 77 41 71 42 70 43 29 45 59 46
REMARK SMILES IDX 40 47 58 48 41 49 44 50 57 51 75 52 42 53 43 54 56 56 76 57
REMARK SMILES IDX 45 58 30 59 31 60 39 61 32 62 38 63 33 64 34 65 35 66 36 67
REMARK SMILES IDX 37 68 60 69 61 70 69 71 62 72 68 73 63 74 64 75 65 76 66 77
REMARK SMILES IDX 67 78 46 79 47 80 55 81 48 82 54 83 49 84 50 85 51 86 52 87
REMARK SMILES IDX 53 88
REMARK H PARENT 11 22 11 23 74 44 44 55
REMARK Flexibility Score: inf
ROOT
ATOM      1  C   UNL A   1      34.658  32.682  29.428  1.00  0.00     0.275 C 
ENDROOT
BRANCH   1   2
ATOM      2  C   UNL A   1      34.286  32.992  27.969  1.00  0.00     0.275 C 
BRANCH   2   3
ATOM      3  O   UNL A   1      34.199  31.757  27.233  1.00  0.00    -0.458 OA
BRANCH   3   4
ATOM      4  C   UNL A   1      32.805  31.234  26.945  1.00  0.00     0.342 C 
ATOM      5  O   UNL A   1      32.193  32.348  26.954  1.00  0.00    -0.246 OA
BRANCH   4   6
ATOM      6  C   UNL A   1      32.194  29.193  26.643  1.00  0.00     0.102 A 
ATOM      7  C   UNL A   1      32.037  27.015  24.921  1.00  0.00     0.001 A 
ATOM      8  C   UNL A   1      31.694  26.216  25.961  1.00  0.00     0.122 A 
ATOM      9  C   UNL A   1      32.195  28.382  25.271  1.00  0.00     0.030 A 
ATOM     10  N   UNL A   1      31.467  26.697  27.194  1.00  0.00    -0.238 NA
ATOM     11  C   UNL A   1      31.676  28.035  27.521  1.00  0.00     0.138 A 
BRANCH   7  12
ATOM     12  C   UNL A   1      32.329  26.537  23.545  1.00  0.00    -0.014 A 
ATOM     13  C   UNL A   1      32.846  25.442  20.956  1.00  0.00     0.119 A 
ATOM     14  C   UNL A   1      33.725  25.206  22.005  1.00  0.00     0.047 A 
ATOM     15  C   UNL A   1      31.726  26.234  21.188  1.00  0.00     0.050 A 
ATOM     16  C   UNL A   1      33.469  25.748  23.283  1.00  0.00     0.013 A 
ATOM     17  C   UNL A   1      31.455  26.785  22.460  1.00  0.00    -0.040 A 
ATOM     18  C   UNL A   1      30.194  27.606  22.563  1.00  0.00     0.045 C 
BRANCH  13  19
ATOM     19  O   UNL A   1      33.016  25.035  19.660  1.00  0.00    -0.497 OA
ATOM     20  C   UNL A   1      32.062  25.516  18.720  1.00  0.00     0.278 C 
ENDBRANCH  13  19
ENDBRANCH   7  12
BRANCH  11  21
ATOM     21  N   UNL A   1      31.211  28.041  28.836  1.00  0.00    -0.383 N 
ATOM     22  H   UNL A   1      30.260  27.869  29.023  1.00  0.00     0.158 HD
ATOM     23  H   UNL A   1      31.833  28.217  29.579  1.00  0.00     0.158 HD
ENDBRANCH  11  21
ENDBRANCH   4   6
ENDBRANCH   3   4
ENDBRANCH   2   3
ENDBRANCH   1   2
BRANCH   1  24
ATOM     24  O   UNL A   1      35.457  31.487  29.615  1.00  0.00    -0.458 OA
BRANCH  24  25
ATOM     25  C   UNL A   1      36.735  31.482  29.150  1.00  0.00     0.338 C 
ATOM     26  O   UNL A   1      37.508  32.422  29.116  1.00  0.00    -0.246 OA
BRANCH  25  27
ATOM     27  C   UNL A   1      37.126  30.094  28.849  1.00  0.00     0.060 A 
ATOM     28  C   UNL A   1      37.260  28.971  30.248  1.00  0.00     0.016 A 
ATOM     29  C   UNL A   1      38.300  29.989  27.496  1.00  0.00     0.016 A 
ATOM     30  C   UNL A   1      38.621  27.721  30.319  1.00  0.00     0.010 A 
ATOM     31  C   UNL A   1      39.691  28.792  27.594  1.00  0.00     0.010 A 
ATOM     32  C   UNL A   1      39.836  27.672  29.008  1.00  0.00    -0.014 A 
BRANCH  32  33
ATOM     33  C   UNL A   1      41.206  27.256  29.243  1.00  0.00     0.031 A 
ATOM     34  C   UNL A   1      41.478  25.860  28.884  1.00  0.00     0.074 A 
ATOM     35  C   UNL A   1      42.141  28.202  29.524  1.00  0.00     0.049 A 
ATOM     36  N   UNL A   1      42.571  25.263  29.151  1.00  0.00    -0.248 NA
ATOM     37  C   UNL A   1      40.520  24.972  28.218  1.00  0.00     0.031 C 
ATOM     38  C   UNL A   1      43.599  28.169  29.406  1.00  0.00     0.029 A 
ATOM     39  N   UNL A   1      41.926  29.416  30.169  1.00  0.00    -0.354 N 
ATOM     40  C   UNL A   1      42.605  24.108  28.405  1.00  0.00     0.074 A 
ATOM     41  C   UNL A   1      41.278  23.923  27.897  1.00  0.00     0.031 C 
ATOM     42  C   UNL A   1      44.137  29.135  30.182  1.00  0.00     0.029 A 
ATOM     43  C   UNL A   1      43.054  29.777  30.911  1.00  0.00     0.049 A 
ATOM     44  H   UNL A   1      41.097  29.945  30.111  1.00  0.00     0.167 HD
ATOM     45  C   UNL A   1      43.824  23.549  28.209  1.00  0.00     0.031 A 
ATOM     46  C   UNL A   1      42.945  29.799  32.277  1.00  0.00     0.031 A 
ATOM     47  C   UNL A   1      44.806  24.231  29.060  1.00  0.00     0.049 A 
ATOM     48  C   UNL A   1      43.539  28.534  32.898  1.00  0.00     0.074 A 
ATOM     49  C   UNL A   1      45.717  25.249  28.846  1.00  0.00     0.029 A 
ATOM     50  N   UNL A   1      44.547  24.242  30.424  1.00  0.00    -0.354 N 
ATOM     51  N   UNL A   1      43.961  27.507  32.202  1.00  0.00    -0.248 NA
ATOM     52  C   UNL A   1      43.718  28.316  34.331  1.00  0.00     0.031 C 
ATOM     53  C   UNL A   1      45.965  25.888  30.107  1.00  0.00     0.029 A 
ATOM     54  C   UNL A   1      45.225  25.245  31.086  1.00  0.00     0.049 A 
ATOM     55  H   UNL A   1      43.945  23.604  30.871  1.00  0.00     0.167 HD
ATOM     56  C   UNL A   1      44.462  26.531  33.016  1.00  0.00     0.074 A 
ATOM     57  C   UNL A   1      44.224  27.066  34.353  1.00  0.00     0.031 C 
ATOM     58  C   UNL A   1      45.032  25.378  32.533  1.00  0.00     0.031 A 
BRANCH  45  59
ATOM     59  C   UNL A   1      44.156  22.570  27.118  1.00  0.00    -0.014 A 
ATOM     60  C   UNL A   1      43.212  21.564  26.845  1.00  0.00     0.010 A 
ATOM     61  C   UNL A   1      45.349  22.534  26.364  1.00  0.00     0.010 A 
ATOM     62  C   UNL A   1      43.438  20.571  25.888  1.00  0.00     0.020 A 
ATOM     63  C   UNL A   1      45.594  21.534  25.404  1.00  0.00     0.020 A 
ATOM     64  C   UNL A   1      44.627  20.562  25.168  1.00  0.00     0.054 A 
BRANCH  64  65
ATOM     65  S   UNL A   1      44.854  19.285  23.904  1.00  0.00     0.124 S 
ATOM     66  O   UNL A   1      46.265  18.936  24.062  1.00  0.00    -0.237 OA
ATOM     67  O   UNL A   1      43.902  18.261  24.326  1.00  0.00    -0.237 OA
ATOM     68  O   UNL A   1      44.522  19.967  22.655  1.00  0.00    -0.744 OA
ENDBRANCH  64  65
ENDBRANCH  45  59
BRANCH  46  69
ATOM     69  C   UNL A   1      41.742  30.598  32.710  1.00  0.00    -0.014 A 
ATOM     70  C   UNL A   1      40.509  29.895  32.734  1.00  0.00     0.010 A 
ATOM     71  C   UNL A   1      41.836  31.767  33.481  1.00  0.00     0.010 A 
ATOM     72  C   UNL A   1      39.501  30.209  33.655  1.00  0.00     0.020 A 
ATOM     73  C   UNL A   1      40.794  32.117  34.378  1.00  0.00     0.020 A 
ATOM     74  C   UNL A   1      39.664  31.300  34.502  1.00  0.00     0.054 A 
BRANCH  74  75
ATOM     75  S   UNL A   1      38.434  31.544  35.826  1.00  0.00     0.124 S 
ATOM     76  O   UNL A   1      38.944  32.719  36.523  1.00  0.00    -0.237 OA
ATOM     77  O   UNL A   1      37.190  31.756  35.089  1.00  0.00    -0.237 OA
ATOM     78  O   UNL A   1      38.495  30.296  36.582  1.00  0.00    -0.744 OA
ENDBRANCH  74  75
ENDBRANCH  46  69
BRANCH  58  79
ATOM     79  C   UNL A   1      45.461  24.209  33.398  1.00  0.00    -0.014 A 
ATOM     80  C   UNL A   1      46.722  24.114  33.992  1.00  0.00     0.010 A 
ATOM     81  C   UNL A   1      44.596  23.101  33.595  1.00  0.00     0.010 A 
ATOM     82  C   UNL A   1      47.044  23.053  34.846  1.00  0.00     0.020 A 
ATOM     83  C   UNL A   1      44.912  22.020  34.411  1.00  0.00     0.020 A 
ATOM     84  C   UNL A   1      46.131  22.020  35.059  1.00  0.00     0.054 A 
BRANCH  84  85
ATOM     85  S   UNL A   1      46.588  20.646  36.128  1.00  0.00     0.124 S 
ATOM     86  O   UNL A   1      45.531  19.677  35.852  1.00  0.00    -0.237 OA
ATOM     87  O   UNL A   1      47.913  20.296  35.620  1.00  0.00    -0.237 OA
ATOM     88  O   UNL A   1      46.568  21.221  37.471  1.00  0.00    -0.744 OA
ENDBRANCH  84  85
ENDBRANCH  58  79
ENDBRANCH  32  33
ENDBRANCH  25  27
ENDBRANCH  24  25
ENDBRANCH   1  24
TORSDOF 17
ENDMDL
