MODEL 1
REMARK VINA RESULT:     -10.9      0.000      0.000
REMARK SMILES Cc1ccc2c(c1)C=C(C(=O)OCCOC(=O)c1ccc(-c3c4nc(c(-c5ccc(S(=O)(=O)[O-])cc5)c5ccc([nH]5)c(-c5ccc(S(=O)(=O)[O-])cc5)c5nc(c(-c6ccc(S(=O)(=O)[O-])cc6)c6ccc3[nH]6)C=C5)C=C4)cc1)[C@@H](C(F)(F)F)O2
REMARK SMILES IDX 14 1 13 2 12 3 10 4 11 5 9 6 1 7 2 8 3 9 7 10 4 11 6 12 5 13
REMARK SMILES IDX 8 14 83 15 78 16 79 17 80 18 81 19 82 20 15 21 16 22 17 23
REMARK SMILES IDX 18 24 19 25 77 26 20 27 76 28 21 29 22 30 23 31 70 32 24 33
REMARK SMILES IDX 75 34 69 35 71 36 25 37 74 38 68 39 67 40 26 42 56 43 37 44
REMARK SMILES IDX 55 45 38 46 41 47 54 48 72 49 39 50 40 51 53 53 73 54 42 55
REMARK SMILES IDX 27 56 28 57 36 58 29 59 35 60 30 61 31 62 32 63 33 64 34 65
REMARK SMILES IDX 57 66 58 67 66 68 59 69 65 70 60 71 61 72 62 73 63 74 64 75
REMARK SMILES IDX 43 76 44 77 52 78 45 79 51 80 46 81 47 82 48 83 49 84 50 85
REMARK H PARENT 71 41 41 52
REMARK Flexibility Score: inf
ROOT
ATOM      1  C   UNL A   1      39.626  20.414  26.084  1.00  0.00     0.275 C 
ENDROOT
BRANCH   1   2
ATOM      2  C   UNL A   1      40.880  19.569  26.305  1.00  0.00     0.275 C 
BRANCH   2   3
ATOM      3  O   UNL A   1      41.888  19.854  25.311  1.00  0.00    -0.459 OA
BRANCH   3   4
ATOM      4  C   UNL A   1      43.157  19.550  25.669  1.00  0.00     0.338 C 
ATOM      5  O   UNL A   1      43.599  18.437  25.906  1.00  0.00    -0.246 OA
BRANCH   4   6
ATOM      6  C   UNL A   1      43.986  20.766  25.727  1.00  0.00     0.087 C 
ATOM      7  C   UNL A   1      43.574  26.869  25.093  1.00  0.00     0.044 C 
ATOM      8  C   UNL A   1      44.276  25.557  25.284  1.00  0.00    -0.050 A 
ATOM      9  C   UNL A   1      45.670  25.459  25.254  1.00  0.00     0.007 A 
ATOM     10  C   UNL A   1      43.522  24.391  25.451  1.00  0.00     0.015 A 
ATOM     11  C   UNL A   1      46.300  24.217  25.407  1.00  0.00     0.047 A 
ATOM     12  C   UNL A   1      44.153  23.149  25.583  1.00  0.00     0.017 A 
ATOM     13  C   UNL A   1      45.542  23.059  25.566  1.00  0.00     0.128 A 
ATOM     14  C   UNL A   1      43.359  21.945  25.692  1.00  0.00     0.027 C 
ATOM     15  O   UNL A   1      46.226  21.882  25.704  1.00  0.00    -0.475 OA
ATOM     16  C   UNL A   1      45.480  20.630  25.680  1.00  0.00     0.316 C 
BRANCH  16  17
ATOM     17  C   UNL A   1      45.934  19.807  24.463  1.00  0.00     0.430 C 
ATOM     18  F   UNL A   1      47.135  20.238  24.000  1.00  0.00    -0.167 F 
ATOM     19  F   UNL A   1      46.098  18.500  24.778  1.00  0.00    -0.167 F 
ATOM     20  F   UNL A   1      45.058  19.873  23.437  1.00  0.00    -0.167 F 
ENDBRANCH  16  17
ENDBRANCH   4   6
ENDBRANCH   3   4
ENDBRANCH   2   3
ENDBRANCH   1   2
BRANCH   1  21
ATOM     21  O   UNL A   1      39.894  21.793  26.393  1.00  0.00    -0.458 OA
BRANCH  21  22
ATOM     22  C   UNL A   1      38.915  22.664  26.063  1.00  0.00     0.338 C 
ATOM     23  O   UNL A   1      37.915  22.444  25.402  1.00  0.00    -0.246 OA
BRANCH  22  24
ATOM     24  C   UNL A   1      39.191  23.963  26.692  1.00  0.00     0.060 A 
ATOM     25  C   UNL A   1      38.915  24.180  28.039  1.00  0.00     0.016 A 
ATOM     26  C   UNL A   1      39.862  24.931  25.953  1.00  0.00     0.016 A 
ATOM     27  C   UNL A   1      39.310  25.387  28.629  1.00  0.00     0.010 A 
ATOM     28  C   UNL A   1      40.386  26.056  26.578  1.00  0.00     0.010 A 
ATOM     29  C   UNL A   1      40.087  26.322  27.917  1.00  0.00    -0.014 A 
BRANCH  29  30
ATOM     30  C   UNL A   1      40.575  27.588  28.539  1.00  0.00     0.031 A 
ATOM     31  C   UNL A   1      42.024  27.722  28.952  1.00  0.00     0.074 A 
ATOM     32  C   UNL A   1      39.713  28.599  28.778  1.00  0.00     0.049 A 
ATOM     33  N   UNL A   1      42.613  28.715  29.570  1.00  0.00    -0.248 NA
ATOM     34  C   UNL A   1      42.921  26.587  28.673  1.00  0.00     0.031 C 
ATOM     35  C   UNL A   1      38.278  28.576  28.480  1.00  0.00     0.029 A 
ATOM     36  N   UNL A   1      39.915  29.849  29.312  1.00  0.00    -0.354 N 
ATOM     37  C   UNL A   1      43.930  28.310  29.770  1.00  0.00     0.074 A 
ATOM     38  C   UNL A   1      44.040  26.959  29.277  1.00  0.00     0.031 C 
ATOM     39  C   UNL A   1      37.749  29.775  28.761  1.00  0.00     0.029 A 
ATOM     40  C   UNL A   1      38.786  30.639  29.318  1.00  0.00     0.049 A 
ATOM     41  H   UNL A   1      40.785  30.152  29.658  1.00  0.00     0.167 HD
ATOM     42  C   UNL A   1      44.967  29.016  30.275  1.00  0.00     0.031 A 
ATOM     43  C   UNL A   1      38.603  31.914  29.717  1.00  0.00     0.031 A 
ATOM     44  C   UNL A   1      44.871  30.387  30.697  1.00  0.00     0.049 A 
ATOM     45  C   UNL A   1      39.773  32.686  30.259  1.00  0.00     0.074 A 
ATOM     46  C   UNL A   1      45.881  31.210  31.159  1.00  0.00     0.029 A 
ATOM     47  N   UNL A   1      43.708  31.141  30.682  1.00  0.00    -0.354 N 
ATOM     48  N   UNL A   1      41.017  32.295  30.397  1.00  0.00    -0.248 NA
ATOM     49  C   UNL A   1      39.524  34.066  30.700  1.00  0.00     0.031 C 
ATOM     50  C   UNL A   1      45.321  32.449  31.472  1.00  0.00     0.029 A 
ATOM     51  C   UNL A   1      43.975  32.418  31.142  1.00  0.00     0.049 A 
ATOM     52  H   UNL A   1      42.826  30.818  30.389  1.00  0.00     0.167 HD
ATOM     53  C   UNL A   1      41.702  33.385  30.920  1.00  0.00     0.074 A 
ATOM     54  C   UNL A   1      40.740  34.458  31.062  1.00  0.00     0.031 C 
ATOM     55  C   UNL A   1      43.010  33.482  31.257  1.00  0.00     0.031 A 
BRANCH  42  56
ATOM     56  C   UNL A   1      46.324  28.359  30.346  1.00  0.00    -0.014 A 
ATOM     57  C   UNL A   1      47.198  28.424  29.245  1.00  0.00     0.010 A 
ATOM     58  C   UNL A   1      46.673  27.556  31.448  1.00  0.00     0.010 A 
ATOM     59  C   UNL A   1      48.375  27.668  29.227  1.00  0.00     0.020 A 
ATOM     60  C   UNL A   1      47.863  26.826  31.447  1.00  0.00     0.020 A 
ATOM     61  C   UNL A   1      48.692  26.863  30.324  1.00  0.00     0.054 A 
BRANCH  61  62
ATOM     62  S   UNL A   1      50.193  25.847  30.263  1.00  0.00     0.124 S 
ATOM     63  O   UNL A   1      50.074  25.047  31.477  1.00  0.00    -0.237 OA
ATOM     64  O   UNL A   1      50.035  25.117  29.007  1.00  0.00    -0.237 OA
ATOM     65  O   UNL A   1      51.273  26.832  30.266  1.00  0.00    -0.744 OA
ENDBRANCH  61  62
ENDBRANCH  42  56
BRANCH  43  66
ATOM     66  C   UNL A   1      37.264  32.548  29.550  1.00  0.00    -0.014 A 
ATOM     67  C   UNL A   1      36.881  33.116  28.320  1.00  0.00     0.010 A 
ATOM     68  C   UNL A   1      36.395  32.662  30.651  1.00  0.00     0.010 A 
ATOM     69  C   UNL A   1      35.684  33.831  28.209  1.00  0.00     0.020 A 
ATOM     70  C   UNL A   1      35.182  33.350  30.535  1.00  0.00     0.020 A 
ATOM     71  C   UNL A   1      34.849  33.955  29.322  1.00  0.00     0.054 A 
BRANCH  71  72
ATOM     72  S   UNL A   1      33.325  34.928  29.168  1.00  0.00     0.124 S 
ATOM     73  O   UNL A   1      33.838  36.215  28.705  1.00  0.00    -0.237 OA
ATOM     74  O   UNL A   1      32.557  34.166  28.186  1.00  0.00    -0.237 OA
ATOM     75  O   UNL A   1      32.777  34.922  30.522  1.00  0.00    -0.744 OA
ENDBRANCH  71  72
ENDBRANCH  43  66
BRANCH  55  76
ATOM     76  C   UNL A   1      43.521  34.785  31.812  1.00  0.00    -0.014 A 
ATOM     77  C   UNL A   1      43.370  35.059  33.185  1.00  0.00     0.010 A 
ATOM     78  C   UNL A   1      43.946  35.806  30.948  1.00  0.00     0.010 A 
ATOM     79  C   UNL A   1      43.571  36.352  33.673  1.00  0.00     0.020 A 
ATOM     80  C   UNL A   1      44.175  37.094  31.438  1.00  0.00     0.020 A 
ATOM     81  C   UNL A   1      43.950  37.366  32.790  1.00  0.00     0.054 A 
BRANCH  81  82
ATOM     82  S   UNL A   1      44.104  39.058  33.422  1.00  0.00     0.124 S 
ATOM     83  O   UNL A   1      44.807  39.731  32.334  1.00  0.00    -0.237 OA
ATOM     84  O   UNL A   1      42.712  39.456  33.615  1.00  0.00    -0.237 OA
ATOM     85  O   UNL A   1      44.872  38.896  34.655  1.00  0.00    -0.744 OA
ENDBRANCH  81  82
ENDBRANCH  55  76
ENDBRANCH  29  30
ENDBRANCH  22  24
ENDBRANCH  21  22
ENDBRANCH   1  21
TORSDOF 15
ENDMDL
MODEL 2
REMARK VINA RESULT:     -10.9      3.684      6.032
REMARK SMILES Cc1ccc2c(c1)C=C(C(=O)OCCOC(=O)c1ccc(-c3c4nc(c(-c5ccc(S(=O)(=O)[O-])cc5)c5ccc([nH]5)c(-c5ccc(S(=O)(=O)[O-])cc5)c5nc(c(-c6ccc(S(=O)(=O)[O-])cc6)c6ccc3[nH]6)C=C5)C=C4)cc1)[C@@H](C(F)(F)F)O2
REMARK SMILES IDX 14 1 13 2 12 3 10 4 11 5 9 6 1 7 2 8 3 9 7 10 4 11 6 12 5 13
REMARK SMILES IDX 8 14 83 15 78 16 79 17 80 18 81 19 82 20 15 21 16 22 17 23
REMARK SMILES IDX 18 24 19 25 77 26 20 27 76 28 21 29 22 30 23 31 70 32 24 33
REMARK SMILES IDX 75 34 69 35 71 36 25 37 74 38 68 39 67 40 26 42 56 43 37 44
REMARK SMILES IDX 55 45 38 46 41 47 54 48 72 49 39 50 40 51 53 53 73 54 42 55
REMARK SMILES IDX 27 56 28 57 36 58 29 59 35 60 30 61 31 62 32 63 33 64 34 65
REMARK SMILES IDX 57 66 58 67 66 68 59 69 65 70 60 71 61 72 62 73 63 74 64 75
REMARK SMILES IDX 43 76 44 77 52 78 45 79 51 80 46 81 47 82 48 83 49 84 50 85
REMARK H PARENT 71 41 41 52
REMARK Flexibility Score: inf
ROOT
ATOM      1  C   UNL A   1      37.197  21.638  25.006  1.00  0.00     0.275 C 
ENDROOT
BRANCH   1   2
ATOM      2  C   UNL A   1      35.823  21.563  25.671  1.00  0.00     0.275 C 
BRANCH   2   3
ATOM      3  O   UNL A   1      35.216  22.870  25.771  1.00  0.00    -0.459 OA
BRANCH   3   4
ATOM      4  C   UNL A   1      34.206  23.107  24.902  1.00  0.00     0.338 C 
ATOM      5  O   UNL A   1      33.917  22.438  23.922  1.00  0.00    -0.246 OA
BRANCH   4   6
ATOM      6  C   UNL A   1      33.452  24.309  25.297  1.00  0.00     0.087 C 
ATOM      7  C   UNL A   1      34.322  30.063  27.286  1.00  0.00     0.044 C 
ATOM      8  C   UNL A   1      33.523  28.845  26.925  1.00  0.00    -0.050 A 
ATOM      9  C   UNL A   1      32.154  28.758  27.197  1.00  0.00     0.007 A 
ATOM     10  C   UNL A   1      34.165  27.749  26.341  1.00  0.00     0.015 A 
ATOM     11  C   UNL A   1      31.437  27.599  26.875  1.00  0.00     0.047 A 
ATOM     12  C   UNL A   1      33.451  26.584  26.038  1.00  0.00     0.017 A 
ATOM     13  C   UNL A   1      32.085  26.507  26.300  1.00  0.00     0.128 A 
ATOM     14  C   UNL A   1      34.141  25.436  25.493  1.00  0.00     0.027 C 
ATOM     15  O   UNL A   1      31.321  25.409  26.017  1.00  0.00    -0.475 OA
ATOM     16  C   UNL A   1      31.986  24.181  25.597  1.00  0.00     0.316 C 
BRANCH  16  17
ATOM     17  C   UNL A   1      31.716  23.089  26.644  1.00  0.00     0.430 C 
ATOM     18  F   UNL A   1      31.735  21.854  26.082  1.00  0.00    -0.167 F 
ATOM     19  F   UNL A   1      32.667  23.079  27.610  1.00  0.00    -0.167 F 
ATOM     20  F   UNL A   1      30.519  23.239  27.252  1.00  0.00    -0.167 F 
ENDBRANCH  16  17
ENDBRANCH   4   6
ENDBRANCH   3   4
ENDBRANCH   2   3
ENDBRANCH   1   2
BRANCH   1  21
ATOM     21  O   UNL A   1      37.829  22.893  25.311  1.00  0.00    -0.458 OA
BRANCH  21  22
ATOM     22  C   UNL A   1      38.960  22.810  26.047  1.00  0.00     0.338 C 
ATOM     23  O   UNL A   1      39.712  21.856  26.152  1.00  0.00    -0.246 OA
BRANCH  22  24
ATOM     24  C   UNL A   1      39.217  24.108  26.687  1.00  0.00     0.060 A 
ATOM     25  C   UNL A   1      38.892  24.325  28.023  1.00  0.00     0.016 A 
ATOM     26  C   UNL A   1      39.917  25.075  25.974  1.00  0.00     0.016 A 
ATOM     27  C   UNL A   1      39.267  25.530  28.628  1.00  0.00     0.010 A 
ATOM     28  C   UNL A   1      40.420  26.197  26.618  1.00  0.00     0.010 A 
ATOM     29  C   UNL A   1      40.072  26.464  27.946  1.00  0.00    -0.014 A 
BRANCH  29  30
ATOM     30  C   UNL A   1      40.540  27.728  28.586  1.00  0.00     0.031 A 
ATOM     31  C   UNL A   1      41.983  27.873  29.018  1.00  0.00     0.074 A 
ATOM     32  C   UNL A   1      39.665  28.728  28.824  1.00  0.00     0.049 A 
ATOM     33  N   UNL A   1      42.555  28.866  29.652  1.00  0.00    -0.248 NA
ATOM     34  C   UNL A   1      42.894  26.749  28.737  1.00  0.00     0.031 C 
ATOM     35  C   UNL A   1      38.235  28.694  28.509  1.00  0.00     0.029 A 
ATOM     36  N   UNL A   1      39.848  29.975  29.373  1.00  0.00    -0.354 N 
ATOM     37  C   UNL A   1      43.873  28.472  29.864  1.00  0.00     0.074 A 
ATOM     38  C   UNL A   1      44.003  27.126  29.358  1.00  0.00     0.031 C 
ATOM     39  C   UNL A   1      37.690  29.885  28.795  1.00  0.00     0.029 A 
ATOM     40  C   UNL A   1      38.712  30.753  29.374  1.00  0.00     0.049 A 
ATOM     41  H   UNL A   1      40.711  30.283  29.732  1.00  0.00     0.167 HD
ATOM     42  C   UNL A   1      44.897  29.183  30.388  1.00  0.00     0.031 A 
ATOM     43  C   UNL A   1      38.511  32.023  29.782  1.00  0.00     0.031 A 
ATOM     44  C   UNL A   1      44.782  30.548  30.822  1.00  0.00     0.049 A 
ATOM     45  C   UNL A   1      39.667  32.801  30.347  1.00  0.00     0.074 A 
ATOM     46  C   UNL A   1      45.779  31.377  31.304  1.00  0.00     0.029 A 
ATOM     47  N   UNL A   1      43.612  31.291  30.800  1.00  0.00    -0.354 N 
ATOM     48  N   UNL A   1      40.913  32.421  30.495  1.00  0.00    -0.248 NA
ATOM     49  C   UNL A   1      39.399  34.174  30.798  1.00  0.00     0.031 C 
ATOM     50  C   UNL A   1      45.203  32.607  31.622  1.00  0.00     0.029 A 
ATOM     51  C   UNL A   1      43.861  32.566  31.276  1.00  0.00     0.049 A 
ATOM     52  H   UNL A   1      42.737  30.962  30.494  1.00  0.00     0.167 HD
ATOM     53  C   UNL A   1      41.581  33.513  31.037  1.00  0.00     0.074 A 
ATOM     54  C   UNL A   1      40.606  34.575  31.178  1.00  0.00     0.031 C 
ATOM     55  C   UNL A   1      42.884  33.619  31.390  1.00  0.00     0.031 A 
BRANCH  42  56
ATOM     56  C   UNL A   1      46.260  28.539  30.469  1.00  0.00    -0.014 A 
ATOM     57  C   UNL A   1      46.666  27.893  31.651  1.00  0.00     0.010 A 
ATOM     58  C   UNL A   1      47.190  28.701  29.426  1.00  0.00     0.010 A 
ATOM     59  C   UNL A   1      47.986  27.457  31.805  1.00  0.00     0.020 A 
ATOM     60  C   UNL A   1      48.500  28.238  29.563  1.00  0.00     0.020 A 
ATOM     61  C   UNL A   1      48.898  27.645  30.763  1.00  0.00     0.054 A 
BRANCH  61  62
ATOM     62  S   UNL A   1      50.620  27.124  30.998  1.00  0.00     0.124 S 
ATOM     63  O   UNL A   1      51.055  27.982  32.094  1.00  0.00    -0.237 OA
ATOM     64  O   UNL A   1      50.483  25.705  31.321  1.00  0.00    -0.237 OA
ATOM     65  O   UNL A   1      51.239  27.400  29.703  1.00  0.00    -0.744 OA
ENDBRANCH  61  62
ENDBRANCH  42  56
BRANCH  43  66
ATOM     66  C   UNL A   1      37.167  32.645  29.606  1.00  0.00    -0.014 A 
ATOM     67  C   UNL A   1      36.775  33.178  28.364  1.00  0.00     0.010 A 
ATOM     68  C   UNL A   1      36.304  32.783  30.708  1.00  0.00     0.010 A 
ATOM     69  C   UNL A   1      35.574  33.884  28.240  1.00  0.00     0.020 A 
ATOM     70  C   UNL A   1      35.086  33.461  30.581  1.00  0.00     0.020 A 
ATOM     71  C   UNL A   1      34.744  34.032  29.354  1.00  0.00     0.054 A 
BRANCH  71  72
ATOM     72  S   UNL A   1      33.214  34.993  29.182  1.00  0.00     0.124 S 
ATOM     73  O   UNL A   1      33.721  36.284  28.724  1.00  0.00    -0.237 OA
ATOM     74  O   UNL A   1      32.463  34.225  28.193  1.00  0.00    -0.237 OA
ATOM     75  O   UNL A   1      32.652  34.984  30.531  1.00  0.00    -0.744 OA
ENDBRANCH  71  72
ENDBRANCH  43  66
BRANCH  55  76
ATOM     76  C   UNL A   1      43.375  34.921  31.964  1.00  0.00    -0.014 A 
ATOM     77  C   UNL A   1      43.268  35.151  33.349  1.00  0.00     0.010 A 
ATOM     78  C   UNL A   1      43.735  35.980  31.115  1.00  0.00     0.010 A 
ATOM     79  C   UNL A   1      43.448  36.435  33.868  1.00  0.00     0.020 A 
ATOM     80  C   UNL A   1      43.942  37.260  31.635  1.00  0.00     0.020 A 
ATOM     81  C   UNL A   1      43.761  37.486  33.002  1.00  0.00     0.054 A 
BRANCH  81  82
ATOM     82  S   UNL A   1      43.887  39.163  33.678  1.00  0.00     0.124 S 
ATOM     83  O   UNL A   1      43.946  38.913  35.115  1.00  0.00    -0.237 OA
ATOM     84  O   UNL A   1      45.120  39.662  33.073  1.00  0.00    -0.237 OA
ATOM     85  O   UNL A   1      42.665  39.815  33.208  1.00  0.00    -0.744 OA
ENDBRANCH  81  82
ENDBRANCH  55  76
ENDBRANCH  29  30
ENDBRANCH  22  24
ENDBRANCH  21  22
ENDBRANCH   1  21
TORSDOF 15
ENDMDL
MODEL 3
REMARK VINA RESULT:     -10.7      5.096     12.270
REMARK SMILES Cc1ccc2c(c1)C=C(C(=O)OCCOC(=O)c1ccc(-c3c4nc(c(-c5ccc(S(=O)(=O)[O-])cc5)c5ccc([nH]5)c(-c5ccc(S(=O)(=O)[O-])cc5)c5nc(c(-c6ccc(S(=O)(=O)[O-])cc6)c6ccc3[nH]6)C=C5)C=C4)cc1)[C@@H](C(F)(F)F)O2
REMARK SMILES IDX 14 1 13 2 12 3 10 4 11 5 9 6 1 7 2 8 3 9 7 10 4 11 6 12 5 13
REMARK SMILES IDX 8 14 83 15 78 16 79 17 80 18 81 19 82 20 15 21 16 22 17 23
REMARK SMILES IDX 18 24 19 25 77 26 20 27 76 28 21 29 22 30 23 31 70 32 24 33
REMARK SMILES IDX 75 34 69 35 71 36 25 37 74 38 68 39 67 40 26 42 56 43 37 44
REMARK SMILES IDX 55 45 38 46 41 47 54 48 72 49 39 50 40 51 53 53 73 54 42 55
REMARK SMILES IDX 27 56 28 57 36 58 29 59 35 60 30 61 31 62 32 63 33 64 34 65
REMARK SMILES IDX 57 66 58 67 66 68 59 69 65 70 60 71 61 72 62 73 63 74 64 75
REMARK SMILES IDX 43 76 44 77 52 78 45 79 51 80 46 81 47 82 48 83 49 84 50 85
REMARK H PARENT 71 41 41 52
REMARK Flexibility Score: inf
ROOT
ATOM      1  C   UNL A   1      33.678  33.554  28.229  1.00  0.00     0.275 C 
ENDROOT
BRANCH   1   2
ATOM      2  C   UNL A   1      34.327  34.710  28.989  1.00  0.00     0.275 C 
BRANCH   2   3
ATOM      3  O   UNL A   1      34.112  34.590  30.412  1.00  0.00    -0.459 OA
BRANCH   3   4
ATOM      4  C   UNL A   1      34.770  33.571  31.013  1.00  0.00     0.338 C 
ATOM      5  O   UNL A   1      34.394  32.413  31.100  1.00  0.00    -0.246 OA
BRANCH   4   6
ATOM      6  C   UNL A   1      36.057  34.034  31.560  1.00  0.00     0.087 C 
ATOM      7  C   UNL A   1      42.079  33.982  30.313  1.00  0.00     0.044 C 
ATOM      8  C   UNL A   1      40.854  34.246  31.138  1.00  0.00    -0.050 A 
ATOM      9  C   UNL A   1      40.941  34.667  32.468  1.00  0.00     0.007 A 
ATOM     10  C   UNL A   1      39.590  34.025  30.583  1.00  0.00     0.015 A 
ATOM     11  C   UNL A   1      39.783  34.880  33.226  1.00  0.00     0.047 A 
ATOM     12  C   UNL A   1      38.433  34.219  31.348  1.00  0.00     0.017 A 
ATOM     13  C   UNL A   1      38.526  34.651  32.668  1.00  0.00     0.128 A 
ATOM     14  C   UNL A   1      37.136  33.925  30.780  1.00  0.00     0.027 C 
ATOM     15  O   UNL A   1      37.440  34.875  33.469  1.00  0.00    -0.475 OA
ATOM     16  C   UNL A   1      36.123  34.467  32.996  1.00  0.00     0.316 C 
BRANCH  16  17
ATOM     17  C   UNL A   1      35.572  33.385  33.938  1.00  0.00     0.430 C 
ATOM     18  F   UNL A   1      35.958  33.607  35.220  1.00  0.00    -0.167 F 
ATOM     19  F   UNL A   1      34.217  33.375  33.948  1.00  0.00    -0.167 F 
ATOM     20  F   UNL A   1      35.986  32.144  33.600  1.00  0.00    -0.167 F 
ENDBRANCH  16  17
ENDBRANCH   4   6
ENDBRANCH   3   4
ENDBRANCH   2   3
ENDBRANCH   1   2
BRANCH   1  21
ATOM     21  O   UNL A   1      34.686  32.728  27.622  1.00  0.00    -0.458 OA
BRANCH  21  22
ATOM     22  C   UNL A   1      34.549  31.399  27.825  1.00  0.00     0.338 C 
ATOM     23  O   UNL A   1      33.564  30.712  27.614  1.00  0.00    -0.246 OA
BRANCH  22  24
ATOM     24  C   UNL A   1      35.827  30.847  28.295  1.00  0.00     0.060 A 
ATOM     25  C   UNL A   1      37.024  31.521  28.070  1.00  0.00     0.016 A 
ATOM     26  C   UNL A   1      35.808  29.707  29.091  1.00  0.00     0.016 A 
ATOM     27  C   UNL A   1      38.202  31.027  28.644  1.00  0.00     0.010 A 
ATOM     28  C   UNL A   1      36.946  29.311  29.781  1.00  0.00     0.010 A 
ATOM     29  C   UNL A   1      38.172  29.940  29.540  1.00  0.00    -0.014 A 
BRANCH  29  30
ATOM     30  C   UNL A   1      39.401  29.431  30.215  1.00  0.00     0.031 A 
ATOM     31  C   UNL A   1      39.825  29.999  31.552  1.00  0.00     0.074 A 
ATOM     32  C   UNL A   1      40.165  28.496  29.611  1.00  0.00     0.049 A 
ATOM     33  N   UNL A   1      40.898  29.733  32.254  1.00  0.00    -0.248 NA
ATOM     34  C   UNL A   1      38.958  31.021  32.164  1.00  0.00     0.031 C 
ATOM     35  C   UNL A   1      39.899  27.907  28.296  1.00  0.00     0.029 A 
ATOM     36  N   UNL A   1      41.312  27.863  30.026  1.00  0.00    -0.354 N 
ATOM     37  C   UNL A   1      40.841  30.570  33.365  1.00  0.00     0.074 A 
ATOM     38  C   UNL A   1      39.672  31.401  33.214  1.00  0.00     0.031 C 
ATOM     39  C   UNL A   1      40.805  26.950  28.049  1.00  0.00     0.029 A 
ATOM     40  C   UNL A   1      41.757  26.894  29.154  1.00  0.00     0.049 A 
ATOM     41  H   UNL A   1      41.773  28.082  30.867  1.00  0.00     0.167 HD
ATOM     42  C   UNL A   1      41.661  30.609  34.440  1.00  0.00     0.031 A 
ATOM     43  C   UNL A   1      42.805  26.048  29.233  1.00  0.00     0.031 A 
ATOM     44  C   UNL A   1      42.783  29.728  34.622  1.00  0.00     0.049 A 
ATOM     45  C   UNL A   1      43.694  26.097  30.444  1.00  0.00     0.074 A 
ATOM     46  C   UNL A   1      43.633  29.644  35.709  1.00  0.00     0.029 A 
ATOM     47  N   UNL A   1      43.190  28.765  33.713  1.00  0.00    -0.354 N 
ATOM     48  N   UNL A   1      43.593  26.866  31.502  1.00  0.00    -0.248 NA
ATOM     49  C   UNL A   1      44.836  25.172  30.481  1.00  0.00     0.031 C 
ATOM     50  C   UNL A   1      44.588  28.664  35.437  1.00  0.00     0.029 A 
ATOM     51  C   UNL A   1      44.292  28.091  34.209  1.00  0.00     0.049 A 
ATOM     52  H   UNL A   1      42.762  28.587  32.845  1.00  0.00     0.167 HD
ATOM     53  C   UNL A   1      44.643  26.503  32.337  1.00  0.00     0.074 A 
ATOM     54  C   UNL A   1      45.361  25.437  31.671  1.00  0.00     0.031 C 
ATOM     55  C   UNL A   1      44.982  27.016  33.544  1.00  0.00     0.031 A 
BRANCH  42  56
ATOM     56  C   UNL A   1      41.356  31.586  35.548  1.00  0.00    -0.014 A 
ATOM     57  C   UNL A   1      40.237  31.386  36.377  1.00  0.00     0.010 A 
ATOM     58  C   UNL A   1      42.094  32.778  35.675  1.00  0.00     0.010 A 
ATOM     59  C   UNL A   1      39.837  32.375  37.283  1.00  0.00     0.020 A 
ATOM     60  C   UNL A   1      41.717  33.753  36.601  1.00  0.00     0.020 A 
ATOM     61  C   UNL A   1      40.574  33.558  37.378  1.00  0.00     0.054 A 
BRANCH  61  62
ATOM     62  S   UNL A   1      40.013  34.853  38.517  1.00  0.00     0.124 S 
ATOM     63  O   UNL A   1      38.696  34.367  38.913  1.00  0.00    -0.237 OA
ATOM     64  O   UNL A   1      41.036  34.827  39.561  1.00  0.00    -0.237 OA
ATOM     65  O   UNL A   1      40.013  36.059  37.691  1.00  0.00    -0.744 OA
ENDBRANCH  61  62
ENDBRANCH  42  56
BRANCH  43  66
ATOM     66  C   UNL A   1      43.018  25.043  28.153  1.00  0.00    -0.014 A 
ATOM     67  C   UNL A   1      42.435  23.765  28.229  1.00  0.00     0.010 A 
ATOM     68  C   UNL A   1      43.881  25.334  27.080  1.00  0.00     0.010 A 
ATOM     69  C   UNL A   1      42.750  22.781  27.286  1.00  0.00     0.020 A 
ATOM     70  C   UNL A   1      44.175  24.362  26.117  1.00  0.00     0.020 A 
ATOM     71  C   UNL A   1      43.630  23.083  26.243  1.00  0.00     0.054 A 
BRANCH  71  72
ATOM     72  S   UNL A   1      44.064  21.777  25.060  1.00  0.00     0.124 S 
ATOM     73  O   UNL A   1      45.439  21.470  25.444  1.00  0.00    -0.237 OA
ATOM     74  O   UNL A   1      43.081  20.738  25.356  1.00  0.00    -0.237 OA
ATOM     75  O   UNL A   1      43.907  22.427  23.761  1.00  0.00    -0.744 OA
ENDBRANCH  71  72
ENDBRANCH  43  66
BRANCH  55  76
ATOM     76  C   UNL A   1      46.178  26.450  34.261  1.00  0.00    -0.014 A 
ATOM     77  C   UNL A   1      47.464  26.934  33.953  1.00  0.00     0.010 A 
ATOM     78  C   UNL A   1      46.046  25.308  35.068  1.00  0.00     0.010 A 
ATOM     79  C   UNL A   1      48.600  26.245  34.385  1.00  0.00     0.020 A 
ATOM     80  C   UNL A   1      47.181  24.633  35.524  1.00  0.00     0.020 A 
ATOM     81  C   UNL A   1      48.448  25.085  35.149  1.00  0.00     0.054 A 
BRANCH  81  82
ATOM     82  S   UNL A   1      49.930  24.147  35.610  1.00  0.00     0.124 S 
ATOM     83  O   UNL A   1      50.982  25.152  35.485  1.00  0.00    -0.237 OA
ATOM     84  O   UNL A   1      49.626  23.719  36.973  1.00  0.00    -0.237 OA
ATOM     85  O   UNL A   1      49.975  23.070  34.623  1.00  0.00    -0.744 OA
ENDBRANCH  81  82
ENDBRANCH  55  76
ENDBRANCH  29  30
ENDBRANCH  22  24
ENDBRANCH  21  22
ENDBRANCH   1  21
TORSDOF 15
ENDMDL
