MODEL 1
REMARK VINA RESULT:     -11.1      0.000      0.000
REMARK SMILES Cc1cc2c(c(C)c1Cl)C=C(C(=O)OCCOC(=O)c1ccc(-c3c4nc(c(-c5ccc(S(=O)(=O)[O-])cc5)c5ccc([nH]5)c(-c5ccc(S(=O)(=O)[O-])cc5)c5nc(c(-c6ccc(S(=O)(=O)[O-])cc6)c6ccc3[nH]6)C=C5)C=C4)cc1)[C@@H](C(F)(F)F)O2
REMARK SMILES IDX 16 1 15 2 14 3 12 4 13 5 11 6 1 7 2 8 3 9 8 10 4 11 6 12
REMARK SMILES IDX 9 13 5 14 85 15 7 16 10 17 80 18 81 19 82 20 83 21 84 22
REMARK SMILES IDX 17 23 18 24 19 25 20 26 21 27 79 28 22 29 78 30 23 31 24 32
REMARK SMILES IDX 25 33 72 34 26 35 77 36 71 37 73 38 27 39 76 40 70 41 69 42
REMARK SMILES IDX 28 44 58 45 39 46 57 47 40 48 43 49 56 50 74 51 41 52 42 53
REMARK SMILES IDX 55 55 75 56 44 57 29 58 30 59 38 60 31 61 37 62 32 63 33 64
REMARK SMILES IDX 34 65 35 66 36 67 59 68 60 69 68 70 61 71 67 72 62 73 63 74
REMARK SMILES IDX 64 75 65 76 66 77 45 78 46 79 54 80 47 81 53 82 48 83 49 84
REMARK SMILES IDX 50 85 51 86 52 87
REMARK H PARENT 73 43 43 54
REMARK Flexibility Score: inf
ROOT
ATOM      1  C   UNL A   1      32.490  29.744  27.242  1.00  0.00     0.275 C 
ENDROOT
BRANCH   1   2
ATOM      2  C   UNL A   1      32.611  28.224  27.117  1.00  0.00     0.275 C 
BRANCH   2   3
ATOM      3  O   UNL A   1      32.132  27.755  25.838  1.00  0.00    -0.459 OA
BRANCH   3   4
ATOM      4  C   UNL A   1      33.073  27.215  25.030  1.00  0.00     0.338 C 
ATOM      5  O   UNL A   1      33.829  27.825  24.289  1.00  0.00    -0.246 OA
BRANCH   4   6
ATOM      6  C   UNL A   1      33.086  25.743  25.145  1.00  0.00     0.087 C 
ATOM      7  C   UNL A   1      34.274  19.389  24.680  1.00  0.00     0.046 C 
ATOM      8  C   UNL A   1      34.364  20.875  24.904  1.00  0.00    -0.028 A 
ATOM      9  C   UNL A   1      33.157  21.591  24.955  1.00  0.00     0.052 A 
ATOM     10  C   UNL A   1      35.579  21.578  25.012  1.00  0.00     0.047 A 
ATOM     11  C   UNL A   1      33.147  22.977  25.085  1.00  0.00     0.128 A 
ATOM     12  C   UNL A   1      35.589  22.985  25.160  1.00  0.00    -0.021 A 
ATOM     13  Cl  UNL A   1      37.075  20.695  24.947  1.00  0.00    -0.084 Cl
ATOM     14  C   UNL A   1      34.351  23.681  25.175  1.00  0.00     0.022 A 
ATOM     15  O   UNL A   1      31.907  23.556  25.128  1.00  0.00    -0.475 OA
ATOM     16  C   UNL A   1      36.885  23.753  25.306  1.00  0.00     0.047 C 
ATOM     17  C   UNL A   1      34.274  25.137  25.237  1.00  0.00     0.027 C 
ATOM     18  C   UNL A   1      31.796  24.999  25.001  1.00  0.00     0.316 C 
BRANCH  18  19
ATOM     19  C   UNL A   1      31.099  25.328  23.670  1.00  0.00     0.430 C 
ATOM     20  F   UNL A   1      30.364  24.279  23.229  1.00  0.00    -0.167 F 
ATOM     21  F   UNL A   1      30.241  26.368  23.799  1.00  0.00    -0.167 F 
ATOM     22  F   UNL A   1      31.977  25.646  22.693  1.00  0.00    -0.167 F 
ENDBRANCH  18  19
ENDBRANCH   4   6
ENDBRANCH   3   4
ENDBRANCH   2   3
ENDBRANCH   1   2
BRANCH   1  23
ATOM     23  O   UNL A   1      33.728  30.384  26.883  1.00  0.00    -0.458 OA
BRANCH  23  24
ATOM     24  C   UNL A   1      34.425  30.899  27.922  1.00  0.00     0.338 C 
ATOM     25  O   UNL A   1      34.075  31.790  28.676  1.00  0.00    -0.246 OA
BRANCH  24  26
ATOM     26  C   UNL A   1      35.686  30.165  28.105  1.00  0.00     0.060 A 
ATOM     27  C   UNL A   1      35.997  29.701  29.375  1.00  0.00     0.016 A 
ATOM     28  C   UNL A   1      36.645  30.128  27.096  1.00  0.00     0.016 A 
ATOM     29  C   UNL A   1      37.308  29.361  29.686  1.00  0.00     0.010 A 
ATOM     30  C   UNL A   1      37.929  29.639  27.382  1.00  0.00     0.010 A 
ATOM     31  C   UNL A   1      38.299  29.305  28.697  1.00  0.00    -0.014 A 
BRANCH  31  32
ATOM     32  C   UNL A   1      39.706  28.934  29.051  1.00  0.00     0.031 A 
ATOM     33  C   UNL A   1      40.585  29.898  29.819  1.00  0.00     0.074 A 
ATOM     34  C   UNL A   1      40.201  27.719  28.726  1.00  0.00     0.049 A 
ATOM     35  N   UNL A   1      41.875  29.848  30.031  1.00  0.00    -0.248 NA
ATOM     36  C   UNL A   1      39.931  31.075  30.415  1.00  0.00     0.031 C 
ATOM     37  C   UNL A   1      39.459  26.646  28.057  1.00  0.00     0.029 A 
ATOM     38  N   UNL A   1      41.442  27.167  28.937  1.00  0.00    -0.354 N 
ATOM     39  C   UNL A   1      42.198  31.013  30.722  1.00  0.00     0.074 A 
ATOM     40  C   UNL A   1      40.967  31.752  30.893  1.00  0.00     0.031 C 
ATOM     41  C   UNL A   1      40.226  25.550  27.989  1.00  0.00     0.029 A 
ATOM     42  C   UNL A   1      41.559  25.878  28.471  1.00  0.00     0.049 A 
ATOM     43  H   UNL A   1      42.178  27.650  29.380  1.00  0.00     0.167 HD
ATOM     44  C   UNL A   1      43.409  31.429  31.168  1.00  0.00     0.031 A 
ATOM     45  C   UNL A   1      42.625  25.060  28.375  1.00  0.00     0.031 A 
ATOM     46  C   UNL A   1      44.623  30.662  31.035  1.00  0.00     0.049 A 
ATOM     47  C   UNL A   1      43.970  25.567  28.805  1.00  0.00     0.074 A 
ATOM     48  C   UNL A   1      45.905  31.003  31.433  1.00  0.00     0.029 A 
ATOM     49  N   UNL A   1      44.702  29.391  30.487  1.00  0.00    -0.354 N 
ATOM     50  N   UNL A   1      44.276  26.724  29.343  1.00  0.00    -0.248 NA
ATOM     51  C   UNL A   1      45.115  24.674  28.591  1.00  0.00     0.031 C 
ATOM     52  C   UNL A   1      46.766  29.960  31.081  1.00  0.00     0.029 A 
ATOM     53  C   UNL A   1      46.012  28.940  30.525  1.00  0.00     0.049 A 
ATOM     54  H   UNL A   1      43.941  28.884  30.123  1.00  0.00     0.167 HD
ATOM     55  C   UNL A   1      45.650  26.689  29.549  1.00  0.00     0.074 A 
ATOM     56  C   UNL A   1      46.109  25.392  29.093  1.00  0.00     0.031 C 
ATOM     57  C   UNL A   1      46.456  27.648  30.067  1.00  0.00     0.031 A 
BRANCH  44  58
ATOM     58  C   UNL A   1      43.504  32.794  31.804  1.00  0.00    -0.014 A 
ATOM     59  C   UNL A   1      43.686  33.959  31.038  1.00  0.00     0.010 A 
ATOM     60  C   UNL A   1      43.339  32.918  33.198  1.00  0.00     0.010 A 
ATOM     61  C   UNL A   1      43.729  35.215  31.655  1.00  0.00     0.020 A 
ATOM     62  C   UNL A   1      43.351  34.172  33.816  1.00  0.00     0.020 A 
ATOM     63  C   UNL A   1      43.559  35.313  33.040  1.00  0.00     0.054 A 
BRANCH  63  64
ATOM     64  S   UNL A   1      43.585  36.957  33.808  1.00  0.00     0.124 S 
ATOM     65  O   UNL A   1      42.325  36.967  34.547  1.00  0.00    -0.237 OA
ATOM     66  O   UNL A   1      44.793  36.908  34.627  1.00  0.00    -0.237 OA
ATOM     67  O   UNL A   1      43.643  37.872  32.670  1.00  0.00    -0.744 OA
ENDBRANCH  63  64
ENDBRANCH  44  58
BRANCH  45  68
ATOM     68  C   UNL A   1      42.464  23.699  27.787  1.00  0.00    -0.014 A 
ATOM     69  C   UNL A   1      42.688  23.480  26.417  1.00  0.00     0.010 A 
ATOM     70  C   UNL A   1      42.130  22.604  28.607  1.00  0.00     0.010 A 
ATOM     71  C   UNL A   1      42.586  22.193  25.880  1.00  0.00     0.020 A 
ATOM     72  C   UNL A   1      42.065  21.311  28.082  1.00  0.00     0.020 A 
ATOM     73  C   UNL A   1      42.288  21.115  26.719  1.00  0.00     0.054 A 
BRANCH  73  74
ATOM     74  S   UNL A   1      42.242  19.443  26.014  1.00  0.00     0.124 S 
ATOM     75  O   UNL A   1      43.140  19.571  24.870  1.00  0.00    -0.237 OA
ATOM     76  O   UNL A   1      42.734  18.623  27.119  1.00  0.00    -0.237 OA
ATOM     77  O   UNL A   1      40.832  19.249  25.684  1.00  0.00    -0.744 OA
ENDBRANCH  73  74
ENDBRANCH  45  68
BRANCH  57  78
ATOM     78  C   UNL A   1      47.915  27.313  30.217  1.00  0.00    -0.014 A 
ATOM     79  C   UNL A   1      48.845  27.622  29.210  1.00  0.00     0.010 A 
ATOM     80  C   UNL A   1      48.367  26.716  31.409  1.00  0.00     0.010 A 
ATOM     81  C   UNL A   1      50.196  27.308  29.377  1.00  0.00     0.020 A 
ATOM     82  C   UNL A   1      49.720  26.428  31.592  1.00  0.00     0.020 A 
ATOM     83  C   UNL A   1      50.625  26.713  30.568  1.00  0.00     0.054 A 
BRANCH  83  84
ATOM     84  S   UNL A   1      52.389  26.344  30.771  1.00  0.00     0.124 S 
ATOM     85  O   UNL A   1      52.888  27.571  31.384  1.00  0.00    -0.237 OA
ATOM     86  O   UNL A   1      52.370  25.169  31.640  1.00  0.00    -0.237 OA
ATOM     87  O   UNL A   1      52.852  26.096  29.407  1.00  0.00    -0.744 OA
ENDBRANCH  83  84
ENDBRANCH  57  78
ENDBRANCH  31  32
ENDBRANCH  24  26
ENDBRANCH  23  24
ENDBRANCH   1  23
TORSDOF 15
ENDMDL
MODEL 2
REMARK VINA RESULT:     -11.1      4.806     10.946
REMARK SMILES Cc1cc2c(c(C)c1Cl)C=C(C(=O)OCCOC(=O)c1ccc(-c3c4nc(c(-c5ccc(S(=O)(=O)[O-])cc5)c5ccc([nH]5)c(-c5ccc(S(=O)(=O)[O-])cc5)c5nc(c(-c6ccc(S(=O)(=O)[O-])cc6)c6ccc3[nH]6)C=C5)C=C4)cc1)[C@@H](C(F)(F)F)O2
REMARK SMILES IDX 16 1 15 2 14 3 12 4 13 5 11 6 1 7 2 8 3 9 8 10 4 11 6 12
REMARK SMILES IDX 9 13 5 14 85 15 7 16 10 17 80 18 81 19 82 20 83 21 84 22
REMARK SMILES IDX 17 23 18 24 19 25 20 26 21 27 79 28 22 29 78 30 23 31 24 32
REMARK SMILES IDX 25 33 72 34 26 35 77 36 71 37 73 38 27 39 76 40 70 41 69 42
REMARK SMILES IDX 28 44 58 45 39 46 57 47 40 48 43 49 56 50 74 51 41 52 42 53
REMARK SMILES IDX 55 55 75 56 44 57 29 58 30 59 38 60 31 61 37 62 32 63 33 64
REMARK SMILES IDX 34 65 35 66 36 67 59 68 60 69 68 70 61 71 67 72 62 73 63 74
REMARK SMILES IDX 64 75 65 76 66 77 45 78 46 79 54 80 47 81 53 82 48 83 49 84
REMARK SMILES IDX 50 85 51 86 52 87
REMARK H PARENT 73 43 43 54
REMARK Flexibility Score: inf
ROOT
ATOM      1  C   UNL A   1      40.575  20.136  26.157  1.00  0.00     0.275 C 
ENDROOT
BRANCH   1   2
ATOM      2  C   UNL A   1      42.105  20.111  26.178  1.00  0.00     0.275 C 
BRANCH   2   3
ATOM      3  O   UNL A   1      42.661  21.441  26.103  1.00  0.00    -0.459 OA
BRANCH   3   4
ATOM      4  C   UNL A   1      43.932  21.512  25.642  1.00  0.00     0.338 C 
ATOM      5  O   UNL A   1      44.375  20.954  24.650  1.00  0.00    -0.246 OA
BRANCH   4   6
ATOM      6  C   UNL A   1      44.760  22.372  26.509  1.00  0.00     0.087 C 
ATOM      7  C   UNL A   1      47.080  26.731  30.707  1.00  0.00     0.046 C 
ATOM      8  C   UNL A   1      46.351  25.594  30.042  1.00  0.00    -0.028 A 
ATOM      9  C   UNL A   1      46.809  25.190  28.777  1.00  0.00     0.052 A 
ATOM     10  C   UNL A   1      45.219  24.962  30.591  1.00  0.00     0.047 A 
ATOM     11  C   UNL A   1      46.151  24.198  28.056  1.00  0.00     0.128 A 
ATOM     12  C   UNL A   1      44.546  23.942  29.881  1.00  0.00    -0.021 A 
ATOM     13  Cl  UNL A   1      44.648  25.462  32.155  1.00  0.00    -0.084 Cl
ATOM     14  C   UNL A   1      45.017  23.580  28.590  1.00  0.00     0.022 A 
ATOM     15  O   UNL A   1      46.700  23.890  26.841  1.00  0.00    -0.475 OA
ATOM     16  C   UNL A   1      43.345  23.232  30.469  1.00  0.00     0.047 C 
ATOM     17  C   UNL A   1      44.331  22.599  27.755  1.00  0.00     0.027 C 
ATOM     18  C   UNL A   1      45.946  23.065  25.913  1.00  0.00     0.316 C 
BRANCH  18  19
ATOM     19  C   UNL A   1      45.549  23.920  24.698  1.00  0.00     0.430 C 
ATOM     20  F   UNL A   1      46.240  25.085  24.670  1.00  0.00    -0.167 F 
ATOM     21  F   UNL A   1      45.821  23.287  23.531  1.00  0.00    -0.167 F 
ATOM     22  F   UNL A   1      44.233  24.230  24.693  1.00  0.00    -0.167 F 
ENDBRANCH  18  19
ENDBRANCH   4   6
ENDBRANCH   3   4
ENDBRANCH   2   3
ENDBRANCH   1   2
BRANCH   1  23
ATOM     23  O   UNL A   1      40.071  21.143  27.052  1.00  0.00    -0.458 OA
BRANCH  23  24
ATOM     24  C   UNL A   1      39.366  22.133  26.455  1.00  0.00     0.338 C 
ATOM     25  O   UNL A   1      38.523  22.016  25.584  1.00  0.00    -0.246 OA
BRANCH  24  26
ATOM     26  C   UNL A   1      39.686  23.429  27.071  1.00  0.00     0.060 A 
ATOM     27  C   UNL A   1      39.125  24.573  26.521  1.00  0.00     0.016 A 
ATOM     28  C   UNL A   1      40.691  23.538  28.028  1.00  0.00     0.016 A 
ATOM     29  C   UNL A   1      39.681  25.817  26.795  1.00  0.00     0.010 A 
ATOM     30  C   UNL A   1      41.143  24.809  28.413  1.00  0.00     0.010 A 
ATOM     31  C   UNL A   1      40.687  25.968  27.758  1.00  0.00    -0.014 A 
BRANCH  31  32
ATOM     32  C   UNL A   1      41.272  27.316  28.042  1.00  0.00     0.031 A 
ATOM     33  C   UNL A   1      42.714  27.618  27.691  1.00  0.00     0.074 A 
ATOM     34  C   UNL A   1      40.514  28.298  28.576  1.00  0.00     0.049 A 
ATOM     35  N   UNL A   1      43.453  28.639  28.046  1.00  0.00    -0.248 NA
ATOM     36  C   UNL A   1      43.419  26.641  26.845  1.00  0.00     0.031 C 
ATOM     37  C   UNL A   1      39.087  28.196  28.898  1.00  0.00     0.029 A 
ATOM     38  N   UNL A   1      40.828  29.590  28.924  1.00  0.00    -0.354 N 
ATOM     39  C   UNL A   1      44.722  28.395  27.526  1.00  0.00     0.074 A 
ATOM     40  C   UNL A   1      44.653  27.128  26.831  1.00  0.00     0.031 C 
ATOM     41  C   UNL A   1      38.636  29.387  29.312  1.00  0.00     0.029 A 
ATOM     42  C   UNL A   1      39.763  30.300  29.430  1.00  0.00     0.049 A 
ATOM     43  H   UNL A   1      41.731  29.971  28.822  1.00  0.00     0.167 HD
ATOM     44  C   UNL A   1      45.840  29.156  27.622  1.00  0.00     0.031 A 
ATOM     45  C   UNL A   1      39.695  31.524  29.989  1.00  0.00     0.031 A 
ATOM     46  C   UNL A   1      45.887  30.440  28.276  1.00  0.00     0.049 A 
ATOM     47  C   UNL A   1      40.957  32.318  30.154  1.00  0.00     0.074 A 
ATOM     48  C   UNL A   1      46.974  31.280  28.448  1.00  0.00     0.029 A 
ATOM     49  N   UNL A   1      44.795  31.084  28.839  1.00  0.00    -0.354 N 
ATOM     50  N   UNL A   1      42.172  32.015  29.766  1.00  0.00    -0.248 NA
ATOM     51  C   UNL A   1      40.845  33.603  30.856  1.00  0.00     0.031 C 
ATOM     52  C   UNL A   1      46.551  32.407  29.158  1.00  0.00     0.029 A 
ATOM     53  C   UNL A   1      45.186  32.302  29.370  1.00  0.00     0.049 A 
ATOM     54  H   UNL A   1      43.878  30.726  28.861  1.00  0.00     0.167 HD
ATOM     55  C   UNL A   1      42.969  33.084  30.161  1.00  0.00     0.074 A 
ATOM     56  C   UNL A   1      42.094  34.044  30.802  1.00  0.00     0.031 C 
ATOM     57  C   UNL A   1      44.305  33.249  30.007  1.00  0.00     0.031 A 
BRANCH  44  58
ATOM     58  C   UNL A   1      47.125  28.609  27.050  1.00  0.00    -0.014 A 
ATOM     59  C   UNL A   1      48.196  28.216  27.873  1.00  0.00     0.010 A 
ATOM     60  C   UNL A   1      47.235  28.423  25.658  1.00  0.00     0.010 A 
ATOM     61  C   UNL A   1      49.359  27.674  27.313  1.00  0.00     0.020 A 
ATOM     62  C   UNL A   1      48.382  27.855  25.096  1.00  0.00     0.020 A 
ATOM     63  C   UNL A   1      49.443  27.495  25.928  1.00  0.00     0.054 A 
BRANCH  63  64
ATOM     64  S   UNL A   1      50.951  26.759  25.234  1.00  0.00     0.124 S 
ATOM     65  O   UNL A   1      50.611  26.652  23.818  1.00  0.00    -0.237 OA
ATOM     66  O   UNL A   1      51.970  27.751  25.562  1.00  0.00    -0.237 OA
ATOM     67  O   UNL A   1      51.073  25.486  25.941  1.00  0.00    -0.744 OA
ENDBRANCH  63  64
ENDBRANCH  44  58
BRANCH  45  68
ATOM     68  C   UNL A   1      38.387  32.037  30.490  1.00  0.00    -0.014 A 
ATOM     69  C   UNL A   1      37.989  31.809  31.818  1.00  0.00     0.010 A 
ATOM     70  C   UNL A   1      37.553  32.800  29.650  1.00  0.00     0.010 A 
ATOM     71  C   UNL A   1      36.786  32.337  32.297  1.00  0.00     0.020 A 
ATOM     72  C   UNL A   1      36.369  33.361  30.135  1.00  0.00     0.020 A 
ATOM     73  C   UNL A   1      35.990  33.121  31.456  1.00  0.00     0.054 A 
BRANCH  73  74
ATOM     74  S   UNL A   1      34.475  33.863  32.125  1.00  0.00     0.124 S 
ATOM     75  O   UNL A   1      35.007  34.836  33.073  1.00  0.00    -0.237 OA
ATOM     76  O   UNL A   1      33.844  34.419  30.930  1.00  0.00    -0.237 OA
ATOM     77  O   UNL A   1      33.773  32.728  32.720  1.00  0.00    -0.744 OA
ENDBRANCH  73  74
ENDBRANCH  45  68
BRANCH  57  78
ATOM     78  C   UNL A   1      44.899  34.542  30.496  1.00  0.00    -0.014 A 
ATOM     79  C   UNL A   1      45.569  34.620  31.729  1.00  0.00     0.010 A 
ATOM     80  C   UNL A   1      44.821  35.688  29.683  1.00  0.00     0.010 A 
ATOM     81  C   UNL A   1      46.119  35.830  32.157  1.00  0.00     0.020 A 
ATOM     82  C   UNL A   1      45.395  36.892  30.094  1.00  0.00     0.020 A 
ATOM     83  C   UNL A   1      46.029  36.959  31.336  1.00  0.00     0.054 A 
BRANCH  83  84
ATOM     84  S   UNL A   1      46.778  38.511  31.903  1.00  0.00     0.124 S 
ATOM     85  O   UNL A   1      46.413  38.526  33.316  1.00  0.00    -0.237 OA
ATOM     86  O   UNL A   1      48.196  38.300  31.621  1.00  0.00    -0.237 OA
ATOM     87  O   UNL A   1      46.130  39.530  31.081  1.00  0.00    -0.744 OA
ENDBRANCH  83  84
ENDBRANCH  57  78
ENDBRANCH  31  32
ENDBRANCH  24  26
ENDBRANCH  23  24
ENDBRANCH   1  23
TORSDOF 15
ENDMDL
MODEL 3
REMARK VINA RESULT:     -11.0      1.003      1.596
REMARK SMILES Cc1cc2c(c(C)c1Cl)C=C(C(=O)OCCOC(=O)c1ccc(-c3c4nc(c(-c5ccc(S(=O)(=O)[O-])cc5)c5ccc([nH]5)c(-c5ccc(S(=O)(=O)[O-])cc5)c5nc(c(-c6ccc(S(=O)(=O)[O-])cc6)c6ccc3[nH]6)C=C5)C=C4)cc1)[C@@H](C(F)(F)F)O2
REMARK SMILES IDX 16 1 15 2 14 3 12 4 13 5 11 6 1 7 2 8 3 9 8 10 4 11 6 12
REMARK SMILES IDX 9 13 5 14 85 15 7 16 10 17 80 18 81 19 82 20 83 21 84 22
REMARK SMILES IDX 17 23 18 24 19 25 20 26 21 27 79 28 22 29 78 30 23 31 24 32
REMARK SMILES IDX 25 33 72 34 26 35 77 36 71 37 73 38 27 39 76 40 70 41 69 42
REMARK SMILES IDX 28 44 58 45 39 46 57 47 40 48 43 49 56 50 74 51 41 52 42 53
REMARK SMILES IDX 55 55 75 56 44 57 29 58 30 59 38 60 31 61 37 62 32 63 33 64
REMARK SMILES IDX 34 65 35 66 36 67 59 68 60 69 68 70 61 71 67 72 62 73 63 74
REMARK SMILES IDX 64 75 65 76 66 77 45 78 46 79 54 80 47 81 53 82 48 83 49 84
REMARK SMILES IDX 50 85 51 86 52 87
REMARK H PARENT 73 43 43 54
REMARK Flexibility Score: inf
ROOT
ATOM      1  C   UNL A   1      33.601  28.892  25.553  1.00  0.00     0.275 C 
ENDROOT
BRANCH   1   2
ATOM      2  C   UNL A   1      32.508  27.884  25.191  1.00  0.00     0.275 C 
BRANCH   2   3
ATOM      3  O   UNL A   1      33.042  26.552  25.033  1.00  0.00    -0.459 OA
BRANCH   3   4
ATOM      4  C   UNL A   1      32.272  25.557  25.529  1.00  0.00     0.338 C 
ATOM      5  O   UNL A   1      31.126  25.664  25.940  1.00  0.00    -0.246 OA
BRANCH   4   6
ATOM      6  C   UNL A   1      32.998  24.272  25.520  1.00  0.00     0.087 C 
ATOM      7  C   UNL A   1      37.238  19.427  24.780  1.00  0.00     0.046 C 
ATOM      8  C   UNL A   1      36.545  20.713  25.142  1.00  0.00    -0.028 A 
ATOM      9  C   UNL A   1      35.149  20.752  25.000  1.00  0.00     0.052 A 
ATOM     10  C   UNL A   1      37.221  21.875  25.560  1.00  0.00     0.047 A 
ATOM     11  C   UNL A   1      34.433  21.922  25.242  1.00  0.00     0.128 A 
ATOM     12  C   UNL A   1      36.510  23.069  25.825  1.00  0.00    -0.021 A 
ATOM     13  Cl  UNL A   1      38.950  21.831  25.734  1.00  0.00    -0.084 Cl
ATOM     14  C   UNL A   1      35.102  23.082  25.640  1.00  0.00     0.022 A 
ATOM     15  O   UNL A   1      33.078  21.829  25.074  1.00  0.00    -0.475 OA
ATOM     16  C   UNL A   1      37.218  24.319  26.302  1.00  0.00     0.047 C 
ATOM     17  C   UNL A   1      34.304  24.293  25.807  1.00  0.00     0.027 C 
ATOM     18  C   UNL A   1      32.284  23.045  25.048  1.00  0.00     0.316 C 
BRANCH  18  19
ATOM     19  C   UNL A   1      31.710  23.234  23.634  1.00  0.00     0.430 C 
ATOM     20  F   UNL A   1      32.426  24.146  22.932  1.00  0.00    -0.167 F 
ATOM     21  F   UNL A   1      31.754  22.083  22.918  1.00  0.00    -0.167 F 
ATOM     22  F   UNL A   1      30.426  23.652  23.649  1.00  0.00    -0.167 F 
ENDBRANCH  18  19
ENDBRANCH   4   6
ENDBRANCH   3   4
ENDBRANCH   2   3
ENDBRANCH   1   2
BRANCH   1  23
ATOM     23  O   UNL A   1      34.077  28.667  26.892  1.00  0.00    -0.458 OA
BRANCH  23  24
ATOM     24  C   UNL A   1      34.305  29.790  27.611  1.00  0.00     0.338 C 
ATOM     25  O   UNL A   1      33.492  30.638  27.933  1.00  0.00    -0.246 OA
BRANCH  24  26
ATOM     26  C   UNL A   1      35.705  29.833  28.060  1.00  0.00     0.060 A 
ATOM     27  C   UNL A   1      36.684  30.144  27.127  1.00  0.00     0.016 A 
ATOM     28  C   UNL A   1      36.068  29.360  29.318  1.00  0.00     0.016 A 
ATOM     29  C   UNL A   1      38.011  29.823  27.384  1.00  0.00     0.010 A 
ATOM     30  C   UNL A   1      37.425  29.181  29.623  1.00  0.00     0.010 A 
ATOM     31  C   UNL A   1      38.416  29.353  28.640  1.00  0.00    -0.014 A 
BRANCH  31  32
ATOM     32  C   UNL A   1      39.851  29.015  28.899  1.00  0.00     0.031 A 
ATOM     33  C   UNL A   1      40.769  30.017  29.567  1.00  0.00     0.074 A 
ATOM     34  C   UNL A   1      40.340  27.796  28.581  1.00  0.00     0.049 A 
ATOM     35  N   UNL A   1      42.072  29.993  29.683  1.00  0.00    -0.248 NA
ATOM     36  C   UNL A   1      40.142  31.206  30.168  1.00  0.00     0.031 C 
ATOM     37  C   UNL A   1      39.569  26.689  28.007  1.00  0.00     0.029 A 
ATOM     38  N   UNL A   1      41.603  27.269  28.718  1.00  0.00    -0.354 N 
ATOM     39  C   UNL A   1      42.426  31.186  30.307  1.00  0.00     0.074 A 
ATOM     40  C   UNL A   1      41.199  31.914  30.544  1.00  0.00     0.031 C 
ATOM     41  C   UNL A   1      40.346  25.602  27.919  1.00  0.00     0.029 A 
ATOM     42  C   UNL A   1      41.707  25.966  28.288  1.00  0.00     0.049 A 
ATOM     43  H   UNL A   1      42.362  27.778  29.087  1.00  0.00     0.167 HD
ATOM     44  C   UNL A   1      43.660  31.634  30.647  1.00  0.00     0.031 A 
ATOM     45  C   UNL A   1      42.776  25.160  28.141  1.00  0.00     0.031 A 
ATOM     46  C   UNL A   1      44.873  30.880  30.450  1.00  0.00     0.049 A 
ATOM     47  C   UNL A   1      44.140  25.701  28.452  1.00  0.00     0.074 A 
ATOM     48  C   UNL A   1      46.175  31.253  30.739  1.00  0.00     0.029 A 
ATOM     49  N   UNL A   1      44.932  29.591  29.942  1.00  0.00    -0.354 N 
ATOM     50  N   UNL A   1      44.467  26.879  28.925  1.00  0.00    -0.248 NA
ATOM     51  C   UNL A   1      45.280  24.816  28.184  1.00  0.00     0.031 C 
ATOM     52  C   UNL A   1      47.025  30.210  30.360  1.00  0.00     0.029 A 
ATOM     53  C   UNL A   1      46.248  29.160  29.897  1.00  0.00     0.049 A 
ATOM     54  H   UNL A   1      44.154  29.061  29.653  1.00  0.00     0.167 HD
ATOM     55  C   UNL A   1      45.853  26.871  29.029  1.00  0.00     0.074 A 
ATOM     56  C   UNL A   1      46.298  25.565  28.585  1.00  0.00     0.031 C 
ATOM     57  C   UNL A   1      46.679  27.859  29.452  1.00  0.00     0.031 A 
BRANCH  44  58
ATOM     58  C   UNL A   1      43.780  33.022  31.227  1.00  0.00    -0.014 A 
ATOM     59  C   UNL A   1      43.736  34.171  30.417  1.00  0.00     0.010 A 
ATOM     60  C   UNL A   1      43.870  33.180  32.624  1.00  0.00     0.010 A 
ATOM     61  C   UNL A   1      43.808  35.446  30.990  1.00  0.00     0.020 A 
ATOM     62  C   UNL A   1      43.912  34.451  33.204  1.00  0.00     0.020 A 
ATOM     63  C   UNL A   1      43.894  35.578  32.381  1.00  0.00     0.054 A 
BRANCH  63  64
ATOM     64  S   UNL A   1      43.951  37.245  33.097  1.00  0.00     0.124 S 
ATOM     65  O   UNL A   1      45.230  37.226  33.804  1.00  0.00    -0.237 OA
ATOM     66  O   UNL A   1      43.900  38.101  31.916  1.00  0.00    -0.237 OA
ATOM     67  O   UNL A   1      42.770  37.297  33.954  1.00  0.00    -0.744 OA
ENDBRANCH  63  64
ENDBRANCH  44  58
BRANCH  45  68
ATOM     68  C   UNL A   1      42.593  23.777  27.614  1.00  0.00    -0.014 A 
ATOM     69  C   UNL A   1      42.807  23.495  26.254  1.00  0.00     0.010 A 
ATOM     70  C   UNL A   1      42.250  22.723  28.483  1.00  0.00     0.010 A 
ATOM     71  C   UNL A   1      42.686  22.187  25.775  1.00  0.00     0.020 A 
ATOM     72  C   UNL A   1      42.165  21.410  28.016  1.00  0.00     0.020 A 
ATOM     73  C   UNL A   1      42.378  21.150  26.661  1.00  0.00     0.054 A 
BRANCH  73  74
ATOM     74  S   UNL A   1      42.307  19.451  26.031  1.00  0.00     0.124 S 
ATOM     75  O   UNL A   1      40.898  19.317  25.675  1.00  0.00    -0.237 OA
ATOM     76  O   UNL A   1      43.244  19.492  24.911  1.00  0.00    -0.237 OA
ATOM     77  O   UNL A   1      42.744  18.645  27.169  1.00  0.00    -0.744 OA
ENDBRANCH  73  74
ENDBRANCH  45  68
BRANCH  57  78
ATOM     78  C   UNL A   1      48.150  27.549  29.504  1.00  0.00    -0.014 A 
ATOM     79  C   UNL A   1      49.022  27.962  28.482  1.00  0.00     0.010 A 
ATOM     80  C   UNL A   1      48.673  26.871  30.621  1.00  0.00     0.010 A 
ATOM     81  C   UNL A   1      50.386  27.670  28.558  1.00  0.00     0.020 A 
ATOM     82  C   UNL A   1      50.040  26.603  30.714  1.00  0.00     0.020 A 
ATOM     83  C   UNL A   1      50.886  26.992  29.674  1.00  0.00     0.054 A 
BRANCH  83  84
ATOM     84  S   UNL A   1      52.666  26.652  29.762  1.00  0.00     0.124 S 
ATOM     85  O   UNL A   1      52.754  25.793  30.938  1.00  0.00    -0.237 OA
ATOM     86  O   UNL A   1      52.927  25.996  28.482  1.00  0.00    -0.237 OA
ATOM     87  O   UNL A   1      53.266  27.976  29.911  1.00  0.00    -0.744 OA
ENDBRANCH  83  84
ENDBRANCH  57  78
ENDBRANCH  31  32
ENDBRANCH  24  26
ENDBRANCH  23  24
ENDBRANCH   1  23
TORSDOF 15
ENDMDL
