MODEL 1
REMARK VINA RESULT:      -9.7      0.000      0.000
REMARK SMILES CC(C)(C)c1ccc(CSc2ccnc(C(=O)OCCOC(=O)c3ccc(-c4c5nc(c(-c6ccc(S(=O)(=O)[O-])cc6)c6ccc([nH]6)c(-c6ccc(S(=O)(=O)[O-])cc6)c6nc(c(-c7ccc(S(=O)(=O)[O-])cc7)c7ccc4[nH]7)C=C6)C=C5)cc3)c2)cc1
REMARK SMILES IDX 19 1 18 2 16 3 17 4 15 5 11 6 12 7 84 8 13 9 14 10 10 11
REMARK SMILES IDX 9 12 8 13 5 14 6 15 86 16 7 17 85 18 2 19 1 20 3 21 4 22
REMARK SMILES IDX 20 23 21 24 22 25 23 26 24 27 25 28 83 29 26 30 82 31 27 32
REMARK SMILES IDX 28 33 29 34 76 35 30 36 81 37 75 38 77 39 31 40 80 41 74 42
REMARK SMILES IDX 73 43 32 45 62 46 43 47 61 48 44 49 47 50 60 51 78 52 45 53
REMARK SMILES IDX 46 54 59 56 79 57 48 58 33 59 34 60 42 61 35 62 41 63 36 64
REMARK SMILES IDX 37 65 38 66 39 67 40 68 63 69 64 70 72 71 65 72 71 73 66 74
REMARK SMILES IDX 67 75 68 76 69 77 70 78 49 79 50 80 58 81 51 82 57 83 52 84
REMARK SMILES IDX 53 85 54 86 55 87 56 88
REMARK H PARENT 77 44 47 55
REMARK Flexibility Score: inf
ROOT
ATOM      1  C   UNL A   1      40.870  19.770  26.543  1.00  0.00     0.275 C 
ENDROOT
BRANCH   1   2
ATOM      2  O   UNL A   1      41.640  19.190  25.470  1.00  0.00    -0.457 OA
BRANCH   2   3
ATOM      3  C   UNL A   1      42.747  18.499  25.855  1.00  0.00     0.357 C 
ATOM      4  O   UNL A   1      42.750  17.378  26.340  1.00  0.00    -0.244 OA
BRANCH   3   5
ATOM      5  C   UNL A   1      43.987  19.255  25.495  1.00  0.00     0.149 A 
ATOM      6  C   UNL A   1      45.183  21.200  24.806  1.00  0.00     0.011 A 
ATOM      7  C   UNL A   1      46.321  20.407  24.677  1.00  0.00     0.035 A 
ATOM      8  C   UNL A   1      43.973  20.602  25.172  1.00  0.00     0.051 A 
ATOM      9  C   UNL A   1      46.252  19.086  25.062  1.00  0.00     0.113 A 
ATOM     10  N   UNL A   1      45.123  18.511  25.504  1.00  0.00    -0.249 NA
BRANCH   6  11
ATOM     11  S   UNL A   1      45.215  22.968  24.537  1.00  0.00    -0.121 SA
BRANCH  11  12
ATOM     12  C   UNL A   1      46.610  23.517  25.598  1.00  0.00     0.110 C 
BRANCH  12  13
ATOM     13  C   UNL A   1      46.233  23.936  27.001  1.00  0.00    -0.038 A 
ATOM     14  C   UNL A   1      45.469  24.728  29.636  1.00  0.00    -0.043 A 
ATOM     15  C   UNL A   1      46.678  25.156  29.058  1.00  0.00     0.004 A 
ATOM     16  C   UNL A   1      44.652  23.893  28.860  1.00  0.00     0.004 A 
ATOM     17  C   UNL A   1      47.060  24.759  27.769  1.00  0.00     0.005 A 
ATOM     18  C   UNL A   1      45.032  23.494  27.572  1.00  0.00     0.005 A 
BRANCH  14  19
ATOM     19  C   UNL A   1      45.054  25.206  31.041  1.00  0.00    -0.013 C 
ATOM     20  C   UNL A   1      44.405  24.059  31.850  1.00  0.00     0.016 C 
ATOM     21  C   UNL A   1      44.030  26.364  31.021  1.00  0.00     0.016 C 
ATOM     22  C   UNL A   1      46.311  25.697  31.784  1.00  0.00     0.016 C 
ENDBRANCH  14  19
ENDBRANCH  12  13
ENDBRANCH  11  12
ENDBRANCH   6  11
ENDBRANCH   3   5
ENDBRANCH   2   3
ENDBRANCH   1   2
BRANCH   1  23
ATOM     23  C   UNL A   1      39.843  20.782  26.021  1.00  0.00     0.275 C 
BRANCH  23  24
ATOM     24  O   UNL A   1      39.760  21.951  26.857  1.00  0.00    -0.458 OA
BRANCH  24  25
ATOM     25  C   UNL A   1      38.950  22.933  26.396  1.00  0.00     0.338 C 
ATOM     26  O   UNL A   1      37.948  22.799  25.714  1.00  0.00    -0.246 OA
BRANCH  25  27
ATOM     27  C   UNL A   1      39.397  24.235  26.919  1.00  0.00     0.060 A 
ATOM     28  C   UNL A   1      39.957  25.134  26.016  1.00  0.00     0.016 A 
ATOM     29  C   UNL A   1      39.365  24.539  28.279  1.00  0.00     0.016 A 
ATOM     30  C   UNL A   1      40.524  26.324  26.456  1.00  0.00     0.010 A 
ATOM     31  C   UNL A   1      39.903  25.758  28.722  1.00  0.00     0.010 A 
ATOM     32  C   UNL A   1      40.500  26.653  27.814  1.00  0.00    -0.014 A 
BRANCH  32  33
ATOM     33  C   UNL A   1      41.118  27.925  28.266  1.00  0.00     0.031 A 
ATOM     34  C   UNL A   1      42.600  28.139  28.130  1.00  0.00     0.074 A 
ATOM     35  C   UNL A   1      40.339  28.907  28.762  1.00  0.00     0.049 A 
ATOM     36  N   UNL A   1      43.327  29.153  28.527  1.00  0.00    -0.248 NA
ATOM     37  C   UNL A   1      43.365  27.076  27.460  1.00  0.00     0.031 C 
ATOM     38  C   UNL A   1      38.880  28.845  28.892  1.00  0.00     0.029 A 
ATOM     39  N   UNL A   1      40.662  30.153  29.239  1.00  0.00    -0.354 N 
ATOM     40  C   UNL A   1      44.636  28.837  28.186  1.00  0.00     0.074 A 
ATOM     41  C   UNL A   1      44.606  27.534  27.557  1.00  0.00     0.031 C 
ATOM     42  C   UNL A   1      38.436  30.008  29.396  1.00  0.00     0.029 A 
ATOM     43  C   UNL A   1      39.577  30.873  29.679  1.00  0.00     0.049 A 
ATOM     44  H   UNL A   1      41.583  30.498  29.263  1.00  0.00     0.167 HD
ATOM     45  C   UNL A   1      45.761  29.566  28.383  1.00  0.00     0.031 A 
ATOM     46  C   UNL A   1      39.506  32.081  30.270  1.00  0.00     0.031 A 
ATOM     47  C   UNL A   1      45.786  30.866  28.999  1.00  0.00     0.049 A 
ATOM     48  C   UNL A   1      40.773  32.849  30.522  1.00  0.00     0.074 A 
ATOM     49  C   UNL A   1      46.877  31.683  29.243  1.00  0.00     0.029 A 
ATOM     50  N   UNL A   1      44.668  31.544  29.464  1.00  0.00    -0.354 N 
ATOM     51  N   UNL A   1      42.006  32.524  30.216  1.00  0.00    -0.248 NA
ATOM     52  C   UNL A   1      40.640  34.144  31.203  1.00  0.00     0.031 C 
ATOM     53  C   UNL A   1      46.424  32.837  29.892  1.00  0.00     0.029 A 
ATOM     54  C   UNL A   1      45.044  32.761  30.008  1.00  0.00     0.049 A 
ATOM     55  H   UNL A   1      43.744  31.209  29.415  1.00  0.00     0.167 HD
ATOM     56  C   UNL A   1      42.795  33.582  30.651  1.00  0.00     0.074 A 
ATOM     57  C   UNL A   1      41.898  34.563  31.229  1.00  0.00     0.031 C 
ATOM     58  C   UNL A   1      44.140  33.727  30.577  1.00  0.00     0.031 A 
BRANCH  45  59
ATOM     59  C   UNL A   1      47.069  28.949  27.963  1.00  0.00    -0.014 A 
ATOM     60  C   UNL A   1      47.970  28.430  28.908  1.00  0.00     0.010 A 
ATOM     61  C   UNL A   1      47.385  28.864  26.595  1.00  0.00     0.010 A 
ATOM     62  C   UNL A   1      49.185  27.874  28.495  1.00  0.00     0.020 A 
ATOM     63  C   UNL A   1      48.589  28.289  26.176  1.00  0.00     0.020 A 
ATOM     64  C   UNL A   1      49.489  27.815  27.131  1.00  0.00     0.054 A 
BRANCH  64  65
ATOM     65  S   UNL A   1      51.069  27.084  26.618  1.00  0.00     0.124 S 
ATOM     66  O   UNL A   1      52.017  27.777  27.489  1.00  0.00    -0.237 OA
ATOM     67  O   UNL A   1      50.877  25.665  26.904  1.00  0.00    -0.237 OA
ATOM     68  O   UNL A   1      51.164  27.424  25.201  1.00  0.00    -0.744 OA
ENDBRANCH  64  65
ENDBRANCH  45  59
BRANCH  46  69
ATOM     69  C   UNL A   1      38.184  32.620  30.691  1.00  0.00    -0.014 A 
ATOM     70  C   UNL A   1      37.749  32.492  32.021  1.00  0.00     0.010 A 
ATOM     71  C   UNL A   1      37.365  33.290  29.764  1.00  0.00     0.010 A 
ATOM     72  C   UNL A   1      36.514  33.017  32.413  1.00  0.00     0.020 A 
ATOM     73  C   UNL A   1      36.142  33.838  30.158  1.00  0.00     0.020 A 
ATOM     74  C   UNL A   1      35.718  33.688  31.479  1.00  0.00     0.054 A 
BRANCH  74  75
ATOM     75  S   UNL A   1      34.148  34.417  32.023  1.00  0.00     0.124 S 
ATOM     76  O   UNL A   1      33.603  33.362  32.872  1.00  0.00    -0.237 OA
ATOM     77  O   UNL A   1      34.580  35.627  32.717  1.00  0.00    -0.237 OA
ATOM     78  O   UNL A   1      33.429  34.649  30.771  1.00  0.00    -0.744 OA
ENDBRANCH  74  75
ENDBRANCH  46  69
BRANCH  58  79
ATOM     79  C   UNL A   1      44.727  35.008  31.104  1.00  0.00    -0.014 A 
ATOM     80  C   UNL A   1      44.823  36.152  30.292  1.00  0.00     0.010 A 
ATOM     81  C   UNL A   1      45.131  35.083  32.448  1.00  0.00     0.010 A 
ATOM     82  C   UNL A   1      45.336  37.343  30.811  1.00  0.00     0.020 A 
ATOM     83  C   UNL A   1      45.624  36.279  32.977  1.00  0.00     0.020 A 
ATOM     84  C   UNL A   1      45.734  37.399  32.151  1.00  0.00     0.054 A 
BRANCH  84  85
ATOM     85  S   UNL A   1      46.347  38.971  32.819  1.00  0.00     0.124 S 
ATOM     86  O   UNL A   1      46.221  38.759  34.257  1.00  0.00    -0.237 OA
ATOM     87  O   UNL A   1      47.715  39.027  32.309  1.00  0.00    -0.237 OA
ATOM     88  O   UNL A   1      45.437  39.964  32.252  1.00  0.00    -0.744 OA
ENDBRANCH  84  85
ENDBRANCH  58  79
ENDBRANCH  32  33
ENDBRANCH  25  27
ENDBRANCH  24  25
ENDBRANCH  23  24
ENDBRANCH   1  23
TORSDOF 18
ENDMDL
MODEL 2
REMARK VINA RESULT:      -9.5      4.716      6.975
REMARK SMILES CC(C)(C)c1ccc(CSc2ccnc(C(=O)OCCOC(=O)c3ccc(-c4c5nc(c(-c6ccc(S(=O)(=O)[O-])cc6)c6ccc([nH]6)c(-c6ccc(S(=O)(=O)[O-])cc6)c6nc(c(-c7ccc(S(=O)(=O)[O-])cc7)c7ccc4[nH]7)C=C6)C=C5)cc3)c2)cc1
REMARK SMILES IDX 19 1 18 2 16 3 17 4 15 5 11 6 12 7 84 8 13 9 14 10 10 11
REMARK SMILES IDX 9 12 8 13 5 14 6 15 86 16 7 17 85 18 2 19 1 20 3 21 4 22
REMARK SMILES IDX 20 23 21 24 22 25 23 26 24 27 25 28 83 29 26 30 82 31 27 32
REMARK SMILES IDX 28 33 29 34 76 35 30 36 81 37 75 38 77 39 31 40 80 41 74 42
REMARK SMILES IDX 73 43 32 45 62 46 43 47 61 48 44 49 47 50 60 51 78 52 45 53
REMARK SMILES IDX 46 54 59 56 79 57 48 58 33 59 34 60 42 61 35 62 41 63 36 64
REMARK SMILES IDX 37 65 38 66 39 67 40 68 63 69 64 70 72 71 65 72 71 73 66 74
REMARK SMILES IDX 67 75 68 76 69 77 70 78 49 79 50 80 58 81 51 82 57 83 52 84
REMARK SMILES IDX 53 85 54 86 55 87 56 88
REMARK H PARENT 77 44 47 55
REMARK Flexibility Score: inf
ROOT
ATOM      1  C   UNL A   1      45.497  23.340  26.775  1.00  0.00     0.275 C 
ENDROOT
BRANCH   1   2
ATOM      2  O   UNL A   1      46.076  22.710  25.614  1.00  0.00    -0.457 OA
BRANCH   2   3
ATOM      3  C   UNL A   1      45.205  22.433  24.606  1.00  0.00     0.357 C 
ATOM      4  O   UNL A   1      45.146  23.022  23.538  1.00  0.00    -0.244 OA
BRANCH   3   5
ATOM      5  C   UNL A   1      44.393  21.220  24.935  1.00  0.00     0.149 A 
ATOM      6  C   UNL A   1      42.653  20.054  26.078  1.00  0.00     0.011 A 
ATOM      7  C   UNL A   1      43.161  18.866  25.557  1.00  0.00     0.035 A 
ATOM      8  C   UNL A   1      43.316  21.256  25.805  1.00  0.00     0.051 A 
ATOM      9  C   UNL A   1      44.209  18.931  24.665  1.00  0.00     0.113 A 
ATOM     10  N   UNL A   1      44.803  20.083  24.317  1.00  0.00    -0.249 NA
BRANCH   6  11
ATOM     11  S   UNL A   1      41.169  20.104  27.074  1.00  0.00    -0.121 SA
BRANCH  11  12
ATOM     12  C   UNL A   1      40.722  21.885  27.051  1.00  0.00     0.110 C 
BRANCH  12  13
ATOM     13  C   UNL A   1      39.393  22.213  26.410  1.00  0.00    -0.038 A 
ATOM     14  C   UNL A   1      36.872  22.868  25.239  1.00  0.00    -0.043 A 
ATOM     15  C   UNL A   1      37.441  21.588  25.100  1.00  0.00     0.004 A 
ATOM     16  C   UNL A   1      37.598  23.810  25.980  1.00  0.00     0.004 A 
ATOM     17  C   UNL A   1      38.683  21.269  25.664  1.00  0.00     0.005 A 
ATOM     18  C   UNL A   1      38.841  23.494  26.545  1.00  0.00     0.005 A 
BRANCH  14  19
ATOM     19  C   UNL A   1      35.488  23.184  24.640  1.00  0.00    -0.013 C 
ATOM     20  C   UNL A   1      34.947  24.532  25.170  1.00  0.00     0.016 C 
ATOM     21  C   UNL A   1      34.415  22.120  24.968  1.00  0.00     0.016 C 
ATOM     22  C   UNL A   1      35.623  23.264  23.107  1.00  0.00     0.016 C 
ENDBRANCH  14  19
ENDBRANCH  12  13
ENDBRANCH  11  12
ENDBRANCH   6  11
ENDBRANCH   3   5
ENDBRANCH   2   3
ENDBRANCH   1   2
BRANCH   1  23
ATOM     23  C   UNL A   1      44.776  24.643  26.412  1.00  0.00     0.275 C 
BRANCH  23  24
ATOM     24  O   UNL A   1      43.344  24.488  26.407  1.00  0.00    -0.458 OA
BRANCH  24  25
ATOM     25  C   UNL A   1      42.650  25.555  25.947  1.00  0.00     0.338 C 
ATOM     26  O   UNL A   1      42.334  25.784  24.792  1.00  0.00    -0.246 OA
BRANCH  25  27
ATOM     27  C   UNL A   1      42.226  26.399  27.077  1.00  0.00     0.060 A 
ATOM     28  C   UNL A   1      42.767  27.678  27.165  1.00  0.00     0.016 A 
ATOM     29  C   UNL A   1      41.395  25.920  28.089  1.00  0.00     0.016 A 
ATOM     30  C   UNL A   1      42.522  28.481  28.272  1.00  0.00     0.010 A 
ATOM     31  C   UNL A   1      41.114  26.744  29.191  1.00  0.00     0.010 A 
ATOM     32  C   UNL A   1      41.687  28.025  29.298  1.00  0.00    -0.014 A 
BRANCH  32  33
ATOM     33  C   UNL A   1      41.443  28.893  30.477  1.00  0.00     0.031 A 
ATOM     34  C   UNL A   1      42.356  28.828  31.670  1.00  0.00     0.074 A 
ATOM     35  C   UNL A   1      40.422  29.773  30.458  1.00  0.00     0.049 A 
ATOM     36  N   UNL A   1      42.264  29.458  32.814  1.00  0.00    -0.248 NA
ATOM     37  C   UNL A   1      43.523  27.940  31.564  1.00  0.00     0.031 C 
ATOM     38  C   UNL A   1      39.499  29.974  29.337  1.00  0.00     0.029 A 
ATOM     39  N   UNL A   1      39.994  30.670  31.405  1.00  0.00    -0.354 N 
ATOM     40  C   UNL A   1      43.341  29.020  33.575  1.00  0.00     0.074 A 
ATOM     41  C   UNL A   1      44.068  28.064  32.767  1.00  0.00     0.031 C 
ATOM     42  C   UNL A   1      38.629  30.946  29.655  1.00  0.00     0.029 A 
ATOM     43  C   UNL A   1      38.892  31.395  31.019  1.00  0.00     0.049 A 
ATOM     44  H   UNL A   1      40.435  30.784  32.277  1.00  0.00     0.167 HD
ATOM     45  C   UNL A   1      43.689  29.379  34.834  1.00  0.00     0.031 A 
ATOM     46  C   UNL A   1      38.155  32.299  31.693  1.00  0.00     0.031 A 
ATOM     47  C   UNL A   1      42.970  30.338  35.631  1.00  0.00     0.049 A 
ATOM     48  C   UNL A   1      38.532  32.644  33.106  1.00  0.00     0.074 A 
ATOM     49  C   UNL A   1      43.245  30.768  36.918  1.00  0.00     0.029 A 
ATOM     50  N   UNL A   1      41.837  31.022  35.215  1.00  0.00    -0.354 N 
ATOM     51  N   UNL A   1      39.539  32.201  33.820  1.00  0.00    -0.248 NA
ATOM     52  C   UNL A   1      37.673  33.609  33.806  1.00  0.00     0.031 C 
ATOM     53  C   UNL A   1      42.254  31.681  37.295  1.00  0.00     0.029 A 
ATOM     54  C   UNL A   1      41.390  31.858  36.225  1.00  0.00     0.049 A 
ATOM     55  H   UNL A   1      41.412  30.927  34.332  1.00  0.00     0.167 HD
ATOM     56  C   UNL A   1      39.444  32.845  35.048  1.00  0.00     0.074 A 
ATOM     57  C   UNL A   1      38.290  33.719  34.975  1.00  0.00     0.031 C 
ATOM     58  C   UNL A   1      40.242  32.723  36.136  1.00  0.00     0.031 A 
BRANCH  45  59
ATOM     59  C   UNL A   1      44.883  28.694  35.445  1.00  0.00    -0.014 A 
ATOM     60  C   UNL A   1      46.174  29.237  35.334  1.00  0.00     0.010 A 
ATOM     61  C   UNL A   1      44.701  27.500  36.166  1.00  0.00     0.010 A 
ATOM     62  C   UNL A   1      47.270  28.575  35.898  1.00  0.00     0.020 A 
ATOM     63  C   UNL A   1      45.790  26.847  36.751  1.00  0.00     0.020 A 
ATOM     64  C   UNL A   1      47.070  27.380  36.596  1.00  0.00     0.054 A 
BRANCH  64  65
ATOM     65  S   UNL A   1      48.506  26.542  37.323  1.00  0.00     0.124 S 
ATOM     66  O   UNL A   1      49.362  27.670  37.683  1.00  0.00    -0.237 OA
ATOM     67  O   UNL A   1      47.921  25.816  38.447  1.00  0.00    -0.237 OA
ATOM     68  O   UNL A   1      49.005  25.704  36.237  1.00  0.00    -0.744 OA
ENDBRANCH  64  65
ENDBRANCH  45  59
BRANCH  46  69
ATOM     69  C   UNL A   1      36.966  32.915  31.043  1.00  0.00    -0.014 A 
ATOM     70  C   UNL A   1      35.667  32.579  31.461  1.00  0.00     0.010 A 
ATOM     71  C   UNL A   1      37.133  33.863  30.016  1.00  0.00     0.010 A 
ATOM     72  C   UNL A   1      34.556  33.176  30.857  1.00  0.00     0.020 A 
ATOM     73  C   UNL A   1      36.026  34.480  29.429  1.00  0.00     0.020 A 
ATOM     74  C   UNL A   1      34.742  34.123  29.846  1.00  0.00     0.054 A 
BRANCH  74  75
ATOM     75  S   UNL A   1      33.289  34.932  29.119  1.00  0.00     0.124 S 
ATOM     76  O   UNL A   1      32.443  35.142  30.289  1.00  0.00    -0.237 OA
ATOM     77  O   UNL A   1      33.859  36.139  28.525  1.00  0.00    -0.237 OA
ATOM     78  O   UNL A   1      32.797  33.948  28.157  1.00  0.00    -0.744 OA
ENDBRANCH  74  75
ENDBRANCH  46  69
BRANCH  58  79
ATOM     79  C   UNL A   1      39.918  33.580  37.330  1.00  0.00    -0.014 A 
ATOM     80  C   UNL A   1      40.265  34.942  37.363  1.00  0.00     0.010 A 
ATOM     81  C   UNL A   1      39.203  33.025  38.406  1.00  0.00     0.010 A 
ATOM     82  C   UNL A   1      39.921  35.729  38.465  1.00  0.00     0.020 A 
ATOM     83  C   UNL A   1      38.839  33.815  39.499  1.00  0.00     0.020 A 
ATOM     84  C   UNL A   1      39.210  35.160  39.527  1.00  0.00     0.054 A 
BRANCH  84  85
ATOM     85  S   UNL A   1      38.727  36.214  40.923  1.00  0.00     0.124 S 
ATOM     86  O   UNL A   1      37.576  35.496  41.460  1.00  0.00    -0.237 OA
ATOM     87  O   UNL A   1      39.922  36.204  41.763  1.00  0.00    -0.237 OA
ATOM     88  O   UNL A   1      38.425  37.499  40.296  1.00  0.00    -0.744 OA
ENDBRANCH  84  85
ENDBRANCH  58  79
ENDBRANCH  32  33
ENDBRANCH  25  27
ENDBRANCH  24  25
ENDBRANCH  23  24
ENDBRANCH   1  23
TORSDOF 18
ENDMDL
MODEL 3
REMARK VINA RESULT:      -9.4      3.044     11.435
REMARK SMILES CC(C)(C)c1ccc(CSc2ccnc(C(=O)OCCOC(=O)c3ccc(-c4c5nc(c(-c6ccc(S(=O)(=O)[O-])cc6)c6ccc([nH]6)c(-c6ccc(S(=O)(=O)[O-])cc6)c6nc(c(-c7ccc(S(=O)(=O)[O-])cc7)c7ccc4[nH]7)C=C6)C=C5)cc3)c2)cc1
REMARK SMILES IDX 19 1 18 2 16 3 17 4 15 5 11 6 12 7 84 8 13 9 14 10 10 11
REMARK SMILES IDX 9 12 8 13 5 14 6 15 86 16 7 17 85 18 2 19 1 20 3 21 4 22
REMARK SMILES IDX 20 23 21 24 22 25 23 26 24 27 25 28 83 29 26 30 82 31 27 32
REMARK SMILES IDX 28 33 29 34 76 35 30 36 81 37 75 38 77 39 31 40 80 41 74 42
REMARK SMILES IDX 73 43 32 45 62 46 43 47 61 48 44 49 47 50 60 51 78 52 45 53
REMARK SMILES IDX 46 54 59 56 79 57 48 58 33 59 34 60 42 61 35 62 41 63 36 64
REMARK SMILES IDX 37 65 38 66 39 67 40 68 63 69 64 70 72 71 65 72 71 73 66 74
REMARK SMILES IDX 67 75 68 76 69 77 70 78 49 79 50 80 58 81 51 82 57 83 52 84
REMARK SMILES IDX 53 85 54 86 55 87 56 88
REMARK H PARENT 77 44 47 55
REMARK Flexibility Score: inf
ROOT
ATOM      1  C   UNL A   1      33.668  34.017  28.930  1.00  0.00     0.275 C 
ENDROOT
BRANCH   1   2
ATOM      2  O   UNL A   1      34.791  34.533  29.673  1.00  0.00    -0.457 OA
BRANCH   2   3
ATOM      3  C   UNL A   1      34.916  34.059  30.943  1.00  0.00     0.357 C 
ATOM      4  O   UNL A   1      34.026  33.538  31.596  1.00  0.00    -0.244 OA
BRANCH   3   5
ATOM      5  C   UNL A   1      36.338  34.156  31.399  1.00  0.00     0.149 A 
ATOM      6  C   UNL A   1      38.049  34.298  33.055  1.00  0.00     0.011 A 
ATOM      7  C   UNL A   1      38.965  34.534  32.033  1.00  0.00     0.035 A 
ATOM      8  C   UNL A   1      36.694  34.158  32.738  1.00  0.00     0.051 A 
ATOM      9  C   UNL A   1      38.527  34.470  30.728  1.00  0.00     0.113 A 
ATOM     10  N   UNL A   1      37.247  34.246  30.395  1.00  0.00    -0.249 NA
BRANCH   6  11
ATOM     11  S   UNL A   1      38.546  34.148  34.767  1.00  0.00    -0.121 SA
BRANCH  11  12
ATOM     12  C   UNL A   1      38.098  32.414  35.171  1.00  0.00     0.110 C 
BRANCH  12  13
ATOM     13  C   UNL A   1      39.217  31.406  35.037  1.00  0.00    -0.038 A 
ATOM     14  C   UNL A   1      41.295  29.466  34.764  1.00  0.00    -0.043 A 
ATOM     15  C   UNL A   1      41.329  30.449  35.771  1.00  0.00     0.004 A 
ATOM     16  C   UNL A   1      40.193  29.481  33.898  1.00  0.00     0.004 A 
ATOM     17  C   UNL A   1      40.316  31.409  35.898  1.00  0.00     0.005 A 
ATOM     18  C   UNL A   1      39.179  30.439  34.023  1.00  0.00     0.005 A 
BRANCH  14  19
ATOM     19  C   UNL A   1      42.403  28.400  34.665  1.00  0.00    -0.013 C 
ATOM     20  C   UNL A   1      42.428  27.751  33.262  1.00  0.00     0.016 C 
ATOM     21  C   UNL A   1      42.240  27.245  35.681  1.00  0.00     0.016 C 
ATOM     22  C   UNL A   1      43.762  29.076  34.931  1.00  0.00     0.016 C 
ENDBRANCH  14  19
ENDBRANCH  12  13
ENDBRANCH  11  12
ENDBRANCH   6  11
ENDBRANCH   3   5
ENDBRANCH   2   3
ENDBRANCH   1   2
BRANCH   1  23
ATOM     23  C   UNL A   1      34.083  32.871  28.000  1.00  0.00     0.275 C 
BRANCH  23  24
ATOM     24  O   UNL A   1      34.216  31.622  28.703  1.00  0.00    -0.458 OA
BRANCH  24  25
ATOM     25  C   UNL A   1      34.460  30.543  27.922  1.00  0.00     0.338 C 
ATOM     26  O   UNL A   1      33.723  30.068  27.075  1.00  0.00    -0.246 OA
BRANCH  25  27
ATOM     27  C   UNL A   1      35.824  30.047  28.169  1.00  0.00     0.060 A 
ATOM     28  C   UNL A   1      36.126  29.605  29.454  1.00  0.00     0.016 A 
ATOM     29  C   UNL A   1      36.821  30.102  27.197  1.00  0.00     0.016 A 
ATOM     30  C   UNL A   1      37.425  29.251  29.798  1.00  0.00     0.010 A 
ATOM     31  C   UNL A   1      38.127  29.709  27.531  1.00  0.00     0.010 A 
ATOM     32  C   UNL A   1      38.441  29.294  28.838  1.00  0.00    -0.014 A 
BRANCH  32  33
ATOM     33  C   UNL A   1      39.824  28.919  29.226  1.00  0.00     0.031 A 
ATOM     34  C   UNL A   1      40.671  29.867  30.030  1.00  0.00     0.074 A 
ATOM     35  C   UNL A   1      40.307  27.705  28.892  1.00  0.00     0.049 A 
ATOM     36  N   UNL A   1      41.919  29.744  30.404  1.00  0.00    -0.248 NA
ATOM     37  C   UNL A   1      40.031  31.117  30.469  1.00  0.00     0.031 C 
ATOM     38  C   UNL A   1      39.565  26.672  28.164  1.00  0.00     0.029 A 
ATOM     39  N   UNL A   1      41.531  27.131  29.128  1.00  0.00    -0.354 N 
ATOM     40  C   UNL A   1      42.225  30.911  31.094  1.00  0.00     0.074 A 
ATOM     41  C   UNL A   1      41.034  31.734  31.080  1.00  0.00     0.031 C 
ATOM     42  C   UNL A   1      40.343  25.586  28.031  1.00  0.00     0.029 A 
ATOM     43  C   UNL A   1      41.654  25.864  28.609  1.00  0.00     0.049 A 
ATOM     44  H   UNL A   1      42.252  27.583  29.622  1.00  0.00     0.167 HD
ATOM     45  C   UNL A   1      43.393  31.265  31.683  1.00  0.00     0.031 A 
ATOM     46  C   UNL A   1      42.710  25.028  28.576  1.00  0.00     0.031 A 
ATOM     47  C   UNL A   1      44.571  30.439  31.705  1.00  0.00     0.049 A 
ATOM     48  C   UNL A   1      44.009  25.463  29.192  1.00  0.00     0.074 A 
ATOM     49  C   UNL A   1      45.803  30.711  32.275  1.00  0.00     0.029 A 
ATOM     50  N   UNL A   1      44.664  29.177  31.135  1.00  0.00    -0.354 N 
ATOM     51  N   UNL A   1      44.289  26.581  29.819  1.00  0.00    -0.248 NA
ATOM     52  C   UNL A   1      45.137  24.527  29.094  1.00  0.00     0.031 C 
ATOM     53  C   UNL A   1      46.653  29.630  32.016  1.00  0.00     0.029 A 
ATOM     54  C   UNL A   1      45.937  28.664  31.326  1.00  0.00     0.049 A 
ATOM     55  H   UNL A   1      43.935  28.715  30.664  1.00  0.00     0.167 HD
ATOM     56  C   UNL A   1      45.619  26.475  30.205  1.00  0.00     0.074 A 
ATOM     57  C   UNL A   1      46.085  25.180  29.754  1.00  0.00     0.031 C 
ATOM     58  C   UNL A   1      46.384  27.372  30.874  1.00  0.00     0.031 A 
BRANCH  45  59
ATOM     59  C   UNL A   1      43.464  32.628  32.317  1.00  0.00    -0.014 A 
ATOM     60  C   UNL A   1      43.777  33.771  31.562  1.00  0.00     0.010 A 
ATOM     61  C   UNL A   1      43.185  32.768  33.689  1.00  0.00     0.010 A 
ATOM     62  C   UNL A   1      43.851  35.026  32.175  1.00  0.00     0.020 A 
ATOM     63  C   UNL A   1      43.236  34.023  34.302  1.00  0.00     0.020 A 
ATOM     64  C   UNL A   1      43.587  35.142  33.544  1.00  0.00     0.054 A 
BRANCH  64  65
ATOM     65  S   UNL A   1      43.684  36.780  34.318  1.00  0.00     0.124 S 
ATOM     66  O   UNL A   1      44.499  36.506  35.499  1.00  0.00    -0.237 OA
ATOM     67  O   UNL A   1      44.327  37.588  33.285  1.00  0.00    -0.237 OA
ATOM     68  O   UNL A   1      42.289  37.118  34.589  1.00  0.00    -0.744 OA
ENDBRANCH  64  65
ENDBRANCH  45  59
BRANCH  46  69
ATOM     69  C   UNL A   1      42.583  23.706  27.904  1.00  0.00    -0.014 A 
ATOM     70  C   UNL A   1      42.951  23.549  26.556  1.00  0.00     0.010 A 
ATOM     71  C   UNL A   1      42.115  22.589  28.621  1.00  0.00     0.010 A 
ATOM     72  C   UNL A   1      42.846  22.300  25.937  1.00  0.00     0.020 A 
ATOM     73  C   UNL A   1      42.033  21.334  28.013  1.00  0.00     0.020 A 
ATOM     74  C   UNL A   1      42.389  21.200  26.670  1.00  0.00     0.054 A 
BRANCH  74  75
ATOM     75  S   UNL A   1      42.320  19.574  25.866  1.00  0.00     0.124 S 
ATOM     76  O   UNL A   1      40.930  19.514  25.424  1.00  0.00    -0.237 OA
ATOM     77  O   UNL A   1      43.316  19.699  24.805  1.00  0.00    -0.237 OA
ATOM     78  O   UNL A   1      42.678  18.648  26.939  1.00  0.00    -0.744 OA
ENDBRANCH  74  75
ENDBRANCH  46  69
BRANCH  58  79
ATOM     79  C   UNL A   1      47.799  26.971  31.191  1.00  0.00    -0.014 A 
ATOM     80  C   UNL A   1      48.101  26.215  32.337  1.00  0.00     0.010 A 
ATOM     81  C   UNL A   1      48.831  27.306  30.297  1.00  0.00     0.010 A 
ATOM     82  C   UNL A   1      49.417  25.821  32.594  1.00  0.00     0.020 A 
ATOM     83  C   UNL A   1      50.144  26.895  30.539  1.00  0.00     0.020 A 
ATOM     84  C   UNL A   1      50.430  26.164  31.693  1.00  0.00     0.054 A 
BRANCH  84  85
ATOM     85  S   UNL A   1      52.122  25.595  32.019  1.00  0.00     0.124 S 
ATOM     86  O   UNL A   1      51.923  24.170  32.258  1.00  0.00    -0.237 OA
ATOM     87  O   UNL A   1      52.820  25.933  30.781  1.00  0.00    -0.237 OA
ATOM     88  O   UNL A   1      52.529  26.373  33.187  1.00  0.00    -0.744 OA
ENDBRANCH  84  85
ENDBRANCH  58  79
ENDBRANCH  32  33
ENDBRANCH  25  27
ENDBRANCH  24  25
ENDBRANCH  23  24
ENDBRANCH   1  23
TORSDOF 18
ENDMDL
