MODEL 1
REMARK VINA RESULT:     -11.6      0.000      0.000
REMARK SMILES O=C1N=C(O)/C(=C\c2cc(Cl)c(OCC(=O)OCCOC(=O)c3ccc(-c4c5nc(c(-c6ccc(S(=O)(=O)[O-])cc6)c6ccc([nH]6)c(-c6ccc(S(=O)(=O)[O-])cc6)c6nc(c(-c7ccc(S(=O)(=O)[O-])cc7)c7ccc4[nH]7)C=C6)C=C5)cc3)c(Cl)c2)C(=O)N1
REMARK SMILES IDX 18 1 17 2 15 3 16 4 14 5 13 6 12 7 8 8 9 9 85 10 10 11 83 12
REMARK SMILES IDX 11 13 84 14 7 15 1 16 2 17 3 18 88 19 4 20 86 21 6 23 87 24
REMARK SMILES IDX 5 25 19 27 20 28 21 29 22 30 23 31 24 32 82 33 25 34 81 35
REMARK SMILES IDX 26 36 27 37 28 38 75 39 29 40 80 41 74 42 76 43 30 44 79 45
REMARK SMILES IDX 73 46 72 47 31 49 61 50 42 51 60 52 43 53 46 54 59 55 77 56
REMARK SMILES IDX 44 57 45 58 58 60 78 61 47 62 32 63 33 64 41 65 34 66 40 67
REMARK SMILES IDX 35 68 36 69 37 70 38 71 39 72 62 73 63 74 71 75 64 76 70 77
REMARK SMILES IDX 65 78 66 79 67 80 68 81 69 82 48 83 49 84 57 85 50 86 56 87
REMARK SMILES IDX 51 88 52 89 53 90 54 91 55 92
REMARK H PARENT 88 22 5 26 76 48 46 59
REMARK Flexibility Score: inf
ROOT
ATOM      1  C   UNL A   1      35.889  21.977  26.085  1.00  0.00     0.274 C 
ENDROOT
BRANCH   1   2
ATOM      2  O   UNL A   1      35.327  23.114  25.385  1.00  0.00    -0.460 OA
BRANCH   2   3
ATOM      3  C   UNL A   1      34.301  22.825  24.543  1.00  0.00     0.344 C 
ATOM      4  O   UNL A   1      33.531  21.882  24.710  1.00  0.00    -0.248 OA
BRANCH   3   5
ATOM      5  C   UNL A   1      34.187  23.736  23.306  1.00  0.00     0.352 C 
BRANCH   5   6
ATOM      6  O   UNL A   1      34.223  25.150  23.282  1.00  0.00    -0.479 OA
BRANCH   6   7
ATOM      7  C   UNL A   1      33.065  25.864  23.118  1.00  0.00     0.157 A 
ATOM      8  C   UNL A   1      30.603  27.279  23.138  1.00  0.00    -0.021 A 
ATOM      9  C   UNL A   1      30.987  26.533  22.021  1.00  0.00     0.032 A 
ATOM     10  C   UNL A   1      31.528  27.454  24.168  1.00  0.00     0.032 A 
ATOM     11  C   UNL A   1      32.241  25.894  21.988  1.00  0.00     0.085 A 
ATOM     12  C   UNL A   1      32.735  26.744  24.161  1.00  0.00     0.085 A 
ATOM     13  Cl  UNL A   1      32.791  25.390  20.428  1.00  0.00    -0.080 Cl
ATOM     14  Cl  UNL A   1      33.839  27.035  25.466  1.00  0.00    -0.080 Cl
BRANCH   8  15
ATOM     15  C   UNL A   1      29.279  27.911  23.214  1.00  0.00     0.027 C 
ATOM     16  O   UNL A   1      27.745  32.779  21.466  1.00  0.00    -0.246 OA
ATOM     17  C   UNL A   1      28.145  31.677  21.835  1.00  0.00     0.351 C 
ATOM     18  N   UNL A   1      29.428  31.266  21.612  1.00  0.00    -0.157 NA
ATOM     19  N   UNL A   1      27.270  30.827  22.458  1.00  0.00    -0.272 N 
ATOM     20  C   UNL A   1      29.754  30.090  22.001  1.00  0.00     0.228 C 
ATOM     21  C   UNL A   1      27.519  29.556  22.894  1.00  0.00     0.264 C 
ATOM     22  H   UNL A   1      26.358  31.170  22.608  1.00  0.00     0.175 HD
ATOM     23  C   UNL A   1      28.922  29.112  22.709  1.00  0.00     0.102 C 
ATOM     24  O   UNL A   1      26.638  28.849  23.367  1.00  0.00    -0.269 OA
BRANCH  20  25
ATOM     25  O   UNL A   1      30.983  29.684  21.712  1.00  0.00    -0.493 OA
ATOM     26  H   UNL A   1      31.314  28.890  22.084  1.00  0.00     0.295 HD
ENDBRANCH  20  25
ENDBRANCH   8  15
ENDBRANCH   6   7
ENDBRANCH   5   6
ENDBRANCH   3   5
ENDBRANCH   2   3
ENDBRANCH   1   2
BRANCH   1  27
ATOM     27  C   UNL A   1      36.963  21.243  25.271  1.00  0.00     0.275 C 
BRANCH  27  28
ATOM     28  O   UNL A   1      38.150  22.039  25.068  1.00  0.00    -0.458 OA
BRANCH  28  29
ATOM     29  C   UNL A   1      39.105  21.798  25.989  1.00  0.00     0.338 C 
ATOM     30  O   UNL A   1      39.678  20.736  26.157  1.00  0.00    -0.246 OA
BRANCH  29  31
ATOM     31  C   UNL A   1      39.507  22.976  26.762  1.00  0.00     0.060 A 
ATOM     32  C   UNL A   1      39.098  24.215  26.286  1.00  0.00     0.016 A 
ATOM     33  C   UNL A   1      40.529  22.889  27.709  1.00  0.00     0.016 A 
ATOM     34  C   UNL A   1      39.777  25.362  26.683  1.00  0.00     0.010 A 
ATOM     35  C   UNL A   1      41.142  24.062  28.180  1.00  0.00     0.010 A 
ATOM     36  C   UNL A   1      40.801  25.315  27.643  1.00  0.00    -0.014 A 
BRANCH  36  37
ATOM     37  C   UNL A   1      41.465  26.587  28.063  1.00  0.00     0.031 A 
ATOM     38  C   UNL A   1      40.694  27.726  28.694  1.00  0.00     0.074 A 
ATOM     39  C   UNL A   1      42.801  26.706  27.908  1.00  0.00     0.049 A 
ATOM     40  N   UNL A   1      41.128  28.907  29.066  1.00  0.00    -0.248 NA
ATOM     41  C   UNL A   1      39.256  27.527  28.932  1.00  0.00     0.031 C 
ATOM     42  C   UNL A   1      43.679  25.683  27.326  1.00  0.00     0.029 A 
ATOM     43  N   UNL A   1      43.664  27.721  28.240  1.00  0.00    -0.354 N 
ATOM     44  C   UNL A   1      40.017  29.607  29.528  1.00  0.00     0.074 A 
ATOM     45  C   UNL A   1      38.883  28.717  29.392  1.00  0.00     0.031 C 
ATOM     46  C   UNL A   1      44.952  26.094  27.404  1.00  0.00     0.029 A 
ATOM     47  C   UNL A   1      44.979  27.449  27.934  1.00  0.00     0.049 A 
ATOM     48  H   UNL A   1      43.371  28.563  28.659  1.00  0.00     0.167 HD
ATOM     49  C   UNL A   1      39.947  30.873  30.010  1.00  0.00     0.031 A 
ATOM     50  C   UNL A   1      46.085  28.209  28.021  1.00  0.00     0.031 A 
ATOM     51  C   UNL A   1      41.084  31.746  30.179  1.00  0.00     0.049 A 
ATOM     52  C   UNL A   1      45.970  29.612  28.540  1.00  0.00     0.074 A 
ATOM     53  C   UNL A   1      41.112  33.025  30.713  1.00  0.00     0.029 A 
ATOM     54  N   UNL A   1      42.389  31.441  29.823  1.00  0.00    -0.354 N 
ATOM     55  N   UNL A   1      44.908  30.243  28.980  1.00  0.00    -0.248 NA
ATOM     56  C   UNL A   1      47.203  30.406  28.569  1.00  0.00     0.031 C 
ATOM     57  C   UNL A   1      42.416  33.521  30.610  1.00  0.00     0.029 A 
ATOM     58  C   UNL A   1      43.219  32.522  30.088  1.00  0.00     0.049 A 
ATOM     59  H   UNL A   1      42.683  30.585  29.437  1.00  0.00     0.167 HD
ATOM     60  C   UNL A   1      45.353  31.504  29.359  1.00  0.00     0.074 A 
ATOM     61  C   UNL A   1      46.782  31.531  29.130  1.00  0.00     0.031 C 
ATOM     62  C   UNL A   1      44.639  32.549  29.846  1.00  0.00     0.031 A 
BRANCH  49  63
ATOM     63  C   UNL A   1      38.589  31.442  30.354  1.00  0.00    -0.014 A 
ATOM     64  C   UNL A   1      38.046  31.348  31.648  1.00  0.00     0.010 A 
ATOM     65  C   UNL A   1      37.895  32.189  29.381  1.00  0.00     0.010 A 
ATOM     66  C   UNL A   1      36.833  31.975  31.955  1.00  0.00     0.020 A 
ATOM     67  C   UNL A   1      36.698  32.840  29.690  1.00  0.00     0.020 A 
ATOM     68  C   UNL A   1      36.169  32.721  30.976  1.00  0.00     0.054 A 
BRANCH  68  69
ATOM     69  S   UNL A   1      34.631  33.577  31.420  1.00  0.00     0.124 S 
ATOM     70  O   UNL A   1      33.994  33.749  30.117  1.00  0.00    -0.237 OA
ATOM     71  O   UNL A   1      33.981  32.623  32.316  1.00  0.00    -0.237 OA
ATOM     72  O   UNL A   1      35.089  34.811  32.054  1.00  0.00    -0.744 OA
ENDBRANCH  68  69
ENDBRANCH  49  63
BRANCH  50  73
ATOM     73  C   UNL A   1      47.394  27.679  27.542  1.00  0.00    -0.014 A 
ATOM     74  C   UNL A   1      48.251  26.977  28.406  1.00  0.00     0.010 A 
ATOM     75  C   UNL A   1      47.794  27.895  26.210  1.00  0.00     0.010 A 
ATOM     76  C   UNL A   1      49.500  26.535  27.957  1.00  0.00     0.020 A 
ATOM     77  C   UNL A   1      49.020  27.417  25.745  1.00  0.00     0.020 A 
ATOM     78  C   UNL A   1      49.876  26.760  26.630  1.00  0.00     0.054 A 
BRANCH  78  79
ATOM     79  S   UNL A   1      51.492  26.165  26.062  1.00  0.00     0.124 S 
ATOM     80  O   UNL A   1      52.405  27.085  26.733  1.00  0.00    -0.237 OA
ATOM     81  O   UNL A   1      51.509  24.788  26.546  1.00  0.00    -0.237 OA
ATOM     82  O   UNL A   1      51.416  26.306  24.610  1.00  0.00    -0.744 OA
ENDBRANCH  78  79
ENDBRANCH  50  73
BRANCH  62  83
ATOM     83  C   UNL A   1      45.411  33.794  30.201  1.00  0.00    -0.014 A 
ATOM     84  C   UNL A   1      45.949  33.984  31.488  1.00  0.00     0.010 A 
ATOM     85  C   UNL A   1      45.585  34.801  29.234  1.00  0.00     0.010 A 
ATOM     86  C   UNL A   1      46.580  35.186  31.820  1.00  0.00     0.020 A 
ATOM     87  C   UNL A   1      46.251  35.988  29.550  1.00  0.00     0.020 A 
ATOM     88  C   UNL A   1      46.719  36.184  30.851  1.00  0.00     0.054 A 
BRANCH  88  89
ATOM     89  S   UNL A   1      47.528  37.741  31.309  1.00  0.00     0.124 S 
ATOM     90  O   UNL A   1      47.105  37.904  32.698  1.00  0.00    -0.237 OA
ATOM     91  O   UNL A   1      48.943  37.437  31.115  1.00  0.00    -0.237 OA
ATOM     92  O   UNL A   1      46.970  38.712  30.371  1.00  0.00    -0.744 OA
ENDBRANCH  88  89
ENDBRANCH  62  83
ENDBRANCH  36  37
ENDBRANCH  29  31
ENDBRANCH  28  29
ENDBRANCH  27  28
ENDBRANCH   1  27
TORSDOF 18
ENDMDL
MODEL 2
REMARK VINA RESULT:     -11.5      1.387      2.197
REMARK SMILES O=C1N=C(O)/C(=C\c2cc(Cl)c(OCC(=O)OCCOC(=O)c3ccc(-c4c5nc(c(-c6ccc(S(=O)(=O)[O-])cc6)c6ccc([nH]6)c(-c6ccc(S(=O)(=O)[O-])cc6)c6nc(c(-c7ccc(S(=O)(=O)[O-])cc7)c7ccc4[nH]7)C=C6)C=C5)cc3)c(Cl)c2)C(=O)N1
REMARK SMILES IDX 18 1 17 2 15 3 16 4 14 5 13 6 12 7 8 8 9 9 85 10 10 11 83 12
REMARK SMILES IDX 11 13 84 14 7 15 1 16 2 17 3 18 88 19 4 20 86 21 6 23 87 24
REMARK SMILES IDX 5 25 19 27 20 28 21 29 22 30 23 31 24 32 82 33 25 34 81 35
REMARK SMILES IDX 26 36 27 37 28 38 75 39 29 40 80 41 74 42 76 43 30 44 79 45
REMARK SMILES IDX 73 46 72 47 31 49 61 50 42 51 60 52 43 53 46 54 59 55 77 56
REMARK SMILES IDX 44 57 45 58 58 60 78 61 47 62 32 63 33 64 41 65 34 66 40 67
REMARK SMILES IDX 35 68 36 69 37 70 38 71 39 72 62 73 63 74 71 75 64 76 70 77
REMARK SMILES IDX 65 78 66 79 67 80 68 81 69 82 48 83 49 84 57 85 50 86 56 87
REMARK SMILES IDX 51 88 52 89 53 90 54 91 55 92
REMARK H PARENT 88 22 5 26 76 48 46 59
REMARK Flexibility Score: inf
ROOT
ATOM      1  C   UNL A   1      36.389  20.135  24.980  1.00  0.00     0.274 C 
ENDROOT
BRANCH   1   2
ATOM      2  O   UNL A   1      35.185  20.870  24.650  1.00  0.00    -0.460 OA
BRANCH   2   3
ATOM      3  C   UNL A   1      34.033  20.338  25.132  1.00  0.00     0.344 C 
ATOM      4  O   UNL A   1      33.613  19.226  24.816  1.00  0.00    -0.248 OA
BRANCH   3   5
ATOM      5  C   UNL A   1      33.231  21.250  26.080  1.00  0.00     0.352 C 
BRANCH   5   6
ATOM      6  O   UNL A   1      33.681  22.440  26.700  1.00  0.00    -0.479 OA
BRANCH   6   7
ATOM      7  C   UNL A   1      33.124  23.644  26.360  1.00  0.00     0.157 A 
ATOM      8  C   UNL A   1      32.294  26.291  25.753  1.00  0.00    -0.021 A 
ATOM      9  C   UNL A   1      31.395  25.370  26.295  1.00  0.00     0.032 A 
ATOM     10  C   UNL A   1      33.552  25.835  25.355  1.00  0.00     0.032 A 
ATOM     11  C   UNL A   1      31.791  24.039  26.527  1.00  0.00     0.085 A 
ATOM     12  C   UNL A   1      33.962  24.534  25.669  1.00  0.00     0.085 A 
ATOM     13  Cl  UNL A   1      30.513  22.900  26.769  1.00  0.00    -0.080 Cl
ATOM     14  Cl  UNL A   1      35.530  24.038  25.121  1.00  0.00    -0.080 Cl
BRANCH   8  15
ATOM     15  C   UNL A   1      31.916  27.696  25.551  1.00  0.00     0.027 C 
ATOM     16  O   UNL A   1      29.571  29.993  21.269  1.00  0.00    -0.246 OA
ATOM     17  C   UNL A   1      30.093  29.417  22.222  1.00  0.00     0.351 C 
ATOM     18  N   UNL A   1      30.309  28.069  22.216  1.00  0.00    -0.157 NA
ATOM     19  N   UNL A   1      30.438  30.145  23.330  1.00  0.00    -0.272 N 
ATOM     20  C   UNL A   1      30.830  27.544  23.261  1.00  0.00     0.228 C 
ATOM     21  C   UNL A   1      30.982  29.674  24.493  1.00  0.00     0.264 C 
ATOM     22  H   UNL A   1      30.274  31.115  23.285  1.00  0.00     0.175 HD
ATOM     23  C   UNL A   1      31.274  28.221  24.484  1.00  0.00     0.102 C 
ATOM     24  O   UNL A   1      31.177  30.402  25.457  1.00  0.00    -0.269 OA
BRANCH  20  25
ATOM     25  O   UNL A   1      30.967  26.224  23.263  1.00  0.00    -0.493 OA
ATOM     26  H   UNL A   1      30.632  25.719  23.978  1.00  0.00     0.295 HD
ENDBRANCH  20  25
ENDBRANCH   8  15
ENDBRANCH   6   7
ENDBRANCH   5   6
ENDBRANCH   3   5
ENDBRANCH   2   3
ENDBRANCH   1   2
BRANCH   1  27
ATOM     27  C   UNL A   1      37.667  20.966  24.798  1.00  0.00     0.275 C 
BRANCH  27  28
ATOM     28  O   UNL A   1      37.942  21.821  25.930  1.00  0.00    -0.458 OA
BRANCH  28  29
ATOM     29  C   UNL A   1      39.259  21.917  26.205  1.00  0.00     0.338 C 
ATOM     30  O   UNL A   1      40.121  21.142  25.829  1.00  0.00    -0.246 OA
BRANCH  29  31
ATOM     31  C   UNL A   1      39.633  23.124  26.945  1.00  0.00     0.060 A 
ATOM     32  C   UNL A   1      39.222  24.342  26.418  1.00  0.00     0.016 A 
ATOM     33  C   UNL A   1      40.636  23.080  27.916  1.00  0.00     0.016 A 
ATOM     34  C   UNL A   1      39.882  25.509  26.790  1.00  0.00     0.010 A 
ATOM     35  C   UNL A   1      41.227  24.274  28.358  1.00  0.00     0.010 A 
ATOM     36  C   UNL A   1      40.886  25.504  27.772  1.00  0.00    -0.014 A 
BRANCH  36  37
ATOM     37  C   UNL A   1      41.528  26.797  28.163  1.00  0.00     0.031 A 
ATOM     38  C   UNL A   1      40.742  27.931  28.784  1.00  0.00     0.074 A 
ATOM     39  C   UNL A   1      42.860  26.940  27.988  1.00  0.00     0.049 A 
ATOM     40  N   UNL A   1      41.156  29.127  29.130  1.00  0.00    -0.248 NA
ATOM     41  C   UNL A   1      39.311  27.707  29.043  1.00  0.00     0.031 C 
ATOM     42  C   UNL A   1      43.751  25.926  27.413  1.00  0.00     0.029 A 
ATOM     43  N   UNL A   1      43.706  27.979  28.292  1.00  0.00    -0.354 N 
ATOM     44  C   UNL A   1      40.036  29.812  29.594  1.00  0.00     0.074 A 
ATOM     45  C   UNL A   1      38.919  28.897  29.488  1.00  0.00     0.031 C 
ATOM     46  C   UNL A   1      45.016  26.364  27.467  1.00  0.00     0.029 A 
ATOM     47  C   UNL A   1      45.022  27.728  27.974  1.00  0.00     0.049 A 
ATOM     48  H   UNL A   1      43.400  28.821  28.700  1.00  0.00     0.167 HD
ATOM     49  C   UNL A   1      39.946  31.085  30.055  1.00  0.00     0.031 A 
ATOM     50  C   UNL A   1      46.113  28.512  28.035  1.00  0.00     0.031 A 
ATOM     51  C   UNL A   1      41.068  31.983  30.195  1.00  0.00     0.049 A 
ATOM     52  C   UNL A   1      45.975  29.921  28.531  1.00  0.00     0.074 A 
ATOM     53  C   UNL A   1      41.075  33.272  30.707  1.00  0.00     0.029 A 
ATOM     54  N   UNL A   1      42.374  31.699  29.828  1.00  0.00    -0.354 N 
ATOM     55  N   UNL A   1      44.906  30.538  28.974  1.00  0.00    -0.248 NA
ATOM     56  C   UNL A   1      47.193  30.741  28.531  1.00  0.00     0.031 C 
ATOM     57  C   UNL A   1      42.367  33.792  30.579  1.00  0.00     0.029 A 
ATOM     58  C   UNL A   1      43.185  32.800  30.063  1.00  0.00     0.049 A 
ATOM     59  H   UNL A   1      42.681  30.842  29.453  1.00  0.00     0.167 HD
ATOM     60  C   UNL A   1      45.330  31.814  29.325  1.00  0.00     0.074 A 
ATOM     61  C   UNL A   1      46.756  31.866  29.078  1.00  0.00     0.031 C 
ATOM     62  C   UNL A   1      44.600  32.853  29.803  1.00  0.00     0.031 A 
BRANCH  49  63
ATOM     63  C   UNL A   1      38.582  31.631  30.407  1.00  0.00    -0.014 A 
ATOM     64  C   UNL A   1      38.054  31.543  31.708  1.00  0.00     0.010 A 
ATOM     65  C   UNL A   1      37.863  32.353  29.432  1.00  0.00     0.010 A 
ATOM     66  C   UNL A   1      36.832  32.150  32.020  1.00  0.00     0.020 A 
ATOM     67  C   UNL A   1      36.657  32.984  29.746  1.00  0.00     0.020 A 
ATOM     68  C   UNL A   1      36.144  32.872  31.039  1.00  0.00     0.054 A 
BRANCH  68  69
ATOM     69  S   UNL A   1      34.594  33.703  31.489  1.00  0.00     0.124 S 
ATOM     70  O   UNL A   1      33.968  32.719  32.368  1.00  0.00    -0.237 OA
ATOM     71  O   UNL A   1      35.063  34.922  32.144  1.00  0.00    -0.237 OA
ATOM     72  O   UNL A   1      33.923  33.907  30.208  1.00  0.00    -0.744 OA
ENDBRANCH  68  69
ENDBRANCH  49  63
BRANCH  50  73
ATOM     73  C   UNL A   1      47.427  28.000  27.548  1.00  0.00    -0.014 A 
ATOM     74  C   UNL A   1      47.841  28.215  26.223  1.00  0.00     0.010 A 
ATOM     75  C   UNL A   1      48.263  27.274  28.417  1.00  0.00     0.010 A 
ATOM     76  C   UNL A   1      49.050  27.680  25.765  1.00  0.00     0.020 A 
ATOM     77  C   UNL A   1      49.491  26.777  27.977  1.00  0.00     0.020 A 
ATOM     78  C   UNL A   1      49.866  26.964  26.646  1.00  0.00     0.054 A 
BRANCH  78  79
ATOM     79  S   UNL A   1      51.437  26.292  26.039  1.00  0.00     0.124 S 
ATOM     80  O   UNL A   1      51.432  24.949  26.610  1.00  0.00    -0.237 OA
ATOM     81  O   UNL A   1      51.272  26.366  24.590  1.00  0.00    -0.237 OA
ATOM     82  O   UNL A   1      52.434  27.205  26.593  1.00  0.00    -0.744 OA
ENDBRANCH  78  79
ENDBRANCH  50  73
BRANCH  62  83
ATOM     83  C   UNL A   1      45.351  34.119  30.128  1.00  0.00    -0.014 A 
ATOM     84  C   UNL A   1      45.802  34.394  31.432  1.00  0.00     0.010 A 
ATOM     85  C   UNL A   1      45.593  35.060  29.110  1.00  0.00     0.010 A 
ATOM     86  C   UNL A   1      46.413  35.615  31.727  1.00  0.00     0.020 A 
ATOM     87  C   UNL A   1      46.240  36.266  29.392  1.00  0.00     0.020 A 
ATOM     88  C   UNL A   1      46.621  36.547  30.706  1.00  0.00     0.054 A 
BRANCH  88  89
ATOM     89  S   UNL A   1      47.402  38.132  31.116  1.00  0.00     0.124 S 
ATOM     90  O   UNL A   1      46.908  38.998  30.048  1.00  0.00    -0.237 OA
ATOM     91  O   UNL A   1      46.876  38.414  32.449  1.00  0.00    -0.237 OA
ATOM     92  O   UNL A   1      48.833  37.837  31.065  1.00  0.00    -0.744 OA
ENDBRANCH  88  89
ENDBRANCH  62  83
ENDBRANCH  36  37
ENDBRANCH  29  31
ENDBRANCH  28  29
ENDBRANCH  27  28
ENDBRANCH   1  27
TORSDOF 18
ENDMDL
MODEL 3
REMARK VINA RESULT:     -11.5      0.485      8.112
REMARK SMILES O=C1N=C(O)/C(=C\c2cc(Cl)c(OCC(=O)OCCOC(=O)c3ccc(-c4c5nc(c(-c6ccc(S(=O)(=O)[O-])cc6)c6ccc([nH]6)c(-c6ccc(S(=O)(=O)[O-])cc6)c6nc(c(-c7ccc(S(=O)(=O)[O-])cc7)c7ccc4[nH]7)C=C6)C=C5)cc3)c(Cl)c2)C(=O)N1
REMARK SMILES IDX 18 1 17 2 15 3 16 4 14 5 13 6 12 7 8 8 9 9 85 10 10 11 83 12
REMARK SMILES IDX 11 13 84 14 7 15 1 16 2 17 3 18 88 19 4 20 86 21 6 23 87 24
REMARK SMILES IDX 5 25 19 27 20 28 21 29 22 30 23 31 24 32 82 33 25 34 81 35
REMARK SMILES IDX 26 36 27 37 28 38 75 39 29 40 80 41 74 42 76 43 30 44 79 45
REMARK SMILES IDX 73 46 72 47 31 49 61 50 42 51 60 52 43 53 46 54 59 55 77 56
REMARK SMILES IDX 44 57 45 58 58 60 78 61 47 62 32 63 33 64 41 65 34 66 40 67
REMARK SMILES IDX 35 68 36 69 37 70 38 71 39 72 62 73 63 74 71 75 64 76 70 77
REMARK SMILES IDX 65 78 66 79 67 80 68 81 69 82 48 83 49 84 57 85 50 86 56 87
REMARK SMILES IDX 51 88 52 89 53 90 54 91 55 92
REMARK H PARENT 88 22 5 26 76 48 46 59
REMARK Flexibility Score: inf
ROOT
ATOM      1  C   UNL A   1      35.819  22.140  26.055  1.00  0.00     0.274 C 
ENDROOT
BRANCH   1   2
ATOM      2  O   UNL A   1      35.409  23.281  25.261  1.00  0.00    -0.460 OA
BRANCH   2   3
ATOM      3  C   UNL A   1      34.232  23.132  24.601  1.00  0.00     0.344 C 
ATOM      4  O   UNL A   1      33.254  22.558  25.076  1.00  0.00    -0.248 OA
BRANCH   3   5
ATOM      5  C   UNL A   1      34.206  23.691  23.165  1.00  0.00     0.352 C 
BRANCH   5   6
ATOM      6  O   UNL A   1      34.245  25.051  22.779  1.00  0.00    -0.479 OA
BRANCH   6   7
ATOM      7  C   UNL A   1      33.085  25.778  22.709  1.00  0.00     0.157 A 
ATOM      8  C   UNL A   1      30.634  27.196  22.919  1.00  0.00    -0.021 A 
ATOM      9  C   UNL A   1      30.970  26.527  21.740  1.00  0.00     0.032 A 
ATOM     10  C   UNL A   1      31.599  27.299  23.922  1.00  0.00     0.032 A 
ATOM     11  C   UNL A   1      32.219  25.887  21.615  1.00  0.00     0.085 A 
ATOM     12  C   UNL A   1      32.800  26.587  23.820  1.00  0.00     0.085 A 
ATOM     13  Cl  UNL A   1      32.706  25.488  20.005  1.00  0.00    -0.080 Cl
ATOM     14  Cl  UNL A   1      33.955  26.785  25.098  1.00  0.00    -0.080 Cl
BRANCH   8  15
ATOM     15  C   UNL A   1      29.318  27.826  23.088  1.00  0.00     0.027 C 
ATOM     16  O   UNL A   1      27.714  32.767  21.631  1.00  0.00    -0.246 OA
ATOM     17  C   UNL A   1      28.128  31.649  21.931  1.00  0.00     0.351 C 
ATOM     18  N   UNL A   1      29.397  31.247  21.627  1.00  0.00    -0.157 NA
ATOM     19  N   UNL A   1      27.282  30.774  22.560  1.00  0.00    -0.272 N 
ATOM     20  C   UNL A   1      29.738  30.055  21.948  1.00  0.00     0.228 C 
ATOM     21  C   UNL A   1      27.549  29.485  22.928  1.00  0.00     0.264 C 
ATOM     22  H   UNL A   1      26.381  31.112  22.771  1.00  0.00     0.175 HD
ATOM     23  C   UNL A   1      28.939  29.048  22.654  1.00  0.00     0.102 C 
ATOM     24  O   UNL A   1      26.691  28.759  23.413  1.00  0.00    -0.269 OA
BRANCH  20  25
ATOM     25  O   UNL A   1      30.950  29.660  21.581  1.00  0.00    -0.493 OA
ATOM     26  H   UNL A   1      31.092  28.775  21.307  1.00  0.00     0.295 HD
ENDBRANCH  20  25
ENDBRANCH   8  15
ENDBRANCH   6   7
ENDBRANCH   5   6
ENDBRANCH   3   5
ENDBRANCH   2   3
ENDBRANCH   1   2
BRANCH   1  27
ATOM     27  C   UNL A   1      36.982  21.359  25.426  1.00  0.00     0.275 C 
BRANCH  27  28
ATOM     28  O   UNL A   1      38.158  22.174  25.228  1.00  0.00    -0.458 OA
BRANCH  28  29
ATOM     29  C   UNL A   1      39.111  21.950  26.155  1.00  0.00     0.338 C 
ATOM     30  O   UNL A   1      39.654  20.880  26.371  1.00  0.00    -0.246 OA
BRANCH  29  31
ATOM     31  C   UNL A   1      39.552  23.151  26.868  1.00  0.00     0.060 A 
ATOM     32  C   UNL A   1      39.198  24.378  26.320  1.00  0.00     0.016 A 
ATOM     33  C   UNL A   1      40.560  23.076  27.831  1.00  0.00     0.016 A 
ATOM     34  C   UNL A   1      39.918  25.517  26.663  1.00  0.00     0.010 A 
ATOM     35  C   UNL A   1      41.214  24.247  28.245  1.00  0.00     0.010 A 
ATOM     36  C   UNL A   1      40.929  25.482  27.637  1.00  0.00    -0.014 A 
BRANCH  36  37
ATOM     37  C   UNL A   1      41.639  26.748  27.997  1.00  0.00     0.031 A 
ATOM     38  C   UNL A   1      43.105  26.964  27.689  1.00  0.00     0.074 A 
ATOM     39  C   UNL A   1      40.937  27.743  28.582  1.00  0.00     0.049 A 
ATOM     40  N   UNL A   1      43.865  27.992  27.984  1.00  0.00    -0.248 NA
ATOM     41  C   UNL A   1      43.815  25.895  26.970  1.00  0.00     0.031 C 
ATOM     42  C   UNL A   1      39.512  27.683  28.927  1.00  0.00     0.029 A 
ATOM     43  N   UNL A   1      41.312  29.006  28.972  1.00  0.00    -0.354 N 
ATOM     44  C   UNL A   1      45.145  27.675  27.540  1.00  0.00     0.074 A 
ATOM     45  C   UNL A   1      45.062  26.355  26.950  1.00  0.00     0.031 C 
ATOM     46  C   UNL A   1      39.122  28.869  29.412  1.00  0.00     0.029 A 
ATOM     47  C   UNL A   1      40.284  29.740  29.519  1.00  0.00     0.049 A 
ATOM     48  H   UNL A   1      42.227  29.352  28.869  1.00  0.00     0.167 HD
ATOM     49  C   UNL A   1      46.283  28.409  27.623  1.00  0.00     0.031 A 
ATOM     50  C   UNL A   1      40.270  30.958  30.090  1.00  0.00     0.031 A 
ATOM     51  C   UNL A   1      46.356  29.740  28.178  1.00  0.00     0.049 A 
ATOM     52  C   UNL A   1      41.550  31.736  30.184  1.00  0.00     0.074 A 
ATOM     53  C   UNL A   1      47.457  30.579  28.252  1.00  0.00     0.029 A 
ATOM     54  N   UNL A   1      45.299  30.428  28.752  1.00  0.00    -0.354 N 
ATOM     55  N   UNL A   1      42.743  31.416  29.744  1.00  0.00    -0.248 NA
ATOM     56  C   UNL A   1      41.480  33.038  30.856  1.00  0.00     0.031 C 
ATOM     57  C   UNL A   1      47.085  31.740  28.936  1.00  0.00     0.029 A 
ATOM     58  C   UNL A   1      45.732  31.663  29.218  1.00  0.00     0.049 A 
ATOM     59  H   UNL A   1      44.376  30.092  28.821  1.00  0.00     0.167 HD
ATOM     60  C   UNL A   1      43.562  32.491  30.070  1.00  0.00     0.074 A 
ATOM     61  C   UNL A   1      42.720  33.481  30.708  1.00  0.00     0.031 C 
ATOM     62  C   UNL A   1      44.894  32.640  29.864  1.00  0.00     0.031 A 
BRANCH  49  63
ATOM     63  C   UNL A   1      47.579  27.791  27.151  1.00  0.00    -0.014 A 
ATOM     64  C   UNL A   1      48.029  27.920  25.825  1.00  0.00     0.010 A 
ATOM     65  C   UNL A   1      48.419  27.164  28.094  1.00  0.00     0.010 A 
ATOM     66  C   UNL A   1      49.282  27.422  25.450  1.00  0.00     0.020 A 
ATOM     67  C   UNL A   1      49.682  26.690  27.730  1.00  0.00     0.020 A 
ATOM     68  C   UNL A   1      50.103  26.815  26.406  1.00  0.00     0.054 A 
BRANCH  68  69
ATOM     69  S   UNL A   1      51.750  26.236  25.906  1.00  0.00     0.124 S 
ATOM     70  O   UNL A   1      51.711  24.833  26.308  1.00  0.00    -0.237 OA
ATOM     71  O   UNL A   1      51.749  26.477  24.465  1.00  0.00    -0.237 OA
ATOM     72  O   UNL A   1      52.663  27.077  26.675  1.00  0.00    -0.744 OA
ENDBRANCH  68  69
ENDBRANCH  49  63
BRANCH  50  73
ATOM     73  C   UNL A   1      39.008  31.492  30.679  1.00  0.00    -0.014 A 
ATOM     74  C   UNL A   1      38.157  32.324  29.933  1.00  0.00     0.010 A 
ATOM     75  C   UNL A   1      38.666  31.178  32.008  1.00  0.00     0.010 A 
ATOM     76  C   UNL A   1      37.006  32.862  30.517  1.00  0.00     0.020 A 
ATOM     77  C   UNL A   1      37.495  31.677  32.581  1.00  0.00     0.020 A 
ATOM     78  C   UNL A   1      36.684  32.536  31.838  1.00  0.00     0.054 A 
BRANCH  78  79
ATOM     79  S   UNL A   1      35.179  33.231  32.574  1.00  0.00     0.124 S 
ATOM     80  O   UNL A   1      35.348  32.893  33.983  1.00  0.00    -0.237 OA
ATOM     81  O   UNL A   1      35.293  34.649  32.243  1.00  0.00    -0.237 OA
ATOM     82  O   UNL A   1      34.104  32.522  31.884  1.00  0.00    -0.744 OA
ENDBRANCH  78  79
ENDBRANCH  50  73
BRANCH  62  83
ATOM     83  C   UNL A   1      45.508  33.946  30.302  1.00  0.00    -0.014 A 
ATOM     84  C   UNL A   1      45.523  35.071  29.457  1.00  0.00     0.010 A 
ATOM     85  C   UNL A   1      46.098  34.041  31.576  1.00  0.00     0.010 A 
ATOM     86  C   UNL A   1      46.178  36.241  29.849  1.00  0.00     0.020 A 
ATOM     87  C   UNL A   1      46.720  35.222  31.988  1.00  0.00     0.020 A 
ATOM     88  C   UNL A   1      46.781  36.306  31.109  1.00  0.00     0.054 A 
BRANCH  88  89
ATOM     89  S   UNL A   1      47.640  37.829  31.590  1.00  0.00     0.124 S 
ATOM     90  O   UNL A   1      48.898  37.312  32.122  1.00  0.00    -0.237 OA
ATOM     91  O   UNL A   1      47.743  38.552  30.325  1.00  0.00    -0.237 OA
ATOM     92  O   UNL A   1      46.748  38.434  32.577  1.00  0.00    -0.744 OA
ENDBRANCH  88  89
ENDBRANCH  62  83
ENDBRANCH  36  37
ENDBRANCH  29  31
ENDBRANCH  28  29
ENDBRANCH  27  28
ENDBRANCH   1  27
TORSDOF 18
ENDMDL
