MODEL 1
REMARK VINA RESULT:     -10.2      0.000      0.000
REMARK SMILES COc1ccc(C(=O)N(C)CCC(=O)OCCOC(=O)c2ccc(-c3c4nc(c(-c5ccc(S(=O)(=O)[O-])cc5)c5ccc([nH]5)c(-c5ccc(S(=O)(=O)[O-])cc5)c5nc(c(-c6ccc(S(=O)(=O)[O-])cc6)c6ccc3[nH]6)C=C5)C=C4)cc2)cc1O
REMARK SMILES IDX 16 1 15 2 13 3 14 4 12 5 11 6 9 7 10 8 7 9 8 10 6 11 3 12
REMARK SMILES IDX 4 13 82 14 5 15 81 16 2 17 1 18 83 19 17 21 18 22 19 23
REMARK SMILES IDX 20 24 21 25 22 26 80 27 23 28 79 29 24 30 25 31 26 32 73 33
REMARK SMILES IDX 27 34 78 35 72 36 74 37 28 38 77 39 71 40 70 41 29 43 59 44
REMARK SMILES IDX 40 45 58 46 41 47 44 48 57 49 75 50 42 51 43 52 56 54 76 55
REMARK SMILES IDX 45 56 30 57 31 58 39 59 32 60 38 61 33 62 34 63 35 64 36 65
REMARK SMILES IDX 37 66 60 67 61 68 69 69 62 70 68 71 63 72 64 73 65 74 66 75
REMARK SMILES IDX 67 76 46 77 47 78 55 79 48 80 54 81 49 82 50 83 51 84 52 85
REMARK SMILES IDX 53 86
REMARK H PARENT 83 20 74 42 44 53
REMARK Flexibility Score: inf
ROOT
ATOM      1  C   UNL A   1      38.284  22.097  26.014  1.00  0.00     0.274 C 
ENDROOT
BRANCH   1   2
ATOM      2  O   UNL A   1      37.443  23.156  25.519  1.00  0.00    -0.462 OA
BRANCH   2   3
ATOM      3  C   UNL A   1      36.111  22.900  25.475  1.00  0.00     0.307 C 
ATOM      4  O   UNL A   1      35.407  22.651  26.444  1.00  0.00    -0.252 OA
BRANCH   3   5
ATOM      5  C   UNL A   1      35.584  22.903  24.062  1.00  0.00     0.144 C 
BRANCH   5   6
ATOM      6  C   UNL A   1      34.339  23.774  23.887  1.00  0.00     0.131 C 
BRANCH   6   7
ATOM      7  N   UNL A   1      33.265  23.068  23.172  1.00  0.00    -0.341 N 
ATOM      8  C   UNL A   1      33.218  23.253  21.733  1.00  0.00     0.147 C 
BRANCH   7   9
ATOM      9  C   UNL A   1      32.407  22.279  23.940  1.00  0.00     0.253 C 
ATOM     10  O   UNL A   1      31.478  22.806  24.559  1.00  0.00    -0.269 OA
BRANCH   9  11
ATOM     11  C   UNL A   1      32.448  20.780  23.973  1.00  0.00     0.043 A 
ATOM     12  C   UNL A   1      32.659  17.959  24.336  1.00  0.00     0.160 A 
ATOM     13  C   UNL A   1      32.900  18.833  25.394  1.00  0.00     0.051 A 
ATOM     14  C   UNL A   1      32.291  18.512  23.108  1.00  0.00     0.158 A 
ATOM     15  C   UNL A   1      32.809  20.216  25.213  1.00  0.00     0.018 A 
ATOM     16  C   UNL A   1      32.155  19.900  22.934  1.00  0.00     0.064 A 
BRANCH  12  17
ATOM     17  O   UNL A   1      32.830  16.649  24.676  1.00  0.00    -0.493 OA
ATOM     18  C   UNL A   1      34.140  16.172  24.931  1.00  0.00     0.278 C 
ENDBRANCH  12  17
BRANCH  14  19
ATOM     19  O   UNL A   1      32.075  17.758  21.989  1.00  0.00    -0.504 OA
ATOM     20  H   UNL A   1      32.575  17.918  21.213  1.00  0.00     0.293 HD
ENDBRANCH  14  19
ENDBRANCH   9  11
ENDBRANCH   7   9
ENDBRANCH   6   7
ENDBRANCH   5   6
ENDBRANCH   3   5
ENDBRANCH   2   3
ENDBRANCH   1   2
BRANCH   1  21
ATOM     21  C   UNL A   1      39.626  22.651  26.494  1.00  0.00     0.275 C 
BRANCH  21  22
ATOM     22  O   UNL A   1      39.510  24.074  26.659  1.00  0.00    -0.458 OA
BRANCH  22  23
ATOM     23  C   UNL A   1      40.653  24.782  26.580  1.00  0.00     0.338 C 
ATOM     24  O   UNL A   1      41.634  24.564  25.885  1.00  0.00    -0.246 OA
BRANCH  23  25
ATOM     25  C   UNL A   1      40.586  25.871  27.558  1.00  0.00     0.060 A 
ATOM     26  C   UNL A   1      41.493  26.935  27.506  1.00  0.00     0.016 A 
ATOM     27  C   UNL A   1      39.629  25.793  28.571  1.00  0.00     0.016 A 
ATOM     28  C   UNL A   1      41.455  27.920  28.493  1.00  0.00     0.010 A 
ATOM     29  C   UNL A   1      39.572  26.797  29.535  1.00  0.00     0.010 A 
ATOM     30  C   UNL A   1      40.496  27.856  29.513  1.00  0.00    -0.014 A 
BRANCH  30  31
ATOM     31  C   UNL A   1      40.459  28.873  30.590  1.00  0.00     0.031 A 
ATOM     32  C   UNL A   1      41.372  28.737  31.775  1.00  0.00     0.074 A 
ATOM     33  C   UNL A   1      39.575  29.887  30.521  1.00  0.00     0.049 A 
ATOM     34  N   UNL A   1      41.412  29.448  32.873  1.00  0.00    -0.248 NA
ATOM     35  C   UNL A   1      42.367  27.653  31.722  1.00  0.00     0.031 C 
ATOM     36  C   UNL A   1      38.652  30.130  29.412  1.00  0.00     0.029 A 
ATOM     37  N   UNL A   1      39.302  30.893  31.413  1.00  0.00    -0.354 N 
ATOM     38  C   UNL A   1      42.417  28.887  33.650  1.00  0.00     0.074 A 
ATOM     39  C   UNL A   1      42.954  27.767  32.906  1.00  0.00     0.031 C 
ATOM     40  C   UNL A   1      37.911  31.215  29.690  1.00  0.00     0.029 A 
ATOM     41  C   UNL A   1      38.276  31.715  31.012  1.00  0.00     0.049 A 
ATOM     42  H   UNL A   1      39.794  31.015  32.257  1.00  0.00     0.167 HD
ATOM     43  C   UNL A   1      42.853  29.271  34.874  1.00  0.00     0.031 A 
ATOM     44  C   UNL A   1      37.678  32.739  31.652  1.00  0.00     0.031 A 
ATOM     45  C   UNL A   1      42.311  30.381  35.611  1.00  0.00     0.049 A 
ATOM     46  C   UNL A   1      38.152  33.121  33.026  1.00  0.00     0.074 A 
ATOM     47  C   UNL A   1      42.691  30.859  36.853  1.00  0.00     0.029 A 
ATOM     48  N   UNL A   1      41.270  31.186  35.174  1.00  0.00    -0.354 N 
ATOM     49  N   UNL A   1      39.111  32.584  33.744  1.00  0.00    -0.248 NA
ATOM     50  C   UNL A   1      37.466  34.245  33.677  1.00  0.00     0.031 C 
ATOM     51  C   UNL A   1      41.854  31.931  37.183  1.00  0.00     0.029 A 
ATOM     52  C   UNL A   1      40.984  32.148  36.127  1.00  0.00     0.049 A 
ATOM     53  H   UNL A   1      40.804  31.088  34.312  1.00  0.00     0.167 HD
ATOM     54  C   UNL A   1      39.153  33.319  34.924  1.00  0.00     0.074 A 
ATOM     55  C   UNL A   1      38.136  34.344  34.817  1.00  0.00     0.031 C 
ATOM     56  C   UNL A   1      39.963  33.158  36.001  1.00  0.00     0.031 A 
BRANCH  43  57
ATOM     57  C   UNL A   1      43.953  28.458  35.505  1.00  0.00    -0.014 A 
ATOM     58  C   UNL A   1      43.661  27.352  36.321  1.00  0.00     0.010 A 
ATOM     59  C   UNL A   1      45.297  28.789  35.251  1.00  0.00     0.010 A 
ATOM     60  C   UNL A   1      44.695  26.610  36.902  1.00  0.00     0.020 A 
ATOM     61  C   UNL A   1      46.333  28.036  35.812  1.00  0.00     0.020 A 
ATOM     62  C   UNL A   1      46.025  26.961  36.648  1.00  0.00     0.054 A 
BRANCH  62  63
ATOM     63  S   UNL A   1      47.348  25.973  37.399  1.00  0.00     0.124 S 
ATOM     64  O   UNL A   1      47.674  25.040  36.323  1.00  0.00    -0.237 OA
ATOM     65  O   UNL A   1      48.371  26.973  37.694  1.00  0.00    -0.237 OA
ATOM     66  O   UNL A   1      46.710  25.375  38.571  1.00  0.00    -0.744 OA
ENDBRANCH  62  63
ENDBRANCH  43  57
BRANCH  44  67
ATOM     67  C   UNL A   1      36.552  33.460  31.002  1.00  0.00    -0.014 A 
ATOM     68  C   UNL A   1      36.703  34.011  29.718  1.00  0.00     0.010 A 
ATOM     69  C   UNL A   1      35.312  33.578  31.657  1.00  0.00     0.010 A 
ATOM     70  C   UNL A   1      35.639  34.677  29.104  1.00  0.00     0.020 A 
ATOM     71  C   UNL A   1      34.239  34.224  31.037  1.00  0.00     0.020 A 
ATOM     72  C   UNL A   1      34.413  34.778  29.767  1.00  0.00     0.054 A 
BRANCH  72  73
ATOM     73  S   UNL A   1      33.025  35.593  28.929  1.00  0.00     0.124 S 
ATOM     74  O   UNL A   1      33.705  36.611  28.134  1.00  0.00    -0.237 OA
ATOM     75  O   UNL A   1      32.421  34.498  28.173  1.00  0.00    -0.237 OA
ATOM     76  O   UNL A   1      32.211  36.100  30.032  1.00  0.00    -0.744 OA
ENDBRANCH  72  73
ENDBRANCH  44  67
BRANCH  56  77
ATOM     77  C   UNL A   1      39.798  34.131  37.135  1.00  0.00    -0.014 A 
ATOM     78  C   UNL A   1      39.072  33.785  38.288  1.00  0.00     0.010 A 
ATOM     79  C   UNL A   1      40.415  35.394  37.061  1.00  0.00     0.010 A 
ATOM     80  C   UNL A   1      38.941  34.698  39.338  1.00  0.00     0.020 A 
ATOM     81  C   UNL A   1      40.304  36.299  38.118  1.00  0.00     0.020 A 
ATOM     82  C   UNL A   1      39.555  35.952  39.244  1.00  0.00     0.054 A 
BRANCH  82  83
ATOM     83  S   UNL A   1      39.405  37.107  40.634  1.00  0.00     0.124 S 
ATOM     84  O   UNL A   1      38.556  36.362  41.558  1.00  0.00    -0.237 OA
ATOM     85  O   UNL A   1      40.792  37.286  41.058  1.00  0.00    -0.237 OA
ATOM     86  O   UNL A   1      38.788  38.289  40.035  1.00  0.00    -0.744 OA
ENDBRANCH  82  83
ENDBRANCH  56  77
ENDBRANCH  30  31
ENDBRANCH  23  25
ENDBRANCH  22  23
ENDBRANCH  21  22
ENDBRANCH   1  21
TORSDOF 20
ENDMDL
MODEL 2
REMARK VINA RESULT:     -10.0      5.096     10.660
REMARK SMILES COc1ccc(C(=O)N(C)CCC(=O)OCCOC(=O)c2ccc(-c3c4nc(c(-c5ccc(S(=O)(=O)[O-])cc5)c5ccc([nH]5)c(-c5ccc(S(=O)(=O)[O-])cc5)c5nc(c(-c6ccc(S(=O)(=O)[O-])cc6)c6ccc3[nH]6)C=C5)C=C4)cc2)cc1O
REMARK SMILES IDX 16 1 15 2 13 3 14 4 12 5 11 6 9 7 10 8 7 9 8 10 6 11 3 12
REMARK SMILES IDX 4 13 82 14 5 15 81 16 2 17 1 18 83 19 17 21 18 22 19 23
REMARK SMILES IDX 20 24 21 25 22 26 80 27 23 28 79 29 24 30 25 31 26 32 73 33
REMARK SMILES IDX 27 34 78 35 72 36 74 37 28 38 77 39 71 40 70 41 29 43 59 44
REMARK SMILES IDX 40 45 58 46 41 47 44 48 57 49 75 50 42 51 43 52 56 54 76 55
REMARK SMILES IDX 45 56 30 57 31 58 39 59 32 60 38 61 33 62 34 63 35 64 36 65
REMARK SMILES IDX 37 66 60 67 61 68 69 69 62 70 68 71 63 72 64 73 65 74 66 75
REMARK SMILES IDX 67 76 46 77 47 78 55 79 48 80 54 81 49 82 50 83 51 84 52 85
REMARK SMILES IDX 53 86
REMARK H PARENT 83 20 74 42 44 53
REMARK Flexibility Score: inf
ROOT
ATOM      1  C   UNL A   1      32.040  29.792  25.667  1.00  0.00     0.274 C 
ENDROOT
BRANCH   1   2
ATOM      2  O   UNL A   1      31.376  28.620  25.158  1.00  0.00    -0.462 OA
BRANCH   2   3
ATOM      3  C   UNL A   1      31.120  28.600  23.826  1.00  0.00     0.307 C 
ATOM      4  O   UNL A   1      30.567  29.493  23.198  1.00  0.00    -0.252 OA
BRANCH   3   5
ATOM      5  C   UNL A   1      31.554  27.303  23.189  1.00  0.00     0.144 C 
BRANCH   5   6
ATOM      6  C   UNL A   1      31.910  26.222  24.209  1.00  0.00     0.131 C 
BRANCH   6   7
ATOM      7  N   UNL A   1      32.110  24.908  23.579  1.00  0.00    -0.341 N 
ATOM      8  C   UNL A   1      30.955  24.030  23.538  1.00  0.00     0.147 C 
BRANCH   7   9
ATOM      9  C   UNL A   1      33.381  24.639  23.070  1.00  0.00     0.253 C 
ATOM     10  O   UNL A   1      33.713  25.101  21.974  1.00  0.00    -0.269 OA
BRANCH   9  11
ATOM     11  C   UNL A   1      34.455  23.917  23.828  1.00  0.00     0.043 A 
ATOM     12  C   UNL A   1      36.600  22.431  24.978  1.00  0.00     0.160 A 
ATOM     13  C   UNL A   1      36.504  22.590  23.597  1.00  0.00     0.051 A 
ATOM     14  C   UNL A   1      35.627  23.041  25.771  1.00  0.00     0.158 A 
ATOM     15  C   UNL A   1      35.446  23.307  23.033  1.00  0.00     0.018 A 
ATOM     16  C   UNL A   1      34.586  23.800  25.210  1.00  0.00     0.064 A 
BRANCH  12  17
ATOM     17  O   UNL A   1      37.669  21.671  25.354  1.00  0.00    -0.493 OA
ATOM     18  C   UNL A   1      38.713  22.277  26.098  1.00  0.00     0.278 C 
ENDBRANCH  12  17
BRANCH  14  19
ATOM     19  O   UNL A   1      35.592  22.915  27.131  1.00  0.00    -0.504 OA
ATOM     20  H   UNL A   1      36.277  22.458  27.578  1.00  0.00     0.293 HD
ENDBRANCH  14  19
ENDBRANCH   9  11
ENDBRANCH   7   9
ENDBRANCH   6   7
ENDBRANCH   5   6
ENDBRANCH   3   5
ENDBRANCH   2   3
ENDBRANCH   1   2
BRANCH   1  21
ATOM     21  C   UNL A   1      32.313  29.653  27.165  1.00  0.00     0.275 C 
BRANCH  21  22
ATOM     22  O   UNL A   1      33.727  29.501  27.368  1.00  0.00    -0.458 OA
BRANCH  22  23
ATOM     23  C   UNL A   1      34.343  30.484  28.054  1.00  0.00     0.338 C 
ATOM     24  O   UNL A   1      33.909  31.586  28.356  1.00  0.00    -0.246 OA
BRANCH  23  25
ATOM     25  C   UNL A   1      35.715  30.055  28.336  1.00  0.00     0.060 A 
ATOM     26  C   UNL A   1      36.100  29.699  29.633  1.00  0.00     0.016 A 
ATOM     27  C   UNL A   1      36.639  30.061  27.290  1.00  0.00     0.016 A 
ATOM     28  C   UNL A   1      37.430  29.366  29.888  1.00  0.00     0.010 A 
ATOM     29  C   UNL A   1      37.959  29.694  27.542  1.00  0.00     0.010 A 
ATOM     30  C   UNL A   1      38.367  29.363  28.845  1.00  0.00    -0.014 A 
BRANCH  30  31
ATOM     31  C   UNL A   1      39.791  29.045  29.101  1.00  0.00     0.031 A 
ATOM     32  C   UNL A   1      40.708  30.109  29.635  1.00  0.00     0.074 A 
ATOM     33  C   UNL A   1      40.265  27.818  28.809  1.00  0.00     0.049 A 
ATOM     34  N   UNL A   1      42.004  30.069  29.813  1.00  0.00    -0.248 NA
ATOM     35  C   UNL A   1      40.086  31.389  30.012  1.00  0.00     0.031 C 
ATOM     36  C   UNL A   1      39.466  26.702  28.303  1.00  0.00     0.029 A 
ATOM     37  N   UNL A   1      41.538  27.313  28.885  1.00  0.00    -0.354 N 
ATOM     38  C   UNL A   1      42.357  31.321  30.300  1.00  0.00     0.074 A 
ATOM     39  C   UNL A   1      41.142  32.105  30.377  1.00  0.00     0.031 C 
ATOM     40  C   UNL A   1      40.268  25.642  28.110  1.00  0.00     0.029 A 
ATOM     41  C   UNL A   1      41.640  26.018  28.436  1.00  0.00     0.049 A 
ATOM     42  H   UNL A   1      42.303  27.828  29.227  1.00  0.00     0.167 HD
ATOM     43  C   UNL A   1      43.584  31.777  30.651  1.00  0.00     0.031 A 
ATOM     44  C   UNL A   1      42.723  25.232  28.279  1.00  0.00     0.031 A 
ATOM     45  C   UNL A   1      44.788  30.995  30.566  1.00  0.00     0.049 A 
ATOM     46  C   UNL A   1      44.079  25.773  28.638  1.00  0.00     0.074 A 
ATOM     47  C   UNL A   1      46.079  31.359  30.909  1.00  0.00     0.029 A 
ATOM     48  N   UNL A   1      44.851  29.689  30.103  1.00  0.00    -0.354 N 
ATOM     49  N   UNL A   1      44.394  26.958  29.106  1.00  0.00    -0.248 NA
ATOM     50  C   UNL A   1      45.224  24.873  28.448  1.00  0.00     0.031 C 
ATOM     51  C   UNL A   1      46.927  30.285  30.617  1.00  0.00     0.029 A 
ATOM     52  C   UNL A   1      46.159  29.238  30.136  1.00  0.00     0.049 A 
ATOM     53  H   UNL A   1      44.079  29.160  29.796  1.00  0.00     0.167 HD
ATOM     54  C   UNL A   1      45.773  26.938  29.282  1.00  0.00     0.074 A 
ATOM     55  C   UNL A   1      46.228  25.621  28.885  1.00  0.00     0.031 C 
ATOM     56  C   UNL A   1      46.590  27.923  29.733  1.00  0.00     0.031 A 
BRANCH  43  57
ATOM     57  C   UNL A   1      43.684  33.201  31.129  1.00  0.00    -0.014 A 
ATOM     58  C   UNL A   1      44.047  34.238  30.251  1.00  0.00     0.010 A 
ATOM     59  C   UNL A   1      43.380  33.509  32.468  1.00  0.00     0.010 A 
ATOM     60  C   UNL A   1      44.138  35.555  30.713  1.00  0.00     0.020 A 
ATOM     61  C   UNL A   1      43.450  34.828  32.928  1.00  0.00     0.020 A 
ATOM     62  C   UNL A   1      43.845  35.840  32.051  1.00  0.00     0.054 A 
BRANCH  62  63
ATOM     63  S   UNL A   1      43.954  37.559  32.621  1.00  0.00     0.124 S 
ATOM     64  O   UNL A   1      42.938  37.594  33.670  1.00  0.00    -0.237 OA
ATOM     65  O   UNL A   1      45.337  37.659  33.082  1.00  0.00    -0.237 OA
ATOM     66  O   UNL A   1      43.643  38.340  31.425  1.00  0.00    -0.744 OA
ENDBRANCH  62  63
ENDBRANCH  43  57
BRANCH  44  67
ATOM     67  C   UNL A   1      42.565  23.856  27.739  1.00  0.00    -0.014 A 
ATOM     68  C   UNL A   1      42.605  23.625  26.353  1.00  0.00     0.010 A 
ATOM     69  C   UNL A   1      42.397  22.765  28.611  1.00  0.00     0.010 A 
ATOM     70  C   UNL A   1      42.469  22.329  25.848  1.00  0.00     0.020 A 
ATOM     71  C   UNL A   1      42.284  21.466  28.111  1.00  0.00     0.020 A 
ATOM     72  C   UNL A   1      42.310  21.257  26.731  1.00  0.00     0.054 A 
BRANCH  72  73
ATOM     73  S   UNL A   1      42.197  19.575  26.059  1.00  0.00     0.124 S 
ATOM     74  O   UNL A   1      40.782  19.481  25.713  1.00  0.00    -0.237 OA
ATOM     75  O   UNL A   1      43.123  19.619  24.929  1.00  0.00    -0.237 OA
ATOM     76  O   UNL A   1      42.628  18.733  27.173  1.00  0.00    -0.744 OA
ENDBRANCH  72  73
ENDBRANCH  44  67
BRANCH  56  77
ATOM     77  C   UNL A   1      48.054  27.601  29.847  1.00  0.00    -0.014 A 
ATOM     78  C   UNL A   1      48.557  26.890  30.951  1.00  0.00     0.010 A 
ATOM     79  C   UNL A   1      48.931  27.978  28.813  1.00  0.00     0.010 A 
ATOM     80  C   UNL A   1      49.918  26.587  31.033  1.00  0.00     0.020 A 
ATOM     81  C   UNL A   1      50.288  27.658  28.882  1.00  0.00     0.020 A 
ATOM     82  C   UNL A   1      50.776  26.977  29.999  1.00  0.00     0.054 A 
BRANCH  82  83
ATOM     83  S   UNL A   1      52.534  26.540  30.106  1.00  0.00     0.124 S 
ATOM     84  O   UNL A   1      53.136  27.806  30.513  1.00  0.00    -0.237 OA
ATOM     85  O   UNL A   1      52.544  25.485  31.117  1.00  0.00    -0.237 OA
ATOM     86  O   UNL A   1      52.862  26.099  28.753  1.00  0.00    -0.744 OA
ENDBRANCH  82  83
ENDBRANCH  56  77
ENDBRANCH  30  31
ENDBRANCH  23  25
ENDBRANCH  22  23
ENDBRANCH  21  22
ENDBRANCH   1  21
TORSDOF 20
ENDMDL
MODEL 3
REMARK VINA RESULT:      -9.9      3.902      5.447
REMARK SMILES COc1ccc(C(=O)N(C)CCC(=O)OCCOC(=O)c2ccc(-c3c4nc(c(-c5ccc(S(=O)(=O)[O-])cc5)c5ccc([nH]5)c(-c5ccc(S(=O)(=O)[O-])cc5)c5nc(c(-c6ccc(S(=O)(=O)[O-])cc6)c6ccc3[nH]6)C=C5)C=C4)cc2)cc1O
REMARK SMILES IDX 16 1 15 2 13 3 14 4 12 5 11 6 9 7 10 8 7 9 8 10 6 11 3 12
REMARK SMILES IDX 4 13 82 14 5 15 81 16 2 17 1 18 83 19 17 21 18 22 19 23
REMARK SMILES IDX 20 24 21 25 22 26 80 27 23 28 79 29 24 30 25 31 26 32 73 33
REMARK SMILES IDX 27 34 78 35 72 36 74 37 28 38 77 39 71 40 70 41 29 43 59 44
REMARK SMILES IDX 40 45 58 46 41 47 44 48 57 49 75 50 42 51 43 52 56 54 76 55
REMARK SMILES IDX 45 56 30 57 31 58 39 59 32 60 38 61 33 62 34 63 35 64 36 65
REMARK SMILES IDX 37 66 60 67 61 68 69 69 62 70 68 71 63 72 64 73 65 74 66 75
REMARK SMILES IDX 67 76 46 77 47 78 55 79 48 80 54 81 49 82 50 83 51 84 52 85
REMARK SMILES IDX 53 86
REMARK H PARENT 83 20 74 42 44 53
REMARK Flexibility Score: inf
ROOT
ATOM      1  C   UNL A   1      35.554  22.164  25.054  1.00  0.00     0.274 C 
ENDROOT
BRANCH   1   2
ATOM      2  O   UNL A   1      35.113  23.242  24.206  1.00  0.00    -0.462 OA
BRANCH   2   3
ATOM      3  C   UNL A   1      33.963  23.865  24.567  1.00  0.00     0.307 C 
ATOM      4  O   UNL A   1      33.659  24.179  25.710  1.00  0.00    -0.252 OA
BRANCH   3   5
ATOM      5  C   UNL A   1      33.051  24.091  23.388  1.00  0.00     0.144 C 
BRANCH   5   6
ATOM      6  C   UNL A   1      32.735  25.567  23.147  1.00  0.00     0.131 C 
BRANCH   6   7
ATOM      7  N   UNL A   1      31.357  25.909  23.531  1.00  0.00    -0.341 N 
ATOM      8  C   UNL A   1      30.389  24.827  23.493  1.00  0.00     0.147 C 
BRANCH   7   9
ATOM      9  C   UNL A   1      31.116  27.230  23.910  1.00  0.00     0.253 C 
ATOM     10  O   UNL A   1      31.852  27.776  24.737  1.00  0.00    -0.269 OA
BRANCH   9  11
ATOM     11  C   UNL A   1      30.077  28.110  23.278  1.00  0.00     0.043 A 
ATOM     12  C   UNL A   1      28.352  29.979  21.989  1.00  0.00     0.160 A 
ATOM     13  C   UNL A   1      29.736  30.078  21.856  1.00  0.00     0.051 A 
ATOM     14  C   UNL A   1      27.847  28.925  22.751  1.00  0.00     0.158 A 
ATOM     15  C   UNL A   1      30.582  29.170  22.498  1.00  0.00     0.018 A 
ATOM     16  C   UNL A   1      28.693  27.983  23.362  1.00  0.00     0.064 A 
BRANCH  12  17
ATOM     17  O   UNL A   1      27.681  30.967  21.330  1.00  0.00    -0.493 OA
ATOM     18  C   UNL A   1      28.101  32.311  21.496  1.00  0.00     0.278 C 
ENDBRANCH  12  17
BRANCH  14  19
ATOM     19  O   UNL A   1      26.512  28.754  22.990  1.00  0.00    -0.504 OA
ATOM     20  H   UNL A   1      25.882  29.060  22.368  1.00  0.00     0.293 HD
ENDBRANCH  14  19
ENDBRANCH   9  11
ENDBRANCH   7   9
ENDBRANCH   6   7
ENDBRANCH   5   6
ENDBRANCH   3   5
ENDBRANCH   2   3
ENDBRANCH   1   2
BRANCH   1  21
ATOM     21  C   UNL A   1      37.072  22.006  24.984  1.00  0.00     0.275 C 
BRANCH  21  22
ATOM     22  O   UNL A   1      37.689  23.172  25.556  1.00  0.00    -0.458 OA
BRANCH  22  23
ATOM     23  C   UNL A   1      38.886  22.989  26.146  1.00  0.00     0.338 C 
ATOM     24  O   UNL A   1      39.544  21.962  26.226  1.00  0.00    -0.246 OA
BRANCH  23  25
ATOM     25  C   UNL A   1      39.277  24.247  26.787  1.00  0.00     0.060 A 
ATOM     26  C   UNL A   1      40.048  25.189  26.099  1.00  0.00     0.016 A 
ATOM     27  C   UNL A   1      38.905  24.457  28.116  1.00  0.00     0.016 A 
ATOM     28  C   UNL A   1      40.469  26.345  26.756  1.00  0.00     0.010 A 
ATOM     29  C   UNL A   1      39.298  25.629  28.758  1.00  0.00     0.010 A 
ATOM     30  C   UNL A   1      40.099  26.571  28.090  1.00  0.00    -0.014 A 
BRANCH  30  31
ATOM     31  C   UNL A   1      40.563  27.775  28.817  1.00  0.00     0.031 A 
ATOM     32  C   UNL A   1      41.911  27.771  29.481  1.00  0.00     0.074 A 
ATOM     33  C   UNL A   1      39.755  28.848  28.918  1.00  0.00     0.049 A 
ATOM     34  N   UNL A   1      42.449  28.673  30.261  1.00  0.00    -0.248 NA
ATOM     35  C   UNL A   1      42.762  26.594  29.242  1.00  0.00     0.031 C 
ATOM     36  C   UNL A   1      38.434  28.972  28.301  1.00  0.00     0.029 A 
ATOM     37  N   UNL A   1      39.925  30.032  29.590  1.00  0.00    -0.354 N 
ATOM     38  C   UNL A   1      43.691  28.165  30.624  1.00  0.00     0.074 A 
ATOM     39  C   UNL A   1      43.821  26.869  29.991  1.00  0.00     0.031 C 
ATOM     40  C   UNL A   1      37.910  30.166  28.625  1.00  0.00     0.029 A 
ATOM     41  C   UNL A   1      38.838  30.869  29.506  1.00  0.00     0.049 A 
ATOM     42  H   UNL A   1      40.746  30.259  30.083  1.00  0.00     0.167 HD
ATOM     43  C   UNL A   1      44.636  28.728  31.415  1.00  0.00     0.031 A 
ATOM     44  C   UNL A   1      38.605  32.057  30.096  1.00  0.00     0.031 A 
ATOM     45  C   UNL A   1      44.497  30.013  32.046  1.00  0.00     0.049 A 
ATOM     46  C   UNL A   1      39.652  32.643  31.001  1.00  0.00     0.074 A 
ATOM     47  C   UNL A   1      45.402  30.678  32.856  1.00  0.00     0.029 A 
ATOM     48  N   UNL A   1      43.380  30.829  31.941  1.00  0.00    -0.354 N 
ATOM     49  N   UNL A   1      40.825  32.153  31.328  1.00  0.00    -0.248 NA
ATOM     50  C   UNL A   1      39.346  33.941  31.617  1.00  0.00     0.031 C 
ATOM     51  C   UNL A   1      44.816  31.880  33.270  1.00  0.00     0.029 A 
ATOM     52  C   UNL A   1      43.565  31.983  32.682  1.00  0.00     0.049 A 
ATOM     53  H   UNL A   1      42.574  30.617  31.416  1.00  0.00     0.167 HD
ATOM     54  C   UNL A   1      41.403  33.093  32.174  1.00  0.00     0.074 A 
ATOM     55  C   UNL A   1      40.459  34.184  32.296  1.00  0.00     0.031 C 
ATOM     56  C   UNL A   1      42.610  33.055  32.793  1.00  0.00     0.031 A 
BRANCH  43  57
ATOM     57  C   UNL A   1      45.892  27.937  31.665  1.00  0.00    -0.014 A 
ATOM     58  C   UNL A   1      47.000  28.043  30.805  1.00  0.00     0.010 A 
ATOM     59  C   UNL A   1      45.976  27.101  32.793  1.00  0.00     0.010 A 
ATOM     60  C   UNL A   1      48.158  27.298  31.051  1.00  0.00     0.020 A 
ATOM     61  C   UNL A   1      47.141  26.371  33.053  1.00  0.00     0.020 A 
ATOM     62  C   UNL A   1      48.219  26.462  32.170  1.00  0.00     0.054 A 
BRANCH  62  63
ATOM     63  S   UNL A   1      49.738  25.520  32.476  1.00  0.00     0.124 S 
ATOM     64  O   UNL A   1      50.128  25.129  31.123  1.00  0.00    -0.237 OA
ATOM     65  O   UNL A   1      50.605  26.505  33.119  1.00  0.00    -0.237 OA
ATOM     66  O   UNL A   1      49.299  24.425  33.339  1.00  0.00    -0.744 OA
ENDBRANCH  62  63
ENDBRANCH  43  57
BRANCH  44  67
ATOM     67  C   UNL A   1      37.315  32.758  29.862  1.00  0.00    -0.014 A 
ATOM     68  C   UNL A   1      37.157  33.612  28.756  1.00  0.00     0.010 A 
ATOM     69  C   UNL A   1      36.228  32.557  30.732  1.00  0.00     0.010 A 
ATOM     70  C   UNL A   1      35.940  34.260  28.531  1.00  0.00     0.020 A 
ATOM     71  C   UNL A   1      35.003  33.186  30.497  1.00  0.00     0.020 A 
ATOM     72  C   UNL A   1      34.870  34.042  29.403  1.00  0.00     0.054 A 
BRANCH  72  73
ATOM     73  S   UNL A   1      33.278  34.844  29.059  1.00  0.00     0.124 S 
ATOM     74  O   UNL A   1      33.699  36.109  28.464  1.00  0.00    -0.237 OA
ATOM     75  O   UNL A   1      32.634  33.900  28.149  1.00  0.00    -0.237 OA
ATOM     76  O   UNL A   1      32.657  34.947  30.378  1.00  0.00    -0.744 OA
ENDBRANCH  72  73
ENDBRANCH  44  67
BRANCH  56  77
ATOM     77  C   UNL A   1      42.985  34.243  33.637  1.00  0.00    -0.014 A 
ATOM     78  C   UNL A   1      42.739  34.256  35.021  1.00  0.00     0.010 A 
ATOM     79  C   UNL A   1      43.630  35.341  33.041  1.00  0.00     0.010 A 
ATOM     80  C   UNL A   1      43.108  35.362  35.791  1.00  0.00     0.020 A 
ATOM     81  C   UNL A   1      44.019  36.439  33.811  1.00  0.00     0.020 A 
ATOM     82  C   UNL A   1      43.742  36.449  35.180  1.00  0.00     0.054 A 
BRANCH  82  83
ATOM     83  S   UNL A   1      44.246  37.858  36.204  1.00  0.00     0.124 S 
ATOM     84  O   UNL A   1      45.661  37.577  36.431  1.00  0.00    -0.237 OA
ATOM     85  O   UNL A   1      43.964  39.003  35.341  1.00  0.00    -0.237 OA
ATOM     86  O   UNL A   1      43.391  37.751  37.383  1.00  0.00    -0.744 OA
ENDBRANCH  82  83
ENDBRANCH  56  77
ENDBRANCH  30  31
ENDBRANCH  23  25
ENDBRANCH  22  23
ENDBRANCH  21  22
ENDBRANCH   1  21
TORSDOF 20
ENDMDL
