MODEL 1
REMARK VINA RESULT:     -12.0      0.000      0.000
REMARK SMILES O=C(OCCOC(=O)c1cccc2c1N[C@H](c1ccccc1Br)[C@H]1CC=C[C@H]21)c1ccc(-c2c3nc(c(-c4ccc(S(=O)(=O)[O-])cc4)c4ccc([nH]4)c(-c4ccc(S(=O)(=O)[O-])cc4)c4nc(c(-c5ccc(S(=O)(=O)[O-])cc5)c5ccc2[nH]5)C=C4)C=C3)cc1
REMARK SMILES IDX 4 1 3 2 2 3 1 4 29 5 30 6 88 7 31 8 87 9 32 10 33 11 34 12
REMARK SMILES IDX 81 13 35 14 86 15 80 16 82 17 36 18 85 19 79 20 78 21 37 23
REMARK SMILES IDX 67 24 48 25 66 26 49 27 52 28 65 29 83 30 50 31 51 32 64 34
REMARK SMILES IDX 84 35 53 36 38 37 39 38 47 39 40 40 46 41 41 42 42 43 43 44
REMARK SMILES IDX 44 45 45 46 68 47 69 48 77 49 70 50 76 51 71 52 72 53 73 54
REMARK SMILES IDX 74 55 75 56 54 57 55 58 63 59 56 60 62 61 57 62 58 63 59 64
REMARK SMILES IDX 60 65 61 66 5 67 6 68 7 69 8 70 9 71 10 72 14 73 11 74 13 75
REMARK SMILES IDX 15 76 12 77 28 78 16 79 24 81 27 82 25 83 26 84 17 85 18 86
REMARK SMILES IDX 22 87 19 88 21 89 23 90 20 91
REMARK H PARENT 82 22 52 33 15 80
REMARK Flexibility Score: inf
ROOT
ATOM      1  C   UNL A   1      38.328  23.647  26.004  1.00  0.00     0.275 C 
ENDROOT
BRANCH   1   2
ATOM      2  O   UNL A   1      38.814  24.489  27.065  1.00  0.00    -0.458 OA
BRANCH   2   3
ATOM      3  C   UNL A   1      39.656  25.553  27.022  1.00  0.00     0.338 C 
ATOM      4  O   UNL A   1      40.448  25.620  26.082  1.00  0.00    -0.246 OA
BRANCH   3   5
ATOM      5  C   UNL A   1      39.808  26.561  28.132  1.00  0.00     0.060 A 
ATOM      6  C   UNL A   1      39.053  26.323  29.293  1.00  0.00     0.016 A 
ATOM      7  C   UNL A   1      40.626  27.689  28.137  1.00  0.00     0.016 A 
ATOM      8  C   UNL A   1      39.024  27.238  30.363  1.00  0.00     0.010 A 
ATOM      9  C   UNL A   1      40.647  28.574  29.240  1.00  0.00     0.010 A 
ATOM     10  C   UNL A   1      39.823  28.392  30.361  1.00  0.00    -0.014 A 
BRANCH  10  11
ATOM     11  C   UNL A   1      39.968  29.205  31.619  1.00  0.00     0.031 A 
ATOM     12  C   UNL A   1      39.192  30.448  32.006  1.00  0.00     0.074 A 
ATOM     13  C   UNL A   1      41.009  28.917  32.411  1.00  0.00     0.049 A 
ATOM     14  N   UNL A   1      38.966  31.040  33.157  1.00  0.00    -0.248 NA
ATOM     15  C   UNL A   1      38.607  31.169  30.900  1.00  0.00     0.031 C 
ATOM     16  C   UNL A   1      42.024  27.897  32.156  1.00  0.00     0.029 A 
ATOM     17  N   UNL A   1      41.400  29.520  33.570  1.00  0.00    -0.354 N 
ATOM     18  C   UNL A   1      38.060  32.087  32.891  1.00  0.00     0.074 A 
ATOM     19  C   UNL A   1      37.944  32.165  31.474  1.00  0.00     0.031 C 
ATOM     20  C   UNL A   1      42.941  27.961  33.129  1.00  0.00     0.029 A 
ATOM     21  C   UNL A   1      42.577  29.034  34.053  1.00  0.00     0.049 A 
ATOM     22  H   UNL A   1      40.883  30.233  34.012  1.00  0.00     0.167 HD
ATOM     23  C   UNL A   1      37.346  32.855  33.758  1.00  0.00     0.031 A 
ATOM     24  C   UNL A   1      43.287  29.427  35.123  1.00  0.00     0.031 A 
ATOM     25  C   UNL A   1      37.796  33.021  35.100  1.00  0.00     0.049 A 
ATOM     26  C   UNL A   1      42.711  30.468  36.035  1.00  0.00     0.074 A 
ATOM     27  C   UNL A   1      37.308  33.866  36.073  1.00  0.00     0.029 A 
ATOM     28  N   UNL A   1      38.961  32.453  35.571  1.00  0.00    -0.354 N 
ATOM     29  N   UNL A   1      41.565  31.103  35.951  1.00  0.00    -0.248 NA
ATOM     30  C   UNL A   1      43.514  30.821  37.208  1.00  0.00     0.031 C 
ATOM     31  C   UNL A   1      38.275  33.926  37.076  1.00  0.00     0.029 A 
ATOM     32  C   UNL A   1      39.303  33.044  36.758  1.00  0.00     0.049 A 
ATOM     33  H   UNL A   1      39.467  31.734  35.125  1.00  0.00     0.167 HD
ATOM     34  C   UNL A   1      41.499  31.920  37.075  1.00  0.00     0.074 A 
ATOM     35  C   UNL A   1      42.716  31.682  37.827  1.00  0.00     0.031 C 
ATOM     36  C   UNL A   1      40.529  32.787  37.460  1.00  0.00     0.031 A 
BRANCH  23  37
ATOM     37  C   UNL A   1      36.056  33.575  33.376  1.00  0.00    -0.014 A 
ATOM     38  C   UNL A   1      34.785  32.990  33.333  1.00  0.00     0.010 A 
ATOM     39  C   UNL A   1      36.167  34.916  32.929  1.00  0.00     0.010 A 
ATOM     40  C   UNL A   1      33.657  33.746  32.942  1.00  0.00     0.020 A 
ATOM     41  C   UNL A   1      35.052  35.688  32.587  1.00  0.00     0.020 A 
ATOM     42  C   UNL A   1      33.795  35.096  32.596  1.00  0.00     0.054 A 
BRANCH  42  43
ATOM     43  S   UNL A   1      32.350  36.123  32.189  1.00  0.00     0.124 S 
ATOM     44  O   UNL A   1      31.237  35.281  32.616  1.00  0.00    -0.237 OA
ATOM     45  O   UNL A   1      32.562  37.334  32.979  1.00  0.00    -0.237 OA
ATOM     46  O   UNL A   1      32.481  36.306  30.745  1.00  0.00    -0.744 OA
ENDBRANCH  42  43
ENDBRANCH  23  37
BRANCH  24  47
ATOM     47  C   UNL A   1      44.571  28.729  35.362  1.00  0.00    -0.014 A 
ATOM     48  C   UNL A   1      45.676  28.993  34.526  1.00  0.00     0.010 A 
ATOM     49  C   UNL A   1      44.612  27.642  36.247  1.00  0.00     0.010 A 
ATOM     50  C   UNL A   1      46.765  28.122  34.509  1.00  0.00     0.020 A 
ATOM     51  C   UNL A   1      45.716  26.788  36.253  1.00  0.00     0.020 A 
ATOM     52  C   UNL A   1      46.765  27.010  35.356  1.00  0.00     0.054 A 
BRANCH  52  53
ATOM     53  S   UNL A   1      48.124  25.820  35.223  1.00  0.00     0.124 S 
ATOM     54  O   UNL A   1      47.556  24.817  34.325  1.00  0.00    -0.237 OA
ATOM     55  O   UNL A   1      49.201  26.630  34.662  1.00  0.00    -0.237 OA
ATOM     56  O   UNL A   1      48.328  25.381  36.601  1.00  0.00    -0.744 OA
ENDBRANCH  52  53
ENDBRANCH  24  47
BRANCH  36  57
ATOM     57  C   UNL A   1      40.739  33.592  38.704  1.00  0.00    -0.014 A 
ATOM     58  C   UNL A   1      40.199  33.132  39.918  1.00  0.00     0.010 A 
ATOM     59  C   UNL A   1      41.285  34.883  38.625  1.00  0.00     0.010 A 
ATOM     60  C   UNL A   1      40.162  33.969  41.028  1.00  0.00     0.020 A 
ATOM     61  C   UNL A   1      41.291  35.707  39.748  1.00  0.00     0.020 A 
ATOM     62  C   UNL A   1      40.705  35.253  40.934  1.00  0.00     0.054 A 
BRANCH  62  63
ATOM     63  S   UNL A   1      40.637  36.332  42.384  1.00  0.00     0.124 S 
ATOM     64  O   UNL A   1      39.356  37.008  42.203  1.00  0.00    -0.237 OA
ATOM     65  O   UNL A   1      40.696  35.381  43.492  1.00  0.00    -0.237 OA
ATOM     66  O   UNL A   1      41.820  37.176  42.235  1.00  0.00    -0.744 OA
ENDBRANCH  62  63
ENDBRANCH  36  57
ENDBRANCH  10  11
ENDBRANCH   3   5
ENDBRANCH   2   3
ENDBRANCH   1   2
BRANCH   1  67
ATOM     67  C   UNL A   1      36.827  23.365  26.047  1.00  0.00     0.275 C 
BRANCH  67  68
ATOM     68  O   UNL A   1      36.128  24.094  25.044  1.00  0.00    -0.458 OA
BRANCH  68  69
ATOM     69  C   UNL A   1      35.633  23.338  24.026  1.00  0.00     0.340 C 
ATOM     70  O   UNL A   1      36.086  23.244  22.896  1.00  0.00    -0.246 OA
BRANCH  69  71
ATOM     71  C   UNL A   1      34.529  22.519  24.551  1.00  0.00     0.083 A 
ATOM     72  C   UNL A   1      34.687  21.125  24.506  1.00  0.00     0.018 A 
ATOM     73  C   UNL A   1      33.376  23.120  25.078  1.00  0.00     0.053 A 
ATOM     74  C   UNL A   1      33.700  20.297  25.028  1.00  0.00     0.001 A 
ATOM     75  C   UNL A   1      32.343  22.259  25.474  1.00  0.00    -0.017 A 
ATOM     76  N   UNL A   1      33.235  24.502  25.115  1.00  0.00    -0.377 N 
ATOM     77  C   UNL A   1      32.522  20.864  25.497  1.00  0.00     0.006 A 
ATOM     78  C   UNL A   1      31.008  22.882  25.687  1.00  0.00     0.049 C 
ATOM     79  C   UNL A   1      32.009  25.246  25.445  1.00  0.00     0.115 C 
ATOM     80  H   UNL A   1      34.034  25.036  24.899  1.00  0.00     0.161 HD
ATOM     81  C   UNL A   1      31.130  24.302  26.282  1.00  0.00     0.031 C 
ATOM     82  C   UNL A   1      30.054  22.266  26.662  1.00  0.00    -0.023 C 
ATOM     83  C   UNL A   1      29.656  24.580  26.550  1.00  0.00     0.034 C 
ATOM     84  C   UNL A   1      29.259  23.234  27.129  1.00  0.00    -0.030 C 
BRANCH  79  85
ATOM     85  C   UNL A   1      32.476  26.695  25.809  1.00  0.00    -0.011 A 
ATOM     86  C   UNL A   1      31.562  27.470  26.552  1.00  0.00     0.007 A 
ATOM     87  C   UNL A   1      33.709  27.340  25.586  1.00  0.00     0.023 A 
ATOM     88  C   UNL A   1      31.949  28.647  27.209  1.00  0.00     0.000 A 
ATOM     89  C   UNL A   1      34.215  28.263  26.533  1.00  0.00     0.016 A 
ATOM     90  Br  UNL A   1      33.641  28.594  23.932  1.00  0.00    -0.050 Br
ATOM     91  C   UNL A   1      33.294  29.002  27.267  1.00  0.00     0.001 A 
ENDBRANCH  79  85
ENDBRANCH  69  71
ENDBRANCH  68  69
ENDBRANCH  67  68
ENDBRANCH   1  67
TORSDOF 15
ENDMDL
MODEL 2
REMARK VINA RESULT:     -11.9      0.757      8.061
REMARK SMILES O=C(OCCOC(=O)c1cccc2c1N[C@H](c1ccccc1Br)[C@H]1CC=C[C@H]21)c1ccc(-c2c3nc(c(-c4ccc(S(=O)(=O)[O-])cc4)c4ccc([nH]4)c(-c4ccc(S(=O)(=O)[O-])cc4)c4nc(c(-c5ccc(S(=O)(=O)[O-])cc5)c5ccc2[nH]5)C=C4)C=C3)cc1
REMARK SMILES IDX 4 1 3 2 2 3 1 4 29 5 30 6 88 7 31 8 87 9 32 10 33 11 34 12
REMARK SMILES IDX 81 13 35 14 86 15 80 16 82 17 36 18 85 19 79 20 78 21 37 23
REMARK SMILES IDX 67 24 48 25 66 26 49 27 52 28 65 29 83 30 50 31 51 32 64 34
REMARK SMILES IDX 84 35 53 36 38 37 39 38 47 39 40 40 46 41 41 42 42 43 43 44
REMARK SMILES IDX 44 45 45 46 68 47 69 48 77 49 70 50 76 51 71 52 72 53 73 54
REMARK SMILES IDX 74 55 75 56 54 57 55 58 63 59 56 60 62 61 57 62 58 63 59 64
REMARK SMILES IDX 60 65 61 66 5 67 6 68 7 69 8 70 9 71 10 72 14 73 11 74 13 75
REMARK SMILES IDX 15 76 12 77 28 78 16 79 24 81 27 82 25 83 26 84 17 85 18 86
REMARK SMILES IDX 22 87 19 88 21 89 23 90 20 91
REMARK H PARENT 82 22 52 33 15 80
REMARK Flexibility Score: inf
ROOT
ATOM      1  C   UNL A   1      38.266  23.691  25.979  1.00  0.00     0.275 C 
ENDROOT
BRANCH   1   2
ATOM      2  O   UNL A   1      38.731  24.385  27.152  1.00  0.00    -0.458 OA
BRANCH   2   3
ATOM      3  C   UNL A   1      39.815  25.184  27.323  1.00  0.00     0.338 C 
ATOM      4  O   UNL A   1      40.822  24.935  26.661  1.00  0.00    -0.246 OA
BRANCH   3   5
ATOM      5  C   UNL A   1      39.929  26.240  28.391  1.00  0.00     0.060 A 
ATOM      6  C   UNL A   1      38.917  26.250  29.365  1.00  0.00     0.016 A 
ATOM      7  C   UNL A   1      40.937  27.194  28.526  1.00  0.00     0.016 A 
ATOM      8  C   UNL A   1      38.848  27.247  30.358  1.00  0.00     0.010 A 
ATOM      9  C   UNL A   1      40.904  28.154  29.564  1.00  0.00     0.010 A 
ATOM     10  C   UNL A   1      39.844  28.228  30.481  1.00  0.00    -0.014 A 
BRANCH  10  11
ATOM     11  C   UNL A   1      39.882  29.109  31.700  1.00  0.00     0.031 A 
ATOM     12  C   UNL A   1      40.702  28.903  32.958  1.00  0.00     0.074 A 
ATOM     13  C   UNL A   1      38.971  30.088  31.771  1.00  0.00     0.049 A 
ATOM     14  N   UNL A   1      41.093  29.715  33.915  1.00  0.00    -0.248 NA
ATOM     15  C   UNL A   1      41.114  27.540  33.199  1.00  0.00     0.031 C 
ATOM     16  C   UNL A   1      37.934  30.367  30.781  1.00  0.00     0.029 A 
ATOM     17  N   UNL A   1      38.753  30.988  32.772  1.00  0.00    -0.354 N 
ATOM     18  C   UNL A   1      41.945  28.961  34.748  1.00  0.00     0.074 A 
ATOM     19  C   UNL A   1      41.850  27.612  34.301  1.00  0.00     0.031 C 
ATOM     20  C   UNL A   1      37.170  31.366  31.238  1.00  0.00     0.029 A 
ATOM     21  C   UNL A   1      37.662  31.774  32.554  1.00  0.00     0.049 A 
ATOM     22  H   UNL A   1      39.326  31.063  33.570  1.00  0.00     0.167 HD
ATOM     23  C   UNL A   1      42.776  29.379  35.740  1.00  0.00     0.031 A 
ATOM     24  C   UNL A   1      37.116  32.713  33.342  1.00  0.00     0.031 A 
ATOM     25  C   UNL A   1      42.528  30.615  36.404  1.00  0.00     0.049 A 
ATOM     26  C   UNL A   1      37.816  33.092  34.613  1.00  0.00     0.074 A 
ATOM     27  C   UNL A   1      43.151  31.134  37.519  1.00  0.00     0.029 A 
ATOM     28  N   UNL A   1      41.448  31.418  36.104  1.00  0.00    -0.354 N 
ATOM     29  N   UNL A   1      38.934  32.624  35.116  1.00  0.00    -0.248 NA
ATOM     30  C   UNL A   1      37.193  34.154  35.406  1.00  0.00     0.031 C 
ATOM     31  C   UNL A   1      42.342  32.169  37.986  1.00  0.00     0.029 A 
ATOM     32  C   UNL A   1      41.282  32.342  37.102  1.00  0.00     0.049 A 
ATOM     33  H   UNL A   1      40.885  31.341  35.299  1.00  0.00     0.167 HD
ATOM     34  C   UNL A   1      39.162  33.351  36.280  1.00  0.00     0.074 A 
ATOM     35  C   UNL A   1      38.070  34.298  36.392  1.00  0.00     0.031 C 
ATOM     36  C   UNL A   1      40.174  33.253  37.178  1.00  0.00     0.031 A 
BRANCH  23  37
ATOM     37  C   UNL A   1      43.992  28.585  36.208  1.00  0.00    -0.014 A 
ATOM     38  C   UNL A   1      43.977  27.582  37.186  1.00  0.00     0.010 A 
ATOM     39  C   UNL A   1      45.256  28.963  35.688  1.00  0.00     0.010 A 
ATOM     40  C   UNL A   1      45.170  26.925  37.561  1.00  0.00     0.020 A 
ATOM     41  C   UNL A   1      46.435  28.286  36.016  1.00  0.00     0.020 A 
ATOM     42  C   UNL A   1      46.387  27.265  36.956  1.00  0.00     0.054 A 
BRANCH  42  43
ATOM     43  S   UNL A   1      47.920  26.366  37.341  1.00  0.00     0.124 S 
ATOM     44  O   UNL A   1      48.746  26.638  36.169  1.00  0.00    -0.237 OA
ATOM     45  O   UNL A   1      48.371  26.985  38.586  1.00  0.00    -0.237 OA
ATOM     46  O   UNL A   1      47.460  24.986  37.478  1.00  0.00    -0.744 OA
ENDBRANCH  42  43
ENDBRANCH  23  37
BRANCH  24  47
ATOM     47  C   UNL A   1      35.885  33.367  32.844  1.00  0.00    -0.014 A 
ATOM     48  C   UNL A   1      35.983  34.503  32.012  1.00  0.00     0.010 A 
ATOM     49  C   UNL A   1      34.643  33.014  33.393  1.00  0.00     0.010 A 
ATOM     50  C   UNL A   1      34.875  35.325  31.815  1.00  0.00     0.020 A 
ATOM     51  C   UNL A   1      33.526  33.820  33.170  1.00  0.00     0.020 A 
ATOM     52  C   UNL A   1      33.659  34.990  32.417  1.00  0.00     0.054 A 
BRANCH  52  53
ATOM     53  S   UNL A   1      32.269  36.141  32.260  1.00  0.00     0.124 S 
ATOM     54  O   UNL A   1      31.131  35.279  32.568  1.00  0.00    -0.237 OA
ATOM     55  O   UNL A   1      32.581  37.154  33.264  1.00  0.00    -0.237 OA
ATOM     56  O   UNL A   1      32.355  36.592  30.873  1.00  0.00    -0.744 OA
ENDBRANCH  52  53
ENDBRANCH  24  47
BRANCH  36  57
ATOM     57  C   UNL A   1      40.146  34.132  38.388  1.00  0.00    -0.014 A 
ATOM     58  C   UNL A   1      40.892  35.325  38.387  1.00  0.00     0.010 A 
ATOM     59  C   UNL A   1      39.557  33.677  39.578  1.00  0.00     0.010 A 
ATOM     60  C   UNL A   1      41.085  36.030  39.570  1.00  0.00     0.020 A 
ATOM     61  C   UNL A   1      39.710  34.405  40.755  1.00  0.00     0.020 A 
ATOM     62  C   UNL A   1      40.496  35.562  40.748  1.00  0.00     0.054 A 
BRANCH  62  63
ATOM     63  S   UNL A   1      40.768  36.485  42.279  1.00  0.00     0.124 S 
ATOM     64  O   UNL A   1      41.469  37.673  41.800  1.00  0.00    -0.237 OA
ATOM     65  O   UNL A   1      39.408  36.709  42.763  1.00  0.00    -0.237 OA
ATOM     66  O   UNL A   1      41.566  35.569  43.090  1.00  0.00    -0.744 OA
ENDBRANCH  62  63
ENDBRANCH  36  57
ENDBRANCH  10  11
ENDBRANCH   3   5
ENDBRANCH   2   3
ENDBRANCH   1   2
BRANCH   1  67
ATOM     67  C   UNL A   1      36.769  23.384  25.968  1.00  0.00     0.275 C 
BRANCH  67  68
ATOM     68  O   UNL A   1      36.085  24.145  24.979  1.00  0.00    -0.458 OA
BRANCH  68  69
ATOM     69  C   UNL A   1      35.571  23.417  23.950  1.00  0.00     0.340 C 
ATOM     70  O   UNL A   1      36.003  23.352  22.810  1.00  0.00    -0.246 OA
BRANCH  69  71
ATOM     71  C   UNL A   1      34.475  22.586  24.473  1.00  0.00     0.083 A 
ATOM     72  C   UNL A   1      34.635  21.193  24.402  1.00  0.00     0.018 A 
ATOM     73  C   UNL A   1      33.327  23.174  25.023  1.00  0.00     0.053 A 
ATOM     74  C   UNL A   1      33.656  20.353  24.920  1.00  0.00     0.001 A 
ATOM     75  C   UNL A   1      32.299  22.303  25.416  1.00  0.00    -0.017 A 
ATOM     76  N   UNL A   1      33.182  24.555  25.087  1.00  0.00    -0.377 N 
ATOM     77  C   UNL A   1      32.482  20.908  25.412  1.00  0.00     0.006 A 
ATOM     78  C   UNL A   1      30.966  22.918  25.654  1.00  0.00     0.049 C 
ATOM     79  C   UNL A   1      31.958  25.290  25.444  1.00  0.00     0.115 C 
ATOM     80  H   UNL A   1      33.977  25.095  24.871  1.00  0.00     0.161 HD
ATOM     81  C   UNL A   1      31.090  24.329  26.273  1.00  0.00     0.031 C 
ATOM     82  C   UNL A   1      30.024  22.283  26.629  1.00  0.00    -0.023 C 
ATOM     83  C   UNL A   1      29.619  24.597  26.562  1.00  0.00     0.034 C 
ATOM     84  C   UNL A   1      29.232  23.240  27.122  1.00  0.00    -0.030 C 
BRANCH  79  85
ATOM     85  C   UNL A   1      32.425  26.733  25.828  1.00  0.00    -0.011 A 
ATOM     86  C   UNL A   1      31.577  27.444  26.702  1.00  0.00     0.007 A 
ATOM     87  C   UNL A   1      33.612  27.425  25.509  1.00  0.00     0.023 A 
ATOM     88  C   UNL A   1      32.004  28.601  27.372  1.00  0.00     0.000 A 
ATOM     89  C   UNL A   1      34.192  28.317  26.442  1.00  0.00     0.016 A 
ATOM     90  Br  UNL A   1      33.336  28.752  23.936  1.00  0.00    -0.050 Br
ATOM     91  C   UNL A   1      33.337  28.992  27.305  1.00  0.00     0.001 A 
ENDBRANCH  79  85
ENDBRANCH  69  71
ENDBRANCH  68  69
ENDBRANCH  67  68
ENDBRANCH   1  67
TORSDOF 15
ENDMDL
MODEL 3
REMARK VINA RESULT:     -11.8      4.018      9.369
REMARK SMILES O=C(OCCOC(=O)c1cccc2c1N[C@H](c1ccccc1Br)[C@H]1CC=C[C@H]21)c1ccc(-c2c3nc(c(-c4ccc(S(=O)(=O)[O-])cc4)c4ccc([nH]4)c(-c4ccc(S(=O)(=O)[O-])cc4)c4nc(c(-c5ccc(S(=O)(=O)[O-])cc5)c5ccc2[nH]5)C=C4)C=C3)cc1
REMARK SMILES IDX 4 1 3 2 2 3 1 4 29 5 30 6 88 7 31 8 87 9 32 10 33 11 34 12
REMARK SMILES IDX 81 13 35 14 86 15 80 16 82 17 36 18 85 19 79 20 78 21 37 23
REMARK SMILES IDX 67 24 48 25 66 26 49 27 52 28 65 29 83 30 50 31 51 32 64 34
REMARK SMILES IDX 84 35 53 36 38 37 39 38 47 39 40 40 46 41 41 42 42 43 43 44
REMARK SMILES IDX 44 45 45 46 68 47 69 48 77 49 70 50 76 51 71 52 72 53 73 54
REMARK SMILES IDX 74 55 75 56 54 57 55 58 63 59 56 60 62 61 57 62 58 63 59 64
REMARK SMILES IDX 60 65 61 66 5 67 6 68 7 69 8 70 9 71 10 72 14 73 11 74 13 75
REMARK SMILES IDX 15 76 12 77 28 78 16 79 24 81 27 82 25 83 26 84 17 85 18 86
REMARK SMILES IDX 22 87 19 88 21 89 23 90 20 91
REMARK H PARENT 82 22 52 33 15 80
REMARK Flexibility Score: inf
ROOT
ATOM      1  C   UNL A   1      36.270  21.832  26.040  1.00  0.00     0.275 C 
ENDROOT
BRANCH   1   2
ATOM      2  O   UNL A   1      37.479  22.447  25.556  1.00  0.00    -0.458 OA
BRANCH   2   3
ATOM      3  C   UNL A   1      38.668  22.648  26.180  1.00  0.00     0.338 C 
ATOM      4  O   UNL A   1      39.313  21.656  26.521  1.00  0.00    -0.246 OA
BRANCH   3   5
ATOM      5  C   UNL A   1      39.167  23.993  26.640  1.00  0.00     0.060 A 
ATOM      6  C   UNL A   1      38.699  24.436  27.888  1.00  0.00     0.016 A 
ATOM      7  C   UNL A   1      40.053  24.835  25.969  1.00  0.00     0.016 A 
ATOM      8  C   UNL A   1      39.006  25.716  28.388  1.00  0.00     0.010 A 
ATOM      9  C   UNL A   1      40.414  26.094  26.503  1.00  0.00     0.010 A 
ATOM     10  C   UNL A   1      39.874  26.581  27.703  1.00  0.00    -0.014 A 
BRANCH  10  11
ATOM     11  C   UNL A   1      40.386  27.821  28.382  1.00  0.00     0.031 A 
ATOM     12  C   UNL A   1      41.699  27.991  29.119  1.00  0.00     0.074 A 
ATOM     13  C   UNL A   1      39.528  28.842  28.510  1.00  0.00     0.049 A 
ATOM     14  N   UNL A   1      42.412  29.046  29.448  1.00  0.00    -0.248 NA
ATOM     15  C   UNL A   1      42.286  26.765  29.606  1.00  0.00     0.031 C 
ATOM     16  C   UNL A   1      38.137  28.853  28.065  1.00  0.00     0.029 A 
ATOM     17  N   UNL A   1      39.712  30.048  29.118  1.00  0.00    -0.354 N 
ATOM     18  C   UNL A   1      43.607  28.554  30.011  1.00  0.00     0.074 A 
ATOM     19  C   UNL A   1      43.432  27.147  30.156  1.00  0.00     0.031 C 
ATOM     20  C   UNL A   1      37.582  30.013  28.438  1.00  0.00     0.029 A 
ATOM     21  C   UNL A   1      38.579  30.805  29.156  1.00  0.00     0.049 A 
ATOM     22  H   UNL A   1      40.575  30.343  29.491  1.00  0.00     0.167 HD
ATOM     23  C   UNL A   1      44.759  29.213  30.308  1.00  0.00     0.031 A 
ATOM     24  C   UNL A   1      38.373  32.004  29.724  1.00  0.00     0.031 A 
ATOM     25  C   UNL A   1      44.736  30.619  30.536  1.00  0.00     0.049 A 
ATOM     26  C   UNL A   1      39.537  32.734  30.323  1.00  0.00     0.074 A 
ATOM     27  C   UNL A   1      45.751  31.434  30.992  1.00  0.00     0.029 A 
ATOM     28  N   UNL A   1      43.575  31.362  30.496  1.00  0.00    -0.354 N 
ATOM     29  N   UNL A   1      40.797  32.371  30.396  1.00  0.00    -0.248 NA
ATOM     30  C   UNL A   1      39.255  34.056  30.886  1.00  0.00     0.031 C 
ATOM     31  C   UNL A   1      45.158  32.635  31.380  1.00  0.00     0.029 A 
ATOM     32  C   UNL A   1      43.803  32.586  31.070  1.00  0.00     0.049 A 
ATOM     33  H   UNL A   1      42.718  31.062  30.114  1.00  0.00     0.167 HD
ATOM     34  C   UNL A   1      41.465  33.432  30.998  1.00  0.00     0.074 A 
ATOM     35  C   UNL A   1      40.468  34.453  31.251  1.00  0.00     0.031 C 
ATOM     36  C   UNL A   1      42.778  33.561  31.314  1.00  0.00     0.031 A 
BRANCH  23  37
ATOM     37  C   UNL A   1      46.116  28.525  30.422  1.00  0.00    -0.014 A 
ATOM     38  C   UNL A   1      46.894  28.456  31.584  1.00  0.00     0.010 A 
ATOM     39  C   UNL A   1      46.683  28.003  29.232  1.00  0.00     0.010 A 
ATOM     40  C   UNL A   1      48.151  27.812  31.572  1.00  0.00     0.020 A 
ATOM     41  C   UNL A   1      47.904  27.321  29.219  1.00  0.00     0.020 A 
ATOM     42  C   UNL A   1      48.636  27.227  30.395  1.00  0.00     0.054 A 
BRANCH  42  43
ATOM     43  S   UNL A   1      50.201  26.301  30.372  1.00  0.00     0.124 S 
ATOM     44  O   UNL A   1      51.063  27.120  31.218  1.00  0.00    -0.237 OA
ATOM     45  O   UNL A   1      49.832  24.999  30.923  1.00  0.00    -0.237 OA
ATOM     46  O   UNL A   1      50.547  26.287  28.951  1.00  0.00    -0.744 OA
ENDBRANCH  42  43
ENDBRANCH  23  37
BRANCH  24  47
ATOM     47  C   UNL A   1      37.000  32.552  29.641  1.00  0.00    -0.014 A 
ATOM     48  C   UNL A   1      36.628  33.340  28.532  1.00  0.00     0.010 A 
ATOM     49  C   UNL A   1      36.165  32.498  30.766  1.00  0.00     0.010 A 
ATOM     50  C   UNL A   1      35.485  34.136  28.589  1.00  0.00     0.020 A 
ATOM     51  C   UNL A   1      35.004  33.270  30.813  1.00  0.00     0.020 A 
ATOM     52  C   UNL A   1      34.695  34.114  29.742  1.00  0.00     0.054 A 
BRANCH  52  53
ATOM     53  S   UNL A   1      33.291  35.255  29.851  1.00  0.00     0.124 S 
ATOM     54  O   UNL A   1      33.931  36.542  29.594  1.00  0.00    -0.237 OA
ATOM     55  O   UNL A   1      32.406  34.770  28.795  1.00  0.00    -0.237 OA
ATOM     56  O   UNL A   1      32.799  35.061  31.213  1.00  0.00    -0.744 OA
ENDBRANCH  52  53
ENDBRANCH  24  47
BRANCH  36  57
ATOM     57  C   UNL A   1      43.227  34.804  32.017  1.00  0.00    -0.014 A 
ATOM     58  C   UNL A   1      43.096  34.887  33.415  1.00  0.00     0.010 A 
ATOM     59  C   UNL A   1      43.580  35.944  31.278  1.00  0.00     0.010 A 
ATOM     60  C   UNL A   1      43.269  36.105  34.062  1.00  0.00     0.020 A 
ATOM     61  C   UNL A   1      43.799  37.156  31.929  1.00  0.00     0.020 A 
ATOM     62  C   UNL A   1      43.616  37.233  33.313  1.00  0.00     0.054 A 
BRANCH  62  63
ATOM     63  S   UNL A   1      43.825  38.812  34.170  1.00  0.00     0.124 S 
ATOM     64  O   UNL A   1      45.159  39.220  33.741  1.00  0.00    -0.237 OA
ATOM     65  O   UNL A   1      42.721  39.611  33.642  1.00  0.00    -0.237 OA
ATOM     66  O   UNL A   1      43.701  38.451  35.581  1.00  0.00    -0.744 OA
ENDBRANCH  62  63
ENDBRANCH  36  57
ENDBRANCH  10  11
ENDBRANCH   3   5
ENDBRANCH   2   3
ENDBRANCH   1   2
BRANCH   1  67
ATOM     67  C   UNL A   1      35.346  22.765  26.821  1.00  0.00     0.275 C 
BRANCH  67  68
ATOM     68  O   UNL A   1      34.195  22.081  27.302  1.00  0.00    -0.458 OA
BRANCH  68  69
ATOM     69  C   UNL A   1      33.006  22.606  26.899  1.00  0.00     0.340 C 
ATOM     70  O   UNL A   1      32.213  23.234  27.584  1.00  0.00    -0.246 OA
BRANCH  69  71
ATOM     71  C   UNL A   1      32.888  22.424  25.444  1.00  0.00     0.083 A 
ATOM     72  C   UNL A   1      32.776  21.108  24.969  1.00  0.00     0.018 A 
ATOM     73  C   UNL A   1      32.882  23.529  24.581  1.00  0.00     0.053 A 
ATOM     74  C   UNL A   1      32.616  20.871  23.609  1.00  0.00     0.001 A 
ATOM     75  C   UNL A   1      32.852  23.253  23.206  1.00  0.00    -0.017 A 
ATOM     76  N   UNL A   1      32.993  24.826  25.067  1.00  0.00    -0.377 N 
ATOM     77  C   UNL A   1      32.670  21.943  22.726  1.00  0.00     0.006 A 
ATOM     78  C   UNL A   1      33.206  24.377  22.298  1.00  0.00     0.049 C 
ATOM     79  C   UNL A   1      33.205  26.043  24.267  1.00  0.00     0.115 C 
ATOM     80  H   UNL A   1      32.923  24.942  26.042  1.00  0.00     0.161 HD
ATOM     81  C   UNL A   1      32.706  25.732  22.846  1.00  0.00     0.031 C 
ATOM     82  C   UNL A   1      32.629  24.420  20.917  1.00  0.00    -0.023 C 
ATOM     83  C   UNL A   1      33.039  26.615  21.650  1.00  0.00     0.034 C 
ATOM     84  C   UNL A   1      32.566  25.700  20.535  1.00  0.00    -0.030 C 
BRANCH  79  85
ATOM     85  C   UNL A   1      32.788  27.236  25.190  1.00  0.00    -0.011 A 
ATOM     86  C   UNL A   1      32.321  26.889  26.475  1.00  0.00     0.007 A 
ATOM     87  C   UNL A   1      32.879  28.627  24.981  1.00  0.00     0.023 A 
ATOM     88  C   UNL A   1      32.210  27.836  27.504  1.00  0.00     0.000 A 
ATOM     89  C   UNL A   1      33.160  29.496  26.063  1.00  0.00     0.016 A 
ATOM     90  Br  UNL A   1      31.063  29.442  24.389  1.00  0.00    -0.050 Br
ATOM     91  C   UNL A   1      32.706  29.123  27.323  1.00  0.00     0.001 A 
ENDBRANCH  79  85
ENDBRANCH  69  71
ENDBRANCH  68  69
ENDBRANCH  67  68
ENDBRANCH   1  67
TORSDOF 15
ENDMDL
