MODEL 1
REMARK VINA RESULT:     -10.5      0.000      0.000
REMARK SMILES Cc1ccc(C#N)cc1S(=O)(=O)Nc1cccc(C(=O)OCCOC(=O)c2ccc(-c3c4nc(c(-c5ccc(S(=O)(=O)[O-])cc5)c5ccc([nH]5)c(-c5ccc(S(=O)(=O)[O-])cc5)c5nc(c(-c6ccc(S(=O)(=O)[O-])cc6)c6ccc3[nH]6)C=C5)C=C4)cc2)c1
REMARK SMILES IDX 22 1 21 2 19 3 20 4 18 5 14 6 15 7 87 8 16 9 17 10 13 11
REMARK SMILES IDX 10 13 11 14 12 15 9 16 1 17 2 18 3 19 4 20 8 21 5 22 6 23
REMARK SMILES IDX 7 24 23 25 24 26 25 27 26 28 27 29 28 30 86 31 29 32 85 33
REMARK SMILES IDX 30 34 31 35 32 36 79 37 33 38 84 39 78 40 80 41 34 42 83 43
REMARK SMILES IDX 77 44 76 45 35 47 65 48 46 49 64 50 47 51 50 52 63 53 81 54
REMARK SMILES IDX 48 55 49 56 62 58 82 59 51 60 36 61 37 62 45 63 38 64 44 65
REMARK SMILES IDX 39 66 40 67 41 68 42 69 43 70 66 71 67 72 75 73 68 74 74 75
REMARK SMILES IDX 69 76 70 77 71 78 72 79 73 80 52 81 53 82 61 83 54 84 60 85
REMARK SMILES IDX 55 86 56 87 57 88 58 89 59 90
REMARK H PARENT 13 12 80 46 50 57
REMARK Flexibility Score: inf
ROOT
ATOM      1  C   UNL A   1      42.390  19.335  26.640  1.00  0.00     0.275 C 
ENDROOT
BRANCH   1   2
ATOM      2  O   UNL A   1      41.275  20.163  26.248  1.00  0.00    -0.458 OA
BRANCH   2   3
ATOM      3  C   UNL A   1      41.284  21.448  26.689  1.00  0.00     0.338 C 
ATOM      4  O   UNL A   1      42.260  22.061  27.089  1.00  0.00    -0.246 OA
BRANCH   3   5
ATOM      5  C   UNL A   1      39.942  22.082  26.540  1.00  0.00     0.062 A 
ATOM      6  C   UNL A   1      37.639  22.012  25.781  1.00  0.00     0.050 A 
ATOM      7  C   UNL A   1      37.515  23.386  25.974  1.00  0.00     0.027 A 
ATOM      8  C   UNL A   1      38.824  21.351  26.136  1.00  0.00     0.042 A 
ATOM      9  C   UNL A   1      38.615  24.117  26.429  1.00  0.00     0.003 A 
ATOM     10  C   UNL A   1      39.827  23.472  26.695  1.00  0.00     0.016 A 
BRANCH   6  11
ATOM     11  N   UNL A   1      36.705  21.223  25.071  1.00  0.00    -0.280 N 
ATOM     12  H   UNL A   1      37.070  20.448  24.585  1.00  0.00     0.180 HD
BRANCH  11  13
ATOM     13  S   UNL A   1      35.067  21.449  24.960  1.00  0.00     0.262 S 
ATOM     14  O   UNL A   1      34.824  22.478  23.971  1.00  0.00    -0.201 OA
ATOM     15  O   UNL A   1      34.650  21.657  26.334  1.00  0.00    -0.201 OA
BRANCH  13  16
ATOM     16  C   UNL A   1      34.163  20.001  24.404  1.00  0.00     0.092 A 
ATOM     17  C   UNL A   1      32.159  21.007  23.084  1.00  0.00     0.046 C 
ATOM     18  C   UNL A   1      32.918  19.913  23.762  1.00  0.00    -0.030 A 
ATOM     19  C   UNL A   1      32.283  18.650  23.702  1.00  0.00     0.006 A 
ATOM     20  C   UNL A   1      32.918  17.484  24.124  1.00  0.00     0.020 A 
ATOM     21  C   UNL A   1      34.821  18.802  24.772  1.00  0.00     0.042 A 
ATOM     22  C   UNL A   1      34.214  17.552  24.611  1.00  0.00     0.053 A 
BRANCH  22  23
ATOM     23  C   UNL A   1      34.926  16.353  24.950  1.00  0.00     0.099 C 
ATOM     24  N   UNL A   1      35.487  15.384  25.242  1.00  0.00    -0.192 NA
ENDBRANCH  22  23
ENDBRANCH  13  16
ENDBRANCH  11  13
ENDBRANCH   6  11
ENDBRANCH   3   5
ENDBRANCH   2   3
ENDBRANCH   1   2
BRANCH   1  25
ATOM     25  C   UNL A   1      43.098  18.706  25.434  1.00  0.00     0.275 C 
BRANCH  25  26
ATOM     26  O   UNL A   1      44.465  19.137  25.336  1.00  0.00    -0.458 OA
BRANCH  26  27
ATOM     27  C   UNL A   1      44.732  19.971  24.305  1.00  0.00     0.338 C 
ATOM     28  O   UNL A   1      44.676  19.719  23.114  1.00  0.00    -0.246 OA
BRANCH  27  29
ATOM     29  C   UNL A   1      44.951  21.321  24.839  1.00  0.00     0.060 A 
ATOM     30  C   UNL A   1      45.470  21.530  26.117  1.00  0.00     0.016 A 
ATOM     31  C   UNL A   1      44.654  22.400  24.008  1.00  0.00     0.016 A 
ATOM     32  C   UNL A   1      45.647  22.842  26.570  1.00  0.00     0.010 A 
ATOM     33  C   UNL A   1      44.869  23.702  24.446  1.00  0.00     0.010 A 
ATOM     34  C   UNL A   1      45.346  23.940  25.741  1.00  0.00    -0.014 A 
BRANCH  34  35
ATOM     35  C   UNL A   1      45.527  25.341  26.206  1.00  0.00     0.031 A 
ATOM     36  C   UNL A   1      46.887  25.991  26.161  1.00  0.00     0.074 A 
ATOM     37  C   UNL A   1      44.474  26.013  26.712  1.00  0.00     0.049 A 
ATOM     38  N   UNL A   1      47.235  27.194  26.542  1.00  0.00    -0.248 NA
ATOM     39  C   UNL A   1      48.006  25.184  25.645  1.00  0.00     0.031 C 
ATOM     40  C   UNL A   1      43.121  25.472  26.847  1.00  0.00     0.029 A 
ATOM     41  N   UNL A   1      44.368  27.294  27.200  1.00  0.00    -0.354 N 
ATOM     42  C   UNL A   1      48.602  27.288  26.308  1.00  0.00     0.074 A 
ATOM     43  C   UNL A   1      49.038  25.998  25.823  1.00  0.00     0.031 C 
ATOM     44  C   UNL A   1      42.313  26.424  27.333  1.00  0.00     0.029 A 
ATOM     45  C   UNL A   1      43.096  27.629  27.603  1.00  0.00     0.049 A 
ATOM     46  H   UNL A   1      45.132  27.913  27.257  1.00  0.00     0.167 HD
ATOM     47  C   UNL A   1      49.412  28.365  26.447  1.00  0.00     0.031 A 
ATOM     48  C   UNL A   1      42.607  28.770  28.130  1.00  0.00     0.031 A 
ATOM     49  C   UNL A   1      48.956  29.650  26.910  1.00  0.00     0.049 A 
ATOM     50  C   UNL A   1      43.529  29.945  28.304  1.00  0.00     0.074 A 
ATOM     51  C   UNL A   1      49.687  30.818  27.036  1.00  0.00     0.029 A 
ATOM     52  N   UNL A   1      47.663  29.942  27.317  1.00  0.00    -0.354 N 
ATOM     53  N   UNL A   1      44.801  30.040  27.995  1.00  0.00    -0.248 NA
ATOM     54  C   UNL A   1      42.958  31.171  28.880  1.00  0.00     0.031 C 
ATOM     55  C   UNL A   1      48.860  31.790  27.599  1.00  0.00     0.029 A 
ATOM     56  C   UNL A   1      47.586  31.261  27.734  1.00  0.00     0.049 A 
ATOM     57  H   UNL A   1      46.910  29.307  27.311  1.00  0.00     0.167 HD
ATOM     58  C   UNL A   1      45.177  31.338  28.324  1.00  0.00     0.074 A 
ATOM     59  C   UNL A   1      43.993  32.000  28.829  1.00  0.00     0.031 C 
ATOM     60  C   UNL A   1      46.398  31.919  28.224  1.00  0.00     0.031 A 
BRANCH  47  61
ATOM     61  C   UNL A   1      50.865  28.238  26.054  1.00  0.00    -0.014 A 
ATOM     62  C   UNL A   1      51.254  28.430  24.714  1.00  0.00     0.010 A 
ATOM     63  C   UNL A   1      51.821  27.773  26.977  1.00  0.00     0.010 A 
ATOM     64  C   UNL A   1      52.549  28.108  24.295  1.00  0.00     0.020 A 
ATOM     65  C   UNL A   1      53.127  27.488  26.571  1.00  0.00     0.020 A 
ATOM     66  C   UNL A   1      53.474  27.626  25.225  1.00  0.00     0.054 A 
BRANCH  66  67
ATOM     67  S   UNL A   1      55.125  27.145  24.649  1.00  0.00     0.124 S 
ATOM     68  O   UNL A   1      54.996  25.697  24.514  1.00  0.00    -0.237 OA
ATOM     69  O   UNL A   1      55.254  27.888  23.398  1.00  0.00    -0.237 OA
ATOM     70  O   UNL A   1      56.009  27.594  25.724  1.00  0.00    -0.744 OA
ENDBRANCH  66  67
ENDBRANCH  47  61
BRANCH  48  71
ATOM     71  C   UNL A   1      41.156  28.846  28.474  1.00  0.00    -0.014 A 
ATOM     72  C   UNL A   1      40.212  29.229  27.502  1.00  0.00     0.010 A 
ATOM     73  C   UNL A   1      40.725  28.649  29.798  1.00  0.00     0.010 A 
ATOM     74  C   UNL A   1      38.888  29.496  27.860  1.00  0.00     0.020 A 
ATOM     75  C   UNL A   1      39.390  28.874  30.154  1.00  0.00     0.020 A 
ATOM     76  C   UNL A   1      38.490  29.333  29.190  1.00  0.00     0.054 A 
BRANCH  76  77
ATOM     77  S   UNL A   1      36.793  29.781  29.646  1.00  0.00     0.124 S 
ATOM     78  O   UNL A   1      36.037  29.290  28.496  1.00  0.00    -0.237 OA
ATOM     79  O   UNL A   1      36.595  29.043  30.890  1.00  0.00    -0.237 OA
ATOM     80  O   UNL A   1      36.846  31.233  29.785  1.00  0.00    -0.744 OA
ENDBRANCH  76  77
ENDBRANCH  48  71
BRANCH  60  81
ATOM     81  C   UNL A   1      46.557  33.350  28.676  1.00  0.00    -0.014 A 
ATOM     82  C   UNL A   1      46.441  34.396  27.741  1.00  0.00     0.010 A 
ATOM     83  C   UNL A   1      47.009  33.641  29.975  1.00  0.00     0.010 A 
ATOM     84  C   UNL A   1      46.847  35.691  28.071  1.00  0.00     0.020 A 
ATOM     85  C   UNL A   1      47.377  34.945  30.322  1.00  0.00     0.020 A 
ATOM     86  C   UNL A   1      47.330  35.952  29.356  1.00  0.00     0.054 A 
BRANCH  86  87
ATOM     87  S   UNL A   1      47.950  37.615  29.731  1.00  0.00     0.124 S 
ATOM     88  O   UNL A   1      47.341  38.417  28.674  1.00  0.00    -0.237 OA
ATOM     89  O   UNL A   1      47.434  37.849  31.077  1.00  0.00    -0.237 OA
ATOM     90  O   UNL A   1      49.402  37.469  29.644  1.00  0.00    -0.744 OA
ENDBRANCH  86  87
ENDBRANCH  60  81
ENDBRANCH  34  35
ENDBRANCH  27  29
ENDBRANCH  26  27
ENDBRANCH  25  26
ENDBRANCH   1  25
TORSDOF 18
ENDMDL
MODEL 2
REMARK VINA RESULT:     -10.5      6.738     12.284
REMARK SMILES Cc1ccc(C#N)cc1S(=O)(=O)Nc1cccc(C(=O)OCCOC(=O)c2ccc(-c3c4nc(c(-c5ccc(S(=O)(=O)[O-])cc5)c5ccc([nH]5)c(-c5ccc(S(=O)(=O)[O-])cc5)c5nc(c(-c6ccc(S(=O)(=O)[O-])cc6)c6ccc3[nH]6)C=C5)C=C4)cc2)c1
REMARK SMILES IDX 22 1 21 2 19 3 20 4 18 5 14 6 15 7 87 8 16 9 17 10 13 11
REMARK SMILES IDX 10 13 11 14 12 15 9 16 1 17 2 18 3 19 4 20 8 21 5 22 6 23
REMARK SMILES IDX 7 24 23 25 24 26 25 27 26 28 27 29 28 30 86 31 29 32 85 33
REMARK SMILES IDX 30 34 31 35 32 36 79 37 33 38 84 39 78 40 80 41 34 42 83 43
REMARK SMILES IDX 77 44 76 45 35 47 65 48 46 49 64 50 47 51 50 52 63 53 81 54
REMARK SMILES IDX 48 55 49 56 62 58 82 59 51 60 36 61 37 62 45 63 38 64 44 65
REMARK SMILES IDX 39 66 40 67 41 68 42 69 43 70 66 71 67 72 75 73 68 74 74 75
REMARK SMILES IDX 69 76 70 77 71 78 72 79 73 80 52 81 53 82 61 83 54 84 60 85
REMARK SMILES IDX 55 86 56 87 57 88 58 89 59 90
REMARK H PARENT 13 12 80 46 50 57
REMARK Flexibility Score: inf
ROOT
ATOM      1  C   UNL A   1      32.498  31.116  27.177  1.00  0.00     0.275 C 
ENDROOT
BRANCH   1   2
ATOM      2  O   UNL A   1      32.149  30.487  25.926  1.00  0.00    -0.458 OA
BRANCH   2   3
ATOM      3  C   UNL A   1      32.703  29.272  25.678  1.00  0.00     0.338 C 
ATOM      4  O   UNL A   1      33.888  28.994  25.768  1.00  0.00    -0.246 OA
BRANCH   3   5
ATOM      5  C   UNL A   1      31.660  28.253  25.364  1.00  0.00     0.062 A 
ATOM      6  C   UNL A   1      30.646  26.079  25.727  1.00  0.00     0.050 A 
ATOM      7  C   UNL A   1      29.899  26.214  24.558  1.00  0.00     0.027 A 
ATOM      8  C   UNL A   1      31.465  27.129  26.168  1.00  0.00     0.042 A 
ATOM      9  C   UNL A   1      30.051  27.361  23.774  1.00  0.00     0.003 A 
ATOM     10  C   UNL A   1      30.938  28.368  24.167  1.00  0.00     0.016 A 
BRANCH   6  11
ATOM     11  N   UNL A   1      30.790  24.868  26.441  1.00  0.00    -0.280 N 
ATOM     12  H   UNL A   1      30.006  24.572  26.957  1.00  0.00     0.180 HD
BRANCH  11  13
ATOM     13  S   UNL A   1      32.124  23.888  26.510  1.00  0.00     0.262 S 
ATOM     14  O   UNL A   1      31.960  22.990  27.635  1.00  0.00    -0.201 OA
ATOM     15  O   UNL A   1      33.240  24.815  26.484  1.00  0.00    -0.201 OA
BRANCH  13  16
ATOM     16  C   UNL A   1      32.342  22.843  25.066  1.00  0.00     0.092 A 
ATOM     17  C   UNL A   1      32.679  24.549  23.129  1.00  0.00     0.046 C 
ATOM     18  C   UNL A   1      32.428  23.194  23.710  1.00  0.00    -0.030 A 
ATOM     19  C   UNL A   1      32.293  22.170  22.743  1.00  0.00     0.006 A 
ATOM     20  C   UNL A   1      32.230  20.825  23.097  1.00  0.00     0.020 A 
ATOM     21  C   UNL A   1      32.338  21.469  25.411  1.00  0.00     0.042 A 
ATOM     22  C   UNL A   1      32.307  20.468  24.436  1.00  0.00     0.053 A 
BRANCH  22  23
ATOM     23  C   UNL A   1      32.352  19.085  24.816  1.00  0.00     0.099 C 
ATOM     24  N   UNL A   1      32.372  17.965  25.108  1.00  0.00    -0.192 NA
ENDBRANCH  22  23
ENDBRANCH  13  16
ENDBRANCH  11  13
ENDBRANCH   6  11
ENDBRANCH   3   5
ENDBRANCH   2   3
ENDBRANCH   1   2
BRANCH   1  25
ATOM     25  C   UNL A   1      32.036  32.577  27.241  1.00  0.00     0.275 C 
BRANCH  25  26
ATOM     26  O   UNL A   1      33.149  33.486  27.244  1.00  0.00    -0.458 OA
BRANCH  26  27
ATOM     27  C   UNL A   1      33.299  34.206  28.380  1.00  0.00     0.338 C 
ATOM     28  O   UNL A   1      32.529  35.028  28.844  1.00  0.00    -0.246 OA
BRANCH  27  29
ATOM     29  C   UNL A   1      34.494  33.723  29.084  1.00  0.00     0.060 A 
ATOM     30  C   UNL A   1      35.764  34.229  28.809  1.00  0.00     0.016 A 
ATOM     31  C   UNL A   1      34.312  32.758  30.074  1.00  0.00     0.016 A 
ATOM     32  C   UNL A   1      36.863  33.720  29.511  1.00  0.00     0.010 A 
ATOM     33  C   UNL A   1      35.400  32.283  30.798  1.00  0.00     0.010 A 
ATOM     34  C   UNL A   1      36.692  32.740  30.509  1.00  0.00    -0.014 A 
BRANCH  34  35
ATOM     35  C   UNL A   1      37.848  32.188  31.265  1.00  0.00     0.031 A 
ATOM     36  C   UNL A   1      38.215  32.747  32.616  1.00  0.00     0.074 A 
ATOM     37  C   UNL A   1      38.596  31.211  30.712  1.00  0.00     0.049 A 
ATOM     38  N   UNL A   1      39.200  32.402  33.406  1.00  0.00    -0.248 NA
ATOM     39  C   UNL A   1      37.389  33.848  33.140  1.00  0.00     0.031 C 
ATOM     40  C   UNL A   1      38.362  30.624  29.392  1.00  0.00     0.029 A 
ATOM     41  N   UNL A   1      39.694  30.535  31.186  1.00  0.00    -0.354 N 
ATOM     42  C   UNL A   1      39.108  33.236  34.515  1.00  0.00     0.074 A 
ATOM     43  C   UNL A   1      38.020  34.154  34.266  1.00  0.00     0.031 C 
ATOM     44  C   UNL A   1      39.254  29.645  29.183  1.00  0.00     0.029 A 
ATOM     45  C   UNL A   1      40.164  29.570  30.325  1.00  0.00     0.049 A 
ATOM     46  H   UNL A   1      40.107  30.724  32.060  1.00  0.00     0.167 HD
ATOM     47  C   UNL A   1      39.839  33.211  35.655  1.00  0.00     0.031 A 
ATOM     48  C   UNL A   1      41.204  28.719  30.434  1.00  0.00     0.031 A 
ATOM     49  C   UNL A   1      40.906  32.274  35.897  1.00  0.00     0.049 A 
ATOM     50  C   UNL A   1      42.023  28.727  31.696  1.00  0.00     0.074 A 
ATOM     51  C   UNL A   1      41.672  32.132  37.040  1.00  0.00     0.029 A 
ATOM     52  N   UNL A   1      41.355  31.321  34.995  1.00  0.00    -0.354 N 
ATOM     53  N   UNL A   1      41.865  29.465  32.769  1.00  0.00    -0.248 NA
ATOM     54  C   UNL A   1      43.147  27.784  31.775  1.00  0.00     0.031 C 
ATOM     55  C   UNL A   1      42.639  31.157  36.798  1.00  0.00     0.029 A 
ATOM     56  C   UNL A   1      42.416  30.617  35.541  1.00  0.00     0.049 A 
ATOM     57  H   UNL A   1      40.976  31.167  34.099  1.00  0.00     0.167 HD
ATOM     58  C   UNL A   1      42.858  29.065  33.656  1.00  0.00     0.074 A 
ATOM     59  C   UNL A   1      43.594  28.001  33.006  1.00  0.00     0.031 C 
ATOM     60  C   UNL A   1      43.137  29.547  34.892  1.00  0.00     0.031 A 
BRANCH  47  61
ATOM     61  C   UNL A   1      39.498  34.182  36.761  1.00  0.00    -0.014 A 
ATOM     62  C   UNL A   1      40.074  35.468  36.775  1.00  0.00     0.010 A 
ATOM     63  C   UNL A   1      38.733  33.770  37.869  1.00  0.00     0.010 A 
ATOM     64  C   UNL A   1      39.940  36.296  37.894  1.00  0.00     0.020 A 
ATOM     65  C   UNL A   1      38.563  34.611  38.972  1.00  0.00     0.020 A 
ATOM     66  C   UNL A   1      39.195  35.856  38.992  1.00  0.00     0.054 A 
BRANCH  66  67
ATOM     67  S   UNL A   1      39.095  36.913  40.462  1.00  0.00     0.124 S 
ATOM     68  O   UNL A   1      40.495  37.251  40.697  1.00  0.00    -0.237 OA
ATOM     69  O   UNL A   1      38.247  38.012  40.005  1.00  0.00    -0.237 OA
ATOM     70  O   UNL A   1      38.486  36.045  41.468  1.00  0.00    -0.744 OA
ENDBRANCH  66  67
ENDBRANCH  47  61
BRANCH  48  71
ATOM     71  C   UNL A   1      41.478  27.763  29.320  1.00  0.00    -0.014 A 
ATOM     72  C   UNL A   1      40.720  26.582  29.193  1.00  0.00     0.010 A 
ATOM     73  C   UNL A   1      42.566  27.967  28.453  1.00  0.00     0.010 A 
ATOM     74  C   UNL A   1      41.094  25.591  28.282  1.00  0.00     0.020 A 
ATOM     75  C   UNL A   1      42.919  26.996  27.510  1.00  0.00     0.020 A 
ATOM     76  C   UNL A   1      42.203  25.797  27.459  1.00  0.00     0.054 A 
BRANCH  76  77
ATOM     77  S   UNL A   1      42.725  24.454  26.357  1.00  0.00     0.124 S 
ATOM     78  O   UNL A   1      44.124  24.280  26.742  1.00  0.00    -0.237 OA
ATOM     79  O   UNL A   1      41.828  23.367  26.737  1.00  0.00    -0.237 OA
ATOM     80  O   UNL A   1      42.508  25.001  25.021  1.00  0.00    -0.744 OA
ENDBRANCH  76  77
ENDBRANCH  48  71
BRANCH  60  81
ATOM     81  C   UNL A   1      44.297  28.956  35.654  1.00  0.00    -0.014 A 
ATOM     82  C   UNL A   1      44.065  27.950  36.612  1.00  0.00     0.010 A 
ATOM     83  C   UNL A   1      45.577  29.530  35.562  1.00  0.00     0.010 A 
ATOM     84  C   UNL A   1      45.068  27.582  37.512  1.00  0.00     0.020 A 
ATOM     85  C   UNL A   1      46.596  29.134  36.435  1.00  0.00     0.020 A 
ATOM     86  C   UNL A   1      46.322  28.192  37.428  1.00  0.00     0.054 A 
BRANCH  86  87
ATOM     87  S   UNL A   1      47.575  27.778  38.673  1.00  0.00     0.124 S 
ATOM     88  O   UNL A   1      47.292  26.372  38.941  1.00  0.00    -0.237 OA
ATOM     89  O   UNL A   1      48.824  28.046  37.965  1.00  0.00    -0.237 OA
ATOM     90  O   UNL A   1      47.282  28.693  39.774  1.00  0.00    -0.744 OA
ENDBRANCH  86  87
ENDBRANCH  60  81
ENDBRANCH  34  35
ENDBRANCH  27  29
ENDBRANCH  26  27
ENDBRANCH  25  26
ENDBRANCH   1  25
TORSDOF 18
ENDMDL
MODEL 3
REMARK VINA RESULT:     -10.4      1.764      8.570
REMARK SMILES Cc1ccc(C#N)cc1S(=O)(=O)Nc1cccc(C(=O)OCCOC(=O)c2ccc(-c3c4nc(c(-c5ccc(S(=O)(=O)[O-])cc5)c5ccc([nH]5)c(-c5ccc(S(=O)(=O)[O-])cc5)c5nc(c(-c6ccc(S(=O)(=O)[O-])cc6)c6ccc3[nH]6)C=C5)C=C4)cc2)c1
REMARK SMILES IDX 22 1 21 2 19 3 20 4 18 5 14 6 15 7 87 8 16 9 17 10 13 11
REMARK SMILES IDX 10 13 11 14 12 15 9 16 1 17 2 18 3 19 4 20 8 21 5 22 6 23
REMARK SMILES IDX 7 24 23 25 24 26 25 27 26 28 27 29 28 30 86 31 29 32 85 33
REMARK SMILES IDX 30 34 31 35 32 36 79 37 33 38 84 39 78 40 80 41 34 42 83 43
REMARK SMILES IDX 77 44 76 45 35 47 65 48 46 49 64 50 47 51 50 52 63 53 81 54
REMARK SMILES IDX 48 55 49 56 62 58 82 59 51 60 36 61 37 62 45 63 38 64 44 65
REMARK SMILES IDX 39 66 40 67 41 68 42 69 43 70 66 71 67 72 75 73 68 74 74 75
REMARK SMILES IDX 69 76 70 77 71 78 72 79 73 80 52 81 53 82 61 83 54 84 60 85
REMARK SMILES IDX 55 86 56 87 57 88 58 89 59 90
REMARK H PARENT 13 12 80 46 50 57
REMARK Flexibility Score: inf
ROOT
ATOM      1  C   UNL A   1      42.271  18.951  26.920  1.00  0.00     0.275 C 
ENDROOT
BRANCH   1   2
ATOM      2  O   UNL A   1      41.684  20.212  26.536  1.00  0.00    -0.458 OA
BRANCH   2   3
ATOM      3  C   UNL A   1      40.389  20.183  26.127  1.00  0.00     0.338 C 
ATOM      4  O   UNL A   1      39.798  19.209  25.691  1.00  0.00    -0.246 OA
BRANCH   3   5
ATOM      5  C   UNL A   1      39.716  21.492  26.364  1.00  0.00     0.062 A 
ATOM      6  C   UNL A   1      38.157  23.225  25.690  1.00  0.00     0.050 A 
ATOM      7  C   UNL A   1      38.685  24.095  26.642  1.00  0.00     0.027 A 
ATOM      8  C   UNL A   1      38.620  21.903  25.604  1.00  0.00     0.042 A 
ATOM      9  C   UNL A   1      39.749  23.672  27.443  1.00  0.00     0.003 A 
ATOM     10  C   UNL A   1      40.272  22.383  27.294  1.00  0.00     0.016 A 
BRANCH   6  11
ATOM     11  N   UNL A   1      37.288  23.622  24.649  1.00  0.00    -0.280 N 
ATOM     12  H   UNL A   1      37.627  24.318  24.040  1.00  0.00     0.180 HD
BRANCH  11  13
ATOM     13  S   UNL A   1      35.764  23.053  24.330  1.00  0.00     0.262 S 
ATOM     14  O   UNL A   1      35.751  21.632  24.609  1.00  0.00    -0.201 OA
ATOM     15  O   UNL A   1      35.489  23.526  22.986  1.00  0.00    -0.201 OA
BRANCH  13  16
ATOM     16  C   UNL A   1      34.482  23.775  25.358  1.00  0.00     0.092 A 
ATOM     17  C   UNL A   1      33.664  21.770  26.804  1.00  0.00     0.046 C 
ATOM     18  C   UNL A   1      33.585  23.154  26.242  1.00  0.00    -0.030 A 
ATOM     19  C   UNL A   1      32.474  23.898  26.702  1.00  0.00     0.006 A 
ATOM     20  C   UNL A   1      32.329  25.256  26.426  1.00  0.00     0.020 A 
ATOM     21  C   UNL A   1      34.356  25.168  25.136  1.00  0.00     0.042 A 
ATOM     22  C   UNL A   1      33.304  25.907  25.684  1.00  0.00     0.053 A 
BRANCH  22  23
ATOM     23  C   UNL A   1      33.231  27.325  25.478  1.00  0.00     0.099 C 
ATOM     24  N   UNL A   1      33.192  28.469  25.303  1.00  0.00    -0.192 NA
ENDBRANCH  22  23
ENDBRANCH  13  16
ENDBRANCH  11  13
ENDBRANCH   6  11
ENDBRANCH   3   5
ENDBRANCH   2   3
ENDBRANCH   1   2
BRANCH   1  25
ATOM     25  C   UNL A   1      43.337  18.479  25.924  1.00  0.00     0.275 C 
BRANCH  25  26
ATOM     26  O   UNL A   1      43.450  19.373  24.805  1.00  0.00    -0.458 OA
BRANCH  26  27
ATOM     27  C   UNL A   1      44.714  19.721  24.473  1.00  0.00     0.338 C 
ATOM     28  O   UNL A   1      45.532  19.052  23.865  1.00  0.00    -0.246 OA
BRANCH  27  29
ATOM     29  C   UNL A   1      44.918  21.132  24.823  1.00  0.00     0.060 A 
ATOM     30  C   UNL A   1      44.725  22.155  23.894  1.00  0.00     0.016 A 
ATOM     31  C   UNL A   1      45.280  21.424  26.137  1.00  0.00     0.016 A 
ATOM     32  C   UNL A   1      44.944  23.480  24.290  1.00  0.00     0.010 A 
ATOM     33  C   UNL A   1      45.457  22.744  26.538  1.00  0.00     0.010 A 
ATOM     34  C   UNL A   1      45.315  23.786  25.613  1.00  0.00    -0.014 A 
BRANCH  34  35
ATOM     35  C   UNL A   1      45.553  25.188  26.052  1.00  0.00     0.031 A 
ATOM     36  C   UNL A   1      44.413  26.031  26.564  1.00  0.00     0.074 A 
ATOM     37  C   UNL A   1      46.789  25.716  25.944  1.00  0.00     0.049 A 
ATOM     38  N   UNL A   1      44.431  27.276  26.970  1.00  0.00    -0.248 NA
ATOM     39  C   UNL A   1      43.077  25.411  26.608  1.00  0.00     0.031 C 
ATOM     40  C   UNL A   1      47.958  25.009  25.421  1.00  0.00     0.029 A 
ATOM     41  N   UNL A   1      47.272  26.960  26.272  1.00  0.00    -0.354 N 
ATOM     42  C   UNL A   1      43.120  27.582  27.319  1.00  0.00     0.074 A 
ATOM     43  C   UNL A   1      42.318  26.422  27.007  1.00  0.00     0.031 C 
ATOM     44  C   UNL A   1      49.030  25.809  25.509  1.00  0.00     0.029 A 
ATOM     45  C   UNL A   1      48.620  27.108  26.039  1.00  0.00     0.049 A 
ATOM     46  H   UNL A   1      46.707  27.677  26.639  1.00  0.00     0.167 HD
ATOM     47  C   UNL A   1      42.638  28.714  27.884  1.00  0.00     0.031 A 
ATOM     48  C   UNL A   1      49.439  28.163  26.227  1.00  0.00     0.031 A 
ATOM     49  C   UNL A   1      43.457  29.855  28.209  1.00  0.00     0.049 A 
ATOM     50  C   UNL A   1      48.878  29.422  26.829  1.00  0.00     0.074 A 
ATOM     51  C   UNL A   1      43.073  31.029  28.831  1.00  0.00     0.029 A 
ATOM     52  N   UNL A   1      44.814  29.966  27.946  1.00  0.00    -0.354 N 
ATOM     53  N   UNL A   1      47.653  29.661  27.232  1.00  0.00    -0.248 NA
ATOM     54  C   UNL A   1      49.803  30.549  27.018  1.00  0.00     0.031 C 
ATOM     55  C   UNL A   1      44.175  31.883  28.866  1.00  0.00     0.029 A 
ATOM     56  C   UNL A   1      45.273  31.207  28.356  1.00  0.00     0.049 A 
ATOM     57  H   UNL A   1      45.369  29.268  27.529  1.00  0.00     0.167 HD
ATOM     58  C   UNL A   1      47.663  30.957  27.736  1.00  0.00     0.074 A 
ATOM     59  C   UNL A   1      49.022  31.441  27.614  1.00  0.00     0.031 C 
ATOM     60  C   UNL A   1      46.633  31.679  28.244  1.00  0.00     0.031 A 
BRANCH  47  61
ATOM     61  C   UNL A   1      41.172  28.782  28.242  1.00  0.00    -0.014 A 
ATOM     62  C   UNL A   1      40.225  29.167  27.274  1.00  0.00     0.010 A 
ATOM     63  C   UNL A   1      40.750  28.619  29.575  1.00  0.00     0.010 A 
ATOM     64  C   UNL A   1      38.903  29.442  27.640  1.00  0.00     0.020 A 
ATOM     65  C   UNL A   1      39.421  28.853  29.938  1.00  0.00     0.020 A 
ATOM     66  C   UNL A   1      38.513  29.295  28.974  1.00  0.00     0.054 A 
BRANCH  66  67
ATOM     67  S   UNL A   1      36.814  29.727  29.441  1.00  0.00     0.124 S 
ATOM     68  O   UNL A   1      36.889  31.178  29.574  1.00  0.00    -0.237 OA
ATOM     69  O   UNL A   1      36.038  29.234  28.306  1.00  0.00    -0.237 OA
ATOM     70  O   UNL A   1      36.606  28.996  30.690  1.00  0.00    -0.744 OA
ENDBRANCH  66  67
ENDBRANCH  47  61
BRANCH  48  71
ATOM     71  C   UNL A   1      50.885  28.029  25.879  1.00  0.00    -0.014 A 
ATOM     72  C   UNL A   1      51.344  28.387  24.596  1.00  0.00     0.010 A 
ATOM     73  C   UNL A   1      51.786  27.439  26.781  1.00  0.00     0.010 A 
ATOM     74  C   UNL A   1      52.647  28.081  24.195  1.00  0.00     0.020 A 
ATOM     75  C   UNL A   1      53.105  27.169  26.399  1.00  0.00     0.020 A 
ATOM     76  C   UNL A   1      53.514  27.456  25.095  1.00  0.00     0.054 A 
BRANCH  76  77
ATOM     77  S   UNL A   1      55.166  26.981  24.517  1.00  0.00     0.124 S 
ATOM     78  O   UNL A   1      55.453  25.820  25.356  1.00  0.00    -0.237 OA
ATOM     79  O   UNL A   1      54.937  26.695  23.104  1.00  0.00    -0.237 OA
ATOM     80  O   UNL A   1      55.978  28.164  24.788  1.00  0.00    -0.744 OA
ENDBRANCH  76  77
ENDBRANCH  48  71
BRANCH  60  81
ATOM     81  C   UNL A   1      46.899  33.090  28.707  1.00  0.00    -0.014 A 
ATOM     82  C   UNL A   1      46.843  34.152  27.784  1.00  0.00     0.010 A 
ATOM     83  C   UNL A   1      47.388  33.335  30.002  1.00  0.00     0.010 A 
ATOM     84  C   UNL A   1      47.342  35.412  28.121  1.00  0.00     0.020 A 
ATOM     85  C   UNL A   1      47.851  34.607  30.356  1.00  0.00     0.020 A 
ATOM     86  C   UNL A   1      47.860  35.625  29.400  1.00  0.00     0.054 A 
BRANCH  86  87
ATOM     87  S   UNL A   1      48.600  37.237  29.782  1.00  0.00     0.124 S 
ATOM     88  O   UNL A   1      49.941  37.100  29.222  1.00  0.00    -0.237 OA
ATOM     89  O   UNL A   1      47.716  38.164  29.082  1.00  0.00    -0.237 OA
ATOM     90  O   UNL A   1      48.538  37.307  31.240  1.00  0.00    -0.744 OA
ENDBRANCH  86  87
ENDBRANCH  60  81
ENDBRANCH  34  35
ENDBRANCH  27  29
ENDBRANCH  26  27
ENDBRANCH  25  26
ENDBRANCH   1  25
TORSDOF 18
ENDMDL
