MODEL 1
REMARK VINA RESULT:     -12.7      0.000      0.000
REMARK SMILES O=C(OCCOC(=O)c1ccc(-c2c3nc(c(-c4ccc(S(=O)(=O)[O-])cc4)c4ccc([nH]4)c(-c4ccc(S(=O)(=O)[O-])cc4)c4nc(c(-c5ccc(S(=O)(=O)[O-])cc5)c5ccc2[nH]5)C=C4)C=C3)cc1)C1=Cc2cc(OC(F)(F)F)ccc2O[C@@H]1C(F)(F)F
REMARK SMILES IDX 5 1 4 2 3 3 2 4 1 5 69 6 70 7 83 8 71 9 82 10 72 11 81 12
REMARK SMILES IDX 73 13 80 14 79 15 84 16 85 17 86 18 87 19 74 20 75 21 76 22
REMARK SMILES IDX 77 23 78 24 6 25 7 26 8 27 9 28 10 29 68 30 11 31 67 32
REMARK SMILES IDX 12 33 13 34 14 35 61 36 15 37 66 38 60 39 62 40 16 41 65 42
REMARK SMILES IDX 59 43 58 44 17 46 47 47 28 48 46 49 29 50 32 51 45 52 63 53
REMARK SMILES IDX 30 54 31 55 44 57 64 58 33 59 18 60 19 61 27 62 20 63 26 64
REMARK SMILES IDX 21 65 22 66 23 67 24 68 25 69 48 70 49 71 57 72 50 73 56 74
REMARK SMILES IDX 51 75 52 76 53 77 54 78 55 79 34 80 35 81 43 82 36 83 42 84
REMARK SMILES IDX 37 85 38 86 39 87 40 88 41 89
REMARK H PARENT 62 45 32 56
REMARK Flexibility Score: inf
ROOT
ATOM      1  C   UNL A   1      39.304  22.954  26.614  1.00  0.00     0.275 C 
ENDROOT
BRANCH   1   2
ATOM      2  C   UNL A   1      37.798  21.894  25.465  1.00  0.00     0.275 C 
BRANCH   2   3
ATOM      3  O   UNL A   1      36.289  21.790  25.800  1.00  0.00    -0.459 OA
BRANCH   3   4
ATOM      4  C   UNL A   1      35.505  22.020  24.740  1.00  0.00     0.338 C 
ATOM      5  O   UNL A   1      35.742  22.621  23.725  1.00  0.00    -0.246 OA
BRANCH   4   6
ATOM      6  C   UNL A   1      34.270  21.689  25.414  1.00  0.00     0.087 C 
ATOM      7  C   UNL A   1      33.746  22.769  26.218  1.00  0.00     0.027 C 
ATOM      8  C   UNL A   1      33.418  20.903  23.877  1.00  0.00     0.316 C 
ATOM      9  C   UNL A   1      32.318  23.712  25.754  1.00  0.00     0.021 A 
ATOM     10  O   UNL A   1      31.903  21.981  23.304  1.00  0.00    -0.475 OA
ATOM     11  C   UNL A   1      32.046  24.804  26.514  1.00  0.00     0.058 A 
ATOM     12  C   UNL A   1      31.442  23.456  24.291  1.00  0.00     0.128 A 
ATOM     13  C   UNL A   1      31.073  25.677  26.013  1.00  0.00     0.130 A 
ATOM     14  C   UNL A   1      30.508  24.355  23.852  1.00  0.00     0.051 A 
ATOM     15  C   UNL A   1      30.360  25.476  24.749  1.00  0.00     0.050 A 
BRANCH   8  16
ATOM     16  C   UNL A   1      33.628  19.418  24.482  1.00  0.00     0.430 C 
ATOM     17  F   UNL A   1      32.896  19.241  25.591  1.00  0.00    -0.167 F 
ATOM     18  F   UNL A   1      33.104  18.484  23.624  1.00  0.00    -0.167 F 
ATOM     19  F   UNL A   1      34.880  18.960  24.638  1.00  0.00    -0.167 F 
ENDBRANCH   8  16
BRANCH  13  20
ATOM     20  O   UNL A   1      30.938  26.706  26.908  1.00  0.00    -0.406 OA
BRANCH  20  21
ATOM     21  C   UNL A   1      31.702  27.880  26.816  1.00  0.00     0.573 C 
ATOM     22  F   UNL A   1      33.019  27.597  26.851  1.00  0.00    -0.132 F 
ATOM     23  F   UNL A   1      31.405  28.569  25.699  1.00  0.00    -0.132 F 
ATOM     24  F   UNL A   1      31.405  28.654  27.886  1.00  0.00    -0.132 F 
ENDBRANCH  20  21
ENDBRANCH  13  20
ENDBRANCH   4   6
ENDBRANCH   3   4
ENDBRANCH   2   3
ENDBRANCH   1   2
BRANCH   1  25
ATOM     25  O   UNL A   1      39.393  24.703  26.750  1.00  0.00    -0.458 OA
BRANCH  25  26
ATOM     26  C   UNL A   1      40.259  25.777  26.660  1.00  0.00     0.338 C 
ATOM     27  O   UNL A   1      41.049  26.063  25.778  1.00  0.00    -0.246 OA
BRANCH  26  28
ATOM     28  C   UNL A   1      39.738  26.817  27.609  1.00  0.00     0.060 A 
ATOM     29  C   UNL A   1      39.139  26.382  28.809  1.00  0.00     0.016 A 
ATOM     30  C   UNL A   1      40.214  28.124  27.515  1.00  0.00     0.016 A 
ATOM     31  C   UNL A   1      39.251  27.168  29.974  1.00  0.00     0.010 A 
ATOM     32  C   UNL A   1      40.320  28.901  28.674  1.00  0.00     0.010 A 
ATOM     33  C   UNL A   1      39.917  28.402  29.928  1.00  0.00    -0.014 A 
BRANCH  33  34
ATOM     34  C   UNL A   1      39.950  29.313  31.104  1.00  0.00     0.031 A 
ATOM     35  C   UNL A   1      41.056  29.034  32.078  1.00  0.00     0.074 A 
ATOM     36  C   UNL A   1      39.029  30.266  31.374  1.00  0.00     0.049 A 
ATOM     37  N   UNL A   1      41.297  29.562  33.245  1.00  0.00    -0.248 NA
ATOM     38  C   UNL A   1      41.999  27.971  31.682  1.00  0.00     0.031 C 
ATOM     39  C   UNL A   1      37.897  30.643  30.526  1.00  0.00     0.029 A 
ATOM     40  N   UNL A   1      38.895  31.092  32.473  1.00  0.00    -0.354 N 
ATOM     41  C   UNL A   1      42.410  28.885  33.723  1.00  0.00     0.074 A 
ATOM     42  C   UNL A   1      42.754  27.869  32.759  1.00  0.00     0.031 C 
ATOM     43  C   UNL A   1      37.186  31.614  31.138  1.00  0.00     0.029 A 
ATOM     44  C   UNL A   1      37.793  31.924  32.432  1.00  0.00     0.049 A 
ATOM     45  H   UNL A   1      39.533  31.088  33.224  1.00  0.00     0.167 HD
ATOM     46  C   UNL A   1      43.111  29.100  34.856  1.00  0.00     0.031 A 
ATOM     47  C   UNL A   1      37.336  32.822  33.336  1.00  0.00     0.031 A 
ATOM     48  C   UNL A   1      42.757  30.085  35.831  1.00  0.00     0.049 A 
ATOM     49  C   UNL A   1      38.108  33.014  34.628  1.00  0.00     0.074 A 
ATOM     50  C   UNL A   1      43.402  30.393  37.012  1.00  0.00     0.029 A 
ATOM     51  N   UNL A   1      41.649  30.913  35.740  1.00  0.00    -0.354 N 
ATOM     52  N   UNL A   1      39.207  32.417  35.033  1.00  0.00    -0.248 NA
ATOM     53  C   UNL A   1      37.588  34.008  35.583  1.00  0.00     0.031 C 
ATOM     54  C   UNL A   1      42.651  31.375  37.665  1.00  0.00     0.029 A 
ATOM     55  C   UNL A   1      41.580  31.724  36.856  1.00  0.00     0.049 A 
ATOM     56  H   UNL A   1      41.008  30.922  34.993  1.00  0.00     0.167 HD
ATOM     57  C   UNL A   1      39.528  32.992  36.261  1.00  0.00     0.074 A 
ATOM     58  C   UNL A   1      38.514  33.989  36.533  1.00  0.00     0.031 C 
ATOM     59  C   UNL A   1      40.569  32.724  37.090  1.00  0.00     0.031 A 
BRANCH  46  60
ATOM     60  C   UNL A   1      44.303  28.218  35.078  1.00  0.00    -0.014 A 
ATOM     61  C   UNL A   1      45.561  28.563  34.545  1.00  0.00     0.010 A 
ATOM     62  C   UNL A   1      44.155  27.003  35.765  1.00  0.00     0.010 A 
ATOM     63  C   UNL A   1      46.635  27.680  34.647  1.00  0.00     0.020 A 
ATOM     64  C   UNL A   1      45.239  26.134  35.903  1.00  0.00     0.020 A 
ATOM     65  C   UNL A   1      46.465  26.470  35.325  1.00  0.00     0.054 A 
BRANCH  65  66
ATOM     66  S   UNL A   1      47.882  25.349  35.454  1.00  0.00     0.124 S 
ATOM     67  O   UNL A   1      47.367  24.136  34.822  1.00  0.00    -0.237 OA
ATOM     68  O   UNL A   1      48.916  26.055  34.703  1.00  0.00    -0.237 OA
ATOM     69  O   UNL A   1      48.116  25.251  36.893  1.00  0.00    -0.744 OA
ENDBRANCH  65  66
ENDBRANCH  46  60
BRANCH  47  70
ATOM     70  C   UNL A   1      36.099  33.633  33.085  1.00  0.00    -0.014 A 
ATOM     71  C   UNL A   1      34.820  33.101  33.350  1.00  0.00     0.010 A 
ATOM     72  C   UNL A   1      36.178  34.920  32.520  1.00  0.00     0.010 A 
ATOM     73  C   UNL A   1      33.657  33.820  33.036  1.00  0.00     0.020 A 
ATOM     74  C   UNL A   1      35.018  35.655  32.229  1.00  0.00     0.020 A 
ATOM     75  C   UNL A   1      33.763  35.097  32.479  1.00  0.00     0.054 A 
BRANCH  75  76
ATOM     76  S   UNL A   1      32.243  36.028  32.118  1.00  0.00     0.124 S 
ATOM     77  O   UNL A   1      32.394  37.205  32.968  1.00  0.00    -0.237 OA
ATOM     78  O   UNL A   1      32.355  36.267  30.682  1.00  0.00    -0.237 OA
ATOM     79  O   UNL A   1      31.176  35.109  32.509  1.00  0.00    -0.744 OA
ENDBRANCH  75  76
ENDBRANCH  47  70
BRANCH  59  80
ATOM     80  C   UNL A   1      40.713  33.549  38.342  1.00  0.00    -0.014 A 
ATOM     81  C   UNL A   1      41.542  34.684  38.384  1.00  0.00     0.010 A 
ATOM     82  C   UNL A   1      39.907  33.247  39.457  1.00  0.00     0.010 A 
ATOM     83  C   UNL A   1      41.575  35.488  39.527  1.00  0.00     0.020 A 
ATOM     84  C   UNL A   1      39.913  34.066  40.587  1.00  0.00     0.020 A 
ATOM     85  C   UNL A   1      40.756  35.178  40.618  1.00  0.00     0.054 A 
BRANCH  85  86
ATOM     86  S   UNL A   1      40.766  36.279  42.059  1.00  0.00     0.124 S 
ATOM     87  O   UNL A   1      39.365  36.682  42.143  1.00  0.00    -0.237 OA
ATOM     88  O   UNL A   1      41.232  35.400  43.129  1.00  0.00    -0.237 OA
ATOM     89  O   UNL A   1      41.698  37.338  41.682  1.00  0.00    -0.744 OA
ENDBRANCH  85  86
ENDBRANCH  59  80
ENDBRANCH  33  34
ENDBRANCH  26  28
ENDBRANCH  25  26
ENDBRANCH   1  25
TORSDOF 17
ENDMDL
MODEL 2
REMARK VINA RESULT:     -12.0      6.265     11.164
REMARK SMILES O=C(OCCOC(=O)c1ccc(-c2c3nc(c(-c4ccc(S(=O)(=O)[O-])cc4)c4ccc([nH]4)c(-c4ccc(S(=O)(=O)[O-])cc4)c4nc(c(-c5ccc(S(=O)(=O)[O-])cc5)c5ccc2[nH]5)C=C4)C=C3)cc1)C1=Cc2cc(OC(F)(F)F)ccc2O[C@@H]1C(F)(F)F
REMARK SMILES IDX 5 1 4 2 3 3 2 4 1 5 69 6 70 7 83 8 71 9 82 10 72 11 81 12
REMARK SMILES IDX 73 13 80 14 79 15 84 16 85 17 86 18 87 19 74 20 75 21 76 22
REMARK SMILES IDX 77 23 78 24 6 25 7 26 8 27 9 28 10 29 68 30 11 31 67 32
REMARK SMILES IDX 12 33 13 34 14 35 61 36 15 37 66 38 60 39 62 40 16 41 65 42
REMARK SMILES IDX 59 43 58 44 17 46 47 47 28 48 46 49 29 50 32 51 45 52 63 53
REMARK SMILES IDX 30 54 31 55 44 57 64 58 33 59 18 60 19 61 27 62 20 63 26 64
REMARK SMILES IDX 21 65 22 66 23 67 24 68 25 69 48 70 49 71 57 72 50 73 56 74
REMARK SMILES IDX 51 75 52 76 53 77 54 78 55 79 34 80 35 81 43 82 36 83 42 84
REMARK SMILES IDX 37 85 38 86 39 87 40 88 41 89
REMARK H PARENT 62 45 32 56
REMARK Flexibility Score: inf
ROOT
ATOM      1  C   UNL A   1      38.287  22.011  25.738  1.00  0.00     0.275 C 
ENDROOT
BRANCH   1   2
ATOM      2  C   UNL A   1      37.025  22.156  23.979  1.00  0.00     0.275 C 
BRANCH   2   3
ATOM      3  O   UNL A   1      36.178  23.381  23.551  1.00  0.00    -0.459 OA
BRANCH   3   4
ATOM      4  C   UNL A   1      34.878  23.093  23.419  1.00  0.00     0.338 C 
ATOM      5  O   UNL A   1      34.178  23.133  22.441  1.00  0.00    -0.246 OA
BRANCH   4   6
ATOM      6  C   UNL A   1      34.586  23.149  24.833  1.00  0.00     0.087 C 
ATOM      7  C   UNL A   1      34.571  24.492  25.366  1.00  0.00     0.027 C 
ATOM      8  C   UNL A   1      33.090  21.940  24.766  1.00  0.00     0.316 C 
ATOM      9  C   UNL A   1      33.078  25.330  25.828  1.00  0.00     0.021 A 
ATOM     10  O   UNL A   1      31.433  22.870  25.185  1.00  0.00    -0.475 OA
ATOM     11  C   UNL A   1      33.200  26.645  26.146  1.00  0.00     0.058 A 
ATOM     12  C   UNL A   1      31.507  24.640  25.658  1.00  0.00     0.128 A 
ATOM     13  C   UNL A   1      32.006  27.361  26.277  1.00  0.00     0.130 A 
ATOM     14  C   UNL A   1      30.376  25.400  25.789  1.00  0.00     0.051 A 
ATOM     15  C   UNL A   1      30.673  26.780  26.091  1.00  0.00     0.050 A 
BRANCH   8  16
ATOM     16  C   UNL A   1      33.970  20.766  25.448  1.00  0.00     0.430 C 
ATOM     17  F   UNL A   1      33.183  19.841  26.015  1.00  0.00    -0.167 F 
ATOM     18  F   UNL A   1      34.625  20.049  24.478  1.00  0.00    -0.167 F 
ATOM     19  F   UNL A   1      34.987  21.112  26.252  1.00  0.00    -0.167 F 
ENDBRANCH   8  16
BRANCH  13  20
ATOM     20  O   UNL A   1      32.329  28.655  26.596  1.00  0.00    -0.406 OA
BRANCH  20  21
ATOM     21  C   UNL A   1      32.298  29.687  25.646  1.00  0.00     0.573 C 
ATOM     22  F   UNL A   1      32.422  30.889  26.243  1.00  0.00    -0.132 F 
ATOM     23  F   UNL A   1      33.259  29.527  24.719  1.00  0.00    -0.132 F 
ATOM     24  F   UNL A   1      31.096  29.644  25.026  1.00  0.00    -0.132 F 
ENDBRANCH  20  21
ENDBRANCH  13  20
ENDBRANCH   4   6
ENDBRANCH   3   4
ENDBRANCH   2   3
ENDBRANCH   1   2
BRANCH   1  25
ATOM     25  O   UNL A   1      39.813  21.143  25.792  1.00  0.00    -0.458 OA
BRANCH  25  26
ATOM     26  C   UNL A   1      40.696  20.509  26.646  1.00  0.00     0.338 C 
ATOM     27  O   UNL A   1      40.746  19.338  26.979  1.00  0.00    -0.246 OA
BRANCH  26  28
ATOM     28  C   UNL A   1      41.900  21.401  26.742  1.00  0.00     0.060 A 
ATOM     29  C   UNL A   1      42.211  22.220  25.637  1.00  0.00     0.016 A 
ATOM     30  C   UNL A   1      42.410  21.723  27.999  1.00  0.00     0.016 A 
ATOM     31  C   UNL A   1      42.811  23.479  25.845  1.00  0.00     0.010 A 
ATOM     32  C   UNL A   1      43.008  22.972  28.198  1.00  0.00     0.010 A 
ATOM     33  C   UNL A   1      43.139  23.896  27.143  1.00  0.00    -0.014 A 
BRANCH  33  34
ATOM     34  C   UNL A   1      43.882  25.162  27.390  1.00  0.00     0.031 A 
ATOM     35  C   UNL A   1      43.044  26.281  27.932  1.00  0.00     0.074 A 
ATOM     36  C   UNL A   1      45.182  25.373  27.079  1.00  0.00     0.049 A 
ATOM     37  N   UNL A   1      43.353  27.529  28.148  1.00  0.00    -0.248 NA
ATOM     38  C   UNL A   1      41.640  25.938  28.230  1.00  0.00     0.031 C 
ATOM     39  C   UNL A   1      46.116  24.384  26.540  1.00  0.00     0.029 A 
ATOM     40  N   UNL A   1      45.944  26.522  27.161  1.00  0.00    -0.354 N 
ATOM     41  C   UNL A   1      42.178  28.117  28.595  1.00  0.00     0.074 A 
ATOM     42  C   UNL A   1      41.141  27.115  28.554  1.00  0.00     0.031 C 
ATOM     43  C   UNL A   1      47.315  24.968  26.335  1.00  0.00     0.029 A 
ATOM     44  C   UNL A   1      47.241  26.381  26.707  1.00  0.00     0.049 A 
ATOM     45  H   UNL A   1      45.592  27.371  27.514  1.00  0.00     0.167 HD
ATOM     46  C   UNL A   1      41.974  29.378  29.030  1.00  0.00     0.031 A 
ATOM     47  C   UNL A   1      48.241  27.288  26.606  1.00  0.00     0.031 A 
ATOM     48  C   UNL A   1      42.989  30.386  29.044  1.00  0.00     0.049 A 
ATOM     49  C   UNL A   1      47.977  28.715  27.052  1.00  0.00     0.074 A 
ATOM     50  C   UNL A   1      42.893  31.694  29.473  1.00  0.00     0.029 A 
ATOM     51  N   UNL A   1      44.287  30.194  28.595  1.00  0.00    -0.354 N 
ATOM     52  N   UNL A   1      46.877  29.239  27.547  1.00  0.00    -0.248 NA
ATOM     53  C   UNL A   1      49.091  29.673  26.939  1.00  0.00     0.031 C 
ATOM     54  C   UNL A   1      44.123  32.313  29.231  1.00  0.00     0.029 A 
ATOM     55  C   UNL A   1      45.001  31.370  28.717  1.00  0.00     0.049 A 
ATOM     56  H   UNL A   1      44.645  29.348  28.240  1.00  0.00     0.167 HD
ATOM     57  C   UNL A   1      47.182  30.567  27.840  1.00  0.00     0.074 A 
ATOM     58  C   UNL A   1      48.569  30.768  27.476  1.00  0.00     0.031 C 
ATOM     59  C   UNL A   1      46.389  31.534  28.367  1.00  0.00     0.031 A 
BRANCH  46  60
ATOM     60  C   UNL A   1      40.584  29.705  29.492  1.00  0.00    -0.014 A 
ATOM     61  C   UNL A   1      39.573  30.015  28.561  1.00  0.00     0.010 A 
ATOM     62  C   UNL A   1      40.302  29.770  30.865  1.00  0.00     0.010 A 
ATOM     63  C   UNL A   1      38.319  30.439  29.000  1.00  0.00     0.020 A 
ATOM     64  C   UNL A   1      39.035  30.158  31.307  1.00  0.00     0.020 A 
ATOM     65  C   UNL A   1      38.060  30.509  30.371  1.00  0.00     0.054 A 
BRANCH  65  66
ATOM     66  S   UNL A   1      36.418  31.050  30.911  1.00  0.00     0.124 S 
ATOM     67  O   UNL A   1      35.671  31.047  29.654  1.00  0.00    -0.237 OA
ATOM     68  O   UNL A   1      36.039  30.012  31.866  1.00  0.00    -0.237 OA
ATOM     69  O   UNL A   1      36.659  32.369  31.489  1.00  0.00    -0.744 OA
ENDBRANCH  65  66
ENDBRANCH  46  60
BRANCH  47  70
ATOM     70  C   UNL A   1      49.594  26.916  26.077  1.00  0.00    -0.014 A 
ATOM     71  C   UNL A   1      49.947  27.188  24.739  1.00  0.00     0.010 A 
ATOM     72  C   UNL A   1      50.522  26.228  26.882  1.00  0.00     0.010 A 
ATOM     73  C   UNL A   1      51.177  26.763  24.214  1.00  0.00     0.020 A 
ATOM     74  C   UNL A   1      51.765  25.826  26.370  1.00  0.00     0.020 A 
ATOM     75  C   UNL A   1      52.082  26.087  25.035  1.00  0.00     0.054 A 
BRANCH  75  76
ATOM     76  S   UNL A   1      53.687  25.583  24.345  1.00  0.00     0.124 S 
ATOM     77  O   UNL A   1      53.741  24.166  24.692  1.00  0.00    -0.237 OA
ATOM     78  O   UNL A   1      53.526  25.879  22.924  1.00  0.00    -0.237 OA
ATOM     79  O   UNL A   1      54.646  26.433  25.048  1.00  0.00    -0.744 OA
ENDBRANCH  75  76
ENDBRANCH  47  70
BRANCH  59  80
ATOM     80  C   UNL A   1      46.999  32.884  28.642  1.00  0.00    -0.014 A 
ATOM     81  C   UNL A   1      47.679  33.153  29.842  1.00  0.00     0.010 A 
ATOM     82  C   UNL A   1      46.991  33.858  27.624  1.00  0.00     0.010 A 
ATOM     83  C   UNL A   1      48.323  34.380  30.026  1.00  0.00     0.020 A 
ATOM     84  C   UNL A   1      47.661  35.071  27.791  1.00  0.00     0.020 A 
ATOM     85  C   UNL A   1      48.316  35.328  28.997  1.00  0.00     0.054 A 
BRANCH  85  86
ATOM     86  S   UNL A   1      49.220  36.882  29.234  1.00  0.00     0.124 S 
ATOM     87  O   UNL A   1      48.296  37.861  28.668  1.00  0.00    -0.237 OA
ATOM     88  O   UNL A   1      49.384  36.938  30.685  1.00  0.00    -0.237 OA
ATOM     89  O   UNL A   1      50.456  36.684  28.482  1.00  0.00    -0.744 OA
ENDBRANCH  85  86
ENDBRANCH  59  80
ENDBRANCH  33  34
ENDBRANCH  26  28
ENDBRANCH  25  26
ENDBRANCH   1  25
TORSDOF 17
ENDMDL
MODEL 3
REMARK VINA RESULT:     -11.9      7.153     14.092
REMARK SMILES O=C(OCCOC(=O)c1ccc(-c2c3nc(c(-c4ccc(S(=O)(=O)[O-])cc4)c4ccc([nH]4)c(-c4ccc(S(=O)(=O)[O-])cc4)c4nc(c(-c5ccc(S(=O)(=O)[O-])cc5)c5ccc2[nH]5)C=C4)C=C3)cc1)C1=Cc2cc(OC(F)(F)F)ccc2O[C@@H]1C(F)(F)F
REMARK SMILES IDX 5 1 4 2 3 3 2 4 1 5 69 6 70 7 83 8 71 9 82 10 72 11 81 12
REMARK SMILES IDX 73 13 80 14 79 15 84 16 85 17 86 18 87 19 74 20 75 21 76 22
REMARK SMILES IDX 77 23 78 24 6 25 7 26 8 27 9 28 10 29 68 30 11 31 67 32
REMARK SMILES IDX 12 33 13 34 14 35 61 36 15 37 66 38 60 39 62 40 16 41 65 42
REMARK SMILES IDX 59 43 58 44 17 46 47 47 28 48 46 49 29 50 32 51 45 52 63 53
REMARK SMILES IDX 30 54 31 55 44 57 64 58 33 59 18 60 19 61 27 62 20 63 26 64
REMARK SMILES IDX 21 65 22 66 23 67 24 68 25 69 48 70 49 71 57 72 50 73 56 74
REMARK SMILES IDX 51 75 52 76 53 77 54 78 55 79 34 80 35 81 43 82 36 83 42 84
REMARK SMILES IDX 37 85 38 86 39 87 40 88 41 89
REMARK H PARENT 62 45 32 56
REMARK Flexibility Score: inf
ROOT
ATOM      1  C   UNL A   1      34.767  31.009  27.988  1.00  0.00     0.275 C 
ENDROOT
BRANCH   1   2
ATOM      2  C   UNL A   1      34.196  32.826  29.028  1.00  0.00     0.275 C 
BRANCH   2   3
ATOM      3  O   UNL A   1      34.381  33.119  30.538  1.00  0.00    -0.459 OA
BRANCH   3   4
ATOM      4  C   UNL A   1      35.644  33.426  30.858  1.00  0.00     0.338 C 
ATOM      5  O   UNL A   1      36.611  33.530  30.150  1.00  0.00    -0.246 OA
BRANCH   4   6
ATOM      6  C   UNL A   1      35.490  33.166  32.271  1.00  0.00     0.087 C 
ATOM      7  C   UNL A   1      36.113  31.936  32.702  1.00  0.00     0.027 C 
ATOM      8  C   UNL A   1      35.967  34.941  32.844  1.00  0.00     0.316 C 
ATOM      9  C   UNL A   1      37.604  31.895  33.662  1.00  0.00     0.021 A 
ATOM     10  O   UNL A   1      37.649  34.920  33.822  1.00  0.00    -0.475 OA
ATOM     11  C   UNL A   1      38.169  30.674  33.844  1.00  0.00     0.058 A 
ATOM     12  C   UNL A   1      38.466  33.310  34.143  1.00  0.00     0.128 A 
ATOM     13  C   UNL A   1      39.457  30.665  34.389  1.00  0.00     0.130 A 
ATOM     14  C   UNL A   1      39.730  33.233  34.663  1.00  0.00     0.051 A 
ATOM     15  C   UNL A   1      40.202  31.871  34.759  1.00  0.00     0.050 A 
BRANCH   8  16
ATOM     16  C   UNL A   1      34.423  35.276  33.191  1.00  0.00     0.430 C 
ATOM     17  F   UNL A   1      33.812  34.220  33.744  1.00  0.00    -0.167 F 
ATOM     18  F   UNL A   1      34.361  36.216  34.189  1.00  0.00    -0.167 F 
ATOM     19  F   UNL A   1      33.662  35.848  32.244  1.00  0.00    -0.167 F 
ENDBRANCH   8  16
BRANCH  13  20
ATOM     20  O   UNL A   1      39.855  29.358  34.496  1.00  0.00    -0.406 OA
BRANCH  20  21
ATOM     21  C   UNL A   1      40.880  28.823  33.702  1.00  0.00     0.573 C 
ATOM     22  F   UNL A   1      40.723  27.493  33.550  1.00  0.00    -0.132 F 
ATOM     23  F   UNL A   1      40.931  29.425  32.500  1.00  0.00    -0.132 F 
ATOM     24  F   UNL A   1      42.055  29.042  34.337  1.00  0.00    -0.132 F 
ENDBRANCH  20  21
ENDBRANCH  13  20
ENDBRANCH   4   6
ENDBRANCH   3   4
ENDBRANCH   2   3
ENDBRANCH   1   2
BRANCH   1  25
ATOM     25  O   UNL A   1      35.960  29.864  28.580  1.00  0.00    -0.458 OA
BRANCH  25  26
ATOM     26  C   UNL A   1      36.695  29.510  29.696  1.00  0.00     0.338 C 
ATOM     27  O   UNL A   1      36.353  29.454  30.864  1.00  0.00    -0.246 OA
BRANCH  26  28
ATOM     28  C   UNL A   1      37.878  28.735  29.191  1.00  0.00     0.060 A 
ATOM     29  C   UNL A   1      38.335  28.998  27.883  1.00  0.00     0.016 A 
ATOM     30  C   UNL A   1      38.733  28.124  30.107  1.00  0.00     0.016 A 
ATOM     31  C   UNL A   1      39.709  28.882  27.584  1.00  0.00     0.010 A 
ATOM     32  C   UNL A   1      40.094  28.008  29.803  1.00  0.00     0.010 A 
ATOM     33  C   UNL A   1      40.610  28.461  28.574  1.00  0.00    -0.014 A 
BRANCH  33  34
ATOM     34  C   UNL A   1      42.044  28.209  28.263  1.00  0.00     0.031 A 
ATOM     35  C   UNL A   1      42.950  29.378  28.514  1.00  0.00     0.074 A 
ATOM     36  C   UNL A   1      42.531  27.076  27.710  1.00  0.00     0.049 A 
ATOM     37  N   UNL A   1      44.217  29.527  28.247  1.00  0.00    -0.248 NA
ATOM     38  C   UNL A   1      42.309  30.562  29.117  1.00  0.00     0.031 C 
ATOM     39  C   UNL A   1      41.771  25.863  27.403  1.00  0.00     0.029 A 
ATOM     40  N   UNL A   1      43.809  26.769  27.283  1.00  0.00    -0.354 N 
ATOM     41  C   UNL A   1      44.516  30.824  28.640  1.00  0.00     0.074 A 
ATOM     42  C   UNL A   1      43.294  31.439  29.095  1.00  0.00     0.031 C 
ATOM     43  C   UNL A   1      42.591  24.954  26.835  1.00  0.00     0.029 A 
ATOM     44  C   UNL A   1      43.936  25.516  26.715  1.00  0.00     0.049 A 
ATOM     45  H   UNL A   1      44.566  27.391  27.377  1.00  0.00     0.167 HD
ATOM     46  C   UNL A   1      45.711  31.452  28.648  1.00  0.00     0.031 A 
ATOM     47  C   UNL A   1      45.012  24.905  26.165  1.00  0.00     0.031 A 
ATOM     48  C   UNL A   1      46.921  30.860  28.168  1.00  0.00     0.049 A 
ATOM     49  C   UNL A   1      46.335  25.647  26.136  1.00  0.00     0.074 A 
ATOM     50  C   UNL A   1      48.189  31.403  28.138  1.00  0.00     0.029 A 
ATOM     51  N   UNL A   1      47.006  29.588  27.622  1.00  0.00    -0.354 N 
ATOM     52  N   UNL A   1      46.621  26.850  26.583  1.00  0.00    -0.248 NA
ATOM     53  C   UNL A   1      47.488  24.947  25.541  1.00  0.00     0.031 C 
ATOM     54  C   UNL A   1      49.036  30.478  27.521  1.00  0.00     0.029 A 
ATOM     55  C   UNL A   1      48.306  29.334  27.231  1.00  0.00     0.049 A 
ATOM     56  H   UNL A   1      46.253  28.961  27.525  1.00  0.00     0.167 HD
ATOM     57  C   UNL A   1      47.985  27.030  26.361  1.00  0.00     0.074 A 
ATOM     58  C   UNL A   1      48.472  25.812  25.748  1.00  0.00     0.031 C 
ATOM     59  C   UNL A   1      48.767  28.102  26.642  1.00  0.00     0.031 A 
BRANCH  46  60
ATOM     60  C   UNL A   1      45.719  32.857  29.173  1.00  0.00    -0.014 A 
ATOM     61  C   UNL A   1      45.537  33.950  28.304  1.00  0.00     0.010 A 
ATOM     62  C   UNL A   1      45.977  33.092  30.533  1.00  0.00     0.010 A 
ATOM     63  C   UNL A   1      45.670  35.255  28.776  1.00  0.00     0.020 A 
ATOM     64  C   UNL A   1      46.073  34.399  31.017  1.00  0.00     0.020 A 
ATOM     65  C   UNL A   1      45.939  35.470  30.131  1.00  0.00     0.054 A 
BRANCH  65  66
ATOM     66  S   UNL A   1      46.092  37.176  30.719  1.00  0.00     0.124 S 
ATOM     67  O   UNL A   1      45.596  37.936  29.573  1.00  0.00    -0.237 OA
ATOM     68  O   UNL A   1      45.229  37.185  31.897  1.00  0.00    -0.237 OA
ATOM     69  O   UNL A   1      47.519  37.322  30.993  1.00  0.00    -0.744 OA
ENDBRANCH  65  66
ENDBRANCH  46  60
BRANCH  47  70
ATOM     70  C   UNL A   1      44.927  23.519  25.597  1.00  0.00    -0.014 A 
ATOM     71  C   UNL A   1      45.360  22.404  26.345  1.00  0.00     0.010 A 
ATOM     72  C   UNL A   1      44.477  23.301  24.282  1.00  0.00     0.010 A 
ATOM     73  C   UNL A   1      45.366  21.116  25.788  1.00  0.00     0.020 A 
ATOM     74  C   UNL A   1      44.455  22.012  23.729  1.00  0.00     0.020 A 
ATOM     75  C   UNL A   1      44.909  20.927  24.482  1.00  0.00     0.054 A 
BRANCH  75  76
ATOM     76  S   UNL A   1      44.887  19.244  23.794  1.00  0.00     0.124 S 
ATOM     77  O   UNL A   1      44.026  18.536  24.737  1.00  0.00    -0.237 OA
ATOM     78  O   UNL A   1      44.325  19.455  22.463  1.00  0.00    -0.237 OA
ATOM     79  O   UNL A   1      46.293  18.846  23.813  1.00  0.00    -0.744 OA
ENDBRANCH  75  76
ENDBRANCH  47  70
BRANCH  59  80
ATOM     80  C   UNL A   1      50.242  28.004  26.351  1.00  0.00    -0.014 A 
ATOM     81  C   UNL A   1      51.134  27.412  27.261  1.00  0.00     0.010 A 
ATOM     82  C   UNL A   1      50.717  28.406  25.087  1.00  0.00     0.010 A 
ATOM     83  C   UNL A   1      52.479  27.242  26.919  1.00  0.00     0.020 A 
ATOM     84  C   UNL A   1      52.052  28.208  24.729  1.00  0.00     0.020 A 
ATOM     85  C   UNL A   1      52.928  27.635  25.653  1.00  0.00     0.054 A 
BRANCH  85  86
ATOM     86  S   UNL A   1      54.660  27.338  25.209  1.00  0.00     0.124 S 
ATOM     87  O   UNL A   1      54.611  25.976  24.684  1.00  0.00    -0.237 OA
ATOM     88  O   UNL A   1      54.920  28.382  24.221  1.00  0.00    -0.237 OA
ATOM     89  O   UNL A   1      55.375  27.493  26.473  1.00  0.00    -0.744 OA
ENDBRANCH  85  86
ENDBRANCH  59  80
ENDBRANCH  33  34
ENDBRANCH  26  28
ENDBRANCH  25  26
ENDBRANCH   1  25
TORSDOF 17
ENDMDL
