MODEL 1
REMARK VINA RESULT:     -10.3      0.000      0.000
REMARK SMILES O=C(OCCOC(=O)[C@@H]1CS[C@H](c2cccc([N+](=O)[O-])c2)[NH2+]1)c1ccc(-c2c3nc(c(-c4ccc(S(=O)(=O)[O-])cc4)c4ccc([nH]4)c(-c4ccc(S(=O)(=O)[O-])cc4)c4nc(c(-c5ccc(S(=O)(=O)[O-])cc5)c5ccc2[nH]5)C=C4)C=C3)cc1
REMARK SMILES IDX 4 1 3 2 2 3 1 4 23 5 24 6 82 7 25 8 81 9 26 10 27 11 28 12
REMARK SMILES IDX 75 13 29 14 80 15 74 16 76 17 30 18 79 19 73 20 72 21 31 23
REMARK SMILES IDX 61 24 42 25 60 26 43 27 46 28 59 29 77 30 44 31 45 32 58 34
REMARK SMILES IDX 78 35 47 36 32 37 33 38 41 39 34 40 40 41 35 42 36 43 37 44
REMARK SMILES IDX 38 45 39 46 62 47 63 48 71 49 64 50 70 51 65 52 66 53 67 54
REMARK SMILES IDX 68 55 69 56 48 57 49 58 57 59 50 60 56 61 51 62 52 63 53 64
REMARK SMILES IDX 54 65 55 66 5 67 6 68 7 69 8 70 9 71 10 72 22 73 11 74 12 75
REMARK SMILES IDX 13 78 14 79 21 80 15 81 17 82 16 83 18 84 19 85 20 86
REMARK H PARENT 76 22 46 33 22 76 22 77
REMARK Flexibility Score: inf
ROOT
ATOM      1  C   UNL A   1      32.157  29.541  26.904  1.00  0.00     0.275 C 
ENDROOT
BRANCH   1   2
ATOM      2  O   UNL A   1      33.582  29.752  26.972  1.00  0.00    -0.458 OA
BRANCH   2   3
ATOM      3  C   UNL A   1      34.324  30.532  27.793  1.00  0.00     0.338 C 
ATOM      4  O   UNL A   1      33.906  31.659  28.058  1.00  0.00    -0.246 OA
BRANCH   3   5
ATOM      5  C   UNL A   1      35.706  30.182  28.264  1.00  0.00     0.060 A 
ATOM      6  C   UNL A   1      36.044  29.703  29.532  1.00  0.00     0.016 A 
ATOM      7  C   UNL A   1      36.732  30.265  27.299  1.00  0.00     0.016 A 
ATOM      8  C   UNL A   1      37.316  29.188  29.794  1.00  0.00     0.010 A 
ATOM      9  C   UNL A   1      38.008  29.752  27.556  1.00  0.00     0.010 A 
ATOM     10  C   UNL A   1      38.299  29.189  28.806  1.00  0.00    -0.014 A 
BRANCH  10  11
ATOM     11  C   UNL A   1      39.676  28.773  29.148  1.00  0.00     0.031 A 
ATOM     12  C   UNL A   1      40.546  29.782  29.834  1.00  0.00     0.074 A 
ATOM     13  C   UNL A   1      40.122  27.527  28.898  1.00  0.00     0.049 A 
ATOM     14  N   UNL A   1      41.771  29.654  30.260  1.00  0.00    -0.248 NA
ATOM     15  C   UNL A   1      39.942  31.099  30.110  1.00  0.00     0.031 C 
ATOM     16  C   UNL A   1      39.325  26.436  28.342  1.00  0.00     0.029 A 
ATOM     17  N   UNL A   1      41.362  26.965  29.070  1.00  0.00    -0.354 N 
ATOM     18  C   UNL A   1      42.077  30.860  30.873  1.00  0.00     0.074 A 
ATOM     19  C   UNL A   1      40.931  31.727  30.725  1.00  0.00     0.031 C 
ATOM     20  C   UNL A   1      40.111  25.364  28.141  1.00  0.00     0.029 A 
ATOM     21  C   UNL A   1      41.464  25.680  28.582  1.00  0.00     0.049 A 
ATOM     22  H   UNL A   1      42.111  27.437  29.502  1.00  0.00     0.167 HD
ATOM     23  C   UNL A   1      43.208  31.204  31.525  1.00  0.00     0.031 A 
ATOM     24  C   UNL A   1      42.531  24.860  28.506  1.00  0.00     0.031 A 
ATOM     25  C   UNL A   1      44.348  30.342  31.644  1.00  0.00     0.049 A 
ATOM     26  C   UNL A   1      43.830  25.328  29.116  1.00  0.00     0.074 A 
ATOM     27  C   UNL A   1      45.546  30.586  32.286  1.00  0.00     0.029 A 
ATOM     28  N   UNL A   1      44.434  29.074  31.088  1.00  0.00    -0.354 N 
ATOM     29  N   UNL A   1      44.079  26.447  29.755  1.00  0.00    -0.248 NA
ATOM     30  C   UNL A   1      44.979  24.417  29.025  1.00  0.00     0.031 C 
ATOM     31  C   UNL A   1      46.386  29.493  32.058  1.00  0.00     0.029 A 
ATOM     32  C   UNL A   1      45.687  28.541  31.328  1.00  0.00     0.049 A 
ATOM     33  H   UNL A   1      43.712  28.620  30.596  1.00  0.00     0.167 HD
ATOM     34  C   UNL A   1      45.400  26.357  30.177  1.00  0.00     0.074 A 
ATOM     35  C   UNL A   1      45.893  25.069  29.730  1.00  0.00     0.031 C 
ATOM     36  C   UNL A   1      46.142  27.253  30.873  1.00  0.00     0.031 A 
BRANCH  23  37
ATOM     37  C   UNL A   1      43.271  32.580  32.119  1.00  0.00    -0.014 A 
ATOM     38  C   UNL A   1      43.732  33.676  31.368  1.00  0.00     0.010 A 
ATOM     39  C   UNL A   1      42.837  32.782  33.440  1.00  0.00     0.010 A 
ATOM     40  C   UNL A   1      43.772  34.950  31.935  1.00  0.00     0.020 A 
ATOM     41  C   UNL A   1      42.855  34.059  34.004  1.00  0.00     0.020 A 
ATOM     42  C   UNL A   1      43.329  35.134  33.250  1.00  0.00     0.054 A 
BRANCH  42  43
ATOM     43  S   UNL A   1      43.340  36.809  33.942  1.00  0.00     0.124 S 
ATOM     44  O   UNL A   1      44.515  36.771  34.809  1.00  0.00    -0.237 OA
ATOM     45  O   UNL A   1      43.467  37.645  32.751  1.00  0.00    -0.237 OA
ATOM     46  O   UNL A   1      42.057  36.907  34.636  1.00  0.00    -0.744 OA
ENDBRANCH  42  43
ENDBRANCH  23  37
BRANCH  24  47
ATOM     47  C   UNL A   1      42.443  23.538  27.820  1.00  0.00    -0.014 A 
ATOM     48  C   UNL A   1      42.071  22.374  28.517  1.00  0.00     0.010 A 
ATOM     49  C   UNL A   1      42.805  23.426  26.464  1.00  0.00     0.010 A 
ATOM     50  C   UNL A   1      42.111  21.123  27.888  1.00  0.00     0.020 A 
ATOM     51  C   UNL A   1      42.821  22.182  25.823  1.00  0.00     0.020 A 
ATOM     52  C   UNL A   1      42.495  21.034  26.548  1.00  0.00     0.054 A 
BRANCH  52  53
ATOM     53  S   UNL A   1      42.559  19.399  25.757  1.00  0.00     0.124 S 
ATOM     54  O   UNL A   1      43.030  18.553  26.849  1.00  0.00    -0.237 OA
ATOM     55  O   UNL A   1      41.173  19.194  25.349  1.00  0.00    -0.237 OA
ATOM     56  O   UNL A   1      43.504  19.588  24.658  1.00  0.00    -0.744 OA
ENDBRANCH  52  53
ENDBRANCH  24  47
BRANCH  36  57
ATOM     57  C   UNL A   1      47.555  26.866  31.211  1.00  0.00    -0.014 A 
ATOM     58  C   UNL A   1      47.833  26.056  32.325  1.00  0.00     0.010 A 
ATOM     59  C   UNL A   1      48.602  27.247  30.353  1.00  0.00     0.010 A 
ATOM     60  C   UNL A   1      49.142  25.651  32.588  1.00  0.00     0.020 A 
ATOM     61  C   UNL A   1      49.908  26.817  30.596  1.00  0.00     0.020 A 
ATOM     62  C   UNL A   1      50.170  26.030  31.718  1.00  0.00     0.054 A 
BRANCH  62  63
ATOM     63  S   UNL A   1      51.850  25.433  32.046  1.00  0.00     0.124 S 
ATOM     64  O   UNL A   1      52.213  26.187  33.241  1.00  0.00    -0.237 OA
ATOM     65  O   UNL A   1      51.646  23.999  32.243  1.00  0.00    -0.237 OA
ATOM     66  O   UNL A   1      52.586  25.790  30.835  1.00  0.00    -0.744 OA
ENDBRANCH  62  63
ENDBRANCH  36  57
ENDBRANCH  10  11
ENDBRANCH   3   5
ENDBRANCH   2   3
ENDBRANCH   1   2
BRANCH   1  67
ATOM     67  C   UNL A   1      31.684  28.184  27.434  1.00  0.00     0.274 C 
BRANCH  67  68
ATOM     68  O   UNL A   1      32.298  27.078  26.753  1.00  0.00    -0.458 OA
BRANCH  68  69
ATOM     69  C   UNL A   1      31.469  26.046  26.395  1.00  0.00     0.365 C 
ATOM     70  O   UNL A   1      30.249  26.106  26.425  1.00  0.00    -0.245 OA
BRANCH  69  71
ATOM     71  C   UNL A   1      32.289  24.850  25.882  1.00  0.00     0.304 C 
ATOM     72  C   UNL A   1      33.791  25.108  25.869  1.00  0.00     0.153 C 
ATOM     73  N   UNL A   1      31.818  24.309  24.576  1.00  0.00    -0.319 N 
ATOM     74  S   UNL A   1      34.308  24.805  24.162  1.00  0.00    -0.087 SA
ATOM     75  C   UNL A   1      32.612  24.933  23.511  1.00  0.00     0.274 C 
ATOM     76  H   UNL A   1      30.831  24.531  24.446  1.00  0.00     0.348 HD
ATOM     77  H   UNL A   1      31.929  23.295  24.553  1.00  0.00     0.348 HD
BRANCH  75  78
ATOM     78  C   UNL A   1      32.148  26.355  23.231  1.00  0.00     0.027 A 
ATOM     79  C   UNL A   1      33.033  27.445  23.261  1.00  0.00     0.011 A 
ATOM     80  C   UNL A   1      30.783  26.614  22.997  1.00  0.00     0.096 A 
ATOM     81  C   UNL A   1      32.557  28.755  23.221  1.00  0.00     0.008 A 
ATOM     82  C   UNL A   1      30.303  27.926  23.025  1.00  0.00     0.269 A 
ATOM     83  C   UNL A   1      31.187  29.002  23.143  1.00  0.00     0.085 A 
BRANCH  82  84
ATOM     84  N   UNL A   1      28.856  28.161  23.055  1.00  0.00     0.062 N 
ATOM     85  O   UNL A   1      28.135  27.264  23.517  1.00  0.00    -0.258 OA
ATOM     86  O   UNL A   1      28.426  29.222  22.579  1.00  0.00    -0.258 OA
ENDBRANCH  82  84
ENDBRANCH  75  78
ENDBRANCH  69  71
ENDBRANCH  68  69
ENDBRANCH  67  68
ENDBRANCH   1  67
TORSDOF 16
ENDMDL
MODEL 2
REMARK VINA RESULT:     -10.3      1.523      2.273
REMARK SMILES O=C(OCCOC(=O)[C@@H]1CS[C@H](c2cccc([N+](=O)[O-])c2)[NH2+]1)c1ccc(-c2c3nc(c(-c4ccc(S(=O)(=O)[O-])cc4)c4ccc([nH]4)c(-c4ccc(S(=O)(=O)[O-])cc4)c4nc(c(-c5ccc(S(=O)(=O)[O-])cc5)c5ccc2[nH]5)C=C4)C=C3)cc1
REMARK SMILES IDX 4 1 3 2 2 3 1 4 23 5 24 6 82 7 25 8 81 9 26 10 27 11 28 12
REMARK SMILES IDX 75 13 29 14 80 15 74 16 76 17 30 18 79 19 73 20 72 21 31 23
REMARK SMILES IDX 61 24 42 25 60 26 43 27 46 28 59 29 77 30 44 31 45 32 58 34
REMARK SMILES IDX 78 35 47 36 32 37 33 38 41 39 34 40 40 41 35 42 36 43 37 44
REMARK SMILES IDX 38 45 39 46 62 47 63 48 71 49 64 50 70 51 65 52 66 53 67 54
REMARK SMILES IDX 68 55 69 56 48 57 49 58 57 59 50 60 56 61 51 62 52 63 53 64
REMARK SMILES IDX 54 65 55 66 5 67 6 68 7 69 8 70 9 71 10 72 22 73 11 74 12 75
REMARK SMILES IDX 13 78 14 79 21 80 15 81 17 82 16 83 18 84 19 85 20 86
REMARK H PARENT 76 22 46 33 22 76 22 77
REMARK Flexibility Score: inf
ROOT
ATOM      1  C   UNL A   1      33.265  28.862  26.674  1.00  0.00     0.275 C 
ENDROOT
BRANCH   1   2
ATOM      2  O   UNL A   1      33.570  30.223  27.041  1.00  0.00    -0.458 OA
BRANCH   2   3
ATOM      3  C   UNL A   1      34.470  30.723  27.921  1.00  0.00     0.338 C 
ATOM      4  O   UNL A   1      34.217  31.800  28.461  1.00  0.00    -0.246 OA
BRANCH   3   5
ATOM      5  C   UNL A   1      35.833  30.139  28.153  1.00  0.00     0.060 A 
ATOM      6  C   UNL A   1      36.868  30.073  27.217  1.00  0.00     0.016 A 
ATOM      7  C   UNL A   1      36.108  29.702  29.466  1.00  0.00     0.016 A 
ATOM      8  C   UNL A   1      38.166  29.726  27.598  1.00  0.00     0.010 A 
ATOM      9  C   UNL A   1      37.406  29.352  29.854  1.00  0.00     0.010 A 
ATOM     10  C   UNL A   1      38.449  29.384  28.919  1.00  0.00    -0.014 A 
BRANCH  10  11
ATOM     11  C   UNL A   1      39.796  28.882  29.270  1.00  0.00     0.031 A 
ATOM     12  C   UNL A   1      40.723  29.834  29.961  1.00  0.00     0.074 A 
ATOM     13  C   UNL A   1      40.164  27.610  29.023  1.00  0.00     0.049 A 
ATOM     14  N   UNL A   1      41.935  29.630  30.394  1.00  0.00    -0.248 NA
ATOM     15  C   UNL A   1      40.201  31.187  30.233  1.00  0.00     0.031 C 
ATOM     16  C   UNL A   1      39.303  26.571  28.463  1.00  0.00     0.029 A 
ATOM     17  N   UNL A   1      41.365  26.972  29.202  1.00  0.00    -0.354 N 
ATOM     18  C   UNL A   1      42.313  30.815  31.008  1.00  0.00     0.074 A 
ATOM     19  C   UNL A   1      41.225  31.752  30.854  1.00  0.00     0.031 C 
ATOM     20  C   UNL A   1      40.021  25.452  28.266  1.00  0.00     0.029 A 
ATOM     21  C   UNL A   1      41.389  25.683  28.715  1.00  0.00     0.049 A 
ATOM     22  H   UNL A   1      42.140  27.396  29.638  1.00  0.00     0.167 HD
ATOM     23  C   UNL A   1      43.460  31.088  31.667  1.00  0.00     0.031 A 
ATOM     24  C   UNL A   1      42.403  24.797  28.645  1.00  0.00     0.031 A 
ATOM     25  C   UNL A   1      44.542  30.155  31.793  1.00  0.00     0.049 A 
ATOM     26  C   UNL A   1      43.724  25.183  29.262  1.00  0.00     0.074 A 
ATOM     27  C   UNL A   1      45.750  30.325  32.441  1.00  0.00     0.029 A 
ATOM     28  N   UNL A   1      44.552  28.885  31.238  1.00  0.00    -0.354 N 
ATOM     29  N   UNL A   1      44.040  26.284  29.903  1.00  0.00    -0.248 NA
ATOM     30  C   UNL A   1      44.815  24.201  29.178  1.00  0.00     0.031 C 
ATOM     31  C   UNL A   1      46.520  29.180  32.219  1.00  0.00     0.029 A 
ATOM     32  C   UNL A   1      45.767  28.274  31.485  1.00  0.00     0.049 A 
ATOM     33  H   UNL A   1      43.805  28.477  30.741  1.00  0.00     0.167 HD
ATOM     34  C   UNL A   1      45.350  26.112  30.333  1.00  0.00     0.074 A 
ATOM     35  C   UNL A   1      45.764  24.795  29.889  1.00  0.00     0.031 C 
ATOM     36  C   UNL A   1      46.143  26.960  31.033  1.00  0.00     0.031 A 
BRANCH  23  37
ATOM     37  C   UNL A   1      43.605  32.457  32.261  1.00  0.00    -0.014 A 
ATOM     38  C   UNL A   1      43.206  32.722  33.584  1.00  0.00     0.010 A 
ATOM     39  C   UNL A   1      44.173  33.487  31.493  1.00  0.00     0.010 A 
ATOM     40  C   UNL A   1      43.359  33.999  34.123  1.00  0.00     0.020 A 
ATOM     41  C   UNL A   1      44.347  34.762  32.036  1.00  0.00     0.020 A 
ATOM     42  C   UNL A   1      43.933  35.011  33.345  1.00  0.00     0.054 A 
BRANCH  42  43
ATOM     43  S   UNL A   1      44.172  36.647  34.089  1.00  0.00     0.124 S 
ATOM     44  O   UNL A   1      43.474  37.514  33.143  1.00  0.00    -0.237 OA
ATOM     45  O   UNL A   1      43.531  36.499  35.394  1.00  0.00    -0.237 OA
ATOM     46  O   UNL A   1      45.624  36.804  34.125  1.00  0.00    -0.744 OA
ENDBRANCH  42  43
ENDBRANCH  23  37
BRANCH  24  47
ATOM     47  C   UNL A   1      42.236  23.483  27.959  1.00  0.00    -0.014 A 
ATOM     48  C   UNL A   1      41.717  22.364  28.636  1.00  0.00     0.010 A 
ATOM     49  C   UNL A   1      42.668  23.326  26.628  1.00  0.00     0.010 A 
ATOM     50  C   UNL A   1      41.681  21.109  28.014  1.00  0.00     0.020 A 
ATOM     51  C   UNL A   1      42.608  22.081  25.993  1.00  0.00     0.020 A 
ATOM     52  C   UNL A   1      42.135  20.974  26.700  1.00  0.00     0.054 A 
BRANCH  52  53
ATOM     53  S   UNL A   1      42.097  19.333  25.920  1.00  0.00     0.124 S 
ATOM     54  O   UNL A   1      42.634  18.483  26.977  1.00  0.00    -0.237 OA
ATOM     55  O   UNL A   1      40.678  19.159  25.626  1.00  0.00    -0.237 OA
ATOM     56  O   UNL A   1      42.954  19.493  24.747  1.00  0.00    -0.744 OA
ENDBRANCH  52  53
ENDBRANCH  24  47
BRANCH  36  57
ATOM     57  C   UNL A   1      47.527  26.485  31.379  1.00  0.00    -0.014 A 
ATOM     58  C   UNL A   1      47.777  25.819  32.591  1.00  0.00     0.010 A 
ATOM     59  C   UNL A   1      48.565  26.632  30.443  1.00  0.00     0.010 A 
ATOM     60  C   UNL A   1      49.053  25.325  32.869  1.00  0.00     0.020 A 
ATOM     61  C   UNL A   1      49.833  26.112  30.704  1.00  0.00     0.020 A 
ATOM     62  C   UNL A   1      50.071  25.471  31.921  1.00  0.00     0.054 A 
BRANCH  62  63
ATOM     63  S   UNL A   1      51.700  24.761  32.280  1.00  0.00     0.124 S 
ATOM     64  O   UNL A   1      51.465  23.337  32.061  1.00  0.00    -0.237 OA
ATOM     65  O   UNL A   1      52.558  25.417  31.296  1.00  0.00    -0.237 OA
ATOM     66  O   UNL A   1      51.947  25.146  33.668  1.00  0.00    -0.744 OA
ENDBRANCH  62  63
ENDBRANCH  36  57
ENDBRANCH  10  11
ENDBRANCH   3   5
ENDBRANCH   2   3
ENDBRANCH   1   2
BRANCH   1  67
ATOM     67  C   UNL A   1      33.976  28.363  25.412  1.00  0.00     0.274 C 
BRANCH  67  68
ATOM     68  O   UNL A   1      33.246  27.326  24.737  1.00  0.00    -0.458 OA
BRANCH  68  69
ATOM     69  C   UNL A   1      33.839  26.090  24.698  1.00  0.00     0.365 C 
ATOM     70  O   UNL A   1      34.125  25.436  25.689  1.00  0.00    -0.245 OA
BRANCH  69  71
ATOM     71  C   UNL A   1      34.012  25.622  23.243  1.00  0.00     0.304 C 
ATOM     72  C   UNL A   1      33.512  26.635  22.219  1.00  0.00     0.153 C 
ATOM     73  N   UNL A   1      33.468  24.262  22.975  1.00  0.00    -0.319 N 
ATOM     74  S   UNL A   1      32.300  25.737  21.220  1.00  0.00    -0.087 SA
ATOM     75  C   UNL A   1      32.104  24.412  22.454  1.00  0.00     0.274 C 
ATOM     76  H   UNL A   1      33.450  23.721  23.839  1.00  0.00     0.348 HD
ATOM     77  H   UNL A   1      34.054  23.774  22.298  1.00  0.00     0.348 HD
BRANCH  75  78
ATOM     78  C   UNL A   1      31.114  24.726  23.567  1.00  0.00     0.027 A 
ATOM     79  C   UNL A   1      30.301  25.870  23.538  1.00  0.00     0.011 A 
ATOM     80  C   UNL A   1      31.044  23.889  24.698  1.00  0.00     0.096 A 
ATOM     81  C   UNL A   1      29.567  26.255  24.659  1.00  0.00     0.008 A 
ATOM     82  C   UNL A   1      30.361  24.311  25.842  1.00  0.00     0.269 A 
ATOM     83  C   UNL A   1      29.624  25.499  25.829  1.00  0.00     0.085 A 
BRANCH  82  84
ATOM     84  N   UNL A   1      30.524  23.565  27.093  1.00  0.00     0.062 N 
ATOM     85  O   UNL A   1      31.671  23.446  27.549  1.00  0.00    -0.258 OA
ATOM     86  O   UNL A   1      29.516  23.057  27.607  1.00  0.00    -0.258 OA
ENDBRANCH  82  84
ENDBRANCH  75  78
ENDBRANCH  69  71
ENDBRANCH  68  69
ENDBRANCH  67  68
ENDBRANCH   1  67
TORSDOF 16
ENDMDL
MODEL 3
REMARK VINA RESULT:     -10.2      2.761      9.248
REMARK SMILES O=C(OCCOC(=O)[C@@H]1CS[C@H](c2cccc([N+](=O)[O-])c2)[NH2+]1)c1ccc(-c2c3nc(c(-c4ccc(S(=O)(=O)[O-])cc4)c4ccc([nH]4)c(-c4ccc(S(=O)(=O)[O-])cc4)c4nc(c(-c5ccc(S(=O)(=O)[O-])cc5)c5ccc2[nH]5)C=C4)C=C3)cc1
REMARK SMILES IDX 4 1 3 2 2 3 1 4 23 5 24 6 82 7 25 8 81 9 26 10 27 11 28 12
REMARK SMILES IDX 75 13 29 14 80 15 74 16 76 17 30 18 79 19 73 20 72 21 31 23
REMARK SMILES IDX 61 24 42 25 60 26 43 27 46 28 59 29 77 30 44 31 45 32 58 34
REMARK SMILES IDX 78 35 47 36 32 37 33 38 41 39 34 40 40 41 35 42 36 43 37 44
REMARK SMILES IDX 38 45 39 46 62 47 63 48 71 49 64 50 70 51 65 52 66 53 67 54
REMARK SMILES IDX 68 55 69 56 48 57 49 58 57 59 50 60 56 61 51 62 52 63 53 64
REMARK SMILES IDX 54 65 55 66 5 67 6 68 7 69 8 70 9 71 10 72 22 73 11 74 12 75
REMARK SMILES IDX 13 78 14 79 21 80 15 81 17 82 16 83 18 84 19 85 20 86
REMARK H PARENT 76 22 46 33 22 76 22 77
REMARK Flexibility Score: inf
ROOT
ATOM      1  C   UNL A   1      37.270  21.709  24.564  1.00  0.00     0.275 C 
ENDROOT
BRANCH   1   2
ATOM      2  O   UNL A   1      37.653  22.409  25.766  1.00  0.00    -0.458 OA
BRANCH   2   3
ATOM      3  C   UNL A   1      38.870  22.796  26.216  1.00  0.00     0.338 C 
ATOM      4  O   UNL A   1      39.782  21.969  26.210  1.00  0.00    -0.246 OA
BRANCH   3   5
ATOM      5  C   UNL A   1      39.139  24.113  26.883  1.00  0.00     0.060 A 
ATOM      6  C   UNL A   1      38.761  24.469  28.180  1.00  0.00     0.016 A 
ATOM      7  C   UNL A   1      39.923  25.032  26.153  1.00  0.00     0.016 A 
ATOM      8  C   UNL A   1      39.260  25.624  28.787  1.00  0.00     0.010 A 
ATOM      9  C   UNL A   1      40.425  26.191  26.755  1.00  0.00     0.010 A 
ATOM     10  C   UNL A   1      40.110  26.481  28.089  1.00  0.00    -0.014 A 
BRANCH  10  11
ATOM     11  C   UNL A   1      40.509  27.768  28.699  1.00  0.00     0.031 A 
ATOM     12  C   UNL A   1      41.887  27.852  29.281  1.00  0.00     0.074 A 
ATOM     13  C   UNL A   1      39.690  28.838  28.695  1.00  0.00     0.049 A 
ATOM     14  N   UNL A   1      42.480  28.868  29.842  1.00  0.00    -0.248 NA
ATOM     15  C   UNL A   1      42.721  26.639  29.185  1.00  0.00     0.031 C 
ATOM     16  C   UNL A   1      38.379  28.900  28.055  1.00  0.00     0.029 A 
ATOM     17  N   UNL A   1      39.835  30.082  29.256  1.00  0.00    -0.354 N 
ATOM     18  C   UNL A   1      43.760  28.427  30.144  1.00  0.00     0.074 A 
ATOM     19  C   UNL A   1      43.848  27.041  29.750  1.00  0.00     0.031 C 
ATOM     20  C   UNL A   1      37.802  30.084  28.327  1.00  0.00     0.029 A 
ATOM     21  C   UNL A   1      38.718  30.880  29.137  1.00  0.00     0.049 A 
ATOM     22  H   UNL A   1      40.661  30.377  29.703  1.00  0.00     0.167 HD
ATOM     23  C   UNL A   1      44.781  29.129  30.681  1.00  0.00     0.031 A 
ATOM     24  C   UNL A   1      38.471  32.111  29.628  1.00  0.00     0.031 A 
ATOM     25  C   UNL A   1      44.673  30.499  31.090  1.00  0.00     0.049 A 
ATOM     26  C   UNL A   1      39.587  32.821  30.354  1.00  0.00     0.074 A 
ATOM     27  C   UNL A   1      45.645  31.309  31.643  1.00  0.00     0.029 A 
ATOM     28  N   UNL A   1      43.512  31.253  31.007  1.00  0.00    -0.354 N 
ATOM     29  N   UNL A   1      40.816  32.413  30.567  1.00  0.00    -0.248 NA
ATOM     30  C   UNL A   1      39.298  34.163  30.877  1.00  0.00     0.031 C 
ATOM     31  C   UNL A   1      45.052  32.534  31.961  1.00  0.00     0.029 A 
ATOM     32  C   UNL A   1      43.728  32.507  31.546  1.00  0.00     0.049 A 
ATOM     33  H   UNL A   1      42.660  30.943  30.622  1.00  0.00     0.167 HD
ATOM     34  C   UNL A   1      41.458  33.463  31.213  1.00  0.00     0.074 A 
ATOM     35  C   UNL A   1      40.483  34.529  31.345  1.00  0.00     0.031 C 
ATOM     36  C   UNL A   1      42.736  33.545  31.657  1.00  0.00     0.031 A 
BRANCH  23  37
ATOM     37  C   UNL A   1      46.081  28.408  30.887  1.00  0.00    -0.014 A 
ATOM     38  C   UNL A   1      46.361  27.744  32.095  1.00  0.00     0.010 A 
ATOM     39  C   UNL A   1      47.023  28.373  29.845  1.00  0.00     0.010 A 
ATOM     40  C   UNL A   1      47.571  27.070  32.263  1.00  0.00     0.020 A 
ATOM     41  C   UNL A   1      48.226  27.681  30.002  1.00  0.00     0.020 A 
ATOM     42  C   UNL A   1      48.494  27.040  31.211  1.00  0.00     0.054 A 
BRANCH  42  43
ATOM     43  S   UNL A   1      50.034  26.110  31.437  1.00  0.00     0.124 S 
ATOM     44  O   UNL A   1      50.347  25.706  30.068  1.00  0.00    -0.237 OA
ATOM     45  O   UNL A   1      50.928  27.109  32.016  1.00  0.00    -0.237 OA
ATOM     46  O   UNL A   1      49.654  25.021  32.335  1.00  0.00    -0.744 OA
ENDBRANCH  42  43
ENDBRANCH  23  37
BRANCH  24  47
ATOM     47  C   UNL A   1      37.131  32.748  29.479  1.00  0.00    -0.014 A 
ATOM     48  C   UNL A   1      36.792  33.483  28.329  1.00  0.00     0.010 A 
ATOM     49  C   UNL A   1      36.201  32.680  30.535  1.00  0.00     0.010 A 
ATOM     50  C   UNL A   1      35.576  34.176  28.258  1.00  0.00     0.020 A 
ATOM     51  C   UNL A   1      34.974  33.348  30.458  1.00  0.00     0.020 A 
ATOM     52  C   UNL A   1      34.679  34.111  29.327  1.00  0.00     0.054 A 
BRANCH  52  53
ATOM     53  S   UNL A   1      33.117  35.033  29.222  1.00  0.00     0.124 S 
ATOM     54  O   UNL A   1      32.628  34.959  30.595  1.00  0.00    -0.237 OA
ATOM     55  O   UNL A   1      33.559  36.351  28.777  1.00  0.00    -0.237 OA
ATOM     56  O   UNL A   1      32.342  34.279  28.238  1.00  0.00    -0.744 OA
ENDBRANCH  52  53
ENDBRANCH  24  47
BRANCH  36  57
ATOM     57  C   UNL A   1      43.161  34.834  32.306  1.00  0.00    -0.014 A 
ATOM     58  C   UNL A   1      43.747  35.863  31.549  1.00  0.00     0.010 A 
ATOM     59  C   UNL A   1      42.890  35.045  33.669  1.00  0.00     0.010 A 
ATOM     60  C   UNL A   1      44.075  37.077  32.153  1.00  0.00     0.020 A 
ATOM     61  C   UNL A   1      43.187  36.270  34.268  1.00  0.00     0.020 A 
ATOM     62  C   UNL A   1      43.788  37.275  33.507  1.00  0.00     0.054 A 
BRANCH  62  63
ATOM     63  S   UNL A   1      44.162  38.886  34.248  1.00  0.00     0.124 S 
ATOM     64  O   UNL A   1      44.313  38.543  35.659  1.00  0.00    -0.237 OA
ATOM     65  O   UNL A   1      45.391  39.277  33.560  1.00  0.00    -0.237 OA
ATOM     66  O   UNL A   1      42.990  39.696  33.925  1.00  0.00    -0.744 OA
ENDBRANCH  62  63
ENDBRANCH  36  57
ENDBRANCH  10  11
ENDBRANCH   3   5
ENDBRANCH   2   3
ENDBRANCH   1   2
BRANCH   1  67
ATOM     67  C   UNL A   1      36.655  22.594  23.475  1.00  0.00     0.274 C 
BRANCH  67  68
ATOM     68  O   UNL A   1      35.864  23.666  24.013  1.00  0.00    -0.458 OA
BRANCH  68  69
ATOM     69  C   UNL A   1      34.583  23.778  23.535  1.00  0.00     0.365 C 
ATOM     70  O   UNL A   1      34.280  24.404  22.531  1.00  0.00    -0.245 OA
BRANCH  69  71
ATOM     71  C   UNL A   1      33.614  22.945  24.392  1.00  0.00     0.304 C 
ATOM     72  C   UNL A   1      32.245  22.759  23.747  1.00  0.00     0.153 C 
ATOM     73  N   UNL A   1      33.494  23.416  25.799  1.00  0.00    -0.319 N 
ATOM     74  S   UNL A   1      31.062  23.389  24.962  1.00  0.00    -0.087 SA
ATOM     75  C   UNL A   1      32.333  24.311  25.884  1.00  0.00     0.274 C 
ATOM     76  H   UNL A   1      34.339  23.921  26.069  1.00  0.00     0.348 HD
ATOM     77  H   UNL A   1      33.375  22.622  26.429  1.00  0.00     0.348 HD
BRANCH  75  78
ATOM     78  C   UNL A   1      32.650  25.688  25.318  1.00  0.00     0.027 A 
ATOM     79  C   UNL A   1      33.702  26.473  25.817  1.00  0.00     0.011 A 
ATOM     80  C   UNL A   1      31.834  26.234  24.308  1.00  0.00     0.096 A 
ATOM     81  C   UNL A   1      33.839  27.809  25.441  1.00  0.00     0.008 A 
ATOM     82  C   UNL A   1      31.932  27.591  23.984  1.00  0.00     0.269 A 
ATOM     83  C   UNL A   1      32.931  28.385  24.554  1.00  0.00     0.085 A 
BRANCH  82  84
ATOM     84  N   UNL A   1      30.903  28.204  23.139  1.00  0.00     0.062 N 
ATOM     85  O   UNL A   1      30.583  27.611  22.097  1.00  0.00    -0.258 OA
ATOM     86  O   UNL A   1      30.438  29.300  23.485  1.00  0.00    -0.258 OA
ENDBRANCH  82  84
ENDBRANCH  75  78
ENDBRANCH  69  71
ENDBRANCH  68  69
ENDBRANCH  67  68
ENDBRANCH   1  67
TORSDOF 16
ENDMDL
