MODEL 1
REMARK VINA RESULT:     -11.4      0.000      0.000
REMARK SMILES O=C(OCCOC(=O)c1ccc(-c2c3nc(c(-c4ccc(S(=O)(=O)[O-])cc4)c4ccc([nH]4)c(-c4ccc(S(=O)(=O)[O-])cc4)c4nc(c(-c5ccc(S(=O)(=O)[O-])cc5)c5ccc2[nH]5)C=C4)C=C3)cc1)C1=Cc2cc(S(F)(F)(F)(F)F)cc(Br)c2O[C@H]1C(F)(F)F
REMARK SMILES IDX 5 1 4 2 3 3 2 4 1 5 69 6 70 7 85 8 71 9 84 10 72 11 83 12
REMARK SMILES IDX 73 13 81 14 80 15 82 16 86 17 87 18 88 19 89 20 74 21 75 22
REMARK SMILES IDX 76 23 77 24 78 25 79 26 6 27 7 28 8 29 9 30 10 31 68 32
REMARK SMILES IDX 11 33 67 34 12 35 13 36 14 37 61 38 15 39 66 40 60 41 62 42
REMARK SMILES IDX 16 43 65 44 59 45 58 46 17 48 47 49 28 50 46 51 29 52 32 53
REMARK SMILES IDX 45 54 63 55 30 56 31 57 44 59 64 60 33 61 18 62 19 63 27 64
REMARK SMILES IDX 20 65 26 66 21 67 22 68 23 69 24 70 25 71 48 72 49 73 57 74
REMARK SMILES IDX 50 75 56 76 51 77 52 78 53 79 54 80 55 81 34 82 35 83 43 84
REMARK SMILES IDX 36 85 42 86 37 87 38 88 39 89 40 90 41 91
REMARK H PARENT 62 47 32 58
REMARK Flexibility Score: inf
ROOT
ATOM      1  C   UNL A   1      32.372  29.367  27.233  1.00  0.00     0.275 C 
ENDROOT
BRANCH   1   2
ATOM      2  C   UNL A   1      32.191  27.860  27.166  1.00  0.00     0.275 C 
BRANCH   2   3
ATOM      3  O   UNL A   1      32.753  27.370  25.958  1.00  0.00    -0.459 OA
BRANCH   3   4
ATOM      4  C   UNL A   1      31.913  26.815  24.957  1.00  0.00     0.338 C 
ATOM      5  O   UNL A   1      30.701  26.541  25.224  1.00  0.00    -0.246 OA
BRANCH   4   6
ATOM      6  C   UNL A   1      32.463  26.550  23.564  1.00  0.00     0.087 C 
ATOM      7  C   UNL A   1      33.347  25.536  23.364  1.00  0.00     0.027 C 
ATOM      8  C   UNL A   1      32.023  27.416  22.395  1.00  0.00     0.316 C 
ATOM      9  C   UNL A   1      33.786  24.669  24.534  1.00  0.00     0.020 A 
ATOM     10  O   UNL A   1      31.565  24.495  25.359  1.00  0.00    -0.474 OA
ATOM     11  C   UNL A   1      35.156  24.509  24.664  1.00  0.00     0.036 A 
ATOM     12  C   UNL A   1      32.946  24.177  25.437  1.00  0.00     0.142 A 
ATOM     13  C   UNL A   1      35.532  23.557  25.641  1.00  0.00     0.109 A 
ATOM     14  C   UNL A   1      33.402  23.362  26.446  1.00  0.00     0.062 A 
ATOM     15  C   UNL A   1      34.737  23.113  26.599  1.00  0.00     0.044 A 
ATOM     16  Br  UNL A   1      32.118  22.547  27.682  1.00  0.00    -0.047 Br
BRANCH   8  17
ATOM     17  C   UNL A   1      31.040  28.466  22.885  1.00  0.00     0.430 C 
ATOM     18  F   UNL A   1      29.908  27.877  23.259  1.00  0.00    -0.167 F 
ATOM     19  F   UNL A   1      31.564  29.116  23.922  1.00  0.00    -0.167 F 
ATOM     20  F   UNL A   1      30.789  29.329  21.904  1.00  0.00    -0.167 F 
ENDBRANCH   8  17
BRANCH  13  21
ATOM     21  S   UNL A   1      37.218  22.901  25.575  1.00  0.00     0.310 S 
ATOM     22  F   UNL A   1      37.509  23.666  24.216  1.00  0.00    -0.094 F 
ATOM     23  F   UNL A   1      36.699  21.695  24.704  1.00  0.00    -0.094 F 
ATOM     24  F   UNL A   1      38.672  22.358  25.510  1.00  0.00    -0.094 F 
ATOM     25  F   UNL A   1      37.739  24.189  26.326  1.00  0.00    -0.094 F 
ATOM     26  F   UNL A   1      35.764  23.522  25.551  1.00  0.00    -0.094 F 
ENDBRANCH  13  21
ENDBRANCH   4   6
ENDBRANCH   3   4
ENDBRANCH   2   3
ENDBRANCH   1   2
BRANCH   1  27
ATOM     27  O   UNL A   1      33.709  29.700  26.893  1.00  0.00    -0.458 OA
BRANCH  27  28
ATOM     28  C   UNL A   1      34.411  30.676  27.648  1.00  0.00     0.338 C 
ATOM     29  O   UNL A   1      33.874  31.803  27.888  1.00  0.00    -0.246 OA
BRANCH  28  30
ATOM     30  C   UNL A   1      35.807  30.374  28.171  1.00  0.00     0.060 A 
ATOM     31  C   UNL A   1      36.860  30.452  27.275  1.00  0.00     0.016 A 
ATOM     32  C   UNL A   1      35.978  29.888  29.395  1.00  0.00     0.016 A 
ATOM     33  C   UNL A   1      38.004  29.718  27.670  1.00  0.00     0.010 A 
ATOM     34  C   UNL A   1      37.168  29.307  29.756  1.00  0.00     0.010 A 
ATOM     35  C   UNL A   1      38.234  29.295  28.900  1.00  0.00    -0.014 A 
BRANCH  35  36
ATOM     36  C   UNL A   1      39.609  28.820  29.339  1.00  0.00     0.031 A 
ATOM     37  C   UNL A   1      40.112  27.574  28.962  1.00  0.00     0.074 A 
ATOM     38  C   UNL A   1      40.344  29.780  30.014  1.00  0.00     0.049 A 
ATOM     39  N   UNL A   1      41.349  27.108  29.142  1.00  0.00    -0.248 NA
ATOM     40  C   UNL A   1      39.324  26.541  28.276  1.00  0.00     0.031 C 
ATOM     41  C   UNL A   1      39.848  31.043  30.391  1.00  0.00     0.029 A 
ATOM     42  N   UNL A   1      41.654  29.700  30.437  1.00  0.00    -0.354 N 
ATOM     43  C   UNL A   1      41.457  25.881  28.629  1.00  0.00     0.074 A 
ATOM     44  C   UNL A   1      40.154  25.495  28.070  1.00  0.00     0.031 C 
ATOM     45  C   UNL A   1      40.837  31.709  31.041  1.00  0.00     0.029 A 
ATOM     46  C   UNL A   1      41.970  30.875  31.081  1.00  0.00     0.049 A 
ATOM     47  H   UNL A   1      42.258  28.934  30.301  1.00  0.00     0.167 HD
ATOM     48  C   UNL A   1      42.593  25.069  28.603  1.00  0.00     0.031 A 
ATOM     49  C   UNL A   1      43.174  31.218  31.677  1.00  0.00     0.031 A 
ATOM     50  C   UNL A   1      43.809  25.429  29.162  1.00  0.00     0.049 A 
ATOM     51  C   UNL A   1      44.292  30.382  31.703  1.00  0.00     0.074 A 
ATOM     52  C   UNL A   1      44.965  24.625  29.139  1.00  0.00     0.029 A 
ATOM     53  N   UNL A   1      44.119  26.594  29.828  1.00  0.00    -0.354 N 
ATOM     54  N   UNL A   1      44.412  29.171  31.157  1.00  0.00    -0.248 NA
ATOM     55  C   UNL A   1      45.561  30.721  32.361  1.00  0.00     0.031 C 
ATOM     56  C   UNL A   1      45.955  25.292  29.789  1.00  0.00     0.029 A 
ATOM     57  C   UNL A   1      45.433  26.523  30.230  1.00  0.00     0.049 A 
ATOM     58  H   UNL A   1      43.505  27.347  29.988  1.00  0.00     0.167 HD
ATOM     59  C   UNL A   1      45.637  28.688  31.373  1.00  0.00     0.074 A 
ATOM     60  C   UNL A   1      46.391  29.675  32.157  1.00  0.00     0.031 C 
ATOM     61  C   UNL A   1      46.157  27.465  30.944  1.00  0.00     0.031 A 
BRANCH  48  62
ATOM     62  C   UNL A   1      42.489  23.712  27.925  1.00  0.00    -0.014 A 
ATOM     63  C   UNL A   1      42.167  22.639  28.739  1.00  0.00     0.010 A 
ATOM     64  C   UNL A   1      42.633  23.562  26.613  1.00  0.00     0.010 A 
ATOM     65  C   UNL A   1      42.301  21.380  28.108  1.00  0.00     0.020 A 
ATOM     66  C   UNL A   1      42.618  22.311  26.046  1.00  0.00     0.020 A 
ATOM     67  C   UNL A   1      42.364  21.200  26.801  1.00  0.00     0.054 A 
BRANCH  67  68
ATOM     68  S   UNL A   1      42.128  19.570  26.051  1.00  0.00     0.124 S 
ATOM     69  O   UNL A   1      40.642  19.357  25.751  1.00  0.00    -0.237 OA
ATOM     70  O   UNL A   1      42.928  19.486  24.749  1.00  0.00    -0.237 OA
ATOM     71  O   UNL A   1      42.670  18.361  27.132  1.00  0.00    -0.744 OA
ENDBRANCH  67  68
ENDBRANCH  48  62
BRANCH  49  72
ATOM     72  C   UNL A   1      43.281  32.581  32.341  1.00  0.00    -0.014 A 
ATOM     73  C   UNL A   1      43.081  32.741  33.703  1.00  0.00     0.010 A 
ATOM     74  C   UNL A   1      43.506  33.624  31.550  1.00  0.00     0.010 A 
ATOM     75  C   UNL A   1      42.849  34.081  34.094  1.00  0.00     0.020 A 
ATOM     76  C   UNL A   1      43.394  34.906  32.034  1.00  0.00     0.020 A 
ATOM     77  C   UNL A   1      43.139  35.138  33.357  1.00  0.00     0.054 A 
BRANCH  77  78
ATOM     78  S   UNL A   1      43.197  36.804  34.061  1.00  0.00     0.124 S 
ATOM     79  O   UNL A   1      41.839  37.144  34.679  1.00  0.00    -0.237 OA
ATOM     80  O   UNL A   1      44.278  36.864  35.143  1.00  0.00    -0.237 OA
ATOM     81  O   UNL A   1      43.561  37.931  32.828  1.00  0.00    -0.744 OA
ENDBRANCH  77  78
ENDBRANCH  49  72
BRANCH  61  82
ATOM     82  C   UNL A   1      47.605  27.149  31.280  1.00  0.00    -0.014 A 
ATOM     83  C   UNL A   1      48.555  27.502  30.336  1.00  0.00     0.010 A 
ATOM     84  C   UNL A   1      47.937  26.461  32.366  1.00  0.00     0.010 A 
ATOM     85  C   UNL A   1      49.789  26.828  30.485  1.00  0.00     0.020 A 
ATOM     86  C   UNL A   1      49.203  25.946  32.509  1.00  0.00     0.020 A 
ATOM     87  C   UNL A   1      50.176  26.204  31.583  1.00  0.00     0.054 A 
BRANCH  87  88
ATOM     88  S   UNL A   1      51.898  25.721  31.851  1.00  0.00     0.124 S 
ATOM     89  O   UNL A   1      52.708  25.992  30.579  1.00  0.00    -0.237 OA
ATOM     90  O   UNL A   1      52.483  26.532  33.010  1.00  0.00    -0.237 OA
ATOM     91  O   UNL A   1      51.971  24.055  32.228  1.00  0.00    -0.744 OA
ENDBRANCH  87  88
ENDBRANCH  61  82
ENDBRANCH  35  36
ENDBRANCH  28  30
ENDBRANCH  27  28
ENDBRANCH   1  27
TORSDOF 16
ENDMDL
MODEL 2
REMARK VINA RESULT:     -11.2      3.069      8.310
REMARK SMILES O=C(OCCOC(=O)c1ccc(-c2c3nc(c(-c4ccc(S(=O)(=O)[O-])cc4)c4ccc([nH]4)c(-c4ccc(S(=O)(=O)[O-])cc4)c4nc(c(-c5ccc(S(=O)(=O)[O-])cc5)c5ccc2[nH]5)C=C4)C=C3)cc1)C1=Cc2cc(S(F)(F)(F)(F)F)cc(Br)c2O[C@H]1C(F)(F)F
REMARK SMILES IDX 5 1 4 2 3 3 2 4 1 5 69 6 70 7 85 8 71 9 84 10 72 11 83 12
REMARK SMILES IDX 73 13 81 14 80 15 82 16 86 17 87 18 88 19 89 20 74 21 75 22
REMARK SMILES IDX 76 23 77 24 78 25 79 26 6 27 7 28 8 29 9 30 10 31 68 32
REMARK SMILES IDX 11 33 67 34 12 35 13 36 14 37 61 38 15 39 66 40 60 41 62 42
REMARK SMILES IDX 16 43 65 44 59 45 58 46 17 48 47 49 28 50 46 51 29 52 32 53
REMARK SMILES IDX 45 54 63 55 30 56 31 57 44 59 64 60 33 61 18 62 19 63 27 64
REMARK SMILES IDX 20 65 26 66 21 67 22 68 23 69 24 70 25 71 48 72 49 73 57 74
REMARK SMILES IDX 50 75 56 76 51 77 52 78 53 79 54 80 55 81 34 82 35 83 43 84
REMARK SMILES IDX 36 85 42 86 37 87 38 88 39 89 40 90 41 91
REMARK H PARENT 62 47 32 58
REMARK Flexibility Score: inf
ROOT
ATOM      1  C   UNL A   1      37.047  22.589  24.247  1.00  0.00     0.275 C 
ENDROOT
BRANCH   1   2
ATOM      2  C   UNL A   1      35.906  23.222  23.469  1.00  0.00     0.275 C 
BRANCH   2   3
ATOM      3  O   UNL A   1      34.911  23.678  24.375  1.00  0.00    -0.459 OA
BRANCH   3   4
ATOM      4  C   UNL A   1      33.537  23.476  24.081  1.00  0.00     0.338 C 
ATOM      5  O   UNL A   1      33.164  23.294  22.880  1.00  0.00    -0.246 OA
BRANCH   4   6
ATOM      6  C   UNL A   1      32.512  23.476  25.204  1.00  0.00     0.087 C 
ATOM      7  C   UNL A   1      32.159  24.646  25.802  1.00  0.00     0.027 C 
ATOM      8  C   UNL A   1      31.881  22.170  25.658  1.00  0.00     0.316 C 
ATOM      9  C   UNL A   1      32.790  25.952  25.347  1.00  0.00     0.020 A 
ATOM     10  O   UNL A   1      32.545  25.380  23.055  1.00  0.00    -0.474 OA
ATOM     11  C   UNL A   1      33.305  26.740  26.364  1.00  0.00     0.036 A 
ATOM     12  C   UNL A   1      32.943  26.287  24.072  1.00  0.00     0.142 A 
ATOM     13  C   UNL A   1      33.720  28.024  25.939  1.00  0.00     0.109 A 
ATOM     14  C   UNL A   1      33.482  27.504  23.727  1.00  0.00     0.062 A 
ATOM     15  C   UNL A   1      33.956  28.358  24.683  1.00  0.00     0.044 A 
ATOM     16  Br  UNL A   1      33.570  28.021  21.839  1.00  0.00    -0.047 Br
BRANCH   8  17
ATOM     17  C   UNL A   1      32.443  21.023  24.835  1.00  0.00     0.430 C 
ATOM     18  F   UNL A   1      33.771  21.092  24.822  1.00  0.00    -0.167 F 
ATOM     19  F   UNL A   1      32.065  19.865  25.370  1.00  0.00    -0.167 F 
ATOM     20  F   UNL A   1      31.982  21.106  23.589  1.00  0.00    -0.167 F 
ENDBRANCH   8  17
BRANCH  13  21
ATOM     21  S   UNL A   1      33.944  29.300  27.205  1.00  0.00     0.310 S 
ATOM     22  F   UNL A   1      33.565  30.448  26.177  1.00  0.00    -0.094 F 
ATOM     23  F   UNL A   1      35.440  29.476  26.743  1.00  0.00    -0.094 F 
ATOM     24  F   UNL A   1      34.117  30.406  28.283  1.00  0.00    -0.094 F 
ATOM     25  F   UNL A   1      32.406  29.208  27.556  1.00  0.00    -0.094 F 
ATOM     26  F   UNL A   1      33.724  28.256  26.038  1.00  0.00    -0.094 F 
ENDBRANCH  13  21
ENDBRANCH   4   6
ENDBRANCH   3   4
ENDBRANCH   2   3
ENDBRANCH   1   2
BRANCH   1  27
ATOM     27  O   UNL A   1      37.437  23.452  25.304  1.00  0.00    -0.458 OA
BRANCH  27  28
ATOM     28  C   UNL A   1      38.597  23.158  26.068  1.00  0.00     0.338 C 
ATOM     29  O   UNL A   1      39.057  21.975  26.096  1.00  0.00    -0.246 OA
BRANCH  28  30
ATOM     30  C   UNL A   1      39.290  24.261  26.853  1.00  0.00     0.060 A 
ATOM     31  C   UNL A   1      38.986  24.382  28.198  1.00  0.00     0.016 A 
ATOM     32  C   UNL A   1      40.024  25.175  26.228  1.00  0.00     0.016 A 
ATOM     33  C   UNL A   1      39.262  25.661  28.736  1.00  0.00     0.010 A 
ATOM     34  C   UNL A   1      40.374  26.342  26.860  1.00  0.00     0.010 A 
ATOM     35  C   UNL A   1      40.054  26.555  28.172  1.00  0.00    -0.014 A 
BRANCH  35  36
ATOM     36  C   UNL A   1      40.582  27.755  28.941  1.00  0.00     0.031 A 
ATOM     37  C   UNL A   1      41.892  27.803  29.421  1.00  0.00     0.074 A 
ATOM     38  C   UNL A   1      39.699  28.820  28.993  1.00  0.00     0.049 A 
ATOM     39  N   UNL A   1      42.522  28.847  29.962  1.00  0.00    -0.248 NA
ATOM     40  C   UNL A   1      42.820  26.664  29.397  1.00  0.00     0.031 C 
ATOM     41  C   UNL A   1      38.378  28.783  28.504  1.00  0.00     0.029 A 
ATOM     42  N   UNL A   1      39.921  30.078  29.511  1.00  0.00    -0.354 N 
ATOM     43  C   UNL A   1      43.774  28.513  30.282  1.00  0.00     0.074 A 
ATOM     44  C   UNL A   1      43.982  27.102  29.929  1.00  0.00     0.031 C 
ATOM     45  C   UNL A   1      37.809  29.995  28.734  1.00  0.00     0.029 A 
ATOM     46  C   UNL A   1      38.764  30.811  29.369  1.00  0.00     0.049 A 
ATOM     47  H   UNL A   1      40.761  30.397  29.912  1.00  0.00     0.167 HD
ATOM     48  C   UNL A   1      44.751  29.332  30.851  1.00  0.00     0.031 A 
ATOM     49  C   UNL A   1      38.534  32.119  29.767  1.00  0.00     0.031 A 
ATOM     50  C   UNL A   1      44.535  30.653  31.210  1.00  0.00     0.049 A 
ATOM     51  C   UNL A   1      39.494  32.919  30.391  1.00  0.00     0.074 A 
ATOM     52  C   UNL A   1      45.511  31.493  31.779  1.00  0.00     0.029 A 
ATOM     53  N   UNL A   1      43.370  31.379  31.092  1.00  0.00    -0.354 N 
ATOM     54  N   UNL A   1      40.757  32.598  30.675  1.00  0.00    -0.248 NA
ATOM     55  C   UNL A   1      39.252  34.295  30.846  1.00  0.00     0.031 C 
ATOM     56  C   UNL A   1      44.941  32.705  32.008  1.00  0.00     0.029 A 
ATOM     57  C   UNL A   1      43.599  32.642  31.588  1.00  0.00     0.049 A 
ATOM     58  H   UNL A   1      42.522  31.050  30.717  1.00  0.00     0.167 HD
ATOM     59  C   UNL A   1      41.374  33.629  31.254  1.00  0.00     0.074 A 
ATOM     60  C   UNL A   1      40.413  34.733  31.380  1.00  0.00     0.031 C 
ATOM     61  C   UNL A   1      42.702  33.695  31.680  1.00  0.00     0.031 A 
BRANCH  48  62
ATOM     62  C   UNL A   1      46.131  28.740  31.093  1.00  0.00    -0.014 A 
ATOM     63  C   UNL A   1      47.045  28.867  30.060  1.00  0.00     0.010 A 
ATOM     64  C   UNL A   1      46.473  28.187  32.251  1.00  0.00     0.010 A 
ATOM     65  C   UNL A   1      48.227  28.113  30.245  1.00  0.00     0.020 A 
ATOM     66  C   UNL A   1      47.699  27.587  32.405  1.00  0.00     0.020 A 
ATOM     67  C   UNL A   1      48.630  27.623  31.404  1.00  0.00     0.054 A 
BRANCH  67  68
ATOM     68  S   UNL A   1      50.321  27.030  31.653  1.00  0.00     0.124 S 
ATOM     69  O   UNL A   1      51.261  27.740  30.675  1.00  0.00    -0.237 OA
ATOM     70  O   UNL A   1      50.761  27.327  33.089  1.00  0.00    -0.237 OA
ATOM     71  O   UNL A   1      50.380  25.343  31.377  1.00  0.00    -0.744 OA
ENDBRANCH  67  68
ENDBRANCH  48  62
BRANCH  49  72
ATOM     72  C   UNL A   1      37.160  32.715  29.511  1.00  0.00    -0.014 A 
ATOM     73  C   UNL A   1      36.780  33.142  28.249  1.00  0.00     0.010 A 
ATOM     74  C   UNL A   1      36.362  32.874  30.561  1.00  0.00     0.010 A 
ATOM     75  C   UNL A   1      35.650  33.994  28.247  1.00  0.00     0.020 A 
ATOM     76  C   UNL A   1      35.203  33.606  30.455  1.00  0.00     0.020 A 
ATOM     77  C   UNL A   1      34.797  34.108  29.249  1.00  0.00     0.054 A 
BRANCH  77  78
ATOM     78  S   UNL A   1      33.177  34.888  29.039  1.00  0.00     0.124 S 
ATOM     79  O   UNL A   1      32.442  34.905  30.380  1.00  0.00    -0.237 OA
ATOM     80  O   UNL A   1      33.363  36.324  28.541  1.00  0.00    -0.237 OA
ATOM     81  O   UNL A   1      32.263  34.003  27.897  1.00  0.00    -0.744 OA
ENDBRANCH  77  78
ENDBRANCH  49  72
BRANCH  61  82
ATOM     82  C   UNL A   1      43.195  35.002  32.281  1.00  0.00    -0.014 A 
ATOM     83  C   UNL A   1      42.887  35.230  33.612  1.00  0.00     0.010 A 
ATOM     84  C   UNL A   1      43.783  35.934  31.540  1.00  0.00     0.010 A 
ATOM     85  C   UNL A   1      42.980  36.588  33.997  1.00  0.00     0.020 A 
ATOM     86  C   UNL A   1      43.964  37.206  32.030  1.00  0.00     0.020 A 
ATOM     87  C   UNL A   1      43.628  37.518  33.318  1.00  0.00     0.054 A 
BRANCH  87  88
ATOM     88  S   UNL A   1      44.049  39.116  34.053  1.00  0.00     0.124 S 
ATOM     89  O   UNL A   1      44.176  38.963  35.570  1.00  0.00    -0.237 OA
ATOM     90  O   UNL A   1      45.380  39.608  33.477  1.00  0.00    -0.237 OA
ATOM     91  O   UNL A   1      42.821  40.250  33.694  1.00  0.00    -0.744 OA
ENDBRANCH  87  88
ENDBRANCH  61  82
ENDBRANCH  35  36
ENDBRANCH  28  30
ENDBRANCH  27  28
ENDBRANCH   1  27
TORSDOF 16
ENDMDL
MODEL 3
REMARK VINA RESULT:     -11.1      3.012      9.183
REMARK SMILES O=C(OCCOC(=O)c1ccc(-c2c3nc(c(-c4ccc(S(=O)(=O)[O-])cc4)c4ccc([nH]4)c(-c4ccc(S(=O)(=O)[O-])cc4)c4nc(c(-c5ccc(S(=O)(=O)[O-])cc5)c5ccc2[nH]5)C=C4)C=C3)cc1)C1=Cc2cc(S(F)(F)(F)(F)F)cc(Br)c2O[C@H]1C(F)(F)F
REMARK SMILES IDX 5 1 4 2 3 3 2 4 1 5 69 6 70 7 85 8 71 9 84 10 72 11 83 12
REMARK SMILES IDX 73 13 81 14 80 15 82 16 86 17 87 18 88 19 89 20 74 21 75 22
REMARK SMILES IDX 76 23 77 24 78 25 79 26 6 27 7 28 8 29 9 30 10 31 68 32
REMARK SMILES IDX 11 33 67 34 12 35 13 36 14 37 61 38 15 39 66 40 60 41 62 42
REMARK SMILES IDX 16 43 65 44 59 45 58 46 17 48 47 49 28 50 46 51 29 52 32 53
REMARK SMILES IDX 45 54 63 55 30 56 31 57 44 59 64 60 33 61 18 62 19 63 27 64
REMARK SMILES IDX 20 65 26 66 21 67 22 68 23 69 24 70 25 71 48 72 49 73 57 74
REMARK SMILES IDX 50 75 56 76 51 77 52 78 53 79 54 80 55 81 34 82 35 83 43 84
REMARK SMILES IDX 36 85 42 86 37 87 38 88 39 89 40 90 41 91
REMARK H PARENT 62 47 32 58
REMARK Flexibility Score: inf
ROOT
ATOM      1  C   UNL A   1      37.165  22.161  24.421  1.00  0.00     0.275 C 
ENDROOT
BRANCH   1   2
ATOM      2  C   UNL A   1      36.045  22.756  23.585  1.00  0.00     0.275 C 
BRANCH   2   3
ATOM      3  O   UNL A   1      34.962  23.114  24.432  1.00  0.00    -0.459 OA
BRANCH   3   4
ATOM      4  C   UNL A   1      33.627  22.861  24.021  1.00  0.00     0.338 C 
ATOM      5  O   UNL A   1      33.366  22.663  22.793  1.00  0.00    -0.246 OA
BRANCH   4   6
ATOM      6  C   UNL A   1      32.509  22.826  25.051  1.00  0.00     0.087 C 
ATOM      7  C   UNL A   1      32.047  23.986  25.592  1.00  0.00     0.027 C 
ATOM      8  C   UNL A   1      31.907  21.497  25.476  1.00  0.00     0.316 C 
ATOM      9  C   UNL A   1      32.648  25.316  25.167  1.00  0.00     0.020 A 
ATOM     10  O   UNL A   1      32.633  24.695  22.874  1.00  0.00    -0.474 OA
ATOM     11  C   UNL A   1      33.032  26.146  26.208  1.00  0.00     0.036 A 
ATOM     12  C   UNL A   1      32.894  25.637  23.903  1.00  0.00     0.142 A 
ATOM     13  C   UNL A   1      33.418  27.443  25.795  1.00  0.00     0.109 A 
ATOM     14  C   UNL A   1      33.399  26.875  23.581  1.00  0.00     0.062 A 
ATOM     15  C   UNL A   1      33.745  27.768  24.557  1.00  0.00     0.044 A 
ATOM     16  Br  UNL A   1      33.626  27.365  21.697  1.00  0.00    -0.047 Br
BRANCH   8  17
ATOM     17  C   UNL A   1      32.596  20.368  24.728  1.00  0.00     0.430 C 
ATOM     18  F   UNL A   1      33.914  20.478  24.868  1.00  0.00    -0.167 F 
ATOM     19  F   UNL A   1      32.195  19.199  25.221  1.00  0.00    -0.167 F 
ATOM     20  F   UNL A   1      32.280  20.435  23.437  1.00  0.00    -0.167 F 
ENDBRANCH   8  17
BRANCH  13  21
ATOM     21  S   UNL A   1      33.465  28.748  27.048  1.00  0.00     0.310 S 
ATOM     22  F   UNL A   1      33.692  29.862  25.942  1.00  0.00    -0.094 F 
ATOM     23  F   UNL A   1      35.032  28.600  27.122  1.00  0.00    -0.094 F 
ATOM     24  F   UNL A   1      33.494  29.882  28.110  1.00  0.00    -0.094 F 
ATOM     25  F   UNL A   1      31.914  28.977  26.856  1.00  0.00    -0.094 F 
ATOM     26  F   UNL A   1      33.435  27.676  25.886  1.00  0.00    -0.094 F 
ENDBRANCH  13  21
ENDBRANCH   4   6
ENDBRANCH   3   4
ENDBRANCH   2   3
ENDBRANCH   1   2
BRANCH   1  27
ATOM     27  O   UNL A   1      37.537  23.079  25.439  1.00  0.00    -0.458 OA
BRANCH  27  28
ATOM     28  C   UNL A   1      38.785  22.936  26.101  1.00  0.00     0.338 C 
ATOM     29  O   UNL A   1      39.369  21.809  26.121  1.00  0.00    -0.246 OA
BRANCH  28  30
ATOM     30  C   UNL A   1      39.422  24.134  26.788  1.00  0.00     0.060 A 
ATOM     31  C   UNL A   1      39.113  24.351  28.120  1.00  0.00     0.016 A 
ATOM     32  C   UNL A   1      40.108  25.028  26.085  1.00  0.00     0.016 A 
ATOM     33  C   UNL A   1      39.326  25.684  28.548  1.00  0.00     0.010 A 
ATOM     34  C   UNL A   1      40.400  26.260  26.616  1.00  0.00     0.010 A 
ATOM     35  C   UNL A   1      40.071  26.566  27.907  1.00  0.00    -0.014 A 
BRANCH  35  36
ATOM     36  C   UNL A   1      40.539  27.851  28.571  1.00  0.00     0.031 A 
ATOM     37  C   UNL A   1      39.689  28.947  28.731  1.00  0.00     0.074 A 
ATOM     38  C   UNL A   1      41.812  27.773  29.107  1.00  0.00     0.049 A 
ATOM     39  N   UNL A   1      39.920  30.060  29.429  1.00  0.00    -0.248 NA
ATOM     40  C   UNL A   1      38.350  29.045  28.134  1.00  0.00     0.031 C 
ATOM     41  C   UNL A   1      42.673  26.668  28.957  1.00  0.00     0.029 A 
ATOM     42  N   UNL A   1      42.470  28.719  29.863  1.00  0.00    -0.354 N 
ATOM     43  C   UNL A   1      38.863  30.871  29.365  1.00  0.00     0.074 A 
ATOM     44  C   UNL A   1      37.839  30.233  28.526  1.00  0.00     0.031 C 
ATOM     45  C   UNL A   1      43.835  26.948  29.602  1.00  0.00     0.029 A 
ATOM     46  C   UNL A   1      43.722  28.232  30.167  1.00  0.00     0.049 A 
ATOM     47  H   UNL A   1      42.108  29.592  30.139  1.00  0.00     0.167 HD
ATOM     48  C   UNL A   1      38.712  32.118  29.975  1.00  0.00     0.031 A 
ATOM     49  C   UNL A   1      44.722  28.858  30.895  1.00  0.00     0.031 A 
ATOM     50  C   UNL A   1      39.696  32.725  30.739  1.00  0.00     0.049 A 
ATOM     51  C   UNL A   1      44.592  30.130  31.456  1.00  0.00     0.074 A 
ATOM     52  C   UNL A   1      39.557  33.978  31.367  1.00  0.00     0.029 A 
ATOM     53  N   UNL A   1      40.957  32.248  31.023  1.00  0.00    -0.354 N 
ATOM     54  N   UNL A   1      43.521  30.925  31.425  1.00  0.00    -0.248 NA
ATOM     55  C   UNL A   1      45.657  30.816  32.201  1.00  0.00     0.031 C 
ATOM     56  C   UNL A   1      40.720  34.257  32.012  1.00  0.00     0.029 A 
ATOM     57  C   UNL A   1      41.605  33.183  31.797  1.00  0.00     0.049 A 
ATOM     58  H   UNL A   1      41.329  31.388  30.723  1.00  0.00     0.167 HD
ATOM     59  C   UNL A   1      43.768  32.055  32.088  1.00  0.00     0.074 A 
ATOM     60  C   UNL A   1      45.148  32.005  32.591  1.00  0.00     0.031 C 
ATOM     61  C   UNL A   1      42.896  33.126  32.298  1.00  0.00     0.031 A 
BRANCH  48  62
ATOM     62  C   UNL A   1      37.392  32.851  29.792  1.00  0.00    -0.014 A 
ATOM     63  C   UNL A   1      36.466  32.717  30.813  1.00  0.00     0.010 A 
ATOM     64  C   UNL A   1      37.155  33.632  28.744  1.00  0.00     0.010 A 
ATOM     65  C   UNL A   1      35.186  33.229  30.496  1.00  0.00     0.020 A 
ATOM     66  C   UNL A   1      35.921  34.211  28.568  1.00  0.00     0.020 A 
ATOM     67  C   UNL A   1      34.939  34.072  29.509  1.00  0.00     0.054 A 
BRANCH  67  68
ATOM     68  S   UNL A   1      33.384  34.993  29.408  1.00  0.00     0.124 S 
ATOM     69  O   UNL A   1      32.471  34.339  28.368  1.00  0.00    -0.237 OA
ATOM     70  O   UNL A   1      32.694  34.981  30.773  1.00  0.00    -0.237 OA
ATOM     71  O   UNL A   1      33.708  36.608  28.947  1.00  0.00    -0.744 OA
ENDBRANCH  67  68
ENDBRANCH  48  62
BRANCH  49  72
ATOM     72  C   UNL A   1      46.035  28.117  31.092  1.00  0.00    -0.014 A 
ATOM     73  C   UNL A   1      46.253  27.313  32.199  1.00  0.00     0.010 A 
ATOM     74  C   UNL A   1      46.990  28.328  30.194  1.00  0.00     0.010 A 
ATOM     75  C   UNL A   1      47.616  27.005  32.424  1.00  0.00     0.020 A 
ATOM     76  C   UNL A   1      48.271  27.880  30.417  1.00  0.00     0.020 A 
ATOM     77  C   UNL A   1      48.571  27.130  31.520  1.00  0.00     0.054 A 
BRANCH  77  78
ATOM     78  S   UNL A   1      50.191  26.350  31.731  1.00  0.00     0.124 S 
ATOM     79  O   UNL A   1      51.289  27.346  31.350  1.00  0.00    -0.237 OA
ATOM     80  O   UNL A   1      50.369  25.929  33.192  1.00  0.00    -0.237 OA
ATOM     81  O   UNL A   1      50.295  24.973  30.723  1.00  0.00    -0.744 OA
ENDBRANCH  77  78
ENDBRANCH  49  72
BRANCH  61  82
ATOM     82  C   UNL A   1      43.394  34.299  33.127  1.00  0.00    -0.014 A 
ATOM     83  C   UNL A   1      43.218  34.211  34.498  1.00  0.00     0.010 A 
ATOM     84  C   UNL A   1      43.863  35.405  32.563  1.00  0.00     0.010 A 
ATOM     85  C   UNL A   1      43.294  35.456  35.166  1.00  0.00     0.020 A 
ATOM     86  C   UNL A   1      44.042  36.548  33.305  1.00  0.00     0.020 A 
ATOM     87  C   UNL A   1      43.829  36.550  34.655  1.00  0.00     0.054 A 
BRANCH  87  88
ATOM     88  S   UNL A   1      44.259  37.973  35.686  1.00  0.00     0.124 S 
ATOM     89  O   UNL A   1      43.496  37.893  37.011  1.00  0.00    -0.237 OA
ATOM     90  O   UNL A   1      45.764  37.967  35.963  1.00  0.00    -0.237 OA
ATOM     91  O   UNL A   1      43.836  39.416  34.871  1.00  0.00    -0.744 OA
ENDBRANCH  87  88
ENDBRANCH  61  82
ENDBRANCH  35  36
ENDBRANCH  28  30
ENDBRANCH  27  28
ENDBRANCH   1  27
TORSDOF 16
ENDMDL
