MODEL 1
REMARK VINA RESULT:      -8.9      0.000      0.000
REMARK SMILES CCCS[C@@H]1CC[C@@]([NH2+]CC)(C(=O)OCCOC(=O)c2ccc(-c3c4nc(c(-c5ccc(S(=O)(=O)[O-])cc5)c5ccc([nH]5)c(-c5ccc(S(=O)(=O)[O-])cc5)c5nc(c(-c6ccc(S(=O)(=O)[O-])cc6)c6ccc3[nH]6)C=C5)C=C4)cc2)C1
REMARK SMILES IDX 15 1 14 2 12 3 13 4 8 5 5 6 6 7 80 8 7 9 4 10 3 11 2 12 1 13
REMARK SMILES IDX 9 14 10 17 11 18 16 19 17 20 18 21 19 22 20 23 21 24 79 25
REMARK SMILES IDX 22 26 78 27 23 28 24 29 25 30 72 31 26 32 77 33 71 34 73 35
REMARK SMILES IDX 27 36 76 37 70 38 69 39 28 41 58 42 39 43 57 44 40 45 43 46
REMARK SMILES IDX 56 47 74 48 41 49 42 50 55 52 75 53 44 54 29 55 30 56 38 57
REMARK SMILES IDX 31 58 37 59 32 60 33 61 34 62 35 63 36 64 59 65 60 66 68 67
REMARK SMILES IDX 61 68 67 69 62 70 63 71 64 72 65 73 66 74 45 75 46 76 54 77
REMARK SMILES IDX 47 78 53 79 48 80 49 81 50 82 51 83 52 84
REMARK H PARENT 9 15 9 16 73 40 43 51
REMARK Flexibility Score: inf
ROOT
ATOM      1  C   UNL A   1      32.147  29.066  27.499  1.00  0.00     0.274 C 
ENDROOT
BRANCH   1   2
ATOM      2  O   UNL A   1      31.788  27.886  26.752  1.00  0.00    -0.457 OA
BRANCH   2   3
ATOM      3  C   UNL A   1      32.789  27.295  26.037  1.00  0.00     0.368 C 
ATOM      4  O   UNL A   1      33.908  27.068  26.487  1.00  0.00    -0.245 OA
BRANCH   3   5
ATOM      5  C   UNL A   1      32.387  27.030  24.557  1.00  0.00     0.195 C 
ATOM      6  C   UNL A   1      31.477  28.918  23.220  1.00  0.00     0.053 C 
ATOM      7  C   UNL A   1      32.689  28.354  22.491  1.00  0.00     0.022 C 
ATOM      8  C   UNL A   1      31.087  27.786  24.164  1.00  0.00     0.095 C 
ATOM      9  C   UNL A   1      33.447  27.595  23.573  1.00  0.00     0.082 C 
BRANCH   6  10
ATOM     10  S   UNL A   1      30.161  29.310  22.006  1.00  0.00    -0.158 SA
BRANCH  10  11
ATOM     11  C   UNL A   1      28.673  29.300  23.063  1.00  0.00     0.069 C 
BRANCH  11  12
ATOM     12  C   UNL A   1      27.640  30.381  22.741  1.00  0.00     0.007 C 
ATOM     13  C   UNL A   1      27.557  31.529  23.733  1.00  0.00     0.005 C 
ENDBRANCH  11  12
ENDBRANCH  10  11
ENDBRANCH   6  10
BRANCH   5  14
ATOM     14  N   UNL A   1      32.233  25.563  24.324  1.00  0.00    -0.332 N 
ATOM     15  H   UNL A   1      31.956  25.139  25.210  1.00  0.00     0.347 HD
ATOM     16  H   UNL A   1      33.137  25.255  23.965  1.00  0.00     0.347 HD
BRANCH  14  17
ATOM     17  C   UNL A   1      31.254  25.149  23.308  1.00  0.00     0.257 C 
ATOM     18  C   UNL A   1      30.740  23.716  23.393  1.00  0.00     0.071 C 
ENDBRANCH  14  17
ENDBRANCH   5  14
ENDBRANCH   3   5
ENDBRANCH   2   3
ENDBRANCH   1   2
BRANCH   1  19
ATOM     19  C   UNL A   1      32.479  30.216  26.550  1.00  0.00     0.275 C 
BRANCH  19  20
ATOM     20  O   UNL A   1      33.884  30.504  26.644  1.00  0.00    -0.458 OA
BRANCH  20  21
ATOM     21  C   UNL A   1      34.262  31.379  27.606  1.00  0.00     0.338 C 
ATOM     22  O   UNL A   1      33.628  32.336  28.009  1.00  0.00    -0.246 OA
BRANCH  21  23
ATOM     23  C   UNL A   1      35.587  30.980  28.140  1.00  0.00     0.060 A 
ATOM     24  C   UNL A   1      35.804  29.682  28.593  1.00  0.00     0.016 A 
ATOM     25  C   UNL A   1      36.604  31.927  28.276  1.00  0.00     0.016 A 
ATOM     26  C   UNL A   1      36.985  29.354  29.252  1.00  0.00     0.010 A 
ATOM     27  C   UNL A   1      37.824  31.570  28.877  1.00  0.00     0.010 A 
ATOM     28  C   UNL A   1      38.014  30.289  29.424  1.00  0.00    -0.014 A 
BRANCH  28  29
ATOM     29  C   UNL A   1      39.214  29.950  30.256  1.00  0.00     0.031 A 
ATOM     30  C   UNL A   1      40.261  28.993  29.728  1.00  0.00     0.074 A 
ATOM     31  C   UNL A   1      39.449  30.550  31.444  1.00  0.00     0.049 A 
ATOM     32  N   UNL A   1      41.267  28.438  30.358  1.00  0.00    -0.248 NA
ATOM     33  C   UNL A   1      40.165  28.608  28.310  1.00  0.00     0.031 C 
ATOM     34  C   UNL A   1      38.609  31.573  32.068  1.00  0.00     0.029 A 
ATOM     35  N   UNL A   1      40.499  30.413  32.323  1.00  0.00    -0.354 N 
ATOM     36  C   UNL A   1      41.863  27.575  29.445  1.00  0.00     0.074 A 
ATOM     37  C   UNL A   1      41.124  27.699  28.207  1.00  0.00     0.031 C 
ATOM     38  C   UNL A   1      39.221  32.039  33.168  1.00  0.00     0.029 A 
ATOM     39  C   UNL A   1      40.432  31.261  33.405  1.00  0.00     0.049 A 
ATOM     40  H   UNL A   1      41.230  29.767  32.191  1.00  0.00     0.167 HD
ATOM     41  C   UNL A   1      42.916  26.740  29.620  1.00  0.00     0.031 A 
ATOM     42  C   UNL A   1      41.220  31.377  34.493  1.00  0.00     0.031 A 
ATOM     43  C   UNL A   1      43.700  26.656  30.823  1.00  0.00     0.049 A 
ATOM     44  C   UNL A   1      42.357  30.416  34.692  1.00  0.00     0.074 A 
ATOM     45  C   UNL A   1      44.760  25.808  31.103  1.00  0.00     0.029 A 
ATOM     46  N   UNL A   1      43.538  27.468  31.932  1.00  0.00    -0.354 N 
ATOM     47  N   UNL A   1      42.808  29.493  33.878  1.00  0.00    -0.248 NA
ATOM     48  C   UNL A   1      43.061  30.480  35.982  1.00  0.00     0.031 C 
ATOM     49  C   UNL A   1      45.217  26.089  32.397  1.00  0.00     0.029 A 
ATOM     50  C   UNL A   1      44.467  27.138  32.903  1.00  0.00     0.049 A 
ATOM     51  H   UNL A   1      42.859  28.177  32.017  1.00  0.00     0.167 HD
ATOM     52  C   UNL A   1      43.833  28.853  34.566  1.00  0.00     0.074 A 
ATOM     53  C   UNL A   1      43.964  29.519  35.845  1.00  0.00     0.031 C 
ATOM     54  C   UNL A   1      44.582  27.792  34.179  1.00  0.00     0.031 A 
BRANCH  41  55
ATOM     55  C   UNL A   1      43.234  25.787  28.501  1.00  0.00    -0.014 A 
ATOM     56  C   UNL A   1      42.668  24.504  28.435  1.00  0.00     0.010 A 
ATOM     57  C   UNL A   1      44.105  26.208  27.478  1.00  0.00     0.010 A 
ATOM     58  C   UNL A   1      43.000  23.641  27.385  1.00  0.00     0.020 A 
ATOM     59  C   UNL A   1      44.422  25.359  26.417  1.00  0.00     0.020 A 
ATOM     60  C   UNL A   1      43.882  24.072  26.387  1.00  0.00     0.054 A 
BRANCH  60  61
ATOM     61  S   UNL A   1      44.296  22.942  25.030  1.00  0.00     0.124 S 
ATOM     62  O   UNL A   1      44.888  21.816  25.748  1.00  0.00    -0.237 OA
ATOM     63  O   UNL A   1      42.996  22.681  24.416  1.00  0.00    -0.237 OA
ATOM     64  O   UNL A   1      45.225  23.715  24.208  1.00  0.00    -0.744 OA
ENDBRANCH  60  61
ENDBRANCH  41  55
BRANCH  42  65
ATOM     65  C   UNL A   1      40.911  32.401  35.530  1.00  0.00    -0.014 A 
ATOM     66  C   UNL A   1      41.577  33.639  35.528  1.00  0.00     0.010 A 
ATOM     67  C   UNL A   1      39.947  32.142  36.521  1.00  0.00     0.010 A 
ATOM     68  C   UNL A   1      41.281  34.601  36.498  1.00  0.00     0.020 A 
ATOM     69  C   UNL A   1      39.628  33.113  37.473  1.00  0.00     0.020 A 
ATOM     70  C   UNL A   1      40.305  34.333  37.462  1.00  0.00     0.054 A 
BRANCH  70  71
ATOM     71  S   UNL A   1      39.871  35.617  38.669  1.00  0.00     0.124 S 
ATOM     72  O   UNL A   1      38.661  35.068  39.272  1.00  0.00    -0.237 OA
ATOM     73  O   UNL A   1      41.047  35.659  39.534  1.00  0.00    -0.237 OA
ATOM     74  O   UNL A   1      39.678  36.805  37.839  1.00  0.00    -0.744 OA
ENDBRANCH  70  71
ENDBRANCH  42  65
BRANCH  54  75
ATOM     75  C   UNL A   1      45.606  27.277  35.152  1.00  0.00    -0.014 A 
ATOM     76  C   UNL A   1      46.892  27.845  35.206  1.00  0.00     0.010 A 
ATOM     77  C   UNL A   1      45.270  26.250  36.052  1.00  0.00     0.010 A 
ATOM     78  C   UNL A   1      47.833  27.378  36.127  1.00  0.00     0.020 A 
ATOM     79  C   UNL A   1      46.203  25.793  36.986  1.00  0.00     0.020 A 
ATOM     80  C   UNL A   1      47.484  26.351  37.009  1.00  0.00     0.054 A 
BRANCH  80  81
ATOM     81  S   UNL A   1      48.708  25.787  38.225  1.00  0.00     0.124 S 
ATOM     82  O   UNL A   1      49.396  24.728  37.493  1.00  0.00    -0.237 OA
ATOM     83  O   UNL A   1      49.495  26.993  38.474  1.00  0.00    -0.237 OA
ATOM     84  O   UNL A   1      47.893  25.339  39.352  1.00  0.00    -0.744 OA
ENDBRANCH  80  81
ENDBRANCH  54  75
ENDBRANCH  28  29
ENDBRANCH  21  23
ENDBRANCH  20  21
ENDBRANCH  19  20
ENDBRANCH   1  19
TORSDOF 19
ENDMDL
MODEL 2
REMARK VINA RESULT:      -8.8      5.795     10.679
REMARK SMILES CCCS[C@@H]1CC[C@@]([NH2+]CC)(C(=O)OCCOC(=O)c2ccc(-c3c4nc(c(-c5ccc(S(=O)(=O)[O-])cc5)c5ccc([nH]5)c(-c5ccc(S(=O)(=O)[O-])cc5)c5nc(c(-c6ccc(S(=O)(=O)[O-])cc6)c6ccc3[nH]6)C=C5)C=C4)cc2)C1
REMARK SMILES IDX 15 1 14 2 12 3 13 4 8 5 5 6 6 7 80 8 7 9 4 10 3 11 2 12 1 13
REMARK SMILES IDX 9 14 10 17 11 18 16 19 17 20 18 21 19 22 20 23 21 24 79 25
REMARK SMILES IDX 22 26 78 27 23 28 24 29 25 30 72 31 26 32 77 33 71 34 73 35
REMARK SMILES IDX 27 36 76 37 70 38 69 39 28 41 58 42 39 43 57 44 40 45 43 46
REMARK SMILES IDX 56 47 74 48 41 49 42 50 55 52 75 53 44 54 29 55 30 56 38 57
REMARK SMILES IDX 31 58 37 59 32 60 33 61 34 62 35 63 36 64 59 65 60 66 68 67
REMARK SMILES IDX 61 68 67 69 62 70 63 71 64 72 65 73 66 74 45 75 46 76 54 77
REMARK SMILES IDX 47 78 53 79 48 80 49 81 50 82 51 83 52 84
REMARK H PARENT 9 15 9 16 73 40 43 51
REMARK Flexibility Score: inf
ROOT
ATOM      1  C   UNL A   1      33.789  30.205  27.228  1.00  0.00     0.274 C 
ENDROOT
BRANCH   1   2
ATOM      2  O   UNL A   1      33.768  28.771  27.380  1.00  0.00    -0.457 OA
BRANCH   2   3
ATOM      3  C   UNL A   1      32.576  28.153  27.134  1.00  0.00     0.368 C 
ATOM      4  O   UNL A   1      31.679  28.048  27.964  1.00  0.00    -0.245 OA
BRANCH   3   5
ATOM      5  C   UNL A   1      32.519  27.513  25.717  1.00  0.00     0.195 C 
ATOM      6  C   UNL A   1      31.447  28.799  23.878  1.00  0.00     0.053 C 
ATOM      7  C   UNL A   1      32.868  28.449  23.456  1.00  0.00     0.022 C 
ATOM      8  C   UNL A   1      31.170  27.806  25.002  1.00  0.00     0.095 C 
ATOM      9  C   UNL A   1      33.576  28.141  24.770  1.00  0.00     0.082 C 
BRANCH   6  10
ATOM     10  S   UNL A   1      30.315  28.587  22.453  1.00  0.00    -0.158 SA
BRANCH  10  11
ATOM     11  C   UNL A   1      28.820  29.451  23.042  1.00  0.00     0.069 C 
BRANCH  11  12
ATOM     12  C   UNL A   1      29.064  30.839  23.637  1.00  0.00     0.007 C 
ATOM     13  C   UNL A   1      28.283  31.976  22.998  1.00  0.00     0.005 C 
ENDBRANCH  11  12
ENDBRANCH  10  11
ENDBRANCH   6  10
BRANCH   5  14
ATOM     14  N   UNL A   1      32.756  26.042  25.811  1.00  0.00    -0.332 N 
ATOM     15  H   UNL A   1      32.099  25.585  25.179  1.00  0.00     0.347 HD
ATOM     16  H   UNL A   1      32.630  25.815  26.797  1.00  0.00     0.347 HD
BRANCH  14  17
ATOM     17  C   UNL A   1      34.104  25.562  25.474  1.00  0.00     0.257 C 
ATOM     18  C   UNL A   1      34.214  24.575  24.317  1.00  0.00     0.071 C 
ENDBRANCH  14  17
ENDBRANCH   5  14
ENDBRANCH   3   5
ENDBRANCH   2   3
ENDBRANCH   1   2
BRANCH   1  19
ATOM     19  C   UNL A   1      34.938  30.808  28.034  1.00  0.00     0.275 C 
BRANCH  19  20
ATOM     20  O   UNL A   1      36.126  30.035  27.799  1.00  0.00    -0.458 OA
BRANCH  20  21
ATOM     21  C   UNL A   1      36.768  29.559  28.892  1.00  0.00     0.338 C 
ATOM     22  O   UNL A   1      36.316  29.470  30.019  1.00  0.00    -0.246 OA
BRANCH  21  23
ATOM     23  C   UNL A   1      38.131  29.117  28.509  1.00  0.00     0.060 A 
ATOM     24  C   UNL A   1      38.937  28.442  29.422  1.00  0.00     0.016 A 
ATOM     25  C   UNL A   1      38.654  29.453  27.259  1.00  0.00     0.016 A 
ATOM     26  C   UNL A   1      40.271  28.182  29.126  1.00  0.00     0.010 A 
ATOM     27  C   UNL A   1      39.982  29.121  26.938  1.00  0.00     0.010 A 
ATOM     28  C   UNL A   1      40.830  28.526  27.889  1.00  0.00    -0.014 A 
BRANCH  28  29
ATOM     29  C   UNL A   1      42.300  28.360  27.649  1.00  0.00     0.031 A 
ATOM     30  C   UNL A   1      43.269  29.437  28.088  1.00  0.00     0.074 A 
ATOM     31  C   UNL A   1      42.813  27.223  27.129  1.00  0.00     0.049 A 
ATOM     32  N   UNL A   1      44.544  29.564  27.813  1.00  0.00    -0.248 NA
ATOM     33  C   UNL A   1      42.738  30.510  28.945  1.00  0.00     0.031 C 
ATOM     34  C   UNL A   1      42.048  26.037  26.742  1.00  0.00     0.029 A 
ATOM     35  N   UNL A   1      44.117  26.864  26.877  1.00  0.00    -0.354 N 
ATOM     36  C   UNL A   1      44.941  30.770  28.382  1.00  0.00     0.074 A 
ATOM     37  C   UNL A   1      43.779  31.324  29.042  1.00  0.00     0.031 C 
ATOM     38  C   UNL A   1      42.896  25.055  26.400  1.00  0.00     0.029 A 
ATOM     39  C   UNL A   1      44.259  25.576  26.415  1.00  0.00     0.049 A 
ATOM     40  H   UNL A   1      44.879  27.472  27.014  1.00  0.00     0.167 HD
ATOM     41  C   UNL A   1      46.154  31.373  28.345  1.00  0.00     0.031 A 
ATOM     42  C   UNL A   1      45.346  24.894  26.001  1.00  0.00     0.031 A 
ATOM     43  C   UNL A   1      47.333  30.803  27.750  1.00  0.00     0.049 A 
ATOM     44  C   UNL A   1      46.674  25.592  25.926  1.00  0.00     0.074 A 
ATOM     45  C   UNL A   1      48.595  31.362  27.630  1.00  0.00     0.029 A 
ATOM     46  N   UNL A   1      47.408  29.532  27.207  1.00  0.00    -0.354 N 
ATOM     47  N   UNL A   1      46.996  26.798  26.326  1.00  0.00    -0.248 NA
ATOM     48  C   UNL A   1      47.777  24.850  25.296  1.00  0.00     0.031 C 
ATOM     49  C   UNL A   1      49.425  30.438  26.984  1.00  0.00     0.029 A 
ATOM     50  C   UNL A   1      48.689  29.290  26.740  1.00  0.00     0.049 A 
ATOM     51  H   UNL A   1      46.659  28.894  27.158  1.00  0.00     0.167 HD
ATOM     52  C   UNL A   1      48.331  26.967  25.976  1.00  0.00     0.074 A 
ATOM     53  C   UNL A   1      48.769  25.727  25.371  1.00  0.00     0.031 C 
ATOM     54  C   UNL A   1      49.115  28.062  26.124  1.00  0.00     0.031 A 
BRANCH  41  55
ATOM     55  C   UNL A   1      46.248  32.767  28.902  1.00  0.00    -0.014 A 
ATOM     56  C   UNL A   1      46.782  33.022  30.176  1.00  0.00     0.010 A 
ATOM     57  C   UNL A   1      45.812  33.846  28.111  1.00  0.00     0.010 A 
ATOM     58  C   UNL A   1      46.839  34.332  30.665  1.00  0.00     0.020 A 
ATOM     59  C   UNL A   1      45.888  35.156  28.585  1.00  0.00     0.020 A 
ATOM     60  C   UNL A   1      46.383  35.389  29.869  1.00  0.00     0.054 A 
BRANCH  60  61
ATOM     61  S   UNL A   1      46.471  37.081  30.518  1.00  0.00     0.124 S 
ATOM     62  O   UNL A   1      47.172  36.880  31.784  1.00  0.00    -0.237 OA
ATOM     63  O   UNL A   1      47.230  37.785  29.487  1.00  0.00    -0.237 OA
ATOM     64  O   UNL A   1      45.071  37.479  30.636  1.00  0.00    -0.744 OA
ENDBRANCH  60  61
ENDBRANCH  41  55
BRANCH  42  65
ATOM     65  C   UNL A   1      45.212  23.484  25.543  1.00  0.00    -0.014 A 
ATOM     66  C   UNL A   1      45.560  22.422  26.396  1.00  0.00     0.010 A 
ATOM     67  C   UNL A   1      44.731  23.197  24.252  1.00  0.00     0.010 A 
ATOM     68  C   UNL A   1      45.426  21.098  25.967  1.00  0.00     0.020 A 
ATOM     69  C   UNL A   1      44.568  21.875  23.831  1.00  0.00     0.020 A 
ATOM     70  C   UNL A   1      44.927  20.833  24.688  1.00  0.00     0.054 A 
BRANCH  70  71
ATOM     71  S   UNL A   1      44.683  19.112  24.168  1.00  0.00     0.124 S 
ATOM     72  O   UNL A   1      45.509  18.387  25.128  1.00  0.00    -0.237 OA
ATOM     73  O   UNL A   1      43.241  18.931  24.310  1.00  0.00    -0.237 OA
ATOM     74  O   UNL A   1      45.169  19.107  22.790  1.00  0.00    -0.744 OA
ENDBRANCH  70  71
ENDBRANCH  42  65
BRANCH  54  75
ATOM     75  C   UNL A   1      50.527  27.975  25.614  1.00  0.00    -0.014 A 
ATOM     76  C   UNL A   1      51.573  27.580  26.468  1.00  0.00     0.010 A 
ATOM     77  C   UNL A   1      50.807  28.244  24.263  1.00  0.00     0.010 A 
ATOM     78  C   UNL A   1      52.880  27.480  25.985  1.00  0.00     0.020 A 
ATOM     79  C   UNL A   1      52.110  28.127  23.772  1.00  0.00     0.020 A 
ATOM     80  C   UNL A   1      53.141  27.758  24.640  1.00  0.00     0.054 A 
BRANCH  80  81
ATOM     81  S   UNL A   1      54.839  27.582  24.022  1.00  0.00     0.124 S 
ATOM     82  O   UNL A   1      55.072  26.150  24.181  1.00  0.00    -0.237 OA
ATOM     83  O   UNL A   1      54.732  28.053  22.643  1.00  0.00    -0.237 OA
ATOM     84  O   UNL A   1      55.619  28.444  24.908  1.00  0.00    -0.744 OA
ENDBRANCH  80  81
ENDBRANCH  54  75
ENDBRANCH  28  29
ENDBRANCH  21  23
ENDBRANCH  20  21
ENDBRANCH  19  20
ENDBRANCH   1  19
TORSDOF 19
ENDMDL
MODEL 3
REMARK VINA RESULT:      -8.8      3.144      8.515
REMARK SMILES CCCS[C@@H]1CC[C@@]([NH2+]CC)(C(=O)OCCOC(=O)c2ccc(-c3c4nc(c(-c5ccc(S(=O)(=O)[O-])cc5)c5ccc([nH]5)c(-c5ccc(S(=O)(=O)[O-])cc5)c5nc(c(-c6ccc(S(=O)(=O)[O-])cc6)c6ccc3[nH]6)C=C5)C=C4)cc2)C1
REMARK SMILES IDX 15 1 14 2 12 3 13 4 8 5 5 6 6 7 80 8 7 9 4 10 3 11 2 12 1 13
REMARK SMILES IDX 9 14 10 17 11 18 16 19 17 20 18 21 19 22 20 23 21 24 79 25
REMARK SMILES IDX 22 26 78 27 23 28 24 29 25 30 72 31 26 32 77 33 71 34 73 35
REMARK SMILES IDX 27 36 76 37 70 38 69 39 28 41 58 42 39 43 57 44 40 45 43 46
REMARK SMILES IDX 56 47 74 48 41 49 42 50 55 52 75 53 44 54 29 55 30 56 38 57
REMARK SMILES IDX 31 58 37 59 32 60 33 61 34 62 35 63 36 64 59 65 60 66 68 67
REMARK SMILES IDX 61 68 67 69 62 70 63 71 64 72 65 73 66 74 45 75 46 76 54 77
REMARK SMILES IDX 47 78 53 79 48 80 49 81 50 82 51 83 52 84
REMARK H PARENT 9 15 9 16 73 40 43 51
REMARK Flexibility Score: inf
ROOT
ATOM      1  C   UNL A   1      38.416  22.376  26.177  1.00  0.00     0.274 C 
ENDROOT
BRANCH   1   2
ATOM      2  O   UNL A   1      37.647  21.339  25.533  1.00  0.00    -0.457 OA
BRANCH   2   3
ATOM      3  C   UNL A   1      36.706  21.753  24.635  1.00  0.00     0.368 C 
ATOM      4  O   UNL A   1      36.975  22.226  23.535  1.00  0.00    -0.245 OA
BRANCH   3   5
ATOM      5  C   UNL A   1      35.260  21.651  25.198  1.00  0.00     0.195 C 
ATOM      6  C   UNL A   1      33.359  22.184  23.687  1.00  0.00     0.053 C 
ATOM      7  C   UNL A   1      33.159  20.775  24.232  1.00  0.00     0.022 C 
ATOM      8  C   UNL A   1      34.349  22.795  24.672  1.00  0.00     0.095 C 
ATOM      9  C   UNL A   1      34.549  20.364  24.701  1.00  0.00     0.082 C 
BRANCH   6  10
ATOM     10  S   UNL A   1      31.752  23.064  23.663  1.00  0.00    -0.158 SA
BRANCH  10  11
ATOM     11  C   UNL A   1      32.286  24.795  23.443  1.00  0.00     0.069 C 
BRANCH  11  12
ATOM     12  C   UNL A   1      31.711  25.501  22.214  1.00  0.00     0.007 C 
ATOM     13  C   UNL A   1      32.644  25.605  21.018  1.00  0.00     0.005 C 
ENDBRANCH  11  12
ENDBRANCH  10  11
ENDBRANCH   6  10
BRANCH   5  14
ATOM     14  N   UNL A   1      35.291  21.648  26.691  1.00  0.00    -0.332 N 
ATOM     15  H   UNL A   1      36.262  21.774  26.978  1.00  0.00     0.347 HD
ATOM     16  H   UNL A   1      34.875  20.758  26.964  1.00  0.00     0.347 HD
BRANCH  14  17
ATOM     17  C   UNL A   1      34.490  22.674  27.376  1.00  0.00     0.257 C 
ATOM     18  C   UNL A   1      33.161  22.224  27.972  1.00  0.00     0.071 C 
ENDBRANCH  14  17
ENDBRANCH   5  14
ENDBRANCH   3   5
ENDBRANCH   2   3
ENDBRANCH   1   2
BRANCH   1  19
ATOM     19  C   UNL A   1      39.897  22.001  26.203  1.00  0.00     0.275 C 
BRANCH  19  20
ATOM     20  O   UNL A   1      40.564  22.815  27.180  1.00  0.00    -0.458 OA
BRANCH  20  21
ATOM     21  C   UNL A   1      41.280  23.864  26.712  1.00  0.00     0.338 C 
ATOM     22  O   UNL A   1      42.007  23.871  25.736  1.00  0.00    -0.246 OA
BRANCH  21  23
ATOM     23  C   UNL A   1      41.025  25.053  27.562  1.00  0.00     0.060 A 
ATOM     24  C   UNL A   1      41.959  26.083  27.633  1.00  0.00     0.016 A 
ATOM     25  C   UNL A   1      39.887  25.110  28.368  1.00  0.00     0.016 A 
ATOM     26  C   UNL A   1      41.804  27.111  28.558  1.00  0.00     0.010 A 
ATOM     27  C   UNL A   1      39.700  26.190  29.248  1.00  0.00     0.010 A 
ATOM     28  C   UNL A   1      40.684  27.183  29.395  1.00  0.00    -0.014 A 
BRANCH  28  29
ATOM     29  C   UNL A   1      40.610  28.222  30.474  1.00  0.00     0.031 A 
ATOM     30  C   UNL A   1      41.681  28.288  31.542  1.00  0.00     0.074 A 
ATOM     31  C   UNL A   1      39.655  29.178  30.477  1.00  0.00     0.049 A 
ATOM     32  N   UNL A   1      41.702  28.986  32.650  1.00  0.00    -0.248 NA
ATOM     33  C   UNL A   1      42.883  27.462  31.339  1.00  0.00     0.031 C 
ATOM     34  C   UNL A   1      38.600  29.340  29.475  1.00  0.00     0.029 A 
ATOM     35  N   UNL A   1      39.446  30.230  31.340  1.00  0.00    -0.354 N 
ATOM     36  C   UNL A   1      42.866  28.616  33.315  1.00  0.00     0.074 A 
ATOM     37  C   UNL A   1      43.541  27.652  32.474  1.00  0.00     0.031 C 
ATOM     38  C   UNL A   1      37.925  30.472  29.722  1.00  0.00     0.029 A 
ATOM     39  C   UNL A   1      38.407  31.053  30.970  1.00  0.00     0.049 A 
ATOM     40  H   UNL A   1      39.989  30.380  32.147  1.00  0.00     0.167 HD
ATOM     41  C   UNL A   1      43.326  29.024  34.523  1.00  0.00     0.031 A 
ATOM     42  C   UNL A   1      37.863  32.126  31.580  1.00  0.00     0.031 A 
ATOM     43  C   UNL A   1      42.700  30.030  35.339  1.00  0.00     0.049 A 
ATOM     44  C   UNL A   1      38.357  32.537  32.937  1.00  0.00     0.074 A 
ATOM     45  C   UNL A   1      43.074  30.476  36.596  1.00  0.00     0.029 A 
ATOM     46  N   UNL A   1      41.592  30.772  34.967  1.00  0.00    -0.354 N 
ATOM     47  N   UNL A   1      39.368  32.065  33.625  1.00  0.00    -0.248 NA
ATOM     48  C   UNL A   1      37.601  33.596  33.624  1.00  0.00     0.031 C 
ATOM     49  C   UNL A   1      42.171  31.468  36.997  1.00  0.00     0.029 A 
ATOM     50  C   UNL A   1      41.261  31.665  35.971  1.00  0.00     0.049 A 
ATOM     51  H   UNL A   1      41.110  30.678  34.114  1.00  0.00     0.167 HD
ATOM     52  C   UNL A   1      39.356  32.754  34.833  1.00  0.00     0.074 A 
ATOM     53  C   UNL A   1      38.265  33.703  34.767  1.00  0.00     0.031 C 
ATOM     54  C   UNL A   1      40.165  32.596  35.908  1.00  0.00     0.031 A 
BRANCH  41  55
ATOM     55  C   UNL A   1      44.534  28.319  35.075  1.00  0.00    -0.014 A 
ATOM     56  C   UNL A   1      44.425  27.136  35.824  1.00  0.00     0.010 A 
ATOM     57  C   UNL A   1      45.810  28.849  34.808  1.00  0.00     0.010 A 
ATOM     58  C   UNL A   1      45.573  26.517  36.331  1.00  0.00     0.020 A 
ATOM     59  C   UNL A   1      46.959  28.223  35.293  1.00  0.00     0.020 A 
ATOM     60  C   UNL A   1      46.832  27.070  36.070  1.00  0.00     0.054 A 
BRANCH  60  61
ATOM     61  S   UNL A   1      48.308  26.250  36.732  1.00  0.00     0.124 S 
ATOM     62  O   UNL A   1      49.353  27.226  36.430  1.00  0.00    -0.237 OA
ATOM     63  O   UNL A   1      47.986  26.094  38.149  1.00  0.00    -0.237 OA
ATOM     64  O   UNL A   1      48.381  25.003  35.973  1.00  0.00    -0.744 OA
ENDBRANCH  60  61
ENDBRANCH  41  55
BRANCH  42  65
ATOM     65  C   UNL A   1      36.723  32.844  30.945  1.00  0.00    -0.014 A 
ATOM     66  C   UNL A   1      35.410  32.646  31.408  1.00  0.00     0.010 A 
ATOM     67  C   UNL A   1      36.947  33.733  29.878  1.00  0.00     0.010 A 
ATOM     68  C   UNL A   1      34.343  33.327  30.816  1.00  0.00     0.020 A 
ATOM     69  C   UNL A   1      35.886  34.437  29.304  1.00  0.00     0.020 A 
ATOM     70  C   UNL A   1      34.588  34.221  29.770  1.00  0.00     0.054 A 
BRANCH  70  71
ATOM     71  S   UNL A   1      33.207  35.159  29.059  1.00  0.00     0.124 S 
ATOM     72  O   UNL A   1      32.638  34.195  28.123  1.00  0.00    -0.237 OA
ATOM     73  O   UNL A   1      32.388  35.465  30.228  1.00  0.00    -0.237 OA
ATOM     74  O   UNL A   1      33.864  36.314  28.451  1.00  0.00    -0.744 OA
ENDBRANCH  70  71
ENDBRANCH  42  65
BRANCH  54  75
ATOM     75  C   UNL A   1      39.896  33.461  37.108  1.00  0.00    -0.014 A 
ATOM     76  C   UNL A   1      39.096  32.992  38.164  1.00  0.00     0.010 A 
ATOM     77  C   UNL A   1      40.485  34.735  37.205  1.00  0.00     0.010 A 
ATOM     78  C   UNL A   1      38.866  33.791  39.287  1.00  0.00     0.020 A 
ATOM     79  C   UNL A   1      40.273  35.530  38.334  1.00  0.00     0.020 A 
ATOM     80  C   UNL A   1      39.454  35.058  39.363  1.00  0.00     0.054 A 
BRANCH  80  81
ATOM     81  S   UNL A   1      39.178  36.064  40.849  1.00  0.00     0.124 S 
ATOM     82  O   UNL A   1      40.166  35.517  41.773  1.00  0.00    -0.237 OA
ATOM     83  O   UNL A   1      39.443  37.420  40.374  1.00  0.00    -0.237 OA
ATOM     84  O   UNL A   1      37.784  35.794  41.193  1.00  0.00    -0.744 OA
ENDBRANCH  80  81
ENDBRANCH  54  75
ENDBRANCH  28  29
ENDBRANCH  21  23
ENDBRANCH  20  21
ENDBRANCH  19  20
ENDBRANCH   1  19
TORSDOF 19
ENDMDL
