MODEL 1
REMARK VINA RESULT:     -10.1      0.000      0.000
REMARK SMILES CCC[C@@](C)(C/C=C/c1ccccc1)C(=O)OCCOC(=O)c1ccc(-c2c3nc(c(-c4ccc(S(=O)(=O)[O-])cc4)c4ccc([nH]4)c(-c4ccc(S(=O)(=O)[O-])cc4)c4nc(c(-c5ccc(S(=O)(=O)[O-])cc5)c5ccc2[nH]5)C=C4)C=C3)cc1
REMARK SMILES IDX 18 1 17 2 15 3 16 4 4 5 5 6 3 7 2 8 1 9 6 10 7 11 8 12 9 13
REMARK SMILES IDX 10 14 14 15 11 16 13 17 12 18 19 19 20 20 21 21 22 22 23 23
REMARK SMILES IDX 24 24 82 25 25 26 81 27 26 28 27 29 28 30 75 31 29 32 80 33
REMARK SMILES IDX 74 34 76 35 30 36 79 37 73 38 72 39 31 41 61 42 42 43 60 44
REMARK SMILES IDX 43 45 46 46 59 47 77 48 44 49 45 50 58 52 78 53 47 54 32 55
REMARK SMILES IDX 33 56 41 57 34 58 40 59 35 60 36 61 37 62 38 63 39 64 62 65
REMARK SMILES IDX 63 66 71 67 64 68 70 69 65 70 66 71 67 72 68 73 69 74 48 75
REMARK SMILES IDX 49 76 57 77 50 78 56 79 51 80 52 81 53 82 54 83 55 84
REMARK H PARENT 76 40 46 51
REMARK Flexibility Score: inf
ROOT
ATOM      1  C   UNL A   1      31.646  28.428  27.155  1.00  0.00     0.274 C 
ENDROOT
BRANCH   1   2
ATOM      2  O   UNL A   1      31.805  27.798  25.866  1.00  0.00    -0.462 OA
BRANCH   2   3
ATOM      3  C   UNL A   1      31.062  26.666  25.689  1.00  0.00     0.312 C 
ATOM      4  O   UNL A   1      30.322  26.221  26.556  1.00  0.00    -0.252 OA
BRANCH   3   5
ATOM      5  C   UNL A   1      31.366  25.940  24.370  1.00  0.00     0.069 C 
ATOM      6  C   UNL A   1      32.664  26.581  23.847  1.00  0.00     0.024 C 
BRANCH   5   7
ATOM      7  C   UNL A   1      31.562  24.394  24.523  1.00  0.00     0.018 C 
BRANCH   7   8
ATOM      8  C   UNL A   1      31.025  23.401  23.474  1.00  0.00    -0.002 C 
ATOM      9  C   UNL A   1      32.019  22.447  22.834  1.00  0.00     0.004 C 
ENDBRANCH   7   8
ENDBRANCH   5   7
BRANCH   5  10
ATOM     10  C   UNL A   1      30.237  26.187  23.310  1.00  0.00     0.046 C 
BRANCH  10  11
ATOM     11  C   UNL A   1      30.110  27.587  22.744  1.00  0.00    -0.025 C 
ATOM     12  C   UNL A   1      29.199  28.469  23.193  1.00  0.00     0.004 C 
BRANCH  12  13
ATOM     13  C   UNL A   1      28.957  29.841  22.706  1.00  0.00    -0.026 A 
ATOM     14  C   UNL A   1      29.070  30.904  23.617  1.00  0.00     0.008 A 
ATOM     15  C   UNL A   1      28.525  30.131  21.405  1.00  0.00     0.008 A 
ATOM     16  C   UNL A   1      28.729  32.210  23.249  1.00  0.00     0.001 A 
ATOM     17  C   UNL A   1      28.175  31.435  21.040  1.00  0.00     0.001 A 
ATOM     18  C   UNL A   1      28.268  32.473  21.964  1.00  0.00     0.000 A 
ENDBRANCH  12  13
ENDBRANCH  10  11
ENDBRANCH   5  10
ENDBRANCH   3   5
ENDBRANCH   2   3
ENDBRANCH   1   2
BRANCH   1  19
ATOM     19  C   UNL A   1      32.396  29.760  27.245  1.00  0.00     0.275 C 
BRANCH  19  20
ATOM     20  O   UNL A   1      33.793  29.523  27.464  1.00  0.00    -0.458 OA
BRANCH  20  21
ATOM     21  C   UNL A   1      34.460  30.497  28.127  1.00  0.00     0.338 C 
ATOM     22  O   UNL A   1      34.010  31.570  28.485  1.00  0.00    -0.246 OA
BRANCH  21  23
ATOM     23  C   UNL A   1      35.862  30.072  28.347  1.00  0.00     0.060 A 
ATOM     24  C   UNL A   1      36.298  29.676  29.613  1.00  0.00     0.016 A 
ATOM     25  C   UNL A   1      36.777  30.133  27.298  1.00  0.00     0.016 A 
ATOM     26  C   UNL A   1      37.639  29.362  29.848  1.00  0.00     0.010 A 
ATOM     27  C   UNL A   1      38.113  29.772  27.516  1.00  0.00     0.010 A 
ATOM     28  C   UNL A   1      38.559  29.394  28.796  1.00  0.00    -0.014 A 
BRANCH  28  29
ATOM     29  C   UNL A   1      39.986  29.048  29.018  1.00  0.00     0.031 A 
ATOM     30  C   UNL A   1      40.949  30.093  29.513  1.00  0.00     0.074 A 
ATOM     31  C   UNL A   1      40.433  27.803  28.763  1.00  0.00     0.049 A 
ATOM     32  N   UNL A   1      42.252  30.039  29.602  1.00  0.00    -0.248 NA
ATOM     33  C   UNL A   1      40.361  31.361  29.976  1.00  0.00     0.031 C 
ATOM     34  C   UNL A   1      39.601  26.670  28.357  1.00  0.00     0.029 A 
ATOM     35  N   UNL A   1      41.707  27.289  28.794  1.00  0.00    -0.354 N 
ATOM     36  C   UNL A   1      42.649  31.274  30.103  1.00  0.00     0.074 A 
ATOM     37  C   UNL A   1      41.445  32.055  30.300  1.00  0.00     0.031 C 
ATOM     38  C   UNL A   1      40.386  25.596  28.169  1.00  0.00     0.029 A 
ATOM     39  C   UNL A   1      41.780  25.982  28.375  1.00  0.00     0.049 A 
ATOM     40  H   UNL A   1      42.491  27.806  29.089  1.00  0.00     0.167 HD
ATOM     41  C   UNL A   1      43.902  31.718  30.364  1.00  0.00     0.031 A 
ATOM     42  C   UNL A   1      42.848  25.194  28.132  1.00  0.00     0.031 A 
ATOM     43  C   UNL A   1      45.101  30.947  30.158  1.00  0.00     0.049 A 
ATOM     44  C   UNL A   1      44.233  25.744  28.325  1.00  0.00     0.074 A 
ATOM     45  C   UNL A   1      46.415  31.323  30.377  1.00  0.00     0.029 A 
ATOM     46  N   UNL A   1      45.133  29.646  29.680  1.00  0.00    -0.354 N 
ATOM     47  N   UNL A   1      44.598  26.928  28.757  1.00  0.00    -0.248 NA
ATOM     48  C   UNL A   1      45.354  24.855  27.985  1.00  0.00     0.031 C 
ATOM     49  C   UNL A   1      47.245  30.266  29.986  1.00  0.00     0.029 A 
ATOM     50  C   UNL A   1      46.445  29.213  29.572  1.00  0.00     0.049 A 
ATOM     51  H   UNL A   1      44.340  29.109  29.452  1.00  0.00     0.167 HD
ATOM     52  C   UNL A   1      45.989  26.920  28.755  1.00  0.00     0.074 A 
ATOM     53  C   UNL A   1      46.400  25.610  28.293  1.00  0.00     0.031 C 
ATOM     54  C   UNL A   1      46.846  27.910  29.104  1.00  0.00     0.031 A 
BRANCH  41  55
ATOM     55  C   UNL A   1      44.042  33.137  30.845  1.00  0.00    -0.014 A 
ATOM     56  C   UNL A   1      44.109  34.214  29.945  1.00  0.00     0.010 A 
ATOM     57  C   UNL A   1      44.084  33.394  32.228  1.00  0.00     0.010 A 
ATOM     58  C   UNL A   1      44.259  35.522  30.419  1.00  0.00     0.020 A 
ATOM     59  C   UNL A   1      44.212  34.701  32.707  1.00  0.00     0.020 A 
ATOM     60  C   UNL A   1      44.318  35.755  31.797  1.00  0.00     0.054 A 
BRANCH  60  61
ATOM     61  S   UNL A   1      44.516  37.459  32.390  1.00  0.00     0.124 S 
ATOM     62  O   UNL A   1      43.293  37.649  33.167  1.00  0.00    -0.237 OA
ATOM     63  O   UNL A   1      45.749  37.388  33.169  1.00  0.00    -0.237 OA
ATOM     64  O   UNL A   1      44.602  38.245  31.163  1.00  0.00    -0.744 OA
ENDBRANCH  60  61
ENDBRANCH  41  55
BRANCH  42  65
ATOM     65  C   UNL A   1      42.641  23.814  27.615  1.00  0.00    -0.014 A 
ATOM     66  C   UNL A   1      42.667  23.553  26.235  1.00  0.00     0.010 A 
ATOM     67  C   UNL A   1      42.433  22.749  28.511  1.00  0.00     0.010 A 
ATOM     68  C   UNL A   1      42.484  22.251  25.760  1.00  0.00     0.020 A 
ATOM     69  C   UNL A   1      42.278  21.443  28.041  1.00  0.00     0.020 A 
ATOM     70  C   UNL A   1      42.295  21.203  26.666  1.00  0.00     0.054 A 
BRANCH  70  71
ATOM     71  S   UNL A   1      42.130  19.511  26.033  1.00  0.00     0.124 S 
ATOM     72  O   UNL A   1      40.697  19.422  25.773  1.00  0.00    -0.237 OA
ATOM     73  O   UNL A   1      42.988  19.529  24.850  1.00  0.00    -0.237 OA
ATOM     74  O   UNL A   1      42.621  18.686  27.134  1.00  0.00    -0.744 OA
ENDBRANCH  70  71
ENDBRANCH  42  65
BRANCH  54  75
ATOM     75  C   UNL A   1      48.319  27.611  29.026  1.00  0.00    -0.014 A 
ATOM     76  C   UNL A   1      48.984  26.947  30.071  1.00  0.00     0.010 A 
ATOM     77  C   UNL A   1      49.039  27.961  27.868  1.00  0.00     0.010 A 
ATOM     78  C   UNL A   1      50.348  26.660  29.972  1.00  0.00     0.020 A 
ATOM     79  C   UNL A   1      50.398  27.655  27.755  1.00  0.00     0.020 A 
ATOM     80  C   UNL A   1      51.047  27.018  28.814  1.00  0.00     0.054 A 
BRANCH  80  81
ATOM     81  S   UNL A   1      52.808  26.597  28.687  1.00  0.00     0.124 S 
ATOM     82  O   UNL A   1      52.812  25.639  27.584  1.00  0.00    -0.237 OA
ATOM     83  O   UNL A   1      53.430  27.887  28.402  1.00  0.00    -0.237 OA
ATOM     84  O   UNL A   1      53.125  26.037  29.999  1.00  0.00    -0.744 OA
ENDBRANCH  80  81
ENDBRANCH  54  75
ENDBRANCH  28  29
ENDBRANCH  21  23
ENDBRANCH  20  21
ENDBRANCH  19  20
ENDBRANCH   1  19
TORSDOF 19
ENDMDL
MODEL 2
REMARK VINA RESULT:      -9.7      1.313      3.718
REMARK SMILES CCC[C@@](C)(C/C=C/c1ccccc1)C(=O)OCCOC(=O)c1ccc(-c2c3nc(c(-c4ccc(S(=O)(=O)[O-])cc4)c4ccc([nH]4)c(-c4ccc(S(=O)(=O)[O-])cc4)c4nc(c(-c5ccc(S(=O)(=O)[O-])cc5)c5ccc2[nH]5)C=C4)C=C3)cc1
REMARK SMILES IDX 18 1 17 2 15 3 16 4 4 5 5 6 3 7 2 8 1 9 6 10 7 11 8 12 9 13
REMARK SMILES IDX 10 14 14 15 11 16 13 17 12 18 19 19 20 20 21 21 22 22 23 23
REMARK SMILES IDX 24 24 82 25 25 26 81 27 26 28 27 29 28 30 75 31 29 32 80 33
REMARK SMILES IDX 74 34 76 35 30 36 79 37 73 38 72 39 31 41 61 42 42 43 60 44
REMARK SMILES IDX 43 45 46 46 59 47 77 48 44 49 45 50 58 52 78 53 47 54 32 55
REMARK SMILES IDX 33 56 41 57 34 58 40 59 35 60 36 61 37 62 38 63 39 64 62 65
REMARK SMILES IDX 63 66 71 67 64 68 70 69 65 70 66 71 67 72 68 73 69 74 48 75
REMARK SMILES IDX 49 76 57 77 50 78 56 79 51 80 52 81 53 82 54 83 55 84
REMARK H PARENT 76 40 46 51
REMARK Flexibility Score: inf
ROOT
ATOM      1  C   UNL A   1      32.041  28.440  27.098  1.00  0.00     0.274 C 
ENDROOT
BRANCH   1   2
ATOM      2  O   UNL A   1      31.838  27.829  25.807  1.00  0.00    -0.462 OA
BRANCH   2   3
ATOM      3  C   UNL A   1      31.197  26.624  25.841  1.00  0.00     0.312 C 
ATOM      4  O   UNL A   1      30.648  26.197  26.848  1.00  0.00    -0.252 OA
BRANCH   3   5
ATOM      5  C   UNL A   1      31.369  25.807  24.551  1.00  0.00     0.069 C 
ATOM      6  C   UNL A   1      31.262  24.334  24.989  1.00  0.00     0.024 C 
BRANCH   5   7
ATOM      7  C   UNL A   1      30.294  26.112  23.454  1.00  0.00     0.018 C 
BRANCH   7   8
ATOM      8  C   UNL A   1      29.431  27.388  23.498  1.00  0.00    -0.002 C 
ATOM      9  C   UNL A   1      29.947  28.612  22.762  1.00  0.00     0.004 C 
ENDBRANCH   7   8
ENDBRANCH   5   7
BRANCH   5  10
ATOM     10  C   UNL A   1      32.788  26.028  23.921  1.00  0.00     0.046 C 
BRANCH  10  11
ATOM     11  C   UNL A   1      33.764  24.871  23.984  1.00  0.00    -0.025 C 
ATOM     12  C   UNL A   1      34.714  24.776  24.931  1.00  0.00     0.004 C 
BRANCH  12  13
ATOM     13  C   UNL A   1      35.736  23.722  25.078  1.00  0.00    -0.026 A 
ATOM     14  C   UNL A   1      36.859  23.987  25.881  1.00  0.00     0.008 A 
ATOM     15  C   UNL A   1      35.697  22.508  24.381  1.00  0.00     0.008 A 
ATOM     16  C   UNL A   1      37.922  23.081  25.957  1.00  0.00     0.001 A 
ATOM     17  C   UNL A   1      36.764  21.606  24.450  1.00  0.00     0.001 A 
ATOM     18  C   UNL A   1      37.880  21.896  25.230  1.00  0.00     0.000 A 
ENDBRANCH  12  13
ENDBRANCH  10  11
ENDBRANCH   5  10
ENDBRANCH   3   5
ENDBRANCH   2   3
ENDBRANCH   1   2
BRANCH   1  19
ATOM     19  C   UNL A   1      32.573  29.871  26.984  1.00  0.00     0.275 C 
BRANCH  19  20
ATOM     20  O   UNL A   1      34.004  29.872  27.076  1.00  0.00    -0.458 OA
BRANCH  20  21
ATOM     21  C   UNL A   1      34.530  30.613  28.079  1.00  0.00     0.338 C 
ATOM     22  O   UNL A   1      33.975  31.508  28.690  1.00  0.00    -0.246 OA
BRANCH  21  23
ATOM     23  C   UNL A   1      35.928  30.187  28.326  1.00  0.00     0.060 A 
ATOM     24  C   UNL A   1      36.360  29.863  29.613  1.00  0.00     0.016 A 
ATOM     25  C   UNL A   1      36.844  30.175  27.276  1.00  0.00     0.016 A 
ATOM     26  C   UNL A   1      37.697  29.550  29.868  1.00  0.00     0.010 A 
ATOM     27  C   UNL A   1      38.175  29.813  27.516  1.00  0.00     0.010 A 
ATOM     28  C   UNL A   1      38.617  29.508  28.816  1.00  0.00    -0.014 A 
BRANCH  28  29
ATOM     29  C   UNL A   1      40.040  29.160  29.060  1.00  0.00     0.031 A 
ATOM     30  C   UNL A   1      41.001  30.210  29.549  1.00  0.00     0.074 A 
ATOM     31  C   UNL A   1      40.485  27.910  28.830  1.00  0.00     0.049 A 
ATOM     32  N   UNL A   1      42.304  30.152  29.654  1.00  0.00    -0.248 NA
ATOM     33  C   UNL A   1      40.414  31.487  29.985  1.00  0.00     0.031 C 
ATOM     34  C   UNL A   1      39.654  26.773  28.434  1.00  0.00     0.029 A 
ATOM     35  N   UNL A   1      41.757  27.391  28.885  1.00  0.00    -0.354 N 
ATOM     36  C   UNL A   1      42.700  31.393  30.139  1.00  0.00     0.074 A 
ATOM     37  C   UNL A   1      41.496  32.182  30.310  1.00  0.00     0.031 C 
ATOM     38  C   UNL A   1      40.437  25.693  28.272  1.00  0.00     0.029 A 
ATOM     39  C   UNL A   1      41.829  26.077  28.487  1.00  0.00     0.049 A 
ATOM     40  H   UNL A   1      42.540  27.911  29.179  1.00  0.00     0.167 HD
ATOM     41  C   UNL A   1      43.952  31.838  30.408  1.00  0.00     0.031 A 
ATOM     42  C   UNL A   1      42.897  25.282  28.269  1.00  0.00     0.031 A 
ATOM     43  C   UNL A   1      45.149  31.059  30.228  1.00  0.00     0.049 A 
ATOM     44  C   UNL A   1      44.282  25.830  28.469  1.00  0.00     0.074 A 
ATOM     45  C   UNL A   1      46.463  31.433  30.455  1.00  0.00     0.029 A 
ATOM     46  N   UNL A   1      45.182  29.750  29.771  1.00  0.00    -0.354 N 
ATOM     47  N   UNL A   1      44.647  27.019  28.885  1.00  0.00    -0.248 NA
ATOM     48  C   UNL A   1      45.403  24.931  28.156  1.00  0.00     0.031 C 
ATOM     49  C   UNL A   1      47.293  30.367  30.090  1.00  0.00     0.029 A 
ATOM     50  C   UNL A   1      46.493  29.310  29.685  1.00  0.00     0.049 A 
ATOM     51  H   UNL A   1      44.390  29.212  29.542  1.00  0.00     0.167 HD
ATOM     52  C   UNL A   1      46.038  27.006  28.899  1.00  0.00     0.074 A 
ATOM     53  C   UNL A   1      46.449  25.687  28.463  1.00  0.00     0.031 C 
ATOM     54  C   UNL A   1      46.895  27.999  29.242  1.00  0.00     0.031 A 
BRANCH  41  55
ATOM     55  C   UNL A   1      44.092  33.263  30.867  1.00  0.00    -0.014 A 
ATOM     56  C   UNL A   1      44.028  33.605  32.229  1.00  0.00     0.010 A 
ATOM     57  C   UNL A   1      44.315  34.275  29.915  1.00  0.00     0.010 A 
ATOM     58  C   UNL A   1      44.142  34.941  32.628  1.00  0.00     0.020 A 
ATOM     59  C   UNL A   1      44.450  35.609  30.311  1.00  0.00     0.020 A 
ATOM     60  C   UNL A   1      44.344  35.935  31.664  1.00  0.00     0.054 A 
BRANCH  60  61
ATOM     61  S   UNL A   1      44.486  37.662  32.203  1.00  0.00     0.124 S 
ATOM     62  O   UNL A   1      44.059  37.577  33.598  1.00  0.00    -0.237 OA
ATOM     63  O   UNL A   1      45.903  37.949  31.996  1.00  0.00    -0.237 OA
ATOM     64  O   UNL A   1      43.573  38.378  31.316  1.00  0.00    -0.744 OA
ENDBRANCH  60  61
ENDBRANCH  41  55
BRANCH  42  65
ATOM     65  C   UNL A   1      42.691  23.894  27.772  1.00  0.00    -0.014 A 
ATOM     66  C   UNL A   1      42.470  22.836  28.670  1.00  0.00     0.010 A 
ATOM     67  C   UNL A   1      42.700  23.630  26.390  1.00  0.00     0.010 A 
ATOM     68  C   UNL A   1      42.265  21.538  28.194  1.00  0.00     0.020 A 
ATOM     69  C   UNL A   1      42.468  22.339  25.910  1.00  0.00     0.020 A 
ATOM     70  C   UNL A   1      42.261  21.299  26.816  1.00  0.00     0.054 A 
BRANCH  70  71
ATOM     71  S   UNL A   1      41.924  19.619  26.216  1.00  0.00     0.124 S 
ATOM     72  O   UNL A   1      42.392  18.800  27.328  1.00  0.00    -0.237 OA
ATOM     73  O   UNL A   1      40.477  19.640  26.011  1.00  0.00    -0.237 OA
ATOM     74  O   UNL A   1      42.716  19.530  24.992  1.00  0.00    -0.744 OA
ENDBRANCH  70  71
ENDBRANCH  42  65
BRANCH  54  75
ATOM     75  C   UNL A   1      48.367  27.693  29.186  1.00  0.00    -0.014 A 
ATOM     76  C   UNL A   1      49.058  27.228  30.318  1.00  0.00     0.010 A 
ATOM     77  C   UNL A   1      49.059  27.831  27.968  1.00  0.00     0.010 A 
ATOM     78  C   UNL A   1      50.422  26.930  30.240  1.00  0.00     0.020 A 
ATOM     79  C   UNL A   1      50.418  27.513  27.881  1.00  0.00     0.020 A 
ATOM     80  C   UNL A   1      51.094  27.076  29.022  1.00  0.00     0.054 A 
BRANCH  80  81
ATOM     81  S   UNL A   1      52.854  26.642  28.932  1.00  0.00     0.124 S 
ATOM     82  O   UNL A   1      53.063  25.961  30.208  1.00  0.00    -0.237 OA
ATOM     83  O   UNL A   1      52.917  25.790  27.747  1.00  0.00    -0.237 OA
ATOM     84  O   UNL A   1      53.522  27.934  28.799  1.00  0.00    -0.744 OA
ENDBRANCH  80  81
ENDBRANCH  54  75
ENDBRANCH  28  29
ENDBRANCH  21  23
ENDBRANCH  20  21
ENDBRANCH  19  20
ENDBRANCH   1  19
TORSDOF 19
ENDMDL
MODEL 3
REMARK VINA RESULT:      -9.7      3.480     10.167
REMARK SMILES CCC[C@@](C)(C/C=C/c1ccccc1)C(=O)OCCOC(=O)c1ccc(-c2c3nc(c(-c4ccc(S(=O)(=O)[O-])cc4)c4ccc([nH]4)c(-c4ccc(S(=O)(=O)[O-])cc4)c4nc(c(-c5ccc(S(=O)(=O)[O-])cc5)c5ccc2[nH]5)C=C4)C=C3)cc1
REMARK SMILES IDX 18 1 17 2 15 3 16 4 4 5 5 6 3 7 2 8 1 9 6 10 7 11 8 12 9 13
REMARK SMILES IDX 10 14 14 15 11 16 13 17 12 18 19 19 20 20 21 21 22 22 23 23
REMARK SMILES IDX 24 24 82 25 25 26 81 27 26 28 27 29 28 30 75 31 29 32 80 33
REMARK SMILES IDX 74 34 76 35 30 36 79 37 73 38 72 39 31 41 61 42 42 43 60 44
REMARK SMILES IDX 43 45 46 46 59 47 77 48 44 49 45 50 58 52 78 53 47 54 32 55
REMARK SMILES IDX 33 56 41 57 34 58 40 59 35 60 36 61 37 62 38 63 39 64 62 65
REMARK SMILES IDX 63 66 71 67 64 68 70 69 65 70 66 71 67 72 68 73 69 74 48 75
REMARK SMILES IDX 49 76 57 77 50 78 56 79 51 80 52 81 53 82 54 83 55 84
REMARK H PARENT 76 40 46 51
REMARK Flexibility Score: inf
ROOT
ATOM      1  C   UNL A   1      36.585  22.677  23.801  1.00  0.00     0.274 C 
ENDROOT
BRANCH   1   2
ATOM      2  O   UNL A   1      35.256  22.190  24.081  1.00  0.00    -0.462 OA
BRANCH   2   3
ATOM      3  C   UNL A   1      34.250  22.928  23.524  1.00  0.00     0.312 C 
ATOM      4  O   UNL A   1      34.315  23.382  22.390  1.00  0.00    -0.252 OA
BRANCH   3   5
ATOM      5  C   UNL A   1      33.116  23.250  24.510  1.00  0.00     0.069 C 
ATOM      6  C   UNL A   1      33.735  23.071  25.908  1.00  0.00     0.024 C 
BRANCH   5   7
ATOM      7  C   UNL A   1      32.539  24.699  24.368  1.00  0.00     0.018 C 
BRANCH   7   8
ATOM      8  C   UNL A   1      33.442  25.944  24.462  1.00  0.00    -0.002 C 
ATOM      9  C   UNL A   1      32.819  27.228  24.983  1.00  0.00     0.004 C 
ENDBRANCH   7   8
ENDBRANCH   5   7
BRANCH   5  10
ATOM     10  C   UNL A   1      31.930  22.235  24.366  1.00  0.00     0.046 C 
BRANCH  10  11
ATOM     11  C   UNL A   1      32.195  20.796  24.760  1.00  0.00    -0.025 C 
ATOM     12  C   UNL A   1      32.613  19.870  23.879  1.00  0.00     0.004 C 
BRANCH  12  13
ATOM     13  C   UNL A   1      32.873  18.439  24.131  1.00  0.00    -0.026 A 
ATOM     14  C   UNL A   1      32.524  17.907  25.384  1.00  0.00     0.008 A 
ATOM     15  C   UNL A   1      33.539  17.606  23.225  1.00  0.00     0.008 A 
ATOM     16  C   UNL A   1      32.860  16.595  25.731  1.00  0.00     0.001 A 
ATOM     17  C   UNL A   1      33.885  16.296  23.575  1.00  0.00     0.001 A 
ATOM     18  C   UNL A   1      33.554  15.794  24.830  1.00  0.00     0.000 A 
ENDBRANCH  12  13
ENDBRANCH  10  11
ENDBRANCH   5  10
ENDBRANCH   3   5
ENDBRANCH   2   3
ENDBRANCH   1   2
BRANCH   1  19
ATOM     19  C   UNL A   1      37.021  23.769  24.782  1.00  0.00     0.275 C 
BRANCH  19  20
ATOM     20  O   UNL A   1      37.410  23.180  26.030  1.00  0.00    -0.458 OA
BRANCH  20  21
ATOM     21  C   UNL A   1      38.742  23.031  26.223  1.00  0.00     0.338 C 
ATOM     22  O   UNL A   1      39.414  22.060  25.929  1.00  0.00    -0.246 OA
BRANCH  21  23
ATOM     23  C   UNL A   1      39.283  24.245  26.879  1.00  0.00     0.060 A 
ATOM     24  C   UNL A   1      38.950  24.551  28.200  1.00  0.00     0.016 A 
ATOM     25  C   UNL A   1      40.078  25.128  26.153  1.00  0.00     0.016 A 
ATOM     26  C   UNL A   1      39.382  25.738  28.796  1.00  0.00     0.010 A 
ATOM     27  C   UNL A   1      40.556  26.297  26.761  1.00  0.00     0.010 A 
ATOM     28  C   UNL A   1      40.203  26.618  28.084  1.00  0.00    -0.014 A 
BRANCH  28  29
ATOM     29  C   UNL A   1      40.689  27.878  28.703  1.00  0.00     0.031 A 
ATOM     30  C   UNL A   1      42.082  27.956  29.264  1.00  0.00     0.074 A 
ATOM     31  C   UNL A   1      39.881  28.954  28.781  1.00  0.00     0.049 A 
ATOM     32  N   UNL A   1      42.628  28.895  29.992  1.00  0.00    -0.248 NA
ATOM     33  C   UNL A   1      42.979  26.831  28.955  1.00  0.00     0.031 C 
ATOM     34  C   UNL A   1      38.538  29.050  28.210  1.00  0.00     0.029 A 
ATOM     35  N   UNL A   1      40.073  30.171  29.390  1.00  0.00    -0.354 N 
ATOM     36  C   UNL A   1      43.924  28.466  30.256  1.00  0.00     0.074 A 
ATOM     37  C   UNL A   1      44.080  27.180  29.607  1.00  0.00     0.031 C 
ATOM     38  C   UNL A   1      38.023  30.256  28.502  1.00  0.00     0.029 A 
ATOM     39  C   UNL A   1      38.971  30.990  29.336  1.00  0.00     0.049 A 
ATOM     40  H   UNL A   1      40.919  30.431  29.824  1.00  0.00     0.167 HD
ATOM     41  C   UNL A   1      44.889  29.081  30.982  1.00  0.00     0.031 A 
ATOM     42  C   UNL A   1      38.725  32.175  29.932  1.00  0.00     0.031 A 
ATOM     43  C   UNL A   1      44.730  30.353  31.636  1.00  0.00     0.049 A 
ATOM     44  C   UNL A   1      39.771  32.788  30.821  1.00  0.00     0.074 A 
ATOM     45  C   UNL A   1      45.647  31.044  32.410  1.00  0.00     0.029 A 
ATOM     46  N   UNL A   1      43.578  31.124  31.602  1.00  0.00    -0.354 N 
ATOM     47  N   UNL A   1      40.976  32.351  31.100  1.00  0.00    -0.248 NA
ATOM     48  C   UNL A   1      39.418  34.050  31.489  1.00  0.00     0.031 C 
ATOM     49  C   UNL A   1      45.034  32.210  32.882  1.00  0.00     0.029 A 
ATOM     50  C   UNL A   1      43.751  32.271  32.360  1.00  0.00     0.049 A 
ATOM     51  H   UNL A   1      42.758  30.891  31.109  1.00  0.00     0.167 HD
ATOM     52  C   UNL A   1      41.530  33.291  31.962  1.00  0.00     0.074 A 
ATOM     53  C   UNL A   1      40.535  34.328  32.148  1.00  0.00     0.031 C 
ATOM     54  C   UNL A   1      42.754  33.294  32.546  1.00  0.00     0.031 A 
BRANCH  41  55
ATOM     55  C   UNL A   1      46.190  28.347  31.157  1.00  0.00    -0.014 A 
ATOM     56  C   UNL A   1      46.380  27.431  32.207  1.00  0.00     0.010 A 
ATOM     57  C   UNL A   1      47.232  28.564  30.238  1.00  0.00     0.010 A 
ATOM     58  C   UNL A   1      47.607  26.776  32.358  1.00  0.00     0.020 A 
ATOM     59  C   UNL A   1      48.453  27.896  30.373  1.00  0.00     0.020 A 
ATOM     60  C   UNL A   1      48.638  27.020  31.445  1.00  0.00     0.054 A 
BRANCH  60  61
ATOM     61  S   UNL A   1      50.223  26.163  31.662  1.00  0.00     0.124 S 
ATOM     62  O   UNL A   1      50.621  25.914  30.279  1.00  0.00    -0.237 OA
ATOM     63  O   UNL A   1      51.027  27.150  32.379  1.00  0.00    -0.237 OA
ATOM     64  O   UNL A   1      49.871  24.974  32.432  1.00  0.00    -0.744 OA
ENDBRANCH  60  61
ENDBRANCH  41  55
BRANCH  42  65
ATOM     65  C   UNL A   1      37.400  32.828  29.752  1.00  0.00    -0.014 A 
ATOM     66  C   UNL A   1      36.472  32.871  30.807  1.00  0.00     0.010 A 
ATOM     67  C   UNL A   1      37.069  33.426  28.522  1.00  0.00     0.010 A 
ATOM     68  C   UNL A   1      35.235  33.498  30.632  1.00  0.00     0.020 A 
ATOM     69  C   UNL A   1      35.845  34.077  28.354  1.00  0.00     0.020 A 
ATOM     70  C   UNL A   1      34.931  34.101  29.408  1.00  0.00     0.054 A 
BRANCH  70  71
ATOM     71  S   UNL A   1      33.348  34.970  29.224  1.00  0.00     0.124 S 
ATOM     72  O   UNL A   1      32.797  34.884  30.572  1.00  0.00    -0.237 OA
ATOM     73  O   UNL A   1      33.766  36.303  28.794  1.00  0.00    -0.237 OA
ATOM     74  O   UNL A   1      32.648  34.189  28.207  1.00  0.00    -0.744 OA
ENDBRANCH  70  71
ENDBRANCH  42  65
BRANCH  54  75
ATOM     75  C   UNL A   1      43.100  34.466  33.424  1.00  0.00    -0.014 A 
ATOM     76  C   UNL A   1      42.881  34.425  34.812  1.00  0.00     0.010 A 
ATOM     77  C   UNL A   1      43.695  35.608  32.857  1.00  0.00     0.010 A 
ATOM     78  C   UNL A   1      43.228  35.516  35.615  1.00  0.00     0.020 A 
ATOM     79  C   UNL A   1      44.063  36.692  33.659  1.00  0.00     0.020 A 
ATOM     80  C   UNL A   1      43.815  36.644  35.032  1.00  0.00     0.054 A 
BRANCH  80  81
ATOM     81  S   UNL A   1      44.298  38.032  36.097  1.00  0.00     0.124 S 
ATOM     82  O   UNL A   1      43.430  37.840  37.256  1.00  0.00    -0.237 OA
ATOM     83  O   UNL A   1      45.719  37.783  36.328  1.00  0.00    -0.237 OA
ATOM     84  O   UNL A   1      44.003  39.210  35.286  1.00  0.00    -0.744 OA
ENDBRANCH  80  81
ENDBRANCH  54  75
ENDBRANCH  28  29
ENDBRANCH  21  23
ENDBRANCH  20  21
ENDBRANCH  19  20
ENDBRANCH   1  19
TORSDOF 19
ENDMDL
