MODEL 1
REMARK VINA RESULT:      -9.8      0.000      0.000
REMARK SMILES Cc1cc(CNC(=O)C[C@H](C)CC(=O)OCCOC(=O)c2ccc(-c3c4nc(c(-c5ccc(S(=O)(=O)[O-])cc5)c5ccc([nH]5)c(-c5ccc(S(=O)(=O)[O-])cc5)c5nc(c(-c6ccc(S(=O)(=O)[O-])cc6)c6ccc3[nH]6)C=C5)C=C4)cc2)cc(C)c1F
REMARK SMILES IDX 16 1 15 2 13 3 14 4 12 5 10 6 11 7 9 8 7 9 6 10 8 12 5 13
REMARK SMILES IDX 4 14 1 15 2 16 3 17 84 18 82 19 85 20 81 21 83 22 17 23
REMARK SMILES IDX 18 24 19 25 20 26 21 27 22 28 80 29 23 30 79 31 24 32 25 33
REMARK SMILES IDX 26 34 73 35 27 36 78 37 72 38 74 39 28 40 77 41 71 42 70 43
REMARK SMILES IDX 29 45 59 46 40 47 58 48 41 49 44 50 57 51 75 52 42 53 43 54
REMARK SMILES IDX 56 56 76 57 45 58 30 59 31 60 39 61 32 62 38 63 33 64 34 65
REMARK SMILES IDX 35 66 36 67 37 68 60 69 61 70 69 71 62 72 68 73 63 74 64 75
REMARK SMILES IDX 65 76 66 77 67 78 46 79 47 80 55 81 48 82 54 83 49 84 50 85
REMARK SMILES IDX 51 86 52 87 53 88
REMARK H PARENT 6 11 74 44 44 55
REMARK Flexibility Score: inf
ROOT
ATOM      1  C   UNL A   1      45.608  23.184  25.801  1.00  0.00     0.274 C 
ENDROOT
BRANCH   1   2
ATOM      2  O   UNL A   1      44.548  22.774  24.905  1.00  0.00    -0.462 OA
BRANCH   2   3
ATOM      3  C   UNL A   1      43.616  21.934  25.413  1.00  0.00     0.306 C 
ATOM      4  O   UNL A   1      43.766  20.720  25.506  1.00  0.00    -0.252 OA
BRANCH   3   5
ATOM      5  C   UNL A   1      42.288  22.585  25.761  1.00  0.00     0.126 C 
BRANCH   5   6
ATOM      6  C   UNL A   1      41.411  22.062  26.915  1.00  0.00     0.006 C 
ATOM      7  C   UNL A   1      41.931  22.588  28.261  1.00  0.00     0.009 C 
BRANCH   6   8
ATOM      8  C   UNL A   1      39.952  22.564  26.720  1.00  0.00     0.104 C 
BRANCH   8   9
ATOM      9  C   UNL A   1      39.024  21.642  25.946  1.00  0.00     0.220 C 
ATOM     10  N   UNL A   1      37.794  22.059  25.544  1.00  0.00    -0.352 N 
ATOM     11  H   UNL A   1      37.179  21.338  25.277  1.00  0.00     0.163 HD
ATOM     12  O   UNL A   1      39.348  20.476  25.713  1.00  0.00    -0.275 OA
BRANCH  10  13
ATOM     13  C   UNL A   1      37.244  23.392  25.449  1.00  0.00     0.151 C 
BRANCH  13  14
ATOM     14  C   UNL A   1      35.761  23.352  25.163  1.00  0.00    -0.028 A 
ATOM     15  C   UNL A   1      32.258  22.845  27.591  1.00  0.00     0.047 C 
ATOM     16  C   UNL A   1      32.845  23.099  26.150  1.00  0.00    -0.015 A 
ATOM     17  C   UNL A   1      34.620  23.238  26.502  1.00  0.00     0.012 A 
ATOM     18  C   UNL A   1      32.301  23.095  24.195  1.00  0.00     0.129 A 
ATOM     19  C   UNL A   1      33.586  23.253  22.940  1.00  0.00    -0.015 A 
ATOM     20  F   UNL A   1      31.087  22.942  23.586  1.00  0.00    -0.206 F 
ATOM     21  C   UNL A   1      35.259  23.368  23.461  1.00  0.00     0.012 A 
ATOM     22  C   UNL A   1      33.235  23.543  21.518  1.00  0.00     0.047 C 
ENDBRANCH  13  14
ENDBRANCH  10  13
ENDBRANCH   8   9
ENDBRANCH   6   8
ENDBRANCH   5   6
ENDBRANCH   3   5
ENDBRANCH   2   3
ENDBRANCH   1   2
BRANCH   1  23
ATOM     23  C   UNL A   1      45.357  24.581  26.381  1.00  0.00     0.275 C 
BRANCH  23  24
ATOM     24  O   UNL A   1      44.969  25.497  25.342  1.00  0.00    -0.458 OA
BRANCH  24  25
ATOM     25  C   UNL A   1      43.768  26.062  25.563  1.00  0.00     0.338 C 
ATOM     26  O   UNL A   1      42.768  25.964  24.870  1.00  0.00    -0.246 OA
BRANCH  25  27
ATOM     27  C   UNL A   1      43.729  26.742  26.852  1.00  0.00     0.060 A 
ATOM     28  C   UNL A   1      42.569  26.086  28.054  1.00  0.00     0.016 A 
ATOM     29  C   UNL A   1      44.197  28.437  26.992  1.00  0.00     0.016 A 
ATOM     30  C   UNL A   1      41.851  27.329  29.475  1.00  0.00     0.010 A 
ATOM     31  C   UNL A   1      43.558  29.531  28.267  1.00  0.00     0.010 A 
ATOM     32  C   UNL A   1      42.418  29.026  29.508  1.00  0.00    -0.014 A 
BRANCH  32  33
ATOM     33  C   UNL A   1      42.029  29.813  30.699  1.00  0.00     0.031 A 
ATOM     34  C   UNL A   1      40.696  30.475  30.742  1.00  0.00     0.074 A 
ATOM     35  C   UNL A   1      42.772  29.716  31.820  1.00  0.00     0.049 A 
ATOM     36  N   UNL A   1      40.139  31.122  31.730  1.00  0.00    -0.248 NA
ATOM     37  C   UNL A   1      39.884  30.422  29.520  1.00  0.00     0.031 C 
ATOM     38  C   UNL A   1      44.057  29.035  31.911  1.00  0.00     0.029 A 
ATOM     39  N   UNL A   1      42.531  30.113  33.116  1.00  0.00    -0.354 N 
ATOM     40  C   UNL A   1      38.943  31.609  31.227  1.00  0.00     0.074 A 
ATOM     41  C   UNL A   1      38.828  31.147  29.864  1.00  0.00     0.031 C 
ATOM     42  C   UNL A   1      44.422  28.927  33.197  1.00  0.00     0.029 A 
ATOM     43  C   UNL A   1      43.464  29.650  34.023  1.00  0.00     0.049 A 
ATOM     44  H   UNL A   1      41.764  30.675  33.372  1.00  0.00     0.167 HD
ATOM     45  C   UNL A   1      38.050  32.412  31.847  1.00  0.00     0.031 A 
ATOM     46  C   UNL A   1      43.566  29.818  35.359  1.00  0.00     0.031 A 
ATOM     47  C   UNL A   1      38.196  32.870  33.200  1.00  0.00     0.049 A 
ATOM     48  C   UNL A   1      42.581  30.744  36.016  1.00  0.00     0.074 A 
ATOM     49  C   UNL A   1      37.387  33.747  33.898  1.00  0.00     0.029 A 
ATOM     50  N   UNL A   1      39.215  32.488  34.059  1.00  0.00    -0.354 N 
ATOM     51  N   UNL A   1      41.505  31.290  35.500  1.00  0.00    -0.248 NA
ATOM     52  C   UNL A   1      42.858  31.150  37.402  1.00  0.00     0.031 C 
ATOM     53  C   UNL A   1      37.945  33.934  35.163  1.00  0.00     0.029 A 
ATOM     54  C   UNL A   1      39.066  33.124  35.276  1.00  0.00     0.049 A 
ATOM     55  H   UNL A   1      39.937  31.857  33.834  1.00  0.00     0.167 HD
ATOM     56  C   UNL A   1      40.997  32.129  36.483  1.00  0.00     0.074 A 
ATOM     57  C   UNL A   1      41.857  31.988  37.641  1.00  0.00     0.031 C 
ATOM     58  C   UNL A   1      39.931  32.961  36.418  1.00  0.00     0.031 A 
BRANCH  45  59
ATOM     59  C   UNL A   1      36.900  32.923  31.035  1.00  0.00    -0.014 A 
ATOM     60  C   UNL A   1      35.579  32.526  31.298  1.00  0.00     0.010 A 
ATOM     61  C   UNL A   1      37.152  33.855  30.010  1.00  0.00     0.010 A 
ATOM     62  C   UNL A   1      34.528  33.048  30.542  1.00  0.00     0.020 A 
ATOM     63  C   UNL A   1      36.102  34.396  29.269  1.00  0.00     0.020 A 
ATOM     64  C   UNL A   1      34.795  33.987  29.539  1.00  0.00     0.054 A 
BRANCH  64  65
ATOM     65  S   UNL A   1      33.404  34.673  28.602  1.00  0.00     0.124 S 
ATOM     66  O   UNL A   1      34.007  35.846  27.972  1.00  0.00    -0.237 OA
ATOM     67  O   UNL A   1      33.069  33.577  27.698  1.00  0.00    -0.237 OA
ATOM     68  O   UNL A   1      32.404  34.967  29.626  1.00  0.00    -0.744 OA
ENDBRANCH  64  65
ENDBRANCH  45  59
BRANCH  46  69
ATOM     69  C   UNL A   1      44.689  29.201  36.131  1.00  0.00    -0.014 A 
ATOM     70  C   UNL A   1      45.934  29.844  36.255  1.00  0.00     0.010 A 
ATOM     71  C   UNL A   1      44.511  27.960  36.774  1.00  0.00     0.010 A 
ATOM     72  C   UNL A   1      46.963  29.272  37.021  1.00  0.00     0.020 A 
ATOM     73  C   UNL A   1      45.518  27.403  37.568  1.00  0.00     0.020 A 
ATOM     74  C   UNL A   1      46.740  28.065  37.689  1.00  0.00     0.054 A 
BRANCH  74  75
ATOM     75  S   UNL A   1      48.057  27.376  38.735  1.00  0.00     0.124 S 
ATOM     76  O   UNL A   1      47.301  26.768  39.826  1.00  0.00    -0.237 OA
ATOM     77  O   UNL A   1      48.716  26.442  37.826  1.00  0.00    -0.237 OA
ATOM     78  O   UNL A   1      48.852  28.545  39.104  1.00  0.00    -0.744 OA
ENDBRANCH  74  75
ENDBRANCH  46  69
BRANCH  58  79
ATOM     79  C   UNL A   1      39.599  33.785  37.627  1.00  0.00    -0.014 A 
ATOM     80  C   UNL A   1      38.860  33.235  38.688  1.00  0.00     0.010 A 
ATOM     81  C   UNL A   1      40.182  35.056  37.772  1.00  0.00     0.010 A 
ATOM     82  C   UNL A   1      38.721  33.942  39.884  1.00  0.00     0.020 A 
ATOM     83  C   UNL A   1      40.064  35.755  38.973  1.00  0.00     0.020 A 
ATOM     84  C   UNL A   1      39.340  35.189  40.024  1.00  0.00     0.054 A 
BRANCH  84  85
ATOM     85  S   UNL A   1      39.213  36.043  41.618  1.00  0.00     0.124 S 
ATOM     86  O   UNL A   1      39.174  37.446  41.215  1.00  0.00    -0.237 OA
ATOM     87  O   UNL A   1      37.967  35.510  42.161  1.00  0.00    -0.237 OA
ATOM     88  O   UNL A   1      40.425  35.638  42.328  1.00  0.00    -0.744 OA
ENDBRANCH  84  85
ENDBRANCH  58  79
ENDBRANCH  32  33
ENDBRANCH  25  27
ENDBRANCH  24  25
ENDBRANCH  23  24
ENDBRANCH   1  23
TORSDOF 19
ENDMDL
MODEL 2
REMARK VINA RESULT:      -9.7      5.688     11.381
REMARK SMILES Cc1cc(CNC(=O)C[C@H](C)CC(=O)OCCOC(=O)c2ccc(-c3c4nc(c(-c5ccc(S(=O)(=O)[O-])cc5)c5ccc([nH]5)c(-c5ccc(S(=O)(=O)[O-])cc5)c5nc(c(-c6ccc(S(=O)(=O)[O-])cc6)c6ccc3[nH]6)C=C5)C=C4)cc2)cc(C)c1F
REMARK SMILES IDX 16 1 15 2 13 3 14 4 12 5 10 6 11 7 9 8 7 9 6 10 8 12 5 13
REMARK SMILES IDX 4 14 1 15 2 16 3 17 84 18 82 19 85 20 81 21 83 22 17 23
REMARK SMILES IDX 18 24 19 25 20 26 21 27 22 28 80 29 23 30 79 31 24 32 25 33
REMARK SMILES IDX 26 34 73 35 27 36 78 37 72 38 74 39 28 40 77 41 71 42 70 43
REMARK SMILES IDX 29 45 59 46 40 47 58 48 41 49 44 50 57 51 75 52 42 53 43 54
REMARK SMILES IDX 56 56 76 57 45 58 30 59 31 60 39 61 32 62 38 63 33 64 34 65
REMARK SMILES IDX 35 66 36 67 37 68 60 69 61 70 69 71 62 72 68 73 63 74 64 75
REMARK SMILES IDX 65 76 66 77 67 78 46 79 47 80 55 81 48 82 54 83 49 84 50 85
REMARK SMILES IDX 51 86 52 87 53 88
REMARK H PARENT 6 11 74 44 44 55
REMARK Flexibility Score: inf
ROOT
ATOM      1  C   UNL A   1      32.883  27.812  25.812  1.00  0.00     0.274 C 
ENDROOT
BRANCH   1   2
ATOM      2  O   UNL A   1      33.200  26.570  26.483  1.00  0.00    -0.462 OA
BRANCH   2   3
ATOM      3  C   UNL A   1      33.647  25.558  25.705  1.00  0.00     0.306 C 
ATOM      4  O   UNL A   1      34.438  24.699  26.085  1.00  0.00    -0.252 OA
BRANCH   3   5
ATOM      5  C   UNL A   1      33.194  25.615  24.256  1.00  0.00     0.126 C 
BRANCH   5   6
ATOM      6  C   UNL A   1      32.236  24.561  23.668  1.00  0.00     0.006 C 
ATOM      7  C   UNL A   1      30.964  24.459  24.523  1.00  0.00     0.009 C 
BRANCH   6   8
ATOM      8  C   UNL A   1      31.830  24.983  22.227  1.00  0.00     0.104 C 
BRANCH   8   9
ATOM      9  C   UNL A   1      32.301  26.354  21.772  1.00  0.00     0.220 C 
ATOM     10  N   UNL A   1      31.493  27.443  21.869  1.00  0.00    -0.352 N 
ATOM     11  H   UNL A   1      31.777  28.219  21.334  1.00  0.00     0.163 HD
ATOM     12  O   UNL A   1      33.410  26.497  21.254  1.00  0.00    -0.275 OA
BRANCH  10  13
ATOM     13  C   UNL A   1      30.281  27.642  22.630  1.00  0.00     0.151 C 
BRANCH  13  14
ATOM     14  C   UNL A   1      30.020  29.111  22.869  1.00  0.00    -0.028 A 
ATOM     15  C   UNL A   1      30.843  31.809  26.104  1.00  0.00     0.047 C 
ATOM     16  C   UNL A   1      30.252  31.621  24.656  1.00  0.00    -0.015 A 
ATOM     17  C   UNL A   1      30.644  29.879  24.328  1.00  0.00     0.012 A 
ATOM     18  C   UNL A   1      29.105  32.571  23.278  1.00  0.00     0.129 A 
ATOM     19  C   UNL A   1      28.570  31.656  21.819  1.00  0.00    -0.015 A 
ATOM     20  F   UNL A   1      28.577  33.831  23.243  1.00  0.00    -0.206 F 
ATOM     21  C   UNL A   1      29.036  29.970  21.668  1.00  0.00     0.012 A 
ATOM     22  C   UNL A   1      27.977  32.365  20.646  1.00  0.00     0.047 C 
ENDBRANCH  13  14
ENDBRANCH  10  13
ENDBRANCH   8   9
ENDBRANCH   6   8
ENDBRANCH   5   6
ENDBRANCH   3   5
ENDBRANCH   2   3
ENDBRANCH   1   2
BRANCH   1  23
ATOM     23  C   UNL A   1      33.852  28.935  26.199  1.00  0.00     0.275 C 
BRANCH  23  24
ATOM     24  O   UNL A   1      33.930  29.064  27.630  1.00  0.00    -0.458 OA
BRANCH  24  25
ATOM     25  C   UNL A   1      34.314  30.292  28.024  1.00  0.00     0.338 C 
ATOM     26  O   UNL A   1      33.610  31.282  28.143  1.00  0.00    -0.246 OA
BRANCH  25  27
ATOM     27  C   UNL A   1      35.710  30.304  28.442  1.00  0.00     0.060 A 
ATOM     28  C   UNL A   1      36.925  30.399  27.124  1.00  0.00     0.016 A 
ATOM     29  C   UNL A   1      36.202  29.574  29.970  1.00  0.00     0.016 A 
ATOM     30  C   UNL A   1      38.768  29.644  27.458  1.00  0.00     0.010 A 
ATOM     31  C   UNL A   1      37.848  28.913  30.259  1.00  0.00     0.010 A 
ATOM     32  C   UNL A   1      39.136  28.938  29.061  1.00  0.00    -0.014 A 
BRANCH  32  33
ATOM     33  C   UNL A   1      40.558  28.612  29.311  1.00  0.00     0.031 A 
ATOM     34  C   UNL A   1      41.139  27.364  28.743  1.00  0.00     0.074 A 
ATOM     35  C   UNL A   1      41.366  29.558  29.830  1.00  0.00     0.049 A 
ATOM     36  N   UNL A   1      42.378  26.956  28.770  1.00  0.00    -0.248 NA
ATOM     37  C   UNL A   1      40.214  26.442  28.072  1.00  0.00     0.031 C 
ATOM     38  C   UNL A   1      40.918  30.842  30.352  1.00  0.00     0.029 A 
ATOM     39  N   UNL A   1      42.737  29.634  29.936  1.00  0.00    -0.354 N 
ATOM     40  C   UNL A   1      42.370  25.703  28.179  1.00  0.00     0.074 A 
ATOM     41  C   UNL A   1      41.014  25.433  27.760  1.00  0.00     0.031 C 
ATOM     42  C   UNL A   1      41.977  31.632  30.582  1.00  0.00     0.029 A 
ATOM     43  C   UNL A   1      43.195  30.868  30.354  1.00  0.00     0.049 A 
ATOM     44  H   UNL A   1      43.335  28.878  29.734  1.00  0.00     0.167 HD
ATOM     45  C   UNL A   1      43.403  24.843  28.047  1.00  0.00     0.031 A 
ATOM     46  C   UNL A   1      44.448  31.326  30.569  1.00  0.00     0.031 A 
ATOM     47  C   UNL A   1      44.740  25.129  28.487  1.00  0.00     0.049 A 
ATOM     48  C   UNL A   1      45.575  30.338  30.450  1.00  0.00     0.074 A 
ATOM     49  C   UNL A   1      45.844  24.298  28.468  1.00  0.00     0.029 A 
ATOM     50  N   UNL A   1      45.154  26.341  29.021  1.00  0.00    -0.354 N 
ATOM     51  N   UNL A   1      45.539  29.111  29.988  1.00  0.00    -0.248 NA
ATOM     52  C   UNL A   1      46.892  30.755  30.954  1.00  0.00     0.031 C 
ATOM     53  C   UNL A   1      46.914  24.990  29.038  1.00  0.00     0.029 A 
ATOM     54  C   UNL A   1      46.493  26.274  29.352  1.00  0.00     0.049 A 
ATOM     55  H   UNL A   1      44.578  27.130  29.145  1.00  0.00     0.167 HD
ATOM     56  C   UNL A   1      46.814  28.597  30.177  1.00  0.00     0.074 A 
ATOM     57  C   UNL A   1      47.613  29.658  30.756  1.00  0.00     0.031 C 
ATOM     58  C   UNL A   1      47.270  27.348  29.920  1.00  0.00     0.031 A 
BRANCH  45  59
ATOM     59  C   UNL A   1      43.104  23.480  27.500  1.00  0.00    -0.014 A 
ATOM     60  C   UNL A   1      43.397  23.141  26.170  1.00  0.00     0.010 A 
ATOM     61  C   UNL A   1      42.553  22.510  28.358  1.00  0.00     0.010 A 
ATOM     62  C   UNL A   1      43.134  21.852  25.703  1.00  0.00     0.020 A 
ATOM     63  C   UNL A   1      42.311  21.214  27.901  1.00  0.00     0.020 A 
ATOM     64  C   UNL A   1      42.603  20.894  26.574  1.00  0.00     0.054 A 
BRANCH  64  65
ATOM     65  S   UNL A   1      42.309  19.220  25.946  1.00  0.00     0.124 S 
ATOM     66  O   UNL A   1      43.143  19.192  24.746  1.00  0.00    -0.237 OA
ATOM     67  O   UNL A   1      42.771  18.387  27.052  1.00  0.00    -0.237 OA
ATOM     68  O   UNL A   1      40.869  19.187  25.698  1.00  0.00    -0.744 OA
ENDBRANCH  64  65
ENDBRANCH  45  59
BRANCH  46  69
ATOM     69  C   UNL A   1      44.688  32.731  31.024  1.00  0.00    -0.014 A 
ATOM     70  C   UNL A   1      44.619  33.082  32.385  1.00  0.00     0.010 A 
ATOM     71  C   UNL A   1      45.014  33.734  30.091  1.00  0.00     0.010 A 
ATOM     72  C   UNL A   1      44.892  34.395  32.801  1.00  0.00     0.020 A 
ATOM     73  C   UNL A   1      45.323  35.035  30.502  1.00  0.00     0.020 A 
ATOM     74  C   UNL A   1      45.262  35.358  31.858  1.00  0.00     0.054 A 
BRANCH  74  75
ATOM     75  S   UNL A   1      45.682  37.033  32.421  1.00  0.00     0.124 S 
ATOM     76  O   UNL A   1      46.009  36.814  33.828  1.00  0.00    -0.237 OA
ATOM     77  O   UNL A   1      46.808  37.376  31.557  1.00  0.00    -0.237 OA
ATOM     78  O   UNL A   1      44.461  37.797  32.178  1.00  0.00    -0.744 OA
ENDBRANCH  74  75
ENDBRANCH  46  69
BRANCH  58  79
ATOM     79  C   UNL A   1      48.703  27.037  30.237  1.00  0.00    -0.014 A 
ATOM     80  C   UNL A   1      49.719  27.311  29.305  1.00  0.00     0.010 A 
ATOM     81  C   UNL A   1      49.045  26.633  31.539  1.00  0.00     0.010 A 
ATOM     82  C   UNL A   1      51.059  27.199  29.680  1.00  0.00     0.020 A 
ATOM     83  C   UNL A   1      50.383  26.541  31.922  1.00  0.00     0.020 A 
ATOM     84  C   UNL A   1      51.382  26.832  30.991  1.00  0.00     0.054 A 
BRANCH  84  85
ATOM     85  S   UNL A   1      53.129  26.778  31.469  1.00  0.00     0.124 S 
ATOM     86  O   UNL A   1      53.752  27.639  30.467  1.00  0.00    -0.237 OA
ATOM     87  O   UNL A   1      53.098  27.314  32.827  1.00  0.00    -0.237 OA
ATOM     88  O   UNL A   1      53.475  25.361  31.368  1.00  0.00    -0.744 OA
ENDBRANCH  84  85
ENDBRANCH  58  79
ENDBRANCH  32  33
ENDBRANCH  25  27
ENDBRANCH  24  25
ENDBRANCH  23  24
ENDBRANCH   1  23
TORSDOF 19
ENDMDL
MODEL 3
REMARK VINA RESULT:      -9.5      5.632      9.326
REMARK SMILES Cc1cc(CNC(=O)C[C@H](C)CC(=O)OCCOC(=O)c2ccc(-c3c4nc(c(-c5ccc(S(=O)(=O)[O-])cc5)c5ccc([nH]5)c(-c5ccc(S(=O)(=O)[O-])cc5)c5nc(c(-c6ccc(S(=O)(=O)[O-])cc6)c6ccc3[nH]6)C=C5)C=C4)cc2)cc(C)c1F
REMARK SMILES IDX 16 1 15 2 13 3 14 4 12 5 10 6 11 7 9 8 7 9 6 10 8 12 5 13
REMARK SMILES IDX 4 14 1 15 2 16 3 17 84 18 82 19 85 20 81 21 83 22 17 23
REMARK SMILES IDX 18 24 19 25 20 26 21 27 22 28 80 29 23 30 79 31 24 32 25 33
REMARK SMILES IDX 26 34 73 35 27 36 78 37 72 38 74 39 28 40 77 41 71 42 70 43
REMARK SMILES IDX 29 45 59 46 40 47 58 48 41 49 44 50 57 51 75 52 42 53 43 54
REMARK SMILES IDX 56 56 76 57 45 58 30 59 31 60 39 61 32 62 38 63 33 64 34 65
REMARK SMILES IDX 35 66 36 67 37 68 60 69 61 70 69 71 62 72 68 73 63 74 64 75
REMARK SMILES IDX 65 76 66 77 67 78 46 79 47 80 55 81 48 82 54 83 49 84 50 85
REMARK SMILES IDX 51 86 52 87 53 88
REMARK H PARENT 6 11 74 44 44 55
REMARK Flexibility Score: inf
ROOT
ATOM      1  C   UNL A   1      38.338  21.299  25.398  1.00  0.00     0.274 C 
ENDROOT
BRANCH   1   2
ATOM      2  O   UNL A   1      37.372  22.282  25.842  1.00  0.00    -0.462 OA
BRANCH   2   3
ATOM      3  C   UNL A   1      36.083  22.066  25.491  1.00  0.00     0.306 C 
ATOM      4  O   UNL A   1      35.440  21.075  25.821  1.00  0.00    -0.252 OA
BRANCH   3   5
ATOM      5  C   UNL A   1      35.499  23.094  24.536  1.00  0.00     0.126 C 
BRANCH   5   6
ATOM      6  C   UNL A   1      34.179  23.826  24.848  1.00  0.00     0.006 C 
ATOM      7  C   UNL A   1      34.297  25.315  24.491  1.00  0.00     0.009 C 
BRANCH   6   8
ATOM      8  C   UNL A   1      33.033  23.204  24.000  1.00  0.00     0.104 C 
BRANCH   8   9
ATOM      9  C   UNL A   1      32.703  23.912  22.697  1.00  0.00     0.220 C 
ATOM     10  N   UNL A   1      31.487  24.487  22.498  1.00  0.00    -0.352 N 
ATOM     11  H   UNL A   1      31.277  24.698  21.560  1.00  0.00     0.163 HD
ATOM     12  O   UNL A   1      33.516  23.933  21.771  1.00  0.00    -0.275 OA
BRANCH  10  13
ATOM     13  C   UNL A   1      30.453  24.837  23.444  1.00  0.00     0.151 C 
BRANCH  13  14
ATOM     14  C   UNL A   1      30.574  26.279  23.879  1.00  0.00    -0.028 A 
ATOM     15  C   UNL A   1      29.901  30.053  21.949  1.00  0.00     0.047 C 
ATOM     16  C   UNL A   1      30.305  29.295  23.271  1.00  0.00    -0.015 A 
ATOM     17  C   UNL A   1      30.073  27.563  22.780  1.00  0.00     0.012 A 
ATOM     18  C   UNL A   1      31.135  29.623  25.093  1.00  0.00     0.129 A 
ATOM     19  C   UNL A   1      31.566  28.202  26.116  1.00  0.00    -0.015 A 
ATOM     20  F   UNL A   1      31.505  30.773  25.733  1.00  0.00    -0.206 F 
ATOM     21  C   UNL A   1      31.280  26.591  25.477  1.00  0.00     0.012 A 
ATOM     22  C   UNL A   1      31.906  28.373  27.559  1.00  0.00     0.047 C 
ENDBRANCH  13  14
ENDBRANCH  10  13
ENDBRANCH   8   9
ENDBRANCH   6   8
ENDBRANCH   5   6
ENDBRANCH   3   5
ENDBRANCH   2   3
ENDBRANCH   1   2
BRANCH   1  23
ATOM     23  C   UNL A   1      39.663  21.417  26.159  1.00  0.00     0.275 C 
BRANCH  23  24
ATOM     24  O   UNL A   1      40.077  20.130  26.654  1.00  0.00    -0.458 OA
BRANCH  24  25
ATOM     25  C   UNL A   1      41.324  19.798  26.271  1.00  0.00     0.338 C 
ATOM     26  O   UNL A   1      41.681  18.757  25.744  1.00  0.00    -0.246 OA
BRANCH  25  27
ATOM     27  C   UNL A   1      42.247  20.914  26.441  1.00  0.00     0.060 A 
ATOM     28  C   UNL A   1      42.533  21.448  28.130  1.00  0.00     0.016 A 
ATOM     29  C   UNL A   1      42.491  22.088  25.148  1.00  0.00     0.016 A 
ATOM     30  C   UNL A   1      43.090  23.362  28.452  1.00  0.00     0.010 A 
ATOM     31  C   UNL A   1      42.996  23.787  25.446  1.00  0.00     0.010 A 
ATOM     32  C   UNL A   1      43.311  24.448  27.046  1.00  0.00    -0.014 A 
BRANCH  32  33
ATOM     33  C   UNL A   1      43.932  25.758  27.334  1.00  0.00     0.031 A 
ATOM     34  C   UNL A   1      43.206  26.750  28.176  1.00  0.00     0.074 A 
ATOM     35  C   UNL A   1      45.236  25.944  27.047  1.00  0.00     0.049 A 
ATOM     36  N   UNL A   1      43.622  27.905  28.618  1.00  0.00    -0.248 NA
ATOM     37  C   UNL A   1      41.830  26.416  28.563  1.00  0.00     0.031 C 
ATOM     38  C   UNL A   1      46.063  25.012  26.291  1.00  0.00     0.029 A 
ATOM     39  N   UNL A   1      46.125  26.928  27.417  1.00  0.00    -0.354 N 
ATOM     40  C   UNL A   1      42.539  28.464  29.277  1.00  0.00     0.074 A 
ATOM     41  C   UNL A   1      41.460  27.505  29.221  1.00  0.00     0.031 C 
ATOM     42  C   UNL A   1      47.350  25.379  26.374  1.00  0.00     0.029 A 
ATOM     43  C   UNL A   1      47.435  26.651  27.077  1.00  0.00     0.049 A 
ATOM     44  H   UNL A   1      45.852  27.753  27.880  1.00  0.00     0.167 HD
ATOM     45  C   UNL A   1      42.452  29.691  29.834  1.00  0.00     0.031 A 
ATOM     46  C   UNL A   1      48.572  27.354  27.271  1.00  0.00     0.031 A 
ATOM     47  C   UNL A   1      43.536  30.632  29.862  1.00  0.00     0.049 A 
ATOM     48  C   UNL A   1      48.442  28.732  27.860  1.00  0.00     0.074 A 
ATOM     49  C   UNL A   1      43.531  31.931  30.336  1.00  0.00     0.029 A 
ATOM     50  N   UNL A   1      44.819  30.375  29.400  1.00  0.00    -0.354 N 
ATOM     51  N   UNL A   1      47.381  29.296  28.387  1.00  0.00    -0.248 NA
ATOM     52  C   UNL A   1      49.626  29.601  27.809  1.00  0.00     0.031 C 
ATOM     53  C   UNL A   1      44.796  32.476  30.114  1.00  0.00     0.029 A 
ATOM     54  C   UNL A   1      45.609  31.497  29.562  1.00  0.00     0.049 A 
ATOM     55  H   UNL A   1      45.120  29.520  29.015  1.00  0.00     0.167 HD
ATOM     56  C   UNL A   1      47.758  30.595  28.698  1.00  0.00     0.074 A 
ATOM     57  C   UNL A   1      49.157  30.724  28.341  1.00  0.00     0.031 C 
ATOM     58  C   UNL A   1      47.002  31.597  29.207  1.00  0.00     0.031 A 
BRANCH  45  59
ATOM     59  C   UNL A   1      41.116  30.119  30.361  1.00  0.00    -0.014 A 
ATOM     60  C   UNL A   1      40.167  30.746  29.539  1.00  0.00     0.010 A 
ATOM     61  C   UNL A   1      40.797  29.845  31.704  1.00  0.00     0.010 A 
ATOM     62  C   UNL A   1      38.920  31.102  30.056  1.00  0.00     0.020 A 
ATOM     63  C   UNL A   1      39.543  30.177  32.217  1.00  0.00     0.020 A 
ATOM     64  C   UNL A   1      38.612  30.806  31.389  1.00  0.00     0.054 A 
BRANCH  64  65
ATOM     65  S   UNL A   1      36.971  31.247  32.017  1.00  0.00     0.124 S 
ATOM     66  O   UNL A   1      36.250  29.981  31.907  1.00  0.00    -0.237 OA
ATOM     67  O   UNL A   1      37.267  31.687  33.377  1.00  0.00    -0.237 OA
ATOM     68  O   UNL A   1      36.518  32.296  31.105  1.00  0.00    -0.744 OA
ENDBRANCH  64  65
ENDBRANCH  45  59
BRANCH  46  69
ATOM     69  C   UNL A   1      49.893  26.829  26.805  1.00  0.00    -0.014 A 
ATOM     70  C   UNL A   1      50.773  26.172  27.686  1.00  0.00     0.010 A 
ATOM     71  C   UNL A   1      50.276  26.964  25.457  1.00  0.00     0.010 A 
ATOM     72  C   UNL A   1      51.989  25.645  27.223  1.00  0.00     0.020 A 
ATOM     73  C   UNL A   1      51.469  26.410  24.982  1.00  0.00     0.020 A 
ATOM     74  C   UNL A   1      52.319  25.750  25.869  1.00  0.00     0.054 A 
BRANCH  74  75
ATOM     75  S   UNL A   1      53.863  24.999  25.274  1.00  0.00     0.124 S 
ATOM     76  O   UNL A   1      53.479  23.602  25.094  1.00  0.00    -0.237 OA
ATOM     77  O   UNL A   1      54.117  25.748  24.046  1.00  0.00    -0.237 OA
ATOM     78  O   UNL A   1      54.810  25.249  26.358  1.00  0.00    -0.744 OA
ENDBRANCH  74  75
ENDBRANCH  46  69
BRANCH  58  79
ATOM     79  C   UNL A   1      47.653  32.930  29.436  1.00  0.00    -0.014 A 
ATOM     80  C   UNL A   1      48.329  33.200  30.637  1.00  0.00     0.010 A 
ATOM     81  C   UNL A   1      47.735  33.845  28.371  1.00  0.00     0.010 A 
ATOM     82  C   UNL A   1      49.090  34.364  30.764  1.00  0.00     0.020 A 
ATOM     83  C   UNL A   1      48.512  34.997  28.487  1.00  0.00     0.020 A 
ATOM     84  C   UNL A   1      49.191  35.245  29.682  1.00  0.00     0.054 A 
BRANCH  84  85
ATOM     85  S   UNL A   1      50.256  36.703  29.848  1.00  0.00     0.124 S 
ATOM     86  O   UNL A   1      49.307  37.800  29.676  1.00  0.00    -0.237 OA
ATOM     87  O   UNL A   1      50.795  36.544  31.196  1.00  0.00    -0.237 OA
ATOM     88  O   UNL A   1      51.228  36.550  28.767  1.00  0.00    -0.744 OA
ENDBRANCH  84  85
ENDBRANCH  58  79
ENDBRANCH  32  33
ENDBRANCH  25  27
ENDBRANCH  24  25
ENDBRANCH  23  24
ENDBRANCH   1  23
TORSDOF 19
ENDMDL
