MODEL 1
REMARK VINA RESULT:     -11.0      0.000      0.000
REMARK SMILES CCc1ccnc(C(=O)c2[nH]c3ccc(OC(F)(F)F)cc3c2CC(=O)OCCOC(=O)c2ccc(-c3c4nc(c(-c5ccc(S(=O)(=O)[O-])cc5)c5ccc([nH]5)c(-c5ccc(S(=O)(=O)[O-])cc5)c5nc(c(-c6ccc(S(=O)(=O)[O-])cc6)c6ccc3[nH]6)C=C5)C=C4)cc2)c1
REMARK SMILES IDX 28 1 27 2 25 3 26 4 24 5 23 6 10 7 11 8 12 9 22 11 13 12
REMARK SMILES IDX 21 13 14 14 15 15 8 16 9 17 7 18 3 19 4 20 93 21 5 22 6 23
REMARK SMILES IDX 2 24 1 25 16 26 17 27 18 28 19 29 20 30 29 31 30 32 31 33
REMARK SMILES IDX 32 34 33 35 34 36 92 37 35 38 91 39 36 40 37 41 38 42 85 43
REMARK SMILES IDX 39 44 90 45 84 46 86 47 40 48 89 49 83 50 82 51 41 53 71 54
REMARK SMILES IDX 52 55 70 56 53 57 56 58 69 59 87 60 54 61 55 62 68 64 88 65
REMARK SMILES IDX 57 66 42 67 43 68 51 69 44 70 50 71 45 72 46 73 47 74 48 75
REMARK SMILES IDX 49 76 72 77 73 78 81 79 74 80 80 81 75 82 76 83 77 84 78 85
REMARK SMILES IDX 79 86 58 87 59 88 67 89 60 90 66 91 61 92 62 93 63 94 64 95
REMARK SMILES IDX 65 96
REMARK H PARENT 11 10 86 52 56 63
REMARK Flexibility Score: inf
ROOT
ATOM      1  C   UNL A   1      36.036  21.551  25.630  1.00  0.00     0.274 C 
ENDROOT
BRANCH   1   2
ATOM      2  O   UNL A   1      35.851  22.968  25.417  1.00  0.00    -0.462 OA
BRANCH   2   3
ATOM      3  C   UNL A   1      34.836  23.554  26.101  1.00  0.00     0.310 C 
ATOM      4  O   UNL A   1      34.511  23.241  27.244  1.00  0.00    -0.252 OA
BRANCH   3   5
ATOM      5  C   UNL A   1      34.228  24.761  25.419  1.00  0.00     0.161 C 
BRANCH   5   6
ATOM      6  C   UNL A   1      33.082  25.470  26.074  1.00  0.00     0.000 A 
ATOM      7  C   UNL A   1      31.809  24.978  26.369  1.00  0.00     0.093 A 
ATOM      8  N   UNL A   1      31.086  26.022  26.892  1.00  0.00    -0.352 N 
ATOM      9  C   UNL A   1      31.808  27.183  26.880  1.00  0.00     0.046 A 
ATOM     10  H   UNL A   1      30.164  25.944  27.231  1.00  0.00     0.167 HD
ATOM     11  C   UNL A   1      33.085  26.865  26.432  1.00  0.00     0.008 A 
ATOM     12  C   UNL A   1      31.428  28.475  27.246  1.00  0.00     0.030 A 
ATOM     13  C   UNL A   1      34.050  27.897  26.394  1.00  0.00     0.057 A 
ATOM     14  C   UNL A   1      32.398  29.481  27.186  1.00  0.00     0.049 A 
ATOM     15  C   UNL A   1      33.704  29.201  26.787  1.00  0.00     0.130 A 
BRANCH   7  16
ATOM     16  C   UNL A   1      31.211  23.649  26.326  1.00  0.00     0.227 C 
ATOM     17  O   UNL A   1      30.373  23.334  27.171  1.00  0.00    -0.285 OA
BRANCH  16  18
ATOM     18  C   UNL A   1      31.410  22.761  25.118  1.00  0.00     0.113 A 
ATOM     19  C   UNL A   1      32.285  20.756  24.091  1.00  0.00    -0.044 A 
ATOM     20  C   UNL A   1      32.130  21.383  22.853  1.00  0.00     0.024 A 
ATOM     21  C   UNL A   1      31.872  21.450  25.242  1.00  0.00     0.036 A 
ATOM     22  C   UNL A   1      31.629  22.672  22.813  1.00  0.00     0.112 A 
ATOM     23  N   UNL A   1      31.294  23.378  23.910  1.00  0.00    -0.253 NA
BRANCH  19  24
ATOM     24  C   UNL A   1      32.880  19.370  24.220  1.00  0.00     0.032 C 
ATOM     25  C   UNL A   1      32.926  18.805  25.637  1.00  0.00     0.009 C 
ENDBRANCH  19  24
ENDBRANCH  16  18
ENDBRANCH   7  16
BRANCH  15  26
ATOM     26  O   UNL A   1      34.735  30.099  26.729  1.00  0.00    -0.406 OA
BRANCH  26  27
ATOM     27  C   UNL A   1      35.423  30.388  27.934  1.00  0.00     0.573 C 
ATOM     28  F   UNL A   1      35.550  29.284  28.701  1.00  0.00    -0.132 F 
ATOM     29  F   UNL A   1      36.647  30.910  27.694  1.00  0.00    -0.132 F 
ATOM     30  F   UNL A   1      34.715  31.303  28.634  1.00  0.00    -0.132 F 
ENDBRANCH  26  27
ENDBRANCH  15  26
ENDBRANCH   5   6
ENDBRANCH   3   5
ENDBRANCH   2   3
ENDBRANCH   1   2
BRANCH   1  31
ATOM     31  C   UNL A   1      37.464  21.109  25.269  1.00  0.00     0.275 C 
BRANCH  31  32
ATOM     32  O   UNL A   1      38.421  22.190  25.331  1.00  0.00    -0.458 OA
BRANCH  32  33
ATOM     33  C   UNL A   1      39.298  22.059  26.347  1.00  0.00     0.338 C 
ATOM     34  O   UNL A   1      39.823  21.023  26.720  1.00  0.00    -0.246 OA
BRANCH  33  35
ATOM     35  C   UNL A   1      39.704  23.319  26.954  1.00  0.00     0.060 A 
ATOM     36  C   UNL A   1      39.430  24.491  26.246  1.00  0.00     0.016 A 
ATOM     37  C   UNL A   1      40.599  23.318  28.025  1.00  0.00     0.016 A 
ATOM     38  C   UNL A   1      40.098  25.663  26.573  1.00  0.00     0.010 A 
ATOM     39  C   UNL A   1      41.222  24.513  28.392  1.00  0.00     0.010 A 
ATOM     40  C   UNL A   1      40.992  25.685  27.653  1.00  0.00    -0.014 A 
BRANCH  40  41
ATOM     41  C   UNL A   1      41.641  26.960  28.031  1.00  0.00     0.031 A 
ATOM     42  C   UNL A   1      43.118  27.163  27.866  1.00  0.00     0.074 A 
ATOM     43  C   UNL A   1      40.866  27.950  28.506  1.00  0.00     0.049 A 
ATOM     44  N   UNL A   1      43.852  28.191  28.208  1.00  0.00    -0.248 NA
ATOM     45  C   UNL A   1      43.871  26.072  27.231  1.00  0.00     0.031 C 
ATOM     46  C   UNL A   1      39.411  27.878  28.662  1.00  0.00     0.029 A 
ATOM     47  N   UNL A   1      41.187  29.211  28.932  1.00  0.00    -0.354 N 
ATOM     48  C   UNL A   1      45.155  27.865  27.852  1.00  0.00     0.074 A 
ATOM     49  C   UNL A   1      45.112  26.539  27.268  1.00  0.00     0.031 C 
ATOM     50  C   UNL A   1      38.962  29.054  29.121  1.00  0.00     0.029 A 
ATOM     51  C   UNL A   1      40.100  29.934  29.355  1.00  0.00     0.049 A 
ATOM     52  H   UNL A   1      42.106  29.564  28.934  1.00  0.00     0.167 HD
ATOM     53  C   UNL A   1      46.281  28.603  28.003  1.00  0.00     0.031 A 
ATOM     54  C   UNL A   1      40.028  31.160  29.903  1.00  0.00     0.031 A 
ATOM     55  C   UNL A   1      46.310  29.916  28.597  1.00  0.00     0.049 A 
ATOM     56  C   UNL A   1      41.291  31.931  30.124  1.00  0.00     0.074 A 
ATOM     57  C   UNL A   1      47.399  30.743  28.815  1.00  0.00     0.029 A 
ATOM     58  N   UNL A   1      45.195  30.592  29.070  1.00  0.00    -0.354 N 
ATOM     59  N   UNL A   1      42.521  31.592  29.819  1.00  0.00    -0.248 NA
ATOM     60  C   UNL A   1      41.162  33.238  30.775  1.00  0.00     0.031 C 
ATOM     61  C   UNL A   1      46.945  31.905  29.452  1.00  0.00     0.029 A 
ATOM     62  C   UNL A   1      45.569  31.816  29.596  1.00  0.00     0.049 A 
ATOM     63  H   UNL A   1      44.272  30.250  29.038  1.00  0.00     0.167 HD
ATOM     64  C   UNL A   1      43.318  32.646  30.243  1.00  0.00     0.074 A 
ATOM     65  C   UNL A   1      42.425  33.641  30.809  1.00  0.00     0.031 C 
ATOM     66  C   UNL A   1      44.665  32.779  30.174  1.00  0.00     0.031 A 
BRANCH  53  67
ATOM     67  C   UNL A   1      47.577  27.981  27.561  1.00  0.00    -0.014 A 
ATOM     68  C   UNL A   1      48.315  27.147  28.421  1.00  0.00     0.010 A 
ATOM     69  C   UNL A   1      48.062  28.228  26.264  1.00  0.00     0.010 A 
ATOM     70  C   UNL A   1      49.538  26.610  28.007  1.00  0.00     0.020 A 
ATOM     71  C   UNL A   1      49.276  27.679  25.840  1.00  0.00     0.020 A 
ATOM     72  C   UNL A   1      50.018  26.892  26.724  1.00  0.00     0.054 A 
BRANCH  72  73
ATOM     73  S   UNL A   1      51.619  26.206  26.216  1.00  0.00     0.124 S 
ATOM     74  O   UNL A   1      51.537  24.845  26.743  1.00  0.00    -0.237 OA
ATOM     75  O   UNL A   1      51.574  26.318  24.760  1.00  0.00    -0.237 OA
ATOM     76  O   UNL A   1      52.591  27.074  26.875  1.00  0.00    -0.744 OA
ENDBRANCH  72  73
ENDBRANCH  53  67
BRANCH  54  77
ATOM     77  C   UNL A   1      38.700  31.692  30.297  1.00  0.00    -0.014 A 
ATOM     78  C   UNL A   1      38.076  31.243  31.472  1.00  0.00     0.010 A 
ATOM     79  C   UNL A   1      38.105  32.727  29.552  1.00  0.00     0.010 A 
ATOM     80  C   UNL A   1      36.884  31.831  31.905  1.00  0.00     0.020 A 
ATOM     81  C   UNL A   1      36.925  33.330  29.992  1.00  0.00     0.020 A 
ATOM     82  C   UNL A   1      36.322  32.877  31.167  1.00  0.00     0.054 A 
BRANCH  82  83
ATOM     83  S   UNL A   1      34.839  33.707  31.803  1.00  0.00     0.124 S 
ATOM     84  O   UNL A   1      34.077  32.589  32.348  1.00  0.00    -0.237 OA
ATOM     85  O   UNL A   1      35.389  34.638  32.785  1.00  0.00    -0.237 OA
ATOM     86  O   UNL A   1      34.268  34.337  30.615  1.00  0.00    -0.744 OA
ENDBRANCH  82  83
ENDBRANCH  54  77
BRANCH  66  87
ATOM     87  C   UNL A   1      45.243  34.050  30.724  1.00  0.00    -0.014 A 
ATOM     88  C   UNL A   1      45.387  35.186  29.908  1.00  0.00     0.010 A 
ATOM     89  C   UNL A   1      45.629  34.114  32.075  1.00  0.00     0.010 A 
ATOM     90  C   UNL A   1      45.939  36.359  30.428  1.00  0.00     0.020 A 
ATOM     91  C   UNL A   1      46.165  35.291  32.601  1.00  0.00     0.020 A 
ATOM     92  C   UNL A   1      46.331  36.401  31.769  1.00  0.00     0.054 A 
BRANCH  92  93
ATOM     93  S   UNL A   1      47.024  37.940  32.434  1.00  0.00     0.124 S 
ATOM     94  O   UNL A   1      48.433  37.818  32.074  1.00  0.00    -0.237 OA
ATOM     95  O   UNL A   1      46.278  38.970  31.714  1.00  0.00    -0.237 OA
ATOM     96  O   UNL A   1      46.733  37.857  33.863  1.00  0.00    -0.744 OA
ENDBRANCH  92  93
ENDBRANCH  66  87
ENDBRANCH  40  41
ENDBRANCH  33  35
ENDBRANCH  32  33
ENDBRANCH  31  32
ENDBRANCH   1  31
TORSDOF 20
ENDMDL
MODEL 2
REMARK VINA RESULT:     -10.9      5.083      6.286
REMARK SMILES CCc1ccnc(C(=O)c2[nH]c3ccc(OC(F)(F)F)cc3c2CC(=O)OCCOC(=O)c2ccc(-c3c4nc(c(-c5ccc(S(=O)(=O)[O-])cc5)c5ccc([nH]5)c(-c5ccc(S(=O)(=O)[O-])cc5)c5nc(c(-c6ccc(S(=O)(=O)[O-])cc6)c6ccc3[nH]6)C=C5)C=C4)cc2)c1
REMARK SMILES IDX 28 1 27 2 25 3 26 4 24 5 23 6 10 7 11 8 12 9 22 11 13 12
REMARK SMILES IDX 21 13 14 14 15 15 8 16 9 17 7 18 3 19 4 20 93 21 5 22 6 23
REMARK SMILES IDX 2 24 1 25 16 26 17 27 18 28 19 29 20 30 29 31 30 32 31 33
REMARK SMILES IDX 32 34 33 35 34 36 92 37 35 38 91 39 36 40 37 41 38 42 85 43
REMARK SMILES IDX 39 44 90 45 84 46 86 47 40 48 89 49 83 50 82 51 41 53 71 54
REMARK SMILES IDX 52 55 70 56 53 57 56 58 69 59 87 60 54 61 55 62 68 64 88 65
REMARK SMILES IDX 57 66 42 67 43 68 51 69 44 70 50 71 45 72 46 73 47 74 48 75
REMARK SMILES IDX 49 76 72 77 73 78 81 79 74 80 80 81 75 82 76 83 77 84 78 85
REMARK SMILES IDX 79 86 58 87 59 88 67 89 60 90 66 91 61 92 62 93 63 94 64 95
REMARK SMILES IDX 65 96
REMARK H PARENT 11 10 86 52 56 63
REMARK Flexibility Score: inf
ROOT
ATOM      1  C   UNL A   1      37.392  23.298  25.665  1.00  0.00     0.274 C 
ENDROOT
BRANCH   1   2
ATOM      2  O   UNL A   1      36.434  24.056  26.436  1.00  0.00    -0.462 OA
BRANCH   2   3
ATOM      3  C   UNL A   1      35.129  23.722  26.276  1.00  0.00     0.310 C 
ATOM      4  O   UNL A   1      34.586  22.787  26.861  1.00  0.00    -0.252 OA
BRANCH   3   5
ATOM      5  C   UNL A   1      34.323  24.699  25.448  1.00  0.00     0.161 C 
BRANCH   5   6
ATOM      6  C   UNL A   1      33.194  25.445  26.091  1.00  0.00     0.000 A 
ATOM      7  C   UNL A   1      31.914  24.983  26.404  1.00  0.00     0.093 A 
ATOM      8  N   UNL A   1      31.212  26.053  26.905  1.00  0.00    -0.352 N 
ATOM      9  C   UNL A   1      31.956  27.200  26.863  1.00  0.00     0.046 A 
ATOM     10  H   UNL A   1      30.291  26.000  27.251  1.00  0.00     0.167 HD
ATOM     11  C   UNL A   1      33.225  26.847  26.416  1.00  0.00     0.008 A 
ATOM     12  C   UNL A   1      31.602  28.507  27.200  1.00  0.00     0.030 A 
ATOM     13  C   UNL A   1      34.208  27.860  26.349  1.00  0.00     0.057 A 
ATOM     14  C   UNL A   1      32.589  29.493  27.112  1.00  0.00     0.049 A 
ATOM     15  C   UNL A   1      33.889  29.180  26.713  1.00  0.00     0.130 A 
BRANCH   7  16
ATOM     16  C   UNL A   1      31.291  23.665  26.395  1.00  0.00     0.227 C 
ATOM     17  O   UNL A   1      30.412  23.405  27.217  1.00  0.00    -0.285 OA
BRANCH  16  18
ATOM     18  C   UNL A   1      31.523  22.719  25.238  1.00  0.00     0.113 A 
ATOM     19  C   UNL A   1      32.507  20.715  24.312  1.00  0.00    -0.044 A 
ATOM     20  C   UNL A   1      32.285  21.253  23.043  1.00  0.00     0.024 A 
ATOM     21  C   UNL A   1      32.073  21.451  25.430  1.00  0.00     0.036 A 
ATOM     22  C   UNL A   1      31.700  22.502  22.939  1.00  0.00     0.112 A 
ATOM     23  N   UNL A   1      31.341  23.251  23.998  1.00  0.00    -0.253 NA
BRANCH  19  24
ATOM     24  C   UNL A   1      33.195  19.382  24.511  1.00  0.00     0.032 C 
ATOM     25  C   UNL A   1      32.396  18.158  24.071  1.00  0.00     0.009 C 
ENDBRANCH  19  24
ENDBRANCH  16  18
ENDBRANCH   7  16
BRANCH  15  26
ATOM     26  O   UNL A   1      34.935  30.056  26.630  1.00  0.00    -0.406 OA
BRANCH  26  27
ATOM     27  C   UNL A   1      35.787  30.173  27.756  1.00  0.00     0.573 C 
ATOM     28  F   UNL A   1      35.784  31.433  28.242  1.00  0.00    -0.132 F 
ATOM     29  F   UNL A   1      35.431  29.315  28.738  1.00  0.00    -0.132 F 
ATOM     30  F   UNL A   1      37.051  29.872  27.383  1.00  0.00    -0.132 F 
ENDBRANCH  26  27
ENDBRANCH  15  26
ENDBRANCH   5   6
ENDBRANCH   3   5
ENDBRANCH   2   3
ENDBRANCH   1   2
BRANCH   1  31
ATOM     31  C   UNL A   1      38.837  23.656  26.049  1.00  0.00     0.275 C 
BRANCH  31  32
ATOM     32  O   UNL A   1      38.919  24.438  27.262  1.00  0.00    -0.458 OA
BRANCH  32  33
ATOM     33  C   UNL A   1      39.708  25.523  27.135  1.00  0.00     0.338 C 
ATOM     34  O   UNL A   1      40.461  25.767  26.207  1.00  0.00    -0.246 OA
BRANCH  33  35
ATOM     35  C   UNL A   1      39.528  26.521  28.182  1.00  0.00     0.060 A 
ATOM     36  C   UNL A   1      40.287  27.689  28.092  1.00  0.00     0.016 A 
ATOM     37  C   UNL A   1      38.873  26.177  29.365  1.00  0.00     0.016 A 
ATOM     38  C   UNL A   1      40.442  28.495  29.212  1.00  0.00     0.010 A 
ATOM     39  C   UNL A   1      38.980  27.022  30.472  1.00  0.00     0.010 A 
ATOM     40  C   UNL A   1      39.784  28.172  30.408  1.00  0.00    -0.014 A 
BRANCH  40  41
ATOM     41  C   UNL A   1      39.904  29.081  31.569  1.00  0.00     0.031 A 
ATOM     42  C   UNL A   1      41.049  28.968  32.532  1.00  0.00     0.074 A 
ATOM     43  C   UNL A   1      38.969  30.033  31.730  1.00  0.00     0.049 A 
ATOM     44  N   UNL A   1      41.268  29.639  33.634  1.00  0.00    -0.248 NA
ATOM     45  C   UNL A   1      42.087  27.977  32.215  1.00  0.00     0.031 C 
ATOM     46  C   UNL A   1      37.839  30.262  30.827  1.00  0.00     0.029 A 
ATOM     47  N   UNL A   1      38.826  30.991  32.698  1.00  0.00    -0.354 N 
ATOM     48  C   UNL A   1      42.455  29.139  34.156  1.00  0.00     0.074 A 
ATOM     49  C   UNL A   1      42.909  28.103  33.250  1.00  0.00     0.031 C 
ATOM     50  C   UNL A   1      37.135  31.314  31.266  1.00  0.00     0.029 A 
ATOM     51  C   UNL A   1      37.723  31.787  32.514  1.00  0.00     0.049 A 
ATOM     52  H   UNL A   1      39.452  31.098  33.449  1.00  0.00     0.167 HD
ATOM     53  C   UNL A   1      43.100  29.508  35.289  1.00  0.00     0.031 A 
ATOM     54  C   UNL A   1      37.218  32.768  33.282  1.00  0.00     0.031 A 
ATOM     55  C   UNL A   1      42.630  30.531  36.187  1.00  0.00     0.049 A 
ATOM     56  C   UNL A   1      37.909  33.113  34.564  1.00  0.00     0.074 A 
ATOM     57  C   UNL A   1      43.197  30.971  37.371  1.00  0.00     0.029 A 
ATOM     58  N   UNL A   1      41.474  31.275  35.999  1.00  0.00    -0.354 N 
ATOM     59  N   UNL A   1      39.009  32.602  35.064  1.00  0.00    -0.248 NA
ATOM     60  C   UNL A   1      37.286  34.152  35.390  1.00  0.00     0.031 C 
ATOM     61  C   UNL A   1      42.364  31.957  37.916  1.00  0.00     0.029 A 
ATOM     62  C   UNL A   1      41.299  32.157  37.051  1.00  0.00     0.049 A 
ATOM     63  H   UNL A   1      40.866  31.188  35.229  1.00  0.00     0.167 HD
ATOM     64  C   UNL A   1      39.212  33.258  36.271  1.00  0.00     0.074 A 
ATOM     65  C   UNL A   1      38.130  34.215  36.412  1.00  0.00     0.031 C 
ATOM     66  C   UNL A   1      40.202  33.083  37.180  1.00  0.00     0.031 A 
BRANCH  53  67
ATOM     67  C   UNL A   1      44.358  28.761  35.639  1.00  0.00    -0.014 A 
ATOM     68  C   UNL A   1      45.620  29.225  35.226  1.00  0.00     0.010 A 
ATOM     69  C   UNL A   1      44.278  27.581  36.399  1.00  0.00     0.010 A 
ATOM     70  C   UNL A   1      46.774  28.496  35.525  1.00  0.00     0.020 A 
ATOM     71  C   UNL A   1      45.431  26.857  36.716  1.00  0.00     0.020 A 
ATOM     72  C   UNL A   1      46.671  27.308  36.256  1.00  0.00     0.054 A 
BRANCH  72  73
ATOM     73  S   UNL A   1      48.178  26.363  36.613  1.00  0.00     0.124 S 
ATOM     74  O   UNL A   1      48.478  26.791  37.978  1.00  0.00    -0.237 OA
ATOM     75  O   UNL A   1      47.735  24.978  36.475  1.00  0.00    -0.237 OA
ATOM     76  O   UNL A   1      49.120  26.818  35.595  1.00  0.00    -0.744 OA
ENDBRANCH  72  73
ENDBRANCH  53  67
BRANCH  54  77
ATOM     77  C   UNL A   1      35.976  33.453  32.846  1.00  0.00    -0.014 A 
ATOM     78  C   UNL A   1      34.810  33.369  33.623  1.00  0.00     0.010 A 
ATOM     79  C   UNL A   1      35.988  34.276  31.705  1.00  0.00     0.010 A 
ATOM     80  C   UNL A   1      33.677  34.111  33.274  1.00  0.00     0.020 A 
ATOM     81  C   UNL A   1      34.866  35.035  31.366  1.00  0.00     0.020 A 
ATOM     82  C   UNL A   1      33.717  34.946  32.154  1.00  0.00     0.054 A 
BRANCH  82  83
ATOM     83  S   UNL A   1      32.280  35.991  31.782  1.00  0.00     0.124 S 
ATOM     84  O   UNL A   1      32.294  36.016  30.323  1.00  0.00    -0.237 OA
ATOM     85  O   UNL A   1      31.179  35.251  32.393  1.00  0.00    -0.237 OA
ATOM     86  O   UNL A   1      32.605  37.257  32.435  1.00  0.00    -0.744 OA
ENDBRANCH  82  83
ENDBRANCH  54  77
BRANCH  66  87
ATOM     87  C   UNL A   1      40.150  33.952  38.403  1.00  0.00    -0.014 A 
ATOM     88  C   UNL A   1      39.414  33.557  39.534  1.00  0.00     0.010 A 
ATOM     89  C   UNL A   1      40.860  35.165  38.428  1.00  0.00     0.010 A 
ATOM     90  C   UNL A   1      39.362  34.380  40.661  1.00  0.00     0.020 A 
ATOM     91  C   UNL A   1      40.824  35.981  39.560  1.00  0.00     0.020 A 
ATOM     92  C   UNL A   1      40.062  35.591  40.663  1.00  0.00     0.054 A 
BRANCH  92  93
ATOM     93  S   UNL A   1      40.004  36.636  42.145  1.00  0.00     0.124 S 
ATOM     94  O   UNL A   1      39.469  37.886  41.613  1.00  0.00    -0.237 OA
ATOM     95  O   UNL A   1      39.107  35.895  43.031  1.00  0.00    -0.237 OA
ATOM     96  O   UNL A   1      41.397  36.686  42.583  1.00  0.00    -0.744 OA
ENDBRANCH  92  93
ENDBRANCH  66  87
ENDBRANCH  40  41
ENDBRANCH  33  35
ENDBRANCH  32  33
ENDBRANCH  31  32
ENDBRANCH   1  31
TORSDOF 20
ENDMDL
MODEL 3
REMARK VINA RESULT:     -10.9      4.017      9.627
REMARK SMILES CCc1ccnc(C(=O)c2[nH]c3ccc(OC(F)(F)F)cc3c2CC(=O)OCCOC(=O)c2ccc(-c3c4nc(c(-c5ccc(S(=O)(=O)[O-])cc5)c5ccc([nH]5)c(-c5ccc(S(=O)(=O)[O-])cc5)c5nc(c(-c6ccc(S(=O)(=O)[O-])cc6)c6ccc3[nH]6)C=C5)C=C4)cc2)c1
REMARK SMILES IDX 28 1 27 2 25 3 26 4 24 5 23 6 10 7 11 8 12 9 22 11 13 12
REMARK SMILES IDX 21 13 14 14 15 15 8 16 9 17 7 18 3 19 4 20 93 21 5 22 6 23
REMARK SMILES IDX 2 24 1 25 16 26 17 27 18 28 19 29 20 30 29 31 30 32 31 33
REMARK SMILES IDX 32 34 33 35 34 36 92 37 35 38 91 39 36 40 37 41 38 42 85 43
REMARK SMILES IDX 39 44 90 45 84 46 86 47 40 48 89 49 83 50 82 51 41 53 71 54
REMARK SMILES IDX 52 55 70 56 53 57 56 58 69 59 87 60 54 61 55 62 68 64 88 65
REMARK SMILES IDX 57 66 42 67 43 68 51 69 44 70 50 71 45 72 46 73 47 74 48 75
REMARK SMILES IDX 49 76 72 77 73 78 81 79 74 80 80 81 75 82 76 83 77 84 78 85
REMARK SMILES IDX 79 86 58 87 59 88 67 89 60 90 66 91 61 92 62 93 63 94 64 95
REMARK SMILES IDX 65 96
REMARK H PARENT 11 10 86 52 56 63
REMARK Flexibility Score: inf
ROOT
ATOM      1  C   UNL A   1      33.857  27.077  25.428  1.00  0.00     0.274 C 
ENDROOT
BRANCH   1   2
ATOM      2  O   UNL A   1      33.316  25.794  25.815  1.00  0.00    -0.462 OA
BRANCH   2   3
ATOM      3  C   UNL A   1      34.019  24.701  25.429  1.00  0.00     0.310 C 
ATOM      4  O   UNL A   1      35.225  24.711  25.194  1.00  0.00    -0.252 OA
BRANCH   3   5
ATOM      5  C   UNL A   1      33.243  23.402  25.476  1.00  0.00     0.161 C 
BRANCH   5   6
ATOM      6  C   UNL A   1      32.913  22.702  24.193  1.00  0.00     0.000 A 
ATOM      7  C   UNL A   1      32.550  23.259  22.965  1.00  0.00     0.093 A 
ATOM      8  N   UNL A   1      32.269  22.216  22.117  1.00  0.00    -0.352 N 
ATOM      9  C   UNL A   1      32.363  21.013  22.760  1.00  0.00     0.046 A 
ATOM     10  H   UNL A   1      32.030  22.322  21.167  1.00  0.00     0.167 HD
ATOM     11  C   UNL A   1      32.824  21.272  24.046  1.00  0.00     0.008 A 
ATOM     12  C   UNL A   1      32.089  19.727  22.292  1.00  0.00     0.030 A 
ATOM     13  C   UNL A   1      33.069  20.169  24.895  1.00  0.00     0.057 A 
ATOM     14  C   UNL A   1      32.327  18.654  23.157  1.00  0.00     0.049 A 
ATOM     15  C   UNL A   1      32.833  18.861  24.440  1.00  0.00     0.130 A 
BRANCH   7  16
ATOM     16  C   UNL A   1      32.529  24.623  22.449  1.00  0.00     0.227 C 
ATOM     17  O   UNL A   1      33.372  24.970  21.622  1.00  0.00    -0.285 OA
BRANCH  16  18
ATOM     18  C   UNL A   1      31.342  25.522  22.715  1.00  0.00     0.113 A 
ATOM     19  C   UNL A   1      30.293  27.699  22.687  1.00  0.00    -0.044 A 
ATOM     20  C   UNL A   1      29.356  27.203  23.595  1.00  0.00     0.024 A 
ATOM     21  C   UNL A   1      31.280  26.820  22.206  1.00  0.00     0.036 A 
ATOM     22  C   UNL A   1      29.467  25.892  24.023  1.00  0.00     0.112 A 
ATOM     23  N   UNL A   1      30.445  25.057  23.627  1.00  0.00    -0.253 NA
BRANCH  19  24
ATOM     24  C   UNL A   1      30.273  29.137  22.217  1.00  0.00     0.032 C 
ATOM     25  C   UNL A   1      28.911  29.826  22.264  1.00  0.00     0.009 C 
ENDBRANCH  19  24
ENDBRANCH  16  18
ENDBRANCH   7  16
BRANCH  15  26
ATOM     26  O   UNL A   1      33.136  17.885  25.349  1.00  0.00    -0.406 OA
BRANCH  26  27
ATOM     27  C   UNL A   1      33.783  16.718  24.871  1.00  0.00     0.573 C 
ATOM     28  F   UNL A   1      32.909  15.894  24.253  1.00  0.00    -0.132 F 
ATOM     29  F   UNL A   1      34.788  17.023  24.019  1.00  0.00    -0.132 F 
ATOM     30  F   UNL A   1      34.317  16.052  25.918  1.00  0.00    -0.132 F 
ENDBRANCH  26  27
ENDBRANCH  15  26
ENDBRANCH   5   6
ENDBRANCH   3   5
ENDBRANCH   2   3
ENDBRANCH   1   2
BRANCH   1  31
ATOM     31  C   UNL A   1      33.586  28.150  26.495  1.00  0.00     0.275 C 
BRANCH  31  32
ATOM     32  O   UNL A   1      34.313  29.376  26.258  1.00  0.00    -0.458 OA
BRANCH  32  33
ATOM     33  C   UNL A   1      34.479  30.114  27.374  1.00  0.00     0.338 C 
ATOM     34  O   UNL A   1      33.619  30.760  27.949  1.00  0.00    -0.246 OA
BRANCH  33  35
ATOM     35  C   UNL A   1      35.804  30.009  27.970  1.00  0.00     0.060 A 
ATOM     36  C   UNL A   1      36.903  30.108  27.113  1.00  0.00     0.016 A 
ATOM     37  C   UNL A   1      35.946  29.519  29.269  1.00  0.00     0.016 A 
ATOM     38  C   UNL A   1      38.146  29.660  27.537  1.00  0.00     0.010 A 
ATOM     39  C   UNL A   1      37.211  29.126  29.713  1.00  0.00     0.010 A 
ATOM     40  C   UNL A   1      38.312  29.173  28.842  1.00  0.00    -0.014 A 
BRANCH  40  41
ATOM     41  C   UNL A   1      39.659  28.766  29.298  1.00  0.00     0.031 A 
ATOM     42  C   UNL A   1      40.493  29.663  30.165  1.00  0.00     0.074 A 
ATOM     43  C   UNL A   1      40.113  27.554  28.936  1.00  0.00     0.049 A 
ATOM     44  N   UNL A   1      41.716  29.488  30.596  1.00  0.00    -0.248 NA
ATOM     45  C   UNL A   1      39.873  30.919  30.610  1.00  0.00     0.031 C 
ATOM     46  C   UNL A   1      39.366  26.582  28.134  1.00  0.00     0.029 A 
ATOM     47  N   UNL A   1      41.301  26.928  29.201  1.00  0.00    -0.354 N 
ATOM     48  C   UNL A   1      42.023  30.618  31.344  1.00  0.00     0.074 A 
ATOM     49  C   UNL A   1      40.856  31.477  31.306  1.00  0.00     0.031 C 
ATOM     50  C   UNL A   1      40.101  25.470  27.999  1.00  0.00     0.029 A 
ATOM     51  C   UNL A   1      41.392  25.678  28.643  1.00  0.00     0.049 A 
ATOM     52  H   UNL A   1      42.018  27.334  29.740  1.00  0.00     0.167 HD
ATOM     53  C   UNL A   1      43.174  30.911  31.997  1.00  0.00     0.031 A 
ATOM     54  C   UNL A   1      42.415  24.805  28.622  1.00  0.00     0.031 A 
ATOM     55  C   UNL A   1      44.331  30.053  32.015  1.00  0.00     0.049 A 
ATOM     56  C   UNL A   1      43.700  25.178  29.291  1.00  0.00     0.074 A 
ATOM     57  C   UNL A   1      45.554  30.262  32.630  1.00  0.00     0.029 A 
ATOM     58  N   UNL A   1      44.407  28.819  31.386  1.00  0.00    -0.354 N 
ATOM     59  N   UNL A   1      43.989  26.269  29.960  1.00  0.00    -0.248 NA
ATOM     60  C   UNL A   1      44.801  24.214  29.190  1.00  0.00     0.031 C 
ATOM     61  C   UNL A   1      46.380  29.168  32.342  1.00  0.00     0.029 A 
ATOM     62  C   UNL A   1      45.659  28.262  31.580  1.00  0.00     0.049 A 
ATOM     63  H   UNL A   1      43.677  28.400  30.874  1.00  0.00     0.167 HD
ATOM     64  C   UNL A   1      45.309  26.125  30.361  1.00  0.00     0.074 A 
ATOM     65  C   UNL A   1      45.755  24.832  29.875  1.00  0.00     0.031 C 
ATOM     66  C   UNL A   1      46.085  26.985  31.066  1.00  0.00     0.031 A 
BRANCH  53  67
ATOM     67  C   UNL A   1      43.247  32.238  32.700  1.00  0.00    -0.014 A 
ATOM     68  C   UNL A   1      42.819  32.381  34.033  1.00  0.00     0.010 A 
ATOM     69  C   UNL A   1      43.758  33.359  32.021  1.00  0.00     0.010 A 
ATOM     70  C   UNL A   1      42.856  33.632  34.657  1.00  0.00     0.020 A 
ATOM     71  C   UNL A   1      43.814  34.608  32.647  1.00  0.00     0.020 A 
ATOM     72  C   UNL A   1      43.340  34.741  33.954  1.00  0.00     0.054 A 
BRANCH  72  73
ATOM     73  S   UNL A   1      43.356  36.359  34.774  1.00  0.00     0.124 S 
ATOM     74  O   UNL A   1      43.245  37.268  33.635  1.00  0.00    -0.237 OA
ATOM     75  O   UNL A   1      42.183  36.297  35.641  1.00  0.00    -0.237 OA
ATOM     76  O   UNL A   1      44.640  36.382  35.468  1.00  0.00    -0.744 OA
ENDBRANCH  72  73
ENDBRANCH  53  67
BRANCH  54  77
ATOM     77  C   UNL A   1      42.242  23.515  27.908  1.00  0.00    -0.014 A 
ATOM     78  C   UNL A   1      42.911  23.279  26.697  1.00  0.00     0.010 A 
ATOM     79  C   UNL A   1      41.488  22.481  28.494  1.00  0.00     0.010 A 
ATOM     80  C   UNL A   1      42.843  22.023  26.088  1.00  0.00     0.020 A 
ATOM     81  C   UNL A   1      41.435  21.218  27.900  1.00  0.00     0.020 A 
ATOM     82  C   UNL A   1      42.113  20.999  26.699  1.00  0.00     0.054 A 
BRANCH  82  83
ATOM     83  S   UNL A   1      42.129  19.342  25.958  1.00  0.00     0.124 S 
ATOM     84  O   UNL A   1      42.949  19.551  24.769  1.00  0.00    -0.237 OA
ATOM     85  O   UNL A   1      42.734  18.527  27.009  1.00  0.00    -0.237 OA
ATOM     86  O   UNL A   1      40.716  19.069  25.708  1.00  0.00    -0.744 OA
ENDBRANCH  82  83
ENDBRANCH  54  77
BRANCH  66  87
ATOM     87  C   UNL A   1      47.491  26.542  31.349  1.00  0.00    -0.014 A 
ATOM     88  C   UNL A   1      47.803  25.856  32.536  1.00  0.00     0.010 A 
ATOM     89  C   UNL A   1      48.506  26.799  30.410  1.00  0.00     0.010 A 
ATOM     90  C   UNL A   1      49.118  25.462  32.794  1.00  0.00     0.020 A 
ATOM     91  C   UNL A   1      49.817  26.390  30.658  1.00  0.00     0.020 A 
ATOM     92  C   UNL A   1      50.118  25.739  31.857  1.00  0.00     0.054 A 
BRANCH  92  93
ATOM     93  S   UNL A   1      51.815  25.197  32.197  1.00  0.00     0.124 S 
ATOM     94  O   UNL A   1      52.075  25.814  33.495  1.00  0.00    -0.237 OA
ATOM     95  O   UNL A   1      51.697  23.741  32.206  1.00  0.00    -0.237 OA
ATOM     96  O   UNL A   1      52.580  25.745  31.079  1.00  0.00    -0.744 OA
ENDBRANCH  92  93
ENDBRANCH  66  87
ENDBRANCH  40  41
ENDBRANCH  33  35
ENDBRANCH  32  33
ENDBRANCH  31  32
ENDBRANCH   1  31
TORSDOF 20
ENDMDL
