MODEL 1
REMARK VINA RESULT:      -7.5      0.000      0.000
REMARK SMILES O=C(CCCCCC(F)(F)c1ccccc1)OCCOC(=O)c1ccc(-c2c3nc(c(-c4ccc(S(=O)(=O)[O-])cc4)c4ccc([nH]4)c(-c4ccc(S(=O)(=O)[O-])cc4)c4nc(c(-c5ccc(S(=O)(=O)[O-])cc5)c5ccc2[nH]5)C=C4)C=C3)cc1
REMARK SMILES IDX 17 1 2 2 1 3 3 4 4 5 5 6 6 7 7 8 8 9 9 10 10 11 11 12 12 13
REMARK SMILES IDX 16 14 13 15 15 16 14 17 18 18 19 19 20 20 21 21 22 22 23 23
REMARK SMILES IDX 24 24 82 25 25 26 81 27 26 28 27 29 28 30 75 31 29 32 80 33
REMARK SMILES IDX 74 34 76 35 30 36 79 37 73 38 72 39 31 41 61 42 42 43 60 44
REMARK SMILES IDX 43 45 46 46 59 47 77 48 44 49 45 50 58 52 78 53 47 54 32 55
REMARK SMILES IDX 33 56 41 57 34 58 40 59 35 60 36 61 37 62 38 63 39 64 62 65
REMARK SMILES IDX 63 66 71 67 64 68 70 69 65 70 66 71 67 72 68 73 69 74 48 75
REMARK SMILES IDX 49 76 57 77 50 78 56 79 51 80 52 81 53 82 54 83 55 84
REMARK H PARENT 76 40 46 51
REMARK Flexibility Score: inf
ROOT
ATOM      1  O   UNL A   1      40.603  21.305  27.517  1.00  0.00    -0.462 OA
ENDROOT
BRANCH   1   2
ATOM      2  C   UNL A   1      41.614  22.196  27.682  1.00  0.00     0.305 C 
ATOM      3  O   UNL A   1      41.835  22.700  28.779  1.00  0.00    -0.252 OA
BRANCH   2   4
ATOM      4  C   UNL A   1      42.347  22.644  26.436  1.00  0.00     0.123 C 
BRANCH   4   5
ATOM      5  C   UNL A   1      43.214  23.879  26.636  1.00  0.00     0.012 C 
BRANCH   5   6
ATOM      6  C   UNL A   1      43.815  24.447  25.347  1.00  0.00     0.001 C 
BRANCH   6   7
ATOM      7  C   UNL A   1      45.334  24.683  25.331  1.00  0.00     0.007 C 
BRANCH   7   8
ATOM      8  C   UNL A   1      45.862  26.118  25.201  1.00  0.00     0.082 C 
BRANCH   8   9
ATOM      9  C   UNL A   1      45.993  26.915  26.509  1.00  0.00     0.273 C 
ATOM     10  F   UNL A   1      45.798  26.040  27.543  1.00  0.00    -0.201 F 
ATOM     11  F   UNL A   1      47.303  27.293  26.614  1.00  0.00    -0.201 F 
BRANCH   9  12
ATOM     12  C   UNL A   1      45.075  28.114  26.567  1.00  0.00     0.021 A 
ATOM     13  C   UNL A   1      43.741  28.006  26.145  1.00  0.00     0.010 A 
ATOM     14  C   UNL A   1      45.522  29.332  27.099  1.00  0.00     0.010 A 
ATOM     15  C   UNL A   1      42.848  29.058  26.345  1.00  0.00     0.001 A 
ATOM     16  C   UNL A   1      44.629  30.387  27.290  1.00  0.00     0.001 A 
ATOM     17  C   UNL A   1      43.289  30.242  26.933  1.00  0.00     0.000 A 
ENDBRANCH   9  12
ENDBRANCH   8   9
ENDBRANCH   7   8
ENDBRANCH   6   7
ENDBRANCH   5   6
ENDBRANCH   4   5
ENDBRANCH   2   4
ENDBRANCH   1   2
BRANCH   1  18
ATOM     18  C   UNL A   1      40.348  20.724  26.228  1.00  0.00     0.274 C 
BRANCH  18  19
ATOM     19  C   UNL A   1      39.016  21.166  25.614  1.00  0.00     0.275 C 
BRANCH  19  20
ATOM     20  O   UNL A   1      38.338  22.127  26.440  1.00  0.00    -0.458 OA
BRANCH  20  21
ATOM     21  C   UNL A   1      38.180  23.347  25.863  1.00  0.00     0.338 C 
ATOM     22  O   UNL A   1      37.429  23.612  24.937  1.00  0.00    -0.246 OA
BRANCH  21  23
ATOM     23  C   UNL A   1      38.938  24.381  26.605  1.00  0.00     0.060 A 
ATOM     24  C   UNL A   1      38.700  24.485  27.982  1.00  0.00     0.016 A 
ATOM     25  C   UNL A   1      39.838  25.253  25.983  1.00  0.00     0.016 A 
ATOM     26  C   UNL A   1      39.305  25.498  28.725  1.00  0.00     0.010 A 
ATOM     27  C   UNL A   1      40.443  26.273  26.731  1.00  0.00     0.010 A 
ATOM     28  C   UNL A   1      40.145  26.427  28.096  1.00  0.00    -0.014 A 
BRANCH  28  29
ATOM     29  C   UNL A   1      40.546  27.650  28.836  1.00  0.00     0.031 A 
ATOM     30  C   UNL A   1      41.939  27.726  29.403  1.00  0.00     0.074 A 
ATOM     31  C   UNL A   1      39.720  28.706  28.948  1.00  0.00     0.049 A 
ATOM     32  N   UNL A   1      42.538  28.725  29.998  1.00  0.00    -0.248 NA
ATOM     33  C   UNL A   1      42.769  26.516  29.274  1.00  0.00     0.031 C 
ATOM     34  C   UNL A   1      38.358  28.781  28.422  1.00  0.00     0.029 A 
ATOM     35  N   UNL A   1      39.920  29.929  29.539  1.00  0.00    -0.354 N 
ATOM     36  C   UNL A   1      43.820  28.275  30.292  1.00  0.00     0.074 A 
ATOM     37  C   UNL A   1      43.897  26.898  29.856  1.00  0.00     0.031 C 
ATOM     38  C   UNL A   1      37.844  29.989  28.715  1.00  0.00     0.029 A 
ATOM     39  C   UNL A   1      38.834  30.768  29.457  1.00  0.00     0.049 A 
ATOM     40  H   UNL A   1      40.762  30.182  29.982  1.00  0.00     0.167 HD
ATOM     41  C   UNL A   1      44.850  28.948  30.856  1.00  0.00     0.031 A 
ATOM     42  C   UNL A   1      38.660  32.020  29.925  1.00  0.00     0.031 A 
ATOM     43  C   UNL A   1      44.778  30.305  31.324  1.00  0.00     0.049 A 
ATOM     44  C   UNL A   1      39.795  32.721  30.630  1.00  0.00     0.074 A 
ATOM     45  C   UNL A   1      45.771  31.067  31.916  1.00  0.00     0.029 A 
ATOM     46  N   UNL A   1      43.644  31.100  31.267  1.00  0.00    -0.354 N 
ATOM     47  N   UNL A   1      41.015  32.295  30.857  1.00  0.00    -0.248 NA
ATOM     48  C   UNL A   1      39.530  34.080  31.127  1.00  0.00     0.031 C 
ATOM     49  C   UNL A   1      45.223  32.309  32.257  1.00  0.00     0.029 A 
ATOM     50  C   UNL A   1      43.906  32.337  31.832  1.00  0.00     0.049 A 
ATOM     51  H   UNL A   1      42.781  30.826  30.881  1.00  0.00     0.167 HD
ATOM     52  C   UNL A   1      41.670  33.346  31.493  1.00  0.00     0.074 A 
ATOM     53  C   UNL A   1      40.716  34.429  31.607  1.00  0.00     0.031 C 
ATOM     54  C   UNL A   1      42.950  33.409  31.938  1.00  0.00     0.031 A 
BRANCH  41  55
ATOM     55  C   UNL A   1      46.149  28.206  31.011  1.00  0.00    -0.014 A 
ATOM     56  C   UNL A   1      47.123  28.243  29.996  1.00  0.00     0.010 A 
ATOM     57  C   UNL A   1      46.408  27.480  32.186  1.00  0.00     0.010 A 
ATOM     58  C   UNL A   1      48.317  27.534  30.138  1.00  0.00     0.020 A 
ATOM     59  C   UNL A   1      47.612  26.788  32.341  1.00  0.00     0.020 A 
ATOM     60  C   UNL A   1      48.551  26.805  31.307  1.00  0.00     0.054 A 
BRANCH  60  61
ATOM     61  S   UNL A   1      50.113  25.897  31.469  1.00  0.00     0.124 S 
ATOM     62  O   UNL A   1      51.085  26.983  31.548  1.00  0.00    -0.237 OA
ATOM     63  O   UNL A   1      49.918  25.137  32.701  1.00  0.00    -0.237 OA
ATOM     64  O   UNL A   1      50.174  25.094  30.249  1.00  0.00    -0.744 OA
ENDBRANCH  60  61
ENDBRANCH  41  55
BRANCH  42  65
ATOM     65  C   UNL A   1      37.352  32.708  29.750  1.00  0.00    -0.014 A 
ATOM     66  C   UNL A   1      37.116  33.536  28.639  1.00  0.00     0.010 A 
ATOM     67  C   UNL A   1      36.344  32.561  30.720  1.00  0.00     0.010 A 
ATOM     68  C   UNL A   1      35.908  34.228  28.516  1.00  0.00     0.020 A 
ATOM     69  C   UNL A   1      35.125  33.232  30.587  1.00  0.00     0.020 A 
ATOM     70  C   UNL A   1      34.921  34.074  29.492  1.00  0.00     0.054 A 
BRANCH  70  71
ATOM     71  S   UNL A   1      33.347  34.957  29.301  1.00  0.00     0.124 S 
ATOM     72  O   UNL A   1      32.822  34.937  30.662  1.00  0.00    -0.237 OA
ATOM     73  O   UNL A   1      33.775  36.263  28.805  1.00  0.00    -0.237 OA
ATOM     74  O   UNL A   1      32.617  34.142  28.333  1.00  0.00    -0.744 OA
ENDBRANCH  70  71
ENDBRANCH  42  65
BRANCH  54  75
ATOM     75  C   UNL A   1      43.411  34.701  32.560  1.00  0.00    -0.014 A 
ATOM     76  C   UNL A   1      43.448  34.869  33.956  1.00  0.00     0.010 A 
ATOM     77  C   UNL A   1      43.868  35.745  31.733  1.00  0.00     0.010 A 
ATOM     78  C   UNL A   1      43.905  36.068  34.512  1.00  0.00     0.020 A 
ATOM     79  C   UNL A   1      44.347  36.935  32.285  1.00  0.00     0.020 A 
ATOM     80  C   UNL A   1      44.349  37.094  33.673  1.00  0.00     0.054 A 
BRANCH  80  81
ATOM     81  S   UNL A   1      44.978  38.625  34.418  1.00  0.00     0.124 S 
ATOM     82  O   UNL A   1      43.960  38.914  35.423  1.00  0.00    -0.237 OA
ATOM     83  O   UNL A   1      46.281  38.218  34.942  1.00  0.00    -0.237 OA
ATOM     84  O   UNL A   1      45.031  39.560  33.297  1.00  0.00    -0.744 OA
ENDBRANCH  80  81
ENDBRANCH  54  75
ENDBRANCH  28  29
ENDBRANCH  21  23
ENDBRANCH  20  21
ENDBRANCH  19  20
ENDBRANCH  18  19
ENDBRANCH   1  18
TORSDOF 20
ENDMDL
MODEL 2
REMARK VINA RESULT:      -7.3      4.876      7.371
REMARK SMILES O=C(CCCCCC(F)(F)c1ccccc1)OCCOC(=O)c1ccc(-c2c3nc(c(-c4ccc(S(=O)(=O)[O-])cc4)c4ccc([nH]4)c(-c4ccc(S(=O)(=O)[O-])cc4)c4nc(c(-c5ccc(S(=O)(=O)[O-])cc5)c5ccc2[nH]5)C=C4)C=C3)cc1
REMARK SMILES IDX 17 1 2 2 1 3 3 4 4 5 5 6 6 7 7 8 8 9 9 10 10 11 11 12 12 13
REMARK SMILES IDX 16 14 13 15 15 16 14 17 18 18 19 19 20 20 21 21 22 22 23 23
REMARK SMILES IDX 24 24 82 25 25 26 81 27 26 28 27 29 28 30 75 31 29 32 80 33
REMARK SMILES IDX 74 34 76 35 30 36 79 37 73 38 72 39 31 41 61 42 42 43 60 44
REMARK SMILES IDX 43 45 46 46 59 47 77 48 44 49 45 50 58 52 78 53 47 54 32 55
REMARK SMILES IDX 33 56 41 57 34 58 40 59 35 60 36 61 37 62 38 63 39 64 62 65
REMARK SMILES IDX 63 66 71 67 64 68 70 69 65 70 66 71 67 72 68 73 69 74 48 75
REMARK SMILES IDX 49 76 57 77 50 78 56 79 51 80 52 81 53 82 54 83 55 84
REMARK H PARENT 76 40 46 51
REMARK Flexibility Score: inf
ROOT
ATOM      1  O   UNL A   1      39.107  21.741  25.854  1.00  0.00    -0.462 OA
ENDROOT
BRANCH   1   2
ATOM      2  C   UNL A   1      37.860  21.837  25.329  1.00  0.00     0.305 C 
ATOM      3  O   UNL A   1      37.553  21.210  24.319  1.00  0.00    -0.252 OA
BRANCH   2   4
ATOM      4  C   UNL A   1      36.926  22.854  25.952  1.00  0.00     0.123 C 
BRANCH   4   5
ATOM      5  C   UNL A   1      36.422  23.911  24.979  1.00  0.00     0.012 C 
BRANCH   5   6
ATOM      6  C   UNL A   1      35.145  23.523  24.228  1.00  0.00     0.001 C 
BRANCH   6   7
ATOM      7  C   UNL A   1      34.123  22.663  24.988  1.00  0.00     0.007 C 
BRANCH   7   8
ATOM      8  C   UNL A   1      33.743  21.288  24.423  1.00  0.00     0.082 C 
BRANCH   8   9
ATOM      9  C   UNL A   1      32.980  20.350  25.372  1.00  0.00     0.273 C 
ATOM     10  F   UNL A   1      33.282  20.729  26.652  1.00  0.00    -0.201 F 
ATOM     11  F   UNL A   1      31.650  20.637  25.228  1.00  0.00    -0.201 F 
BRANCH   9  12
ATOM     12  C   UNL A   1      33.253  18.888  25.108  1.00  0.00     0.021 A 
ATOM     13  C   UNL A   1      34.298  18.506  24.251  1.00  0.00     0.010 A 
ATOM     14  C   UNL A   1      32.511  17.892  25.758  1.00  0.00     0.010 A 
ATOM     15  C   UNL A   1      34.657  17.164  24.128  1.00  0.00     0.001 A 
ATOM     16  C   UNL A   1      32.867  16.549  25.627  1.00  0.00     0.001 A 
ATOM     17  C   UNL A   1      33.952  16.189  24.829  1.00  0.00     0.000 A 
ENDBRANCH   9  12
ENDBRANCH   8   9
ENDBRANCH   7   8
ENDBRANCH   6   7
ENDBRANCH   5   6
ENDBRANCH   4   5
ENDBRANCH   2   4
ENDBRANCH   1   2
BRANCH   1  18
ATOM     18  C   UNL A   1      39.517  22.611  26.922  1.00  0.00     0.274 C 
BRANCH  18  19
ATOM     19  C   UNL A   1      40.413  23.763  26.458  1.00  0.00     0.275 C 
BRANCH  19  20
ATOM     20  O   UNL A   1      39.701  25.010  26.406  1.00  0.00    -0.458 OA
BRANCH  20  21
ATOM     21  C   UNL A   1      40.495  26.110  26.480  1.00  0.00     0.338 C 
ATOM     22  O   UNL A   1      41.303  26.470  25.639  1.00  0.00    -0.246 OA
BRANCH  21  23
ATOM     23  C   UNL A   1      40.150  26.927  27.667  1.00  0.00     0.060 A 
ATOM     24  C   UNL A   1      40.672  28.225  27.726  1.00  0.00     0.016 A 
ATOM     25  C   UNL A   1      39.364  26.441  28.718  1.00  0.00     0.016 A 
ATOM     26  C   UNL A   1      40.469  29.015  28.857  1.00  0.00     0.010 A 
ATOM     27  C   UNL A   1      39.164  27.235  29.857  1.00  0.00     0.010 A 
ATOM     28  C   UNL A   1      39.752  28.508  29.949  1.00  0.00    -0.014 A 
BRANCH  28  29
ATOM     29  C   UNL A   1      39.790  29.244  31.238  1.00  0.00     0.031 A 
ATOM     30  C   UNL A   1      40.911  28.954  32.201  1.00  0.00     0.074 A 
ATOM     31  C   UNL A   1      38.893  30.204  31.526  1.00  0.00     0.049 A 
ATOM     32  N   UNL A   1      41.201  29.538  33.335  1.00  0.00    -0.248 NA
ATOM     33  C   UNL A   1      41.830  27.864  31.832  1.00  0.00     0.031 C 
ATOM     34  C   UNL A   1      37.777  30.609  30.674  1.00  0.00     0.029 A 
ATOM     35  N   UNL A   1      38.791  31.022  32.625  1.00  0.00    -0.354 N 
ATOM     36  C   UNL A   1      42.348  28.906  33.802  1.00  0.00     0.074 A 
ATOM     37  C   UNL A   1      42.671  27.861  32.855  1.00  0.00     0.031 C 
ATOM     38  C   UNL A   1      37.101  31.600  31.282  1.00  0.00     0.029 A 
ATOM     39  C   UNL A   1      37.729  31.893  32.570  1.00  0.00     0.049 A 
ATOM     40  H   UNL A   1      39.420  30.987  33.382  1.00  0.00     0.167 HD
ATOM     41  C   UNL A   1      43.080  29.179  34.907  1.00  0.00     0.031 A 
ATOM     42  C   UNL A   1      37.314  32.820  33.456  1.00  0.00     0.031 A 
ATOM     43  C   UNL A   1      42.752  30.191  35.872  1.00  0.00     0.049 A 
ATOM     44  C   UNL A   1      38.096  33.047  34.726  1.00  0.00     0.074 A 
ATOM     45  C   UNL A   1      43.434  30.535  37.028  1.00  0.00     0.029 A 
ATOM     46  N   UNL A   1      41.641  31.016  35.804  1.00  0.00    -0.354 N 
ATOM     47  N   UNL A   1      39.205  32.471  35.127  1.00  0.00    -0.248 NA
ATOM     48  C   UNL A   1      37.577  34.064  35.653  1.00  0.00     0.031 C 
ATOM     49  C   UNL A   1      42.708  31.537  37.681  1.00  0.00     0.029 A 
ATOM     50  C   UNL A   1      41.604  31.853  36.906  1.00  0.00     0.049 A 
ATOM     51  H   UNL A   1      40.976  31.009  35.078  1.00  0.00     0.167 HD
ATOM     52  C   UNL A   1      39.531  33.079  36.336  1.00  0.00     0.074 A 
ATOM     53  C   UNL A   1      38.509  34.072  36.596  1.00  0.00     0.031 C 
ATOM     54  C   UNL A   1      40.585  32.839  37.155  1.00  0.00     0.031 A 
BRANCH  41  55
ATOM     55  C   UNL A   1      44.311  28.345  35.135  1.00  0.00    -0.014 A 
ATOM     56  C   UNL A   1      44.239  27.139  35.855  1.00  0.00     0.010 A 
ATOM     57  C   UNL A   1      45.547  28.759  34.610  1.00  0.00     0.010 A 
ATOM     58  C   UNL A   1      45.390  26.381  36.081  1.00  0.00     0.020 A 
ATOM     59  C   UNL A   1      46.697  27.992  34.814  1.00  0.00     0.020 A 
ATOM     60  C   UNL A   1      46.613  26.817  35.564  1.00  0.00     0.054 A 
BRANCH  60  61
ATOM     61  S   UNL A   1      48.093  25.812  35.866  1.00  0.00     0.124 S 
ATOM     62  O   UNL A   1      48.619  25.640  34.515  1.00  0.00    -0.237 OA
ATOM     63  O   UNL A   1      48.888  26.665  36.746  1.00  0.00    -0.237 OA
ATOM     64  O   UNL A   1      47.567  24.599  36.488  1.00  0.00    -0.744 OA
ENDBRANCH  60  61
ENDBRANCH  41  55
BRANCH  42  65
ATOM     65  C   UNL A   1      36.084  33.615  33.184  1.00  0.00    -0.014 A 
ATOM     66  C   UNL A   1      34.817  33.123  33.539  1.00  0.00     0.010 A 
ATOM     67  C   UNL A   1      36.179  34.859  32.535  1.00  0.00     0.010 A 
ATOM     68  C   UNL A   1      33.663  33.847  33.223  1.00  0.00     0.020 A 
ATOM     69  C   UNL A   1      35.030  35.597  32.239  1.00  0.00     0.020 A 
ATOM     70  C   UNL A   1      33.777  35.078  32.572  1.00  0.00     0.054 A 
BRANCH  70  71
ATOM     71  S   UNL A   1      32.272  36.018  32.196  1.00  0.00     0.124 S 
ATOM     72  O   UNL A   1      31.225  35.064  32.544  1.00  0.00    -0.237 OA
ATOM     73  O   UNL A   1      32.393  37.177  33.078  1.00  0.00    -0.237 OA
ATOM     74  O   UNL A   1      32.405  36.316  30.771  1.00  0.00    -0.744 OA
ENDBRANCH  70  71
ENDBRANCH  42  65
BRANCH  54  75
ATOM     75  C   UNL A   1      40.714  33.685  38.394  1.00  0.00    -0.014 A 
ATOM     76  C   UNL A   1      41.403  34.912  38.374  1.00  0.00     0.010 A 
ATOM     77  C   UNL A   1      40.088  33.271  39.586  1.00  0.00     0.010 A 
ATOM     78  C   UNL A   1      41.488  35.693  39.531  1.00  0.00     0.020 A 
ATOM     79  C   UNL A   1      40.151  34.061  40.736  1.00  0.00     0.020 A 
ATOM     80  C   UNL A   1      40.863  35.262  40.705  1.00  0.00     0.054 A 
BRANCH  80  81
ATOM     81  S   UNL A   1      40.950  36.314  42.181  1.00  0.00     0.124 S 
ATOM     82  O   UNL A   1      41.862  37.369  41.749  1.00  0.00    -0.237 OA
ATOM     83  O   UNL A   1      39.559  36.724  42.368  1.00  0.00    -0.237 OA
ATOM     84  O   UNL A   1      41.473  35.421  43.213  1.00  0.00    -0.744 OA
ENDBRANCH  80  81
ENDBRANCH  54  75
ENDBRANCH  28  29
ENDBRANCH  21  23
ENDBRANCH  20  21
ENDBRANCH  19  20
ENDBRANCH  18  19
ENDBRANCH   1  18
TORSDOF 20
ENDMDL
MODEL 3
REMARK VINA RESULT:      -7.2      4.605      7.097
REMARK SMILES O=C(CCCCCC(F)(F)c1ccccc1)OCCOC(=O)c1ccc(-c2c3nc(c(-c4ccc(S(=O)(=O)[O-])cc4)c4ccc([nH]4)c(-c4ccc(S(=O)(=O)[O-])cc4)c4nc(c(-c5ccc(S(=O)(=O)[O-])cc5)c5ccc2[nH]5)C=C4)C=C3)cc1
REMARK SMILES IDX 17 1 2 2 1 3 3 4 4 5 5 6 6 7 7 8 8 9 9 10 10 11 11 12 12 13
REMARK SMILES IDX 16 14 13 15 15 16 14 17 18 18 19 19 20 20 21 21 22 22 23 23
REMARK SMILES IDX 24 24 82 25 25 26 81 27 26 28 27 29 28 30 75 31 29 32 80 33
REMARK SMILES IDX 74 34 76 35 30 36 79 37 73 38 72 39 31 41 61 42 42 43 60 44
REMARK SMILES IDX 43 45 46 46 59 47 77 48 44 49 45 50 58 52 78 53 47 54 32 55
REMARK SMILES IDX 33 56 41 57 34 58 40 59 35 60 36 61 37 62 38 63 39 64 62 65
REMARK SMILES IDX 63 66 71 67 64 68 70 69 65 70 66 71 67 72 68 73 69 74 48 75
REMARK SMILES IDX 49 76 57 77 50 78 56 79 51 80 52 81 53 82 54 83 55 84
REMARK H PARENT 76 40 46 51
REMARK Flexibility Score: inf
ROOT
ATOM      1  O   UNL A   1      39.316  21.373  25.762  1.00  0.00    -0.462 OA
ENDROOT
BRANCH   1   2
ATOM      2  C   UNL A   1      37.996  21.448  25.452  1.00  0.00     0.305 C 
ATOM      3  O   UNL A   1      37.414  20.494  24.944  1.00  0.00    -0.252 OA
BRANCH   2   4
ATOM      4  C   UNL A   1      37.324  22.794  25.623  1.00  0.00     0.123 C 
BRANCH   4   5
ATOM      5  C   UNL A   1      37.047  23.520  24.314  1.00  0.00     0.012 C 
BRANCH   5   6
ATOM      6  C   UNL A   1      35.650  23.273  23.736  1.00  0.00     0.001 C 
BRANCH   6   7
ATOM      7  C   UNL A   1      34.550  22.857  24.725  1.00  0.00     0.007 C 
BRANCH   7   8
ATOM      8  C   UNL A   1      33.378  22.007  24.219  1.00  0.00     0.082 C 
BRANCH   8   9
ATOM      9  C   UNL A   1      33.047  20.748  25.036  1.00  0.00     0.273 C 
ATOM     10  F   UNL A   1      33.729  20.837  26.219  1.00  0.00    -0.201 F 
ATOM     11  F   UNL A   1      31.727  20.838  25.387  1.00  0.00    -0.201 F 
BRANCH   9  12
ATOM     12  C   UNL A   1      33.324  19.465  24.288  1.00  0.00     0.021 A 
ATOM     13  C   UNL A   1      34.420  18.662  24.641  1.00  0.00     0.010 A 
ATOM     14  C   UNL A   1      32.460  19.027  23.274  1.00  0.00     0.010 A 
ATOM     15  C   UNL A   1      34.588  17.403  24.065  1.00  0.00     0.001 A 
ATOM     16  C   UNL A   1      32.636  17.770  22.693  1.00  0.00     0.001 A 
ATOM     17  C   UNL A   1      33.687  16.952  23.104  1.00  0.00     0.000 A 
ENDBRANCH   9  12
ENDBRANCH   8   9
ENDBRANCH   7   8
ENDBRANCH   6   7
ENDBRANCH   5   6
ENDBRANCH   4   5
ENDBRANCH   2   4
ENDBRANCH   1   2
BRANCH   1  18
ATOM     18  C   UNL A   1      39.880  22.239  26.760  1.00  0.00     0.274 C 
BRANCH  18  19
ATOM     19  C   UNL A   1      41.379  22.490  26.571  1.00  0.00     0.275 C 
BRANCH  19  20
ATOM     20  O   UNL A   1      41.658  23.867  26.272  1.00  0.00    -0.458 OA
BRANCH  20  21
ATOM     21  C   UNL A   1      42.636  24.418  27.039  1.00  0.00     0.338 C 
ATOM     22  O   UNL A   1      43.825  24.148  26.990  1.00  0.00    -0.246 OA
BRANCH  21  23
ATOM     23  C   UNL A   1      42.095  25.522  27.864  1.00  0.00     0.060 A 
ATOM     24  C   UNL A   1      42.960  26.582  28.164  1.00  0.00     0.016 A 
ATOM     25  C   UNL A   1      40.787  25.524  28.365  1.00  0.00     0.016 A 
ATOM     26  C   UNL A   1      42.548  27.607  29.016  1.00  0.00     0.010 A 
ATOM     27  C   UNL A   1      40.376  26.553  29.224  1.00  0.00     0.010 A 
ATOM     28  C   UNL A   1      41.269  27.576  29.587  1.00  0.00    -0.014 A 
BRANCH  28  29
ATOM     29  C   UNL A   1      40.957  28.509  30.699  1.00  0.00     0.031 A 
ATOM     30  C   UNL A   1      41.800  28.455  31.945  1.00  0.00     0.074 A 
ATOM     31  C   UNL A   1      39.990  29.437  30.586  1.00  0.00     0.049 A 
ATOM     32  N   UNL A   1      41.775  29.232  32.997  1.00  0.00    -0.248 NA
ATOM     33  C   UNL A   1      42.814  27.388  32.008  1.00  0.00     0.031 C 
ATOM     34  C   UNL A   1      39.118  29.622  29.427  1.00  0.00     0.029 A 
ATOM     35  N   UNL A   1      39.587  30.410  31.468  1.00  0.00    -0.354 N 
ATOM     36  C   UNL A   1      42.780  28.764  33.836  1.00  0.00     0.074 A 
ATOM     37  C   UNL A   1      43.364  27.607  33.193  1.00  0.00     0.031 C 
ATOM     38  C   UNL A   1      38.282  30.647  29.670  1.00  0.00     0.029 A 
ATOM     39  C   UNL A   1      38.551  31.185  31.003  1.00  0.00     0.049 A 
ATOM     40  H   UNL A   1      40.002  30.541  32.351  1.00  0.00     0.167 HD
ATOM     41  C   UNL A   1      43.197  29.261  35.024  1.00  0.00     0.031 A 
ATOM     42  C   UNL A   1      37.898  32.210  31.585  1.00  0.00     0.031 A 
ATOM     43  C   UNL A   1      42.606  30.388  35.689  1.00  0.00     0.049 A 
ATOM     44  C   UNL A   1      38.322  32.691  32.950  1.00  0.00     0.074 A 
ATOM     45  C   UNL A   1      42.959  30.959  36.900  1.00  0.00     0.029 A 
ATOM     46  N   UNL A   1      41.527  31.112  35.206  1.00  0.00    -0.354 N 
ATOM     47  N   UNL A   1      39.306  32.266  33.706  1.00  0.00    -0.248 NA
ATOM     48  C   UNL A   1      37.555  33.804  33.531  1.00  0.00     0.031 C 
ATOM     49  C   UNL A   1      42.063  31.999  37.171  1.00  0.00     0.029 A 
ATOM     50  C   UNL A   1      41.186  32.109  36.104  1.00  0.00     0.049 A 
ATOM     51  H   UNL A   1      41.070  30.942  34.350  1.00  0.00     0.167 HD
ATOM     52  C   UNL A   1      39.295  33.080  34.836  1.00  0.00     0.074 A 
ATOM     53  C   UNL A   1      38.214  34.027  34.660  1.00  0.00     0.031 C 
ATOM     54  C   UNL A   1      40.111  33.048  35.919  1.00  0.00     0.031 A 
BRANCH  41  55
ATOM     55  C   UNL A   1      44.352  28.562  35.689  1.00  0.00    -0.014 A 
ATOM     56  C   UNL A   1      44.133  27.456  36.531  1.00  0.00     0.010 A 
ATOM     57  C   UNL A   1      45.666  29.002  35.458  1.00  0.00     0.010 A 
ATOM     58  C   UNL A   1      45.208  26.826  37.162  1.00  0.00     0.020 A 
ATOM     59  C   UNL A   1      46.746  28.360  36.070  1.00  0.00     0.020 A 
ATOM     60  C   UNL A   1      46.508  27.287  36.933  1.00  0.00     0.054 A 
BRANCH  60  61
ATOM     61  S   UNL A   1      47.887  26.449  37.760  1.00  0.00     0.124 S 
ATOM     62  O   UNL A   1      47.399  25.075  37.840  1.00  0.00    -0.237 OA
ATOM     63  O   UNL A   1      48.998  26.668  36.837  1.00  0.00    -0.237 OA
ATOM     64  O   UNL A   1      47.998  27.146  39.039  1.00  0.00    -0.744 OA
ENDBRANCH  60  61
ENDBRANCH  41  55
BRANCH  42  65
ATOM     65  C   UNL A   1      36.757  32.863  30.885  1.00  0.00    -0.014 A 
ATOM     66  C   UNL A   1      35.430  32.540  31.215  1.00  0.00     0.010 A 
ATOM     67  C   UNL A   1      37.001  33.790  29.856  1.00  0.00     0.010 A 
ATOM     68  C   UNL A   1      34.367  33.111  30.509  1.00  0.00     0.020 A 
ATOM     69  C   UNL A   1      35.940  34.381  29.164  1.00  0.00     0.020 A 
ATOM     70  C   UNL A   1      34.628  34.026  29.485  1.00  0.00     0.054 A 
BRANCH  70  71
ATOM     71  S   UNL A   1      33.236  34.779  28.600  1.00  0.00     0.124 S 
ATOM     72  O   UNL A   1      32.351  35.158  29.695  1.00  0.00    -0.237 OA
ATOM     73  O   UNL A   1      33.874  35.883  27.887  1.00  0.00    -0.237 OA
ATOM     74  O   UNL A   1      32.752  33.696  27.746  1.00  0.00    -0.744 OA
ENDBRANCH  70  71
ENDBRANCH  42  65
BRANCH  54  75
ATOM     75  C   UNL A   1      39.895  34.088  36.987  1.00  0.00    -0.014 A 
ATOM     76  C   UNL A   1      39.133  33.808  38.136  1.00  0.00     0.010 A 
ATOM     77  C   UNL A   1      40.512  35.348  36.865  1.00  0.00     0.010 A 
ATOM     78  C   UNL A   1      38.967  34.780  39.128  1.00  0.00     0.020 A 
ATOM     79  C   UNL A   1      40.368  36.312  37.865  1.00  0.00     0.020 A 
ATOM     80  C   UNL A   1      39.584  36.026  38.985  1.00  0.00     0.054 A 
BRANCH  80  81
ATOM     81  S   UNL A   1      39.391  37.256  40.306  1.00  0.00     0.124 S 
ATOM     82  O   UNL A   1      38.640  38.311  39.631  1.00  0.00    -0.237 OA
ATOM     83  O   UNL A   1      38.656  36.518  41.331  1.00  0.00    -0.237 OA
ATOM     84  O   UNL A   1      40.766  37.601  40.662  1.00  0.00    -0.744 OA
ENDBRANCH  80  81
ENDBRANCH  54  75
ENDBRANCH  28  29
ENDBRANCH  21  23
ENDBRANCH  20  21
ENDBRANCH  19  20
ENDBRANCH  18  19
ENDBRANCH   1  18
TORSDOF 20
ENDMDL
