MODEL 1
REMARK VINA RESULT:     -10.6      0.000      0.000
REMARK SMILES O=C(OCCOC(=O)[C@@H]1CCCCN1c1ccccc1[N+](=O)[O-])c1ccc(-c2c3nc(c(-c4ccc(S(=O)(=O)[O-])cc4)c4ccc([nH]4)c(-c4ccc(S(=O)(=O)[O-])cc4)c4nc(c(-c5ccc(S(=O)(=O)[O-])cc5)c5ccc2[nH]5)C=C4)C=C3)cc1
REMARK SMILES IDX 4 1 3 2 2 3 1 4 24 5 25 6 83 7 26 8 82 9 27 10 28 11 29 12
REMARK SMILES IDX 76 13 30 14 81 15 75 16 77 17 31 18 80 19 74 20 73 21 32 23
REMARK SMILES IDX 62 24 43 25 61 26 44 27 47 28 60 29 78 30 45 31 46 32 59 34
REMARK SMILES IDX 79 35 48 36 33 37 34 38 42 39 35 40 41 41 36 42 37 43 38 44
REMARK SMILES IDX 39 45 40 46 63 47 64 48 72 49 65 50 71 51 66 52 67 53 68 54
REMARK SMILES IDX 69 55 70 56 49 57 50 58 58 59 51 60 57 61 52 62 53 63 54 64
REMARK SMILES IDX 55 65 56 66 5 67 6 68 7 69 8 70 9 71 10 72 14 73 11 74 13 75
REMARK SMILES IDX 12 76 15 77 16 78 20 79 17 80 19 81 18 82 21 83 22 84 23 85
REMARK H PARENT 77 22 47 33
REMARK Flexibility Score: inf
ROOT
ATOM      1  C   UNL A   1      34.135  28.319  26.520  1.00  0.00     0.275 C 
ENDROOT
BRANCH   1   2
ATOM      2  O   UNL A   1      33.832  29.637  26.996  1.00  0.00    -0.458 OA
BRANCH   2   3
ATOM      3  C   UNL A   1      34.540  30.415  27.851  1.00  0.00     0.338 C 
ATOM      4  O   UNL A   1      34.100  31.531  28.122  1.00  0.00    -0.246 OA
BRANCH   3   5
ATOM      5  C   UNL A   1      35.909  30.062  28.350  1.00  0.00     0.060 A 
ATOM      6  C   UNL A   1      36.246  29.599  29.630  1.00  0.00     0.016 A 
ATOM      7  C   UNL A   1      36.941  30.176  27.405  1.00  0.00     0.016 A 
ATOM      8  C   UNL A   1      37.533  29.119  29.919  1.00  0.00     0.010 A 
ATOM      9  C   UNL A   1      38.226  29.703  27.689  1.00  0.00     0.010 A 
ATOM     10  C   UNL A   1      38.522  29.130  28.937  1.00  0.00    -0.014 A 
BRANCH  10  11
ATOM     11  C   UNL A   1      39.908  28.686  29.214  1.00  0.00     0.031 A 
ATOM     12  C   UNL A   1      40.849  29.722  29.751  1.00  0.00     0.074 A 
ATOM     13  C   UNL A   1      40.351  27.449  28.905  1.00  0.00     0.049 A 
ATOM     14  N   UNL A   1      42.143  29.673  29.901  1.00  0.00    -0.248 NA
ATOM     15  C   UNL A   1      40.240  31.014  30.114  1.00  0.00     0.031 C 
ATOM     16  C   UNL A   1      39.543  26.355  28.362  1.00  0.00     0.029 A 
ATOM     17  N   UNL A   1      41.618  26.917  28.967  1.00  0.00    -0.354 N 
ATOM     18  C   UNL A   1      42.503  30.941  30.335  1.00  0.00     0.074 A 
ATOM     19  C   UNL A   1      41.310  31.756  30.326  1.00  0.00     0.031 C 
ATOM     20  C   UNL A   1      40.340  25.304  28.093  1.00  0.00     0.029 A 
ATOM     21  C   UNL A   1      41.714  25.641  28.455  1.00  0.00     0.049 A 
ATOM     22  H   UNL A   1      42.386  27.403  29.342  1.00  0.00     0.167 HD
ATOM     23  C   UNL A   1      43.709  31.382  30.759  1.00  0.00     0.031 A 
ATOM     24  C   UNL A   1      42.792  24.843  28.299  1.00  0.00     0.031 A 
ATOM     25  C   UNL A   1      44.876  30.555  30.804  1.00  0.00     0.049 A 
ATOM     26  C   UNL A   1      44.133  25.337  28.787  1.00  0.00     0.074 A 
ATOM     27  C   UNL A   1      46.136  30.862  31.276  1.00  0.00     0.029 A 
ATOM     28  N   UNL A   1      44.912  29.240  30.362  1.00  0.00    -0.354 N 
ATOM     29  N   UNL A   1      44.442  26.510  29.289  1.00  0.00    -0.248 NA
ATOM     30  C   UNL A   1      45.260  24.394  28.724  1.00  0.00     0.031 C 
ATOM     31  C   UNL A   1      46.943  29.731  31.102  1.00  0.00     0.029 A 
ATOM     32  C   UNL A   1      46.173  28.713  30.556  1.00  0.00     0.049 A 
ATOM     33  H   UNL A   1      44.151  28.754  29.969  1.00  0.00     0.167 HD
ATOM     34  C   UNL A   1      45.784  26.427  29.650  1.00  0.00     0.074 A 
ATOM     35  C   UNL A   1      46.231  25.096  29.296  1.00  0.00     0.031 C 
ATOM     36  C   UNL A   1      46.570  27.365  30.233  1.00  0.00     0.031 A 
BRANCH  23  37
ATOM     37  C   UNL A   1      43.765  32.816  31.203  1.00  0.00    -0.014 A 
ATOM     38  C   UNL A   1      44.162  33.827  30.305  1.00  0.00     0.010 A 
ATOM     39  C   UNL A   1      43.563  33.138  32.554  1.00  0.00     0.010 A 
ATOM     40  C   UNL A   1      44.474  35.103  30.773  1.00  0.00     0.020 A 
ATOM     41  C   UNL A   1      43.836  34.427  33.020  1.00  0.00     0.020 A 
ATOM     42  C   UNL A   1      44.335  35.386  32.133  1.00  0.00     0.054 A 
BRANCH  42  43
ATOM     43  S   UNL A   1      44.848  37.017  32.736  1.00  0.00     0.124 S 
ATOM     44  O   UNL A   1      43.758  37.866  32.256  1.00  0.00    -0.237 OA
ATOM     45  O   UNL A   1      44.909  36.829  34.178  1.00  0.00    -0.237 OA
ATOM     46  O   UNL A   1      46.139  37.233  32.080  1.00  0.00    -0.744 OA
ENDBRANCH  42  43
ENDBRANCH  23  37
BRANCH  24  47
ATOM     47  C   UNL A   1      42.651  23.482  27.704  1.00  0.00    -0.014 A 
ATOM     48  C   UNL A   1      42.153  22.415  28.475  1.00  0.00     0.010 A 
ATOM     49  C   UNL A   1      43.018  23.238  26.368  1.00  0.00     0.010 A 
ATOM     50  C   UNL A   1      42.047  21.130  27.931  1.00  0.00     0.020 A 
ATOM     51  C   UNL A   1      42.896  21.956  25.814  1.00  0.00     0.020 A 
ATOM     52  C   UNL A   1      42.420  20.907  26.603  1.00  0.00     0.054 A 
BRANCH  52  53
ATOM     53  S   UNL A   1      42.243  19.234  25.916  1.00  0.00     0.124 S 
ATOM     54  O   UNL A   1      40.802  19.143  25.704  1.00  0.00    -0.237 OA
ATOM     55  O   UNL A   1      43.056  19.306  24.705  1.00  0.00    -0.237 OA
ATOM     56  O   UNL A   1      42.775  18.372  26.969  1.00  0.00    -0.744 OA
ENDBRANCH  52  53
ENDBRANCH  24  47
BRANCH  36  57
ATOM     57  C   UNL A   1      47.976  26.985  30.605  1.00  0.00    -0.014 A 
ATOM     58  C   UNL A   1      49.063  27.349  29.795  1.00  0.00     0.010 A 
ATOM     59  C   UNL A   1      48.213  26.419  31.871  1.00  0.00     0.010 A 
ATOM     60  C   UNL A   1      50.370  27.176  30.258  1.00  0.00     0.020 A 
ATOM     61  C   UNL A   1      49.517  26.264  32.345  1.00  0.00     0.020 A 
ATOM     62  C   UNL A   1      50.587  26.651  31.538  1.00  0.00     0.054 A 
BRANCH  62  63
ATOM     63  S   UNL A   1      52.283  26.580  32.176  1.00  0.00     0.124 S 
ATOM     64  O   UNL A   1      52.856  25.484  31.399  1.00  0.00    -0.237 OA
ATOM     65  O   UNL A   1      52.800  27.910  31.863  1.00  0.00    -0.237 OA
ATOM     66  O   UNL A   1      52.106  26.308  33.601  1.00  0.00    -0.744 OA
ENDBRANCH  62  63
ENDBRANCH  36  57
ENDBRANCH  10  11
ENDBRANCH   3   5
ENDBRANCH   2   3
ENDBRANCH   1   2
BRANCH   1  67
ATOM     67  C   UNL A   1      32.927  27.382  26.467  1.00  0.00     0.274 C 
BRANCH  67  68
ATOM     68  O   UNL A   1      33.282  26.007  26.236  1.00  0.00    -0.461 OA
BRANCH  68  69
ATOM     69  C   UNL A   1      32.223  25.132  26.220  1.00  0.00     0.328 C 
ATOM     70  O   UNL A   1      31.317  25.186  27.048  1.00  0.00    -0.250 OA
BRANCH  69  71
ATOM     71  C   UNL A   1      32.365  24.032  25.120  1.00  0.00     0.192 C 
ATOM     72  C   UNL A   1      33.808  23.731  24.738  1.00  0.00     0.037 C 
ATOM     73  N   UNL A   1      31.659  24.295  23.848  1.00  0.00    -0.353 N 
ATOM     74  C   UNL A   1      33.944  22.632  23.680  1.00  0.00     0.005 C 
ATOM     75  C   UNL A   1      31.644  23.224  22.858  1.00  0.00     0.118 C 
ATOM     76  C   UNL A   1      33.082  22.908  22.452  1.00  0.00     0.022 C 
BRANCH  73  77
ATOM     77  C   UNL A   1      31.110  25.525  23.582  1.00  0.00     0.116 A 
ATOM     78  C   UNL A   1      29.778  25.777  23.953  1.00  0.00     0.033 A 
ATOM     79  C   UNL A   1      31.774  26.524  22.853  1.00  0.00     0.292 A 
ATOM     80  C   UNL A   1      29.127  26.955  23.576  1.00  0.00     0.003 A 
ATOM     81  C   UNL A   1      31.133  27.713  22.474  1.00  0.00     0.088 A 
ATOM     82  C   UNL A   1      29.802  27.918  22.829  1.00  0.00     0.007 A 
BRANCH  79  83
ATOM     83  N   UNL A   1      33.154  26.338  22.423  1.00  0.00     0.064 N 
ATOM     84  O   UNL A   1      33.316  25.891  21.276  1.00  0.00    -0.258 OA
ATOM     85  O   UNL A   1      34.068  26.590  23.221  1.00  0.00    -0.258 OA
ENDBRANCH  79  83
ENDBRANCH  73  77
ENDBRANCH  69  71
ENDBRANCH  68  69
ENDBRANCH  67  68
ENDBRANCH   1  67
TORSDOF 16
ENDMDL
MODEL 2
REMARK VINA RESULT:     -10.5      4.849     10.525
REMARK SMILES O=C(OCCOC(=O)[C@@H]1CCCCN1c1ccccc1[N+](=O)[O-])c1ccc(-c2c3nc(c(-c4ccc(S(=O)(=O)[O-])cc4)c4ccc([nH]4)c(-c4ccc(S(=O)(=O)[O-])cc4)c4nc(c(-c5ccc(S(=O)(=O)[O-])cc5)c5ccc2[nH]5)C=C4)C=C3)cc1
REMARK SMILES IDX 4 1 3 2 2 3 1 4 24 5 25 6 83 7 26 8 82 9 27 10 28 11 29 12
REMARK SMILES IDX 76 13 30 14 81 15 75 16 77 17 31 18 80 19 74 20 73 21 32 23
REMARK SMILES IDX 62 24 43 25 61 26 44 27 47 28 60 29 78 30 45 31 46 32 59 34
REMARK SMILES IDX 79 35 48 36 33 37 34 38 42 39 35 40 41 41 36 42 37 43 38 44
REMARK SMILES IDX 39 45 40 46 63 47 64 48 72 49 65 50 71 51 66 52 67 53 68 54
REMARK SMILES IDX 69 55 70 56 49 57 50 58 58 59 51 60 57 61 52 62 53 63 54 64
REMARK SMILES IDX 55 65 56 66 5 67 6 68 7 69 8 70 9 71 10 72 14 73 11 74 13 75
REMARK SMILES IDX 12 76 15 77 16 78 20 79 17 80 19 81 18 82 21 83 22 84 23 85
REMARK H PARENT 77 22 47 33
REMARK Flexibility Score: inf
ROOT
ATOM      1  C   UNL A   1      38.044  23.628  26.139  1.00  0.00     0.275 C 
ENDROOT
BRANCH   1   2
ATOM      2  O   UNL A   1      39.113  24.568  25.967  1.00  0.00    -0.458 OA
BRANCH   2   3
ATOM      3  C   UNL A   1      40.242  24.716  26.703  1.00  0.00     0.338 C 
ATOM      4  O   UNL A   1      41.119  23.859  26.601  1.00  0.00    -0.246 OA
BRANCH   3   5
ATOM      5  C   UNL A   1      40.410  25.769  27.758  1.00  0.00     0.060 A 
ATOM      6  C   UNL A   1      41.412  26.747  27.820  1.00  0.00     0.016 A 
ATOM      7  C   UNL A   1      39.423  25.781  28.756  1.00  0.00     0.016 A 
ATOM      8  C   UNL A   1      41.353  27.797  28.750  1.00  0.00     0.010 A 
ATOM      9  C   UNL A   1      39.362  26.822  29.688  1.00  0.00     0.010 A 
ATOM     10  C   UNL A   1      40.305  27.864  29.665  1.00  0.00    -0.014 A 
BRANCH  10  11
ATOM     11  C   UNL A   1      40.233  28.922  30.700  1.00  0.00     0.031 A 
ATOM     12  C   UNL A   1      41.081  28.724  31.920  1.00  0.00     0.074 A 
ATOM     13  C   UNL A   1      39.375  29.961  30.619  1.00  0.00     0.049 A 
ATOM     14  N   UNL A   1      41.076  29.373  33.051  1.00  0.00    -0.248 NA
ATOM     15  C   UNL A   1      42.025  27.595  31.867  1.00  0.00     0.031 C 
ATOM     16  C   UNL A   1      38.485  30.259  29.496  1.00  0.00     0.029 A 
ATOM     17  N   UNL A   1      39.083  30.946  31.534  1.00  0.00    -0.354 N 
ATOM     18  C   UNL A   1      41.986  28.702  33.855  1.00  0.00     0.074 A 
ATOM     19  C   UNL A   1      42.442  27.545  33.118  1.00  0.00     0.031 C 
ATOM     20  C   UNL A   1      37.713  31.317  29.807  1.00  0.00     0.029 A 
ATOM     21  C   UNL A   1      38.059  31.783  31.147  1.00  0.00     0.049 A 
ATOM     22  H   UNL A   1      39.562  31.044  32.388  1.00  0.00     0.167 HD
ATOM     23  C   UNL A   1      42.449  29.041  35.079  1.00  0.00     0.031 A 
ATOM     24  C   UNL A   1      37.473  32.806  31.805  1.00  0.00     0.031 A 
ATOM     25  C   UNL A   1      42.022  30.212  35.783  1.00  0.00     0.049 A 
ATOM     26  C   UNL A   1      38.004  33.188  33.166  1.00  0.00     0.074 A 
ATOM     27  C   UNL A   1      42.465  30.702  36.994  1.00  0.00     0.029 A 
ATOM     28  N   UNL A   1      41.049  31.084  35.317  1.00  0.00    -0.354 N 
ATOM     29  N   UNL A   1      38.938  32.600  33.877  1.00  0.00    -0.248 NA
ATOM     30  C   UNL A   1      37.434  34.387  33.797  1.00  0.00     0.031 C 
ATOM     31  C   UNL A   1      41.742  31.868  37.271  1.00  0.00     0.029 A 
ATOM     32  C   UNL A   1      40.878  32.119  36.214  1.00  0.00     0.049 A 
ATOM     33  H   UNL A   1      40.553  30.981  34.473  1.00  0.00     0.167 HD
ATOM     34  C   UNL A   1      39.104  33.387  35.013  1.00  0.00     0.074 A 
ATOM     35  C   UNL A   1      38.165  34.484  34.902  1.00  0.00     0.031 C 
ATOM     36  C   UNL A   1      39.964  33.222  36.047  1.00  0.00     0.031 A 
BRANCH  23  37
ATOM     37  C   UNL A   1      43.467  28.113  35.677  1.00  0.00    -0.014 A 
ATOM     38  C   UNL A   1      44.838  28.274  35.389  1.00  0.00     0.010 A 
ATOM     39  C   UNL A   1      43.046  26.991  36.409  1.00  0.00     0.010 A 
ATOM     40  C   UNL A   1      45.749  27.270  35.715  1.00  0.00     0.020 A 
ATOM     41  C   UNL A   1      43.964  26.002  36.772  1.00  0.00     0.020 A 
ATOM     42  C   UNL A   1      45.300  26.128  36.380  1.00  0.00     0.054 A 
BRANCH  42  43
ATOM     43  S   UNL A   1      46.481  24.789  36.698  1.00  0.00     0.124 S 
ATOM     44  O   UNL A   1      46.743  24.299  35.346  1.00  0.00    -0.237 OA
ATOM     45  O   UNL A   1      47.590  25.477  37.343  1.00  0.00    -0.237 OA
ATOM     46  O   UNL A   1      45.733  23.870  37.559  1.00  0.00    -0.744 OA
ENDBRANCH  42  43
ENDBRANCH  23  37
BRANCH  24  47
ATOM     47  C   UNL A   1      36.360  33.575  31.178  1.00  0.00    -0.014 A 
ATOM     48  C   UNL A   1      36.422  33.942  29.821  1.00  0.00     0.010 A 
ATOM     49  C   UNL A   1      35.232  33.954  31.930  1.00  0.00     0.010 A 
ATOM     50  C   UNL A   1      35.393  34.689  29.235  1.00  0.00     0.020 A 
ATOM     51  C   UNL A   1      34.191  34.687  31.342  1.00  0.00     0.020 A 
ATOM     52  C   UNL A   1      34.284  35.059  30.000  1.00  0.00     0.054 A 
BRANCH  52  53
ATOM     53  S   UNL A   1      32.951  36.004  29.203  1.00  0.00     0.124 S 
ATOM     54  O   UNL A   1      32.127  36.389  30.345  1.00  0.00    -0.237 OA
ATOM     55  O   UNL A   1      33.683  37.092  28.558  1.00  0.00    -0.237 OA
ATOM     56  O   UNL A   1      32.344  35.039  28.290  1.00  0.00    -0.744 OA
ENDBRANCH  52  53
ENDBRANCH  24  47
BRANCH  36  57
ATOM     57  C   UNL A   1      40.003  34.279  37.116  1.00  0.00    -0.014 A 
ATOM     58  C   UNL A   1      40.673  35.494  36.909  1.00  0.00     0.010 A 
ATOM     59  C   UNL A   1      39.203  34.114  38.262  1.00  0.00     0.010 A 
ATOM     60  C   UNL A   1      40.521  36.542  37.820  1.00  0.00     0.020 A 
ATOM     61  C   UNL A   1      39.031  35.166  39.163  1.00  0.00     0.020 A 
ATOM     62  C   UNL A   1      39.687  36.377  38.933  1.00  0.00     0.054 A 
BRANCH  62  63
ATOM     63  S   UNL A   1      39.383  37.799  40.017  1.00  0.00     0.124 S 
ATOM     64  O   UNL A   1      40.593  38.593  39.822  1.00  0.00    -0.237 OA
ATOM     65  O   UNL A   1      38.159  38.370  39.460  1.00  0.00    -0.237 OA
ATOM     66  O   UNL A   1      39.236  37.200  41.341  1.00  0.00    -0.744 OA
ENDBRANCH  62  63
ENDBRANCH  36  57
ENDBRANCH  10  11
ENDBRANCH   3   5
ENDBRANCH   2   3
ENDBRANCH   1   2
BRANCH   1  67
ATOM     67  C   UNL A   1      37.090  23.542  24.946  1.00  0.00     0.274 C 
BRANCH  67  68
ATOM     68  O   UNL A   1      35.782  24.072  25.224  1.00  0.00    -0.461 OA
BRANCH  68  69
ATOM     69  C   UNL A   1      34.930  24.099  24.147  1.00  0.00     0.328 C 
ATOM     70  O   UNL A   1      35.275  23.719  23.031  1.00  0.00    -0.250 OA
BRANCH  69  71
ATOM     71  C   UNL A   1      33.550  24.749  24.484  1.00  0.00     0.192 C 
ATOM     72  C   UNL A   1      33.565  25.594  25.751  1.00  0.00     0.037 C 
ATOM     73  N   UNL A   1      32.415  23.814  24.638  1.00  0.00    -0.353 N 
ATOM     74  C   UNL A   1      32.218  26.253  26.063  1.00  0.00     0.005 C 
ATOM     75  C   UNL A   1      31.087  24.395  24.802  1.00  0.00     0.118 C 
ATOM     76  C   UNL A   1      31.075  25.244  26.072  1.00  0.00     0.022 C 
BRANCH  73  77
ATOM     77  C   UNL A   1      32.617  22.457  24.703  1.00  0.00     0.116 A 
ATOM     78  C   UNL A   1      32.419  21.678  23.551  1.00  0.00     0.033 A 
ATOM     79  C   UNL A   1      32.906  21.778  25.897  1.00  0.00     0.292 A 
ATOM     80  C   UNL A   1      32.468  20.282  23.598  1.00  0.00     0.003 A 
ATOM     81  C   UNL A   1      32.964  20.378  25.956  1.00  0.00     0.088 A 
ATOM     82  C   UNL A   1      32.730  19.632  24.802  1.00  0.00     0.007 A 
BRANCH  79  83
ATOM     83  N   UNL A   1      33.117  22.511  27.138  1.00  0.00     0.064 N 
ATOM     84  O   UNL A   1      34.299  22.723  27.457  1.00  0.00    -0.258 OA
ATOM     85  O   UNL A   1      32.132  22.840  27.815  1.00  0.00    -0.258 OA
ENDBRANCH  79  83
ENDBRANCH  73  77
ENDBRANCH  69  71
ENDBRANCH  68  69
ENDBRANCH  67  68
ENDBRANCH   1  67
TORSDOF 16
ENDMDL
MODEL 3
REMARK VINA RESULT:     -10.4      1.166      2.435
REMARK SMILES O=C(OCCOC(=O)[C@@H]1CCCCN1c1ccccc1[N+](=O)[O-])c1ccc(-c2c3nc(c(-c4ccc(S(=O)(=O)[O-])cc4)c4ccc([nH]4)c(-c4ccc(S(=O)(=O)[O-])cc4)c4nc(c(-c5ccc(S(=O)(=O)[O-])cc5)c5ccc2[nH]5)C=C4)C=C3)cc1
REMARK SMILES IDX 4 1 3 2 2 3 1 4 24 5 25 6 83 7 26 8 82 9 27 10 28 11 29 12
REMARK SMILES IDX 76 13 30 14 81 15 75 16 77 17 31 18 80 19 74 20 73 21 32 23
REMARK SMILES IDX 62 24 43 25 61 26 44 27 47 28 60 29 78 30 45 31 46 32 59 34
REMARK SMILES IDX 79 35 48 36 33 37 34 38 42 39 35 40 41 41 36 42 37 43 38 44
REMARK SMILES IDX 39 45 40 46 63 47 64 48 72 49 65 50 71 51 66 52 67 53 68 54
REMARK SMILES IDX 69 55 70 56 49 57 50 58 58 59 51 60 57 61 52 62 53 63 54 64
REMARK SMILES IDX 55 65 56 66 5 67 6 68 7 69 8 70 9 71 10 72 14 73 11 74 13 75
REMARK SMILES IDX 12 76 15 77 16 78 20 79 17 80 19 81 18 82 21 83 22 84 23 85
REMARK H PARENT 77 22 47 33
REMARK Flexibility Score: inf
ROOT
ATOM      1  C   UNL A   1      33.674  28.218  26.902  1.00  0.00     0.275 C 
ENDROOT
BRANCH   1   2
ATOM      2  O   UNL A   1      33.386  29.580  27.249  1.00  0.00    -0.458 OA
BRANCH   2   3
ATOM      3  C   UNL A   1      34.214  30.515  27.777  1.00  0.00     0.338 C 
ATOM      4  O   UNL A   1      33.886  31.697  27.688  1.00  0.00    -0.246 OA
BRANCH   3   5
ATOM      5  C   UNL A   1      35.581  30.204  28.309  1.00  0.00     0.060 A 
ATOM      6  C   UNL A   1      35.902  29.765  29.601  1.00  0.00     0.016 A 
ATOM      7  C   UNL A   1      36.629  30.335  27.385  1.00  0.00     0.016 A 
ATOM      8  C   UNL A   1      37.195  29.323  29.924  1.00  0.00     0.010 A 
ATOM      9  C   UNL A   1      37.920  29.900  27.702  1.00  0.00     0.010 A 
ATOM     10  C   UNL A   1      38.204  29.350  28.963  1.00  0.00    -0.014 A 
BRANCH  10  11
ATOM     11  C   UNL A   1      39.595  28.946  29.275  1.00  0.00     0.031 A 
ATOM     12  C   UNL A   1      40.496  30.012  29.821  1.00  0.00     0.074 A 
ATOM     13  C   UNL A   1      40.078  27.719  28.988  1.00  0.00     0.049 A 
ATOM     14  N   UNL A   1      41.787  30.000  30.000  1.00  0.00    -0.248 NA
ATOM     15  C   UNL A   1      39.844  31.291  30.157  1.00  0.00     0.031 C 
ATOM     16  C   UNL A   1      39.312  26.598  28.439  1.00  0.00     0.029 A 
ATOM     17  N   UNL A   1      41.357  27.221  29.083  1.00  0.00    -0.354 N 
ATOM     18  C   UNL A   1      42.103  31.282  30.428  1.00  0.00     0.074 A 
ATOM     19  C   UNL A   1      40.889  32.064  30.385  1.00  0.00     0.031 C 
ATOM     20  C   UNL A   1      40.143  25.566  28.199  1.00  0.00     0.029 A 
ATOM     21  C   UNL A   1      41.499  25.944  28.587  1.00  0.00     0.049 A 
ATOM     22  H   UNL A   1      42.103  27.733  29.470  1.00  0.00     0.167 HD
ATOM     23  C   UNL A   1      43.287  31.760  30.874  1.00  0.00     0.031 A 
ATOM     24  C   UNL A   1      42.601  25.174  28.463  1.00  0.00     0.031 A 
ATOM     25  C   UNL A   1      44.475  30.965  30.953  1.00  0.00     0.049 A 
ATOM     26  C   UNL A   1      43.917  25.709  28.975  1.00  0.00     0.074 A 
ATOM     27  C   UNL A   1      45.715  31.311  31.449  1.00  0.00     0.029 A 
ATOM     28  N   UNL A   1      44.556  29.647  30.526  1.00  0.00    -0.354 N 
ATOM     29  N   UNL A   1      44.183  26.895  29.472  1.00  0.00    -0.248 NA
ATOM     30  C   UNL A   1      45.070  24.797  28.947  1.00  0.00     0.031 C 
ATOM     31  C   UNL A   1      46.556  30.201  31.305  1.00  0.00     0.029 A 
ATOM     32  C   UNL A   1      45.826  29.157  30.753  1.00  0.00     0.049 A 
ATOM     33  H   UNL A   1      43.817  29.137  30.121  1.00  0.00     0.167 HD
ATOM     34  C   UNL A   1      45.518  26.853  29.863  1.00  0.00     0.074 A 
ATOM     35  C   UNL A   1      46.009  25.530  29.533  1.00  0.00     0.031 C 
ATOM     36  C   UNL A   1      46.266  27.817  30.453  1.00  0.00     0.031 A 
BRANCH  23  37
ATOM     37  C   UNL A   1      43.295  33.199  31.303  1.00  0.00    -0.014 A 
ATOM     38  C   UNL A   1      43.686  34.211  30.404  1.00  0.00     0.010 A 
ATOM     39  C   UNL A   1      43.051  33.529  32.646  1.00  0.00     0.010 A 
ATOM     40  C   UNL A   1      43.953  35.500  30.866  1.00  0.00     0.020 A 
ATOM     41  C   UNL A   1      43.279  34.829  33.104  1.00  0.00     0.020 A 
ATOM     42  C   UNL A   1      43.773  35.792  32.219  1.00  0.00     0.054 A 
BRANCH  42  43
ATOM     43  S   UNL A   1      44.229  37.443  32.817  1.00  0.00     0.124 S 
ATOM     44  O   UNL A   1      43.220  37.672  33.851  1.00  0.00    -0.237 OA
ATOM     45  O   UNL A   1      45.590  37.253  33.298  1.00  0.00    -0.237 OA
ATOM     46  O   UNL A   1      44.101  38.285  31.626  1.00  0.00    -0.744 OA
ENDBRANCH  42  43
ENDBRANCH  23  37
BRANCH  24  47
ATOM     47  C   UNL A   1      42.510  23.804  27.880  1.00  0.00    -0.014 A 
ATOM     48  C   UNL A   1      42.704  23.600  26.502  1.00  0.00     0.010 A 
ATOM     49  C   UNL A   1      42.220  22.693  28.694  1.00  0.00     0.010 A 
ATOM     50  C   UNL A   1      42.589  22.320  25.945  1.00  0.00     0.020 A 
ATOM     51  C   UNL A   1      42.123  21.407  28.144  1.00  0.00     0.020 A 
ATOM     52  C   UNL A   1      42.298  21.231  26.770  1.00  0.00     0.054 A 
BRANCH  52  53
ATOM     53  S   UNL A   1      42.184  19.578  26.023  1.00  0.00     0.124 S 
ATOM     54  O   UNL A   1      43.103  19.690  24.895  1.00  0.00    -0.237 OA
ATOM     55  O   UNL A   1      42.626  18.712  27.113  1.00  0.00    -0.237 OA
ATOM     56  O   UNL A   1      40.772  19.457  25.670  1.00  0.00    -0.744 OA
ENDBRANCH  52  53
ENDBRANCH  24  47
BRANCH  36  57
ATOM     57  C   UNL A   1      47.673  27.479  30.859  1.00  0.00    -0.014 A 
ATOM     58  C   UNL A   1      47.944  26.870  32.095  1.00  0.00     0.010 A 
ATOM     59  C   UNL A   1      48.703  27.608  29.909  1.00  0.00     0.010 A 
ATOM     60  C   UNL A   1      49.221  26.371  32.365  1.00  0.00     0.020 A 
ATOM     61  C   UNL A   1      49.974  27.091  30.167  1.00  0.00     0.020 A 
ATOM     62  C   UNL A   1      50.223  26.470  31.392  1.00  0.00     0.054 A 
BRANCH  62  63
ATOM     63  S   UNL A   1      51.825  25.679  31.704  1.00  0.00     0.124 S 
ATOM     64  O   UNL A   1      52.285  26.385  32.897  1.00  0.00    -0.237 OA
ATOM     65  O   UNL A   1      51.457  24.279  31.904  1.00  0.00    -0.237 OA
ATOM     66  O   UNL A   1      52.586  25.948  30.487  1.00  0.00    -0.744 OA
ENDBRANCH  62  63
ENDBRANCH  36  57
ENDBRANCH  10  11
ENDBRANCH   3   5
ENDBRANCH   2   3
ENDBRANCH   1   2
BRANCH   1  67
ATOM     67  C   UNL A   1      33.701  27.950  25.396  1.00  0.00     0.274 C 
BRANCH  67  68
ATOM     68  O   UNL A   1      33.736  26.550  25.067  1.00  0.00    -0.461 OA
BRANCH  68  69
ATOM     69  C   UNL A   1      32.815  26.154  24.128  1.00  0.00     0.328 C 
ATOM     70  O   UNL A   1      32.777  26.646  23.003  1.00  0.00    -0.250 OA
BRANCH  69  71
ATOM     71  C   UNL A   1      31.793  25.114  24.685  1.00  0.00     0.192 C 
ATOM     72  C   UNL A   1      31.230  25.479  26.052  1.00  0.00     0.037 C 
ATOM     73  N   UNL A   1      32.286  23.726  24.811  1.00  0.00    -0.353 N 
ATOM     74  C   UNL A   1      30.206  24.470  26.582  1.00  0.00     0.005 C 
ATOM     75  C   UNL A   1      31.316  22.701  25.182  1.00  0.00     0.118 C 
ATOM     76  C   UNL A   1      30.742  23.043  26.556  1.00  0.00     0.022 C 
BRANCH  73  77
ATOM     77  C   UNL A   1      33.619  23.430  24.662  1.00  0.00     0.116 A 
ATOM     78  C   UNL A   1      34.475  23.546  25.772  1.00  0.00     0.033 A 
ATOM     79  C   UNL A   1      34.207  23.122  23.426  1.00  0.00     0.292 A 
ATOM     80  C   UNL A   1      35.859  23.400  25.642  1.00  0.00     0.003 A 
ATOM     81  C   UNL A   1      35.594  22.968  23.285  1.00  0.00     0.088 A 
ATOM     82  C   UNL A   1      36.419  23.121  24.397  1.00  0.00     0.007 A 
BRANCH  79  83
ATOM     83  N   UNL A   1      33.392  22.992  22.226  1.00  0.00     0.064 N 
ATOM     84  O   UNL A   1      33.491  23.908  21.393  1.00  0.00    -0.258 OA
ATOM     85  O   UNL A   1      32.629  22.021  22.122  1.00  0.00    -0.258 OA
ENDBRANCH  79  83
ENDBRANCH  73  77
ENDBRANCH  69  71
ENDBRANCH  68  69
ENDBRANCH  67  68
ENDBRANCH   1  67
TORSDOF 16
ENDMDL
