MODEL 1
REMARK VINA RESULT:     -11.1      0.000      0.000
REMARK SMILES C[C@@H](C(=O)OCCOC(=O)c1ccc(-c2c3nc(c(-c4ccc(S(=O)(=O)[O-])cc4)c4ccc([nH]4)c(-c4ccc(S(=O)(=O)[O-])cc4)c4nc(c(-c5ccc(S(=O)(=O)[O-])cc5)c5ccc2[nH]5)C=C4)C=C3)cc1)c1ccc(C[C@H]2CCC[C@@H]2O)cc1
REMARK SMILES IDX 6 1 5 2 3 3 4 4 2 5 1 6 71 7 72 8 83 9 73 10 82 11 74 12
REMARK SMILES IDX 75 13 76 14 77 15 80 16 78 17 79 18 81 19 7 21 8 22 9 23
REMARK SMILES IDX 10 24 11 25 12 26 70 27 13 28 69 29 14 30 15 31 16 32 63 33
REMARK SMILES IDX 17 34 68 35 62 36 64 37 18 38 67 39 61 40 60 41 19 43 49 44
REMARK SMILES IDX 30 45 48 46 31 47 34 48 47 49 65 50 32 51 33 52 46 54 66 55
REMARK SMILES IDX 35 56 20 57 21 58 29 59 22 60 28 61 23 62 24 63 25 64 26 65
REMARK SMILES IDX 27 66 50 67 51 68 59 69 52 70 58 71 53 72 54 73 55 74 56 75
REMARK SMILES IDX 57 76 36 77 37 78 45 79 38 80 44 81 39 82 40 83 41 84 42 85
REMARK SMILES IDX 43 86
REMARK H PARENT 81 20 64 42 34 53
REMARK Flexibility Score: inf
ROOT
ATOM      1  C   UNL A   1      37.920  22.276  25.615  1.00  0.00     0.274 C 
ENDROOT
BRANCH   1   2
ATOM      2  O   UNL A   1      37.458  23.407  24.847  1.00  0.00    -0.462 OA
BRANCH   2   3
ATOM      3  C   UNL A   1      36.479  23.162  23.931  1.00  0.00     0.313 C 
ATOM      4  O   UNL A   1      36.699  22.949  22.744  1.00  0.00    -0.252 OA
BRANCH   3   5
ATOM      5  C   UNL A   1      35.066  23.247  24.536  1.00  0.00     0.126 C 
ATOM      6  C   UNL A   1      34.191  22.043  24.166  1.00  0.00     0.025 C 
BRANCH   5   7
ATOM      7  C   UNL A   1      34.408  24.603  24.269  1.00  0.00    -0.034 A 
ATOM      8  C   UNL A   1      33.996  24.918  22.963  1.00  0.00     0.005 A 
ATOM      9  C   UNL A   1      34.159  25.552  25.272  1.00  0.00     0.005 A 
ATOM     10  C   UNL A   1      33.324  26.110  22.677  1.00  0.00     0.004 A 
ATOM     11  C   UNL A   1      33.516  26.763  24.978  1.00  0.00     0.004 A 
ATOM     12  C   UNL A   1      33.084  27.055  23.678  1.00  0.00    -0.048 A 
BRANCH  12  13
ATOM     13  C   UNL A   1      32.288  28.313  23.398  1.00  0.00     0.041 C 
BRANCH  13  14
ATOM     14  C   UNL A   1      30.926  28.152  22.707  1.00  0.00     0.022 C 
ATOM     15  C   UNL A   1      29.941  27.188  23.390  1.00  0.00     0.007 C 
ATOM     16  C   UNL A   1      30.146  29.456  22.499  1.00  0.00     0.117 C 
ATOM     17  C   UNL A   1      28.613  27.939  23.474  1.00  0.00     0.003 C 
ATOM     18  C   UNL A   1      28.701  28.996  22.387  1.00  0.00     0.032 C 
BRANCH  16  19
ATOM     19  O   UNL A   1      30.575  30.118  21.326  1.00  0.00    -0.393 OA
ATOM     20  H   UNL A   1      31.537  30.244  21.359  1.00  0.00     0.210 HD
ENDBRANCH  16  19
ENDBRANCH  13  14
ENDBRANCH  12  13
ENDBRANCH   5   7
ENDBRANCH   3   5
ENDBRANCH   2   3
ENDBRANCH   1   2
BRANCH   1  21
ATOM     21  C   UNL A   1      39.137  22.676  26.442  1.00  0.00     0.275 C 
BRANCH  21  22
ATOM     22  O   UNL A   1      39.128  24.101  26.634  1.00  0.00    -0.458 OA
BRANCH  22  23
ATOM     23  C   UNL A   1      40.339  24.706  26.656  1.00  0.00     0.338 C 
ATOM     24  O   UNL A   1      41.243  24.577  25.850  1.00  0.00    -0.246 OA
BRANCH  23  25
ATOM     25  C   UNL A   1      40.429  25.575  27.846  1.00  0.00     0.060 A 
ATOM     26  C   UNL A   1      39.348  25.688  28.712  1.00  0.00     0.016 A 
ATOM     27  C   UNL A   1      41.564  26.364  28.043  1.00  0.00     0.016 A 
ATOM     28  C   UNL A   1      39.368  26.656  29.717  1.00  0.00     0.010 A 
ATOM     29  C   UNL A   1      41.606  27.276  29.107  1.00  0.00     0.010 A 
ATOM     30  C   UNL A   1      40.486  27.476  29.932  1.00  0.00    -0.014 A 
BRANCH  30  31
ATOM     31  C   UNL A   1      40.447  28.578  30.947  1.00  0.00     0.031 A 
ATOM     32  C   UNL A   1      41.492  28.647  32.041  1.00  0.00     0.074 A 
ATOM     33  C   UNL A   1      39.525  29.564  30.888  1.00  0.00     0.049 A 
ATOM     34  N   UNL A   1      41.514  29.390  33.120  1.00  0.00    -0.248 NA
ATOM     35  C   UNL A   1      42.656  27.755  31.913  1.00  0.00     0.031 C 
ATOM     36  C   UNL A   1      38.488  29.705  29.864  1.00  0.00     0.029 A 
ATOM     37  N   UNL A   1      39.333  30.659  31.699  1.00  0.00    -0.354 N 
ATOM     38  C   UNL A   1      42.635  28.990  33.841  1.00  0.00     0.074 A 
ATOM     39  C   UNL A   1      43.281  27.953  33.065  1.00  0.00     0.031 C 
ATOM     40  C   UNL A   1      37.830  30.858  30.058  1.00  0.00     0.029 A 
ATOM     41  C   UNL A   1      38.314  31.484  31.283  1.00  0.00     0.049 A 
ATOM     42  H   UNL A   1      39.874  30.836  32.501  1.00  0.00     0.167 HD
ATOM     43  C   UNL A   1      43.080  29.433  35.042  1.00  0.00     0.031 A 
ATOM     44  C   UNL A   1      37.787  32.595  31.837  1.00  0.00     0.031 A 
ATOM     45  C   UNL A   1      42.490  30.518  35.783  1.00  0.00     0.049 A 
ATOM     46  C   UNL A   1      38.295  33.075  33.166  1.00  0.00     0.074 A 
ATOM     47  C   UNL A   1      42.866  31.024  37.017  1.00  0.00     0.029 A 
ATOM     48  N   UNL A   1      41.428  31.290  35.344  1.00  0.00    -0.354 N 
ATOM     49  N   UNL A   1      39.268  32.593  33.900  1.00  0.00    -0.248 NA
ATOM     50  C   UNL A   1      37.603  34.228  33.763  1.00  0.00     0.031 C 
ATOM     51  C   UNL A   1      42.013  32.085  37.336  1.00  0.00     0.029 A 
ATOM     52  C   UNL A   1      41.133  32.266  36.281  1.00  0.00     0.049 A 
ATOM     53  H   UNL A   1      40.952  31.164  34.491  1.00  0.00     0.167 HD
ATOM     54  C   UNL A   1      39.298  33.376  35.048  1.00  0.00     0.074 A 
ATOM     55  C   UNL A   1      38.269  34.383  34.899  1.00  0.00     0.031 C 
ATOM     56  C   UNL A   1      40.100  33.257  36.134  1.00  0.00     0.031 A 
BRANCH  43  57
ATOM     57  C   UNL A   1      44.238  28.701  35.668  1.00  0.00    -0.014 A 
ATOM     58  C   UNL A   1      45.568  29.109  35.472  1.00  0.00     0.010 A 
ATOM     59  C   UNL A   1      43.975  27.601  36.508  1.00  0.00     0.010 A 
ATOM     60  C   UNL A   1      46.617  28.408  36.075  1.00  0.00     0.020 A 
ATOM     61  C   UNL A   1      45.019  26.913  37.132  1.00  0.00     0.020 A 
ATOM     62  C   UNL A   1      46.336  27.309  36.895  1.00  0.00     0.054 A 
BRANCH  62  63
ATOM     63  S   UNL A   1      47.711  26.424  37.681  1.00  0.00     0.124 S 
ATOM     64  O   UNL A   1      47.105  25.128  37.973  1.00  0.00    -0.237 OA
ATOM     65  O   UNL A   1      48.733  26.417  36.636  1.00  0.00    -0.237 OA
ATOM     66  O   UNL A   1      48.027  27.242  38.849  1.00  0.00    -0.744 OA
ENDBRANCH  62  63
ENDBRANCH  43  57
BRANCH  44  67
ATOM     67  C   UNL A   1      36.659  33.293  31.160  1.00  0.00    -0.014 A 
ATOM     68  C   UNL A   1      36.817  33.816  29.865  1.00  0.00     0.010 A 
ATOM     69  C   UNL A   1      35.412  33.416  31.801  1.00  0.00     0.010 A 
ATOM     70  C   UNL A   1      35.747  34.446  29.222  1.00  0.00     0.020 A 
ATOM     71  C   UNL A   1      34.334  34.018  31.150  1.00  0.00     0.020 A 
ATOM     72  C   UNL A   1      34.510  34.538  29.867  1.00  0.00     0.054 A 
BRANCH  72  73
ATOM     73  S   UNL A   1      33.104  35.276  28.988  1.00  0.00     0.124 S 
ATOM     74  O   UNL A   1      32.738  34.214  28.056  1.00  0.00    -0.237 OA
ATOM     75  O   UNL A   1      32.148  35.531  30.063  1.00  0.00    -0.237 OA
ATOM     76  O   UNL A   1      33.678  36.475  28.381  1.00  0.00    -0.744 OA
ENDBRANCH  72  73
ENDBRANCH  44  67
BRANCH  56  77
ATOM     77  C   UNL A   1      39.898  34.244  37.251  1.00  0.00    -0.014 A 
ATOM     78  C   UNL A   1      39.067  33.936  38.344  1.00  0.00     0.010 A 
ATOM     79  C   UNL A   1      40.577  35.475  37.229  1.00  0.00     0.010 A 
ATOM     80  C   UNL A   1      38.895  34.855  39.382  1.00  0.00     0.020 A 
ATOM     81  C   UNL A   1      40.421  36.390  38.276  1.00  0.00     0.020 A 
ATOM     82  C   UNL A   1      39.570  36.080  39.339  1.00  0.00     0.054 A 
BRANCH  82  83
ATOM     83  S   UNL A   1      39.359  37.246  40.713  1.00  0.00     0.124 S 
ATOM     84  O   UNL A   1      38.875  36.374  41.779  1.00  0.00    -0.237 OA
ATOM     85  O   UNL A   1      40.708  37.776  40.899  1.00  0.00    -0.237 OA
ATOM     86  O   UNL A   1      38.385  38.208  40.203  1.00  0.00    -0.744 OA
ENDBRANCH  82  83
ENDBRANCH  56  77
ENDBRANCH  30  31
ENDBRANCH  23  25
ENDBRANCH  22  23
ENDBRANCH  21  22
ENDBRANCH   1  21
TORSDOF 18
ENDMDL
MODEL 2
REMARK VINA RESULT:     -11.0      5.279     11.065
REMARK SMILES C[C@@H](C(=O)OCCOC(=O)c1ccc(-c2c3nc(c(-c4ccc(S(=O)(=O)[O-])cc4)c4ccc([nH]4)c(-c4ccc(S(=O)(=O)[O-])cc4)c4nc(c(-c5ccc(S(=O)(=O)[O-])cc5)c5ccc2[nH]5)C=C4)C=C3)cc1)c1ccc(C[C@H]2CCC[C@@H]2O)cc1
REMARK SMILES IDX 6 1 5 2 3 3 4 4 2 5 1 6 71 7 72 8 83 9 73 10 82 11 74 12
REMARK SMILES IDX 75 13 76 14 77 15 80 16 78 17 79 18 81 19 7 21 8 22 9 23
REMARK SMILES IDX 10 24 11 25 12 26 70 27 13 28 69 29 14 30 15 31 16 32 63 33
REMARK SMILES IDX 17 34 68 35 62 36 64 37 18 38 67 39 61 40 60 41 19 43 49 44
REMARK SMILES IDX 30 45 48 46 31 47 34 48 47 49 65 50 32 51 33 52 46 54 66 55
REMARK SMILES IDX 35 56 20 57 21 58 29 59 22 60 28 61 23 62 24 63 25 64 26 65
REMARK SMILES IDX 27 66 50 67 51 68 59 69 52 70 58 71 53 72 54 73 55 74 56 75
REMARK SMILES IDX 57 76 36 77 37 78 45 79 38 80 44 81 39 82 40 83 41 84 42 85
REMARK SMILES IDX 43 86
REMARK H PARENT 81 20 64 42 34 53
REMARK Flexibility Score: inf
ROOT
ATOM      1  C   UNL A   1      33.628  27.670  25.408  1.00  0.00     0.274 C 
ENDROOT
BRANCH   1   2
ATOM      2  O   UNL A   1      32.740  26.607  25.001  1.00  0.00    -0.462 OA
BRANCH   2   3
ATOM      3  C   UNL A   1      32.590  26.420  23.660  1.00  0.00     0.313 C 
ATOM      4  O   UNL A   1      33.044  27.184  22.815  1.00  0.00    -0.252 OA
BRANCH   3   5
ATOM      5  C   UNL A   1      31.735  25.185  23.324  1.00  0.00     0.126 C 
ATOM      6  C   UNL A   1      30.293  25.308  23.830  1.00  0.00     0.025 C 
BRANCH   5   7
ATOM      7  C   UNL A   1      32.429  23.881  23.724  1.00  0.00    -0.034 A 
ATOM      8  C   UNL A   1      31.693  22.897  24.405  1.00  0.00     0.005 A 
ATOM      9  C   UNL A   1      33.767  23.591  23.418  1.00  0.00     0.005 A 
ATOM     10  C   UNL A   1      32.256  21.658  24.729  1.00  0.00     0.004 A 
ATOM     11  C   UNL A   1      34.341  22.363  23.774  1.00  0.00     0.004 A 
ATOM     12  C   UNL A   1      33.591  21.377  24.428  1.00  0.00    -0.048 A 
BRANCH  12  13
ATOM     13  C   UNL A   1      34.190  20.012  24.701  1.00  0.00     0.041 C 
BRANCH  13  14
ATOM     14  C   UNL A   1      33.280  18.789  24.516  1.00  0.00     0.022 C 
ATOM     15  C   UNL A   1      33.473  18.005  23.208  1.00  0.00     0.007 C 
ATOM     16  C   UNL A   1      33.362  17.745  25.637  1.00  0.00     0.117 C 
ATOM     17  C   UNL A   1      33.575  16.535  23.613  1.00  0.00     0.003 C 
ATOM     18  C   UNL A   1      32.891  16.464  24.968  1.00  0.00     0.032 C 
BRANCH  16  19
ATOM     19  O   UNL A   1      32.530  18.103  26.722  1.00  0.00    -0.393 OA
ATOM     20  H   UNL A   1      31.624  17.803  26.548  1.00  0.00     0.210 HD
ENDBRANCH  16  19
ENDBRANCH  13  14
ENDBRANCH  12  13
ENDBRANCH   5   7
ENDBRANCH   3   5
ENDBRANCH   2   3
ENDBRANCH   1   2
BRANCH   1  21
ATOM     21  C   UNL A   1      32.949  28.531  26.468  1.00  0.00     0.275 C 
BRANCH  21  22
ATOM     22  O   UNL A   1      33.820  28.649  27.606  1.00  0.00    -0.458 OA
BRANCH  22  23
ATOM     23  C   UNL A   1      34.272  29.895  27.884  1.00  0.00     0.338 C 
ATOM     24  O   UNL A   1      33.627  30.927  27.895  1.00  0.00    -0.246 OA
BRANCH  23  25
ATOM     25  C   UNL A   1      35.718  29.837  28.174  1.00  0.00     0.060 A 
ATOM     26  C   UNL A   1      36.642  30.185  27.196  1.00  0.00     0.016 A 
ATOM     27  C   UNL A   1      36.159  29.333  29.399  1.00  0.00     0.016 A 
ATOM     28  C   UNL A   1      37.998  29.940  27.410  1.00  0.00     0.010 A 
ATOM     29  C   UNL A   1      37.531  29.168  29.635  1.00  0.00     0.010 A 
ATOM     30  C   UNL A   1      38.473  29.420  28.623  1.00  0.00    -0.014 A 
BRANCH  30  31
ATOM     31  C   UNL A   1      39.920  29.066  28.795  1.00  0.00     0.031 A 
ATOM     32  C   UNL A   1      40.880  30.055  29.423  1.00  0.00     0.074 A 
ATOM     33  C   UNL A   1      40.398  27.851  28.450  1.00  0.00     0.049 A 
ATOM     34  N   UNL A   1      42.188  30.023  29.472  1.00  0.00    -0.248 NA
ATOM     35  C   UNL A   1      40.292  31.241  30.067  1.00  0.00     0.031 C 
ATOM     36  C   UNL A   1      39.610  26.746  27.900  1.00  0.00     0.029 A 
ATOM     37  N   UNL A   1      41.669  27.329  28.542  1.00  0.00    -0.354 N 
ATOM     38  C   UNL A   1      42.581  31.220  30.062  1.00  0.00     0.074 A 
ATOM     39  C   UNL A   1      41.370  31.948  30.376  1.00  0.00     0.031 C 
ATOM     40  C   UNL A   1      40.390  25.660  27.787  1.00  0.00     0.029 A 
ATOM     41  C   UNL A   1      41.760  26.017  28.141  1.00  0.00     0.049 A 
ATOM     42  H   UNL A   1      42.440  27.848  28.865  1.00  0.00     0.167 HD
ATOM     43  C   UNL A   1      43.832  31.678  30.310  1.00  0.00     0.031 A 
ATOM     44  C   UNL A   1      42.822  25.195  28.023  1.00  0.00     0.031 A 
ATOM     45  C   UNL A   1      45.039  30.928  30.076  1.00  0.00     0.049 A 
ATOM     46  C   UNL A   1      44.201  25.718  28.306  1.00  0.00     0.074 A 
ATOM     47  C   UNL A   1      46.352  31.321  30.283  1.00  0.00     0.029 A 
ATOM     48  N   UNL A   1      45.082  29.621  29.621  1.00  0.00    -0.354 N 
ATOM     49  N   UNL A   1      44.562  26.904  28.730  1.00  0.00    -0.248 NA
ATOM     50  C   UNL A   1      45.323  24.800  28.053  1.00  0.00     0.031 C 
ATOM     51  C   UNL A   1      47.190  30.259  29.927  1.00  0.00     0.029 A 
ATOM     52  C   UNL A   1      46.397  29.192  29.539  1.00  0.00     0.049 A 
ATOM     53  H   UNL A   1      44.295  29.077  29.391  1.00  0.00     0.167 HD
ATOM     54  C   UNL A   1      45.950  26.879  28.785  1.00  0.00     0.074 A 
ATOM     55  C   UNL A   1      46.365  25.551  28.383  1.00  0.00     0.031 C 
ATOM     56  C   UNL A   1      46.804  27.874  29.125  1.00  0.00     0.031 A 
BRANCH  43  57
ATOM     57  C   UNL A   1      43.969  33.091  30.814  1.00  0.00    -0.014 A 
ATOM     58  C   UNL A   1      44.176  34.174  29.943  1.00  0.00     0.010 A 
ATOM     59  C   UNL A   1      43.846  33.336  32.196  1.00  0.00     0.010 A 
ATOM     60  C   UNL A   1      44.293  35.473  30.449  1.00  0.00     0.020 A 
ATOM     61  C   UNL A   1      43.938  34.635  32.702  1.00  0.00     0.020 A 
ATOM     62  C   UNL A   1      44.181  35.694  31.827  1.00  0.00     0.054 A 
BRANCH  62  63
ATOM     63  S   UNL A   1      44.319  37.389  32.459  1.00  0.00     0.124 S 
ATOM     64  O   UNL A   1      45.766  37.554  32.560  1.00  0.00    -0.237 OA
ATOM     65  O   UNL A   1      43.669  38.180  31.416  1.00  0.00    -0.237 OA
ATOM     66  O   UNL A   1      43.606  37.342  33.733  1.00  0.00    -0.744 OA
ENDBRANCH  62  63
ENDBRANCH  43  57
BRANCH  44  67
ATOM     67  C   UNL A   1      42.624  23.799  27.544  1.00  0.00    -0.014 A 
ATOM     68  C   UNL A   1      42.688  23.498  26.172  1.00  0.00     0.010 A 
ATOM     69  C   UNL A   1      42.395  22.758  28.463  1.00  0.00     0.010 A 
ATOM     70  C   UNL A   1      42.530  22.181  25.729  1.00  0.00     0.020 A 
ATOM     71  C   UNL A   1      42.266  21.438  28.027  1.00  0.00     0.020 A 
ATOM     72  C   UNL A   1      42.326  21.159  26.660  1.00  0.00     0.054 A 
BRANCH  72  73
ATOM     73  S   UNL A   1      42.214  19.442  26.082  1.00  0.00     0.124 S 
ATOM     74  O   UNL A   1      40.802  19.329  25.736  1.00  0.00    -0.237 OA
ATOM     75  O   UNL A   1      43.146  19.419  24.957  1.00  0.00    -0.237 OA
ATOM     76  O   UNL A   1      42.641  18.666  27.246  1.00  0.00    -0.744 OA
ENDBRANCH  72  73
ENDBRANCH  44  67
BRANCH  56  77
ATOM     77  C   UNL A   1      48.276  27.568  29.079  1.00  0.00    -0.014 A 
ATOM     78  C   UNL A   1      49.015  27.760  27.897  1.00  0.00     0.010 A 
ATOM     79  C   UNL A   1      48.935  27.121  30.237  1.00  0.00     0.010 A 
ATOM     80  C   UNL A   1      50.384  27.483  27.867  1.00  0.00     0.020 A 
ATOM     81  C   UNL A   1      50.309  26.860  30.215  1.00  0.00     0.020 A 
ATOM     82  C   UNL A   1      51.022  27.029  29.026  1.00  0.00     0.054 A 
BRANCH  82  83
ATOM     83  S   UNL A   1      52.807  26.706  28.975  1.00  0.00     0.124 S 
ATOM     84  O   UNL A   1      52.935  25.905  27.761  1.00  0.00    -0.237 OA
ATOM     85  O   UNL A   1      53.377  28.050  28.905  1.00  0.00    -0.237 OA
ATOM     86  O   UNL A   1      53.065  25.992  30.223  1.00  0.00    -0.744 OA
ENDBRANCH  82  83
ENDBRANCH  56  77
ENDBRANCH  30  31
ENDBRANCH  23  25
ENDBRANCH  22  23
ENDBRANCH  21  22
ENDBRANCH   1  21
TORSDOF 18
ENDMDL
MODEL 3
REMARK VINA RESULT:     -11.0      1.939      2.699
REMARK SMILES C[C@@H](C(=O)OCCOC(=O)c1ccc(-c2c3nc(c(-c4ccc(S(=O)(=O)[O-])cc4)c4ccc([nH]4)c(-c4ccc(S(=O)(=O)[O-])cc4)c4nc(c(-c5ccc(S(=O)(=O)[O-])cc5)c5ccc2[nH]5)C=C4)C=C3)cc1)c1ccc(C[C@H]2CCC[C@@H]2O)cc1
REMARK SMILES IDX 6 1 5 2 3 3 4 4 2 5 1 6 71 7 72 8 83 9 73 10 82 11 74 12
REMARK SMILES IDX 75 13 76 14 77 15 80 16 78 17 79 18 81 19 7 21 8 22 9 23
REMARK SMILES IDX 10 24 11 25 12 26 70 27 13 28 69 29 14 30 15 31 16 32 63 33
REMARK SMILES IDX 17 34 68 35 62 36 64 37 18 38 67 39 61 40 60 41 19 43 49 44
REMARK SMILES IDX 30 45 48 46 31 47 34 48 47 49 65 50 32 51 33 52 46 54 66 55
REMARK SMILES IDX 35 56 20 57 21 58 29 59 22 60 28 61 23 62 24 63 25 64 26 65
REMARK SMILES IDX 27 66 50 67 51 68 59 69 52 70 58 71 53 72 54 73 55 74 56 75
REMARK SMILES IDX 57 76 36 77 37 78 45 79 38 80 44 81 39 82 40 83 41 84 42 85
REMARK SMILES IDX 43 86
REMARK H PARENT 81 20 64 42 34 53
REMARK Flexibility Score: inf
ROOT
ATOM      1  C   UNL A   1      37.132  21.154  24.919  1.00  0.00     0.274 C 
ENDROOT
BRANCH   1   2
ATOM      2  O   UNL A   1      36.235  21.451  26.009  1.00  0.00    -0.462 OA
BRANCH   2   3
ATOM      3  C   UNL A   1      35.000  21.920  25.671  1.00  0.00     0.313 C 
ATOM      4  O   UNL A   1      34.525  21.823  24.545  1.00  0.00    -0.252 OA
BRANCH   3   5
ATOM      5  C   UNL A   1      34.299  22.641  26.836  1.00  0.00     0.126 C 
ATOM      6  C   UNL A   1      33.426  21.700  27.675  1.00  0.00     0.025 C 
BRANCH   5   7
ATOM      7  C   UNL A   1      33.583  23.913  26.375  1.00  0.00    -0.034 A 
ATOM      8  C   UNL A   1      34.346  24.989  25.890  1.00  0.00     0.005 A 
ATOM      9  C   UNL A   1      32.188  24.059  26.376  1.00  0.00     0.005 A 
ATOM     10  C   UNL A   1      33.741  26.145  25.388  1.00  0.00     0.004 A 
ATOM     11  C   UNL A   1      31.583  25.233  25.905  1.00  0.00     0.004 A 
ATOM     12  C   UNL A   1      32.351  26.288  25.398  1.00  0.00    -0.048 A 
BRANCH  12  13
ATOM     13  C   UNL A   1      31.679  27.500  24.784  1.00  0.00     0.041 C 
BRANCH  13  14
ATOM     14  C   UNL A   1      31.339  28.671  25.718  1.00  0.00     0.022 C 
ATOM     15  C   UNL A   1      32.034  28.655  27.089  1.00  0.00     0.007 C 
ATOM     16  C   UNL A   1      31.609  30.064  25.136  1.00  0.00     0.117 C 
ATOM     17  C   UNL A   1      32.606  30.058  27.283  1.00  0.00     0.003 C 
ATOM     18  C   UNL A   1      31.774  30.940  26.368  1.00  0.00     0.032 C 
BRANCH  16  19
ATOM     19  O   UNL A   1      30.528  30.493  24.332  1.00  0.00    -0.393 OA
ATOM     20  H   UNL A   1      30.002  29.724  24.061  1.00  0.00     0.210 HD
ENDBRANCH  16  19
ENDBRANCH  13  14
ENDBRANCH  12  13
ENDBRANCH   5   7
ENDBRANCH   3   5
ENDBRANCH   2   3
ENDBRANCH   1   2
BRANCH   1  21
ATOM     21  C   UNL A   1      38.576  21.346  25.372  1.00  0.00     0.275 C 
BRANCH  21  22
ATOM     22  O   UNL A   1      38.752  22.702  25.819  1.00  0.00    -0.458 OA
BRANCH  22  23
ATOM     23  C   UNL A   1      40.023  23.076  26.098  1.00  0.00     0.338 C 
ATOM     24  O   UNL A   1      41.047  22.494  25.790  1.00  0.00    -0.246 OA
BRANCH  23  25
ATOM     25  C   UNL A   1      40.004  24.334  26.869  1.00  0.00     0.060 A 
ATOM     26  C   UNL A   1      40.863  25.373  26.532  1.00  0.00     0.016 A 
ATOM     27  C   UNL A   1      39.196  24.440  28.003  1.00  0.00     0.016 A 
ATOM     28  C   UNL A   1      40.980  26.475  27.380  1.00  0.00     0.010 A 
ATOM     29  C   UNL A   1      39.262  25.589  28.804  1.00  0.00     0.010 A 
ATOM     30  C   UNL A   1      40.194  26.605  28.535  1.00  0.00    -0.014 A 
BRANCH  30  31
ATOM     31  C   UNL A   1      40.409  27.742  29.487  1.00  0.00     0.031 A 
ATOM     32  C   UNL A   1      41.661  27.803  30.337  1.00  0.00     0.074 A 
ATOM     33  C   UNL A   1      39.531  28.765  29.579  1.00  0.00     0.049 A 
ATOM     34  N   UNL A   1      41.935  28.581  31.355  1.00  0.00    -0.248 NA
ATOM     35  C   UNL A   1      42.739  26.857  30.008  1.00  0.00     0.031 C 
ATOM     36  C   UNL A   1      38.308  28.916  28.788  1.00  0.00     0.029 A 
ATOM     37  N   UNL A   1      39.552  29.895  30.364  1.00  0.00    -0.354 N 
ATOM     38  C   UNL A   1      43.167  28.157  31.843  1.00  0.00     0.074 A 
ATOM     39  C   UNL A   1      43.599  27.066  30.995  1.00  0.00     0.031 C 
ATOM     40  C   UNL A   1      37.747  30.103  29.064  1.00  0.00     0.029 A 
ATOM     41  C   UNL A   1      38.498  30.749  30.134  1.00  0.00     0.049 A 
ATOM     42  H   UNL A   1      40.255  30.075  31.028  1.00  0.00     0.167 HD
ATOM     43  C   UNL A   1      43.869  28.621  32.906  1.00  0.00     0.031 A 
ATOM     44  C   UNL A   1      38.139  31.900  30.737  1.00  0.00     0.031 A 
ATOM     45  C   UNL A   1      43.487  29.756  33.705  1.00  0.00     0.049 A 
ATOM     46  C   UNL A   1      38.931  32.403  31.910  1.00  0.00     0.074 A 
ATOM     47  C   UNL A   1      44.131  30.287  34.812  1.00  0.00     0.029 A 
ATOM     48  N   UNL A   1      42.384  30.558  33.464  1.00  0.00    -0.354 N 
ATOM     49  N   UNL A   1      40.018  31.904  32.446  1.00  0.00    -0.248 NA
ATOM     50  C   UNL A   1      38.422  33.606  32.587  1.00  0.00     0.031 C 
ATOM     51  C   UNL A   1      43.401  31.395  35.255  1.00  0.00     0.029 A 
ATOM     52  C   UNL A   1      42.328  31.578  34.399  1.00  0.00     0.049 A 
ATOM     53  H   UNL A   1      41.737  30.424  32.735  1.00  0.00     0.167 HD
ATOM     54  C   UNL A   1      40.316  32.724  33.528  1.00  0.00     0.074 A 
ATOM     55  C   UNL A   1      39.316  33.771  33.553  1.00  0.00     0.031 C 
ATOM     56  C   UNL A   1      41.322  32.609  34.428  1.00  0.00     0.031 A 
BRANCH  43  57
ATOM     57  C   UNL A   1      45.106  27.861  33.309  1.00  0.00    -0.014 A 
ATOM     58  C   UNL A   1      46.385  28.237  32.867  1.00  0.00     0.010 A 
ATOM     59  C   UNL A   1      44.978  26.767  34.187  1.00  0.00     0.010 A 
ATOM     60  C   UNL A   1      47.511  27.510  33.267  1.00  0.00     0.020 A 
ATOM     61  C   UNL A   1      46.102  26.054  34.608  1.00  0.00     0.020 A 
ATOM     62  C   UNL A   1      47.361  26.418  34.130  1.00  0.00     0.054 A 
BRANCH  62  63
ATOM     63  S   UNL A   1      48.837  25.499  34.649  1.00  0.00     0.124 S 
ATOM     64  O   UNL A   1      48.421  24.116  34.432  1.00  0.00    -0.237 OA
ATOM     65  O   UNL A   1      49.867  25.995  33.738  1.00  0.00    -0.237 OA
ATOM     66  O   UNL A   1      49.010  25.885  36.047  1.00  0.00    -0.744 OA
ENDBRANCH  62  63
ENDBRANCH  43  57
BRANCH  44  67
ATOM     67  C   UNL A   1      36.921  32.624  30.280  1.00  0.00    -0.014 A 
ATOM     68  C   UNL A   1      35.702  32.474  30.965  1.00  0.00     0.010 A 
ATOM     69  C   UNL A   1      36.980  33.485  29.169  1.00  0.00     0.010 A 
ATOM     70  C   UNL A   1      34.567  33.177  30.550  1.00  0.00     0.020 A 
ATOM     71  C   UNL A   1      35.856  34.211  28.770  1.00  0.00     0.020 A 
ATOM     72  C   UNL A   1      34.653  34.045  29.458  1.00  0.00     0.054 A 
BRANCH  72  73
ATOM     73  S   UNL A   1      33.197  35.021  28.984  1.00  0.00     0.124 S 
ATOM     74  O   UNL A   1      33.807  36.210  28.399  1.00  0.00    -0.237 OA
ATOM     75  O   UNL A   1      32.506  34.138  28.048  1.00  0.00    -0.237 OA
ATOM     76  O   UNL A   1      32.504  35.230  30.255  1.00  0.00    -0.744 OA
ENDBRANCH  72  73
ENDBRANCH  44  67
BRANCH  56  77
ATOM     77  C   UNL A   1      41.395  33.641  35.519  1.00  0.00    -0.014 A 
ATOM     78  C   UNL A   1      42.020  34.882  35.296  1.00  0.00     0.010 A 
ATOM     79  C   UNL A   1      40.798  33.386  36.766  1.00  0.00     0.010 A 
ATOM     80  C   UNL A   1      42.073  35.839  36.313  1.00  0.00     0.020 A 
ATOM     81  C   UNL A   1      40.833  34.349  37.779  1.00  0.00     0.020 A 
ATOM     82  C   UNL A   1      41.483  35.565  37.551  1.00  0.00     0.054 A 
BRANCH  82  83
ATOM     83  S   UNL A   1      41.533  36.833  38.846  1.00  0.00     0.124 S 
ATOM     84  O   UNL A   1      42.704  37.615  38.460  1.00  0.00    -0.237 OA
ATOM     85  O   UNL A   1      40.247  37.509  38.688  1.00  0.00    -0.237 OA
ATOM     86  O   UNL A   1      41.676  36.063  40.080  1.00  0.00    -0.744 OA
ENDBRANCH  82  83
ENDBRANCH  56  77
ENDBRANCH  30  31
ENDBRANCH  23  25
ENDBRANCH  22  23
ENDBRANCH  21  22
ENDBRANCH   1  21
TORSDOF 18
ENDMDL
