MODEL 1
REMARK VINA RESULT:     -10.3      0.000      0.000
REMARK SMILES Cc1cc(C(=O)OCCOC(=O)c2ccc(-c3c4nc(c(-c5ccc(S(=O)(=O)[O-])cc5)c5ccc([nH]5)c(-c5ccc(S(=O)(=O)[O-])cc5)c5nc(c(-c6ccc(S(=O)(=O)[O-])cc6)c6ccc3[nH]6)C=C5)C=C4)cc2)cc(C)c1OC[C@H]1C[N@@H+](C)CCO1
REMARK SMILES IDX 8 1 7 2 5 3 6 4 4 5 1 6 2 7 3 8 76 9 74 10 73 11 75 12 77 13
REMARK SMILES IDX 78 14 79 15 80 16 85 17 81 18 84 19 82 20 83 21 9 23 10 24
REMARK SMILES IDX 11 25 12 26 13 27 14 28 72 29 15 30 71 31 16 32 17 33 18 34
REMARK SMILES IDX 65 35 19 36 70 37 64 38 66 39 20 40 69 41 63 42 62 43 21 45
REMARK SMILES IDX 51 46 32 47 50 48 33 49 36 50 49 51 67 52 34 53 35 54 48 56
REMARK SMILES IDX 68 57 37 58 22 59 23 60 31 61 24 62 30 63 25 64 26 65 27 66
REMARK SMILES IDX 28 67 29 68 52 69 53 70 61 71 54 72 60 73 55 74 56 75 57 76
REMARK SMILES IDX 58 77 59 78 38 79 39 80 47 81 40 82 46 83 41 84 42 85 43 86
REMARK SMILES IDX 44 87 45 88
REMARK H PARENT 81 22 66 44 36 55
REMARK Flexibility Score: inf
ROOT
ATOM      1  C   UNL A   1      35.101  33.734  31.279  1.00  0.00     0.275 C 
ENDROOT
BRANCH   1   2
ATOM      2  O   UNL A   1      33.969  33.778  30.386  1.00  0.00    -0.458 OA
BRANCH   2   3
ATOM      3  C   UNL A   1      34.287  34.003  29.093  1.00  0.00     0.338 C 
ATOM      4  O   UNL A   1      34.785  35.018  28.619  1.00  0.00    -0.246 OA
BRANCH   3   5
ATOM      5  C   UNL A   1      34.102  32.787  28.292  1.00  0.00     0.060 A 
ATOM      6  C   UNL A   1      31.230  31.593  26.207  1.00  0.00     0.048 C 
ATOM      7  C   UNL A   1      32.527  31.471  26.947  1.00  0.00    -0.008 A 
ATOM      8  C   UNL A   1      32.906  32.656  27.600  1.00  0.00     0.023 A 
ATOM      9  C   UNL A   1      33.362  30.353  27.062  1.00  0.00     0.125 A 
ATOM     10  C   UNL A   1      34.649  30.526  27.653  1.00  0.00    -0.008 A 
ATOM     11  C   UNL A   1      35.009  31.742  28.273  1.00  0.00     0.023 A 
ATOM     12  C   UNL A   1      35.704  29.450  27.592  1.00  0.00     0.048 C 
BRANCH   9  13
ATOM     13  O   UNL A   1      33.104  29.072  26.655  1.00  0.00    -0.490 OA
BRANCH  13  14
ATOM     14  C   UNL A   1      32.219  28.178  27.351  1.00  0.00     0.267 C 
BRANCH  14  15
ATOM     15  C   UNL A   1      31.165  27.445  26.492  1.00  0.00     0.210 C 
ATOM     16  C   UNL A   1      31.409  27.700  24.987  1.00  0.00     0.298 C 
ATOM     17  O   UNL A   1      31.268  26.012  26.711  1.00  0.00    -0.363 OA
ATOM     18  N   UNL A   1      30.286  27.120  24.233  1.00  0.00    -0.333 N 
ATOM     19  C   UNL A   1      30.288  25.304  25.924  1.00  0.00     0.222 C 
ATOM     20  C   UNL A   1      30.317  27.501  22.825  1.00  0.00     0.332 C 
ATOM     21  C   UNL A   1      30.331  25.660  24.420  1.00  0.00     0.290 C 
ATOM     22  H   UNL A   1      29.401  27.484  24.586  1.00  0.00     0.348 HD
ENDBRANCH  14  15
ENDBRANCH  13  14
ENDBRANCH   9  13
ENDBRANCH   3   5
ENDBRANCH   2   3
ENDBRANCH   1   2
BRANCH   1  23
ATOM     23  C   UNL A   1      35.279  32.328  31.851  1.00  0.00     0.275 C 
BRANCH  23  24
ATOM     24  O   UNL A   1      36.674  31.968  31.878  1.00  0.00    -0.458 OA
BRANCH  24  25
ATOM     25  C   UNL A   1      36.954  30.701  31.494  1.00  0.00     0.338 C 
ATOM     26  O   UNL A   1      36.238  29.720  31.645  1.00  0.00    -0.246 OA
BRANCH  25  27
ATOM     27  C   UNL A   1      38.281  30.610  30.847  1.00  0.00     0.060 A 
ATOM     28  C   UNL A   1      38.442  30.819  29.479  1.00  0.00     0.016 A 
ATOM     29  C   UNL A   1      39.364  30.160  31.605  1.00  0.00     0.016 A 
ATOM     30  C   UNL A   1      39.622  30.411  28.849  1.00  0.00     0.010 A 
ATOM     31  C   UNL A   1      40.594  29.903  30.989  1.00  0.00     0.010 A 
ATOM     32  C   UNL A   1      40.730  29.965  29.592  1.00  0.00    -0.014 A 
BRANCH  32  33
ATOM     33  C   UNL A   1      42.010  29.555  28.928  1.00  0.00     0.031 A 
ATOM     34  C   UNL A   1      42.185  28.156  28.369  1.00  0.00     0.074 A 
ATOM     35  C   UNL A   1      43.043  30.419  28.825  1.00  0.00     0.049 A 
ATOM     36  N   UNL A   1      43.278  27.561  27.956  1.00  0.00    -0.248 NA
ATOM     37  C   UNL A   1      40.982  27.312  28.282  1.00  0.00     0.031 C 
ATOM     38  C   UNL A   1      43.044  31.808  29.289  1.00  0.00     0.029 A 
ATOM     39  N   UNL A   1      44.298  30.256  28.286  1.00  0.00    -0.354 N 
ATOM     40  C   UNL A   1      42.911  26.256  27.642  1.00  0.00     0.074 A 
ATOM     41  C   UNL A   1      41.491  26.147  27.902  1.00  0.00     0.031 C 
ATOM     42  C   UNL A   1      44.205  32.387  28.953  1.00  0.00     0.029 A 
ATOM     43  C   UNL A   1      45.078  31.387  28.353  1.00  0.00     0.049 A 
ATOM     44  H   UNL A   1      44.609  29.410  27.890  1.00  0.00     0.167 HD
ATOM     45  C   UNL A   1      43.681  25.235  27.187  1.00  0.00     0.031 A 
ATOM     46  C   UNL A   1      46.366  31.601  28.020  1.00  0.00     0.031 A 
ATOM     47  C   UNL A   1      45.079  25.350  26.861  1.00  0.00     0.049 A 
ATOM     48  C   UNL A   1      47.201  30.465  27.510  1.00  0.00     0.074 A 
ATOM     49  C   UNL A   1      45.932  24.375  26.369  1.00  0.00     0.029 A 
ATOM     50  N   UNL A   1      45.825  26.513  26.967  1.00  0.00    -0.354 N 
ATOM     51  N   UNL A   1      46.848  29.222  27.292  1.00  0.00    -0.248 NA
ATOM     52  C   UNL A   1      48.613  30.755  27.228  1.00  0.00     0.031 C 
ATOM     53  C   UNL A   1      47.202  24.943  26.205  1.00  0.00     0.029 A 
ATOM     54  C   UNL A   1      47.127  26.281  26.556  1.00  0.00     0.049 A 
ATOM     55  H   UNL A   1      45.480  27.377  27.288  1.00  0.00     0.167 HD
ATOM     56  C   UNL A   1      47.998  28.578  26.851  1.00  0.00     0.074 A 
ATOM     57  C   UNL A   1      49.048  29.575  26.807  1.00  0.00     0.031 C 
ATOM     58  C   UNL A   1      48.168  27.274  26.524  1.00  0.00     0.031 A 
BRANCH  45  59
ATOM     59  C   UNL A   1      43.036  23.879  27.052  1.00  0.00    -0.014 A 
ATOM     60  C   UNL A   1      42.890  23.019  28.154  1.00  0.00     0.010 A 
ATOM     61  C   UNL A   1      42.531  23.480  25.800  1.00  0.00     0.010 A 
ATOM     62  C   UNL A   1      42.290  21.765  27.995  1.00  0.00     0.020 A 
ATOM     63  C   UNL A   1      41.910  22.238  25.643  1.00  0.00     0.020 A 
ATOM     64  C   UNL A   1      41.812  21.379  26.739  1.00  0.00     0.054 A 
BRANCH  64  65
ATOM     65  S   UNL A   1      41.033  19.750  26.557  1.00  0.00     0.124 S 
ATOM     66  O   UNL A   1      40.914  19.318  27.948  1.00  0.00    -0.237 OA
ATOM     67  O   UNL A   1      39.774  20.065  25.888  1.00  0.00    -0.237 OA
ATOM     68  O   UNL A   1      41.990  18.996  25.751  1.00  0.00    -0.744 OA
ENDBRANCH  64  65
ENDBRANCH  45  59
BRANCH  46  69
ATOM     69  C   UNL A   1      46.955  32.954  28.212  1.00  0.00    -0.014 A 
ATOM     70  C   UNL A   1      47.611  33.279  29.411  1.00  0.00     0.010 A 
ATOM     71  C   UNL A   1      46.906  33.904  27.175  1.00  0.00     0.010 A 
ATOM     72  C   UNL A   1      48.216  34.529  29.567  1.00  0.00     0.020 A 
ATOM     73  C   UNL A   1      47.533  35.143  27.318  1.00  0.00     0.020 A 
ATOM     74  C   UNL A   1      48.179  35.450  28.516  1.00  0.00     0.054 A 
BRANCH  74  75
ATOM     75  S   UNL A   1      49.053  37.031  28.698  1.00  0.00     0.124 S 
ATOM     76  O   UNL A   1      48.949  37.589  27.353  1.00  0.00    -0.237 OA
ATOM     77  O   UNL A   1      48.272  37.713  29.727  1.00  0.00    -0.237 OA
ATOM     78  O   UNL A   1      50.396  36.629  29.111  1.00  0.00    -0.744 OA
ENDBRANCH  74  75
ENDBRANCH  46  69
BRANCH  58  79
ATOM     79  C   UNL A   1      49.538  26.856  26.069  1.00  0.00    -0.014 A 
ATOM     80  C   UNL A   1      50.434  26.234  26.956  1.00  0.00     0.010 A 
ATOM     81  C   UNL A   1      49.922  27.062  24.732  1.00  0.00     0.010 A 
ATOM     82  C   UNL A   1      51.706  25.853  26.520  1.00  0.00     0.020 A 
ATOM     83  C   UNL A   1      51.187  26.666  24.289  1.00  0.00     0.020 A 
ATOM     84  C   UNL A   1      52.076  26.076  25.191  1.00  0.00     0.054 A 
BRANCH  84  85
ATOM     85  S   UNL A   1      53.721  25.546  24.637  1.00  0.00     0.124 S 
ATOM     86  O   UNL A   1      54.591  26.179  25.624  1.00  0.00    -0.237 OA
ATOM     87  O   UNL A   1      53.637  24.090  24.715  1.00  0.00    -0.237 OA
ATOM     88  O   UNL A   1      53.818  26.087  23.282  1.00  0.00    -0.744 OA
ENDBRANCH  84  85
ENDBRANCH  58  79
ENDBRANCH  32  33
ENDBRANCH  25  27
ENDBRANCH  24  25
ENDBRANCH  23  24
ENDBRANCH   1  23
TORSDOF 17
ENDMDL
MODEL 2
REMARK VINA RESULT:     -10.2      6.610     12.508
REMARK SMILES Cc1cc(C(=O)OCCOC(=O)c2ccc(-c3c4nc(c(-c5ccc(S(=O)(=O)[O-])cc5)c5ccc([nH]5)c(-c5ccc(S(=O)(=O)[O-])cc5)c5nc(c(-c6ccc(S(=O)(=O)[O-])cc6)c6ccc3[nH]6)C=C5)C=C4)cc2)cc(C)c1OC[C@H]1C[N@@H+](C)CCO1
REMARK SMILES IDX 8 1 7 2 5 3 6 4 4 5 1 6 2 7 3 8 76 9 74 10 73 11 75 12 77 13
REMARK SMILES IDX 78 14 79 15 80 16 85 17 81 18 84 19 82 20 83 21 9 23 10 24
REMARK SMILES IDX 11 25 12 26 13 27 14 28 72 29 15 30 71 31 16 32 17 33 18 34
REMARK SMILES IDX 65 35 19 36 70 37 64 38 66 39 20 40 69 41 63 42 62 43 21 45
REMARK SMILES IDX 51 46 32 47 50 48 33 49 36 50 49 51 67 52 34 53 35 54 48 56
REMARK SMILES IDX 68 57 37 58 22 59 23 60 31 61 24 62 30 63 25 64 26 65 27 66
REMARK SMILES IDX 28 67 29 68 52 69 53 70 61 71 54 72 60 73 55 74 56 75 57 76
REMARK SMILES IDX 58 77 59 78 38 79 39 80 47 81 40 82 46 83 41 84 42 85 43 86
REMARK SMILES IDX 44 87 45 88
REMARK H PARENT 81 22 66 44 36 55
REMARK Flexibility Score: inf
ROOT
ATOM      1  C   UNL A   1      39.662  21.571  26.442  1.00  0.00     0.275 C 
ENDROOT
BRANCH   1   2
ATOM      2  O   UNL A   1      38.453  21.952  25.755  1.00  0.00    -0.458 OA
BRANCH   2   3
ATOM      3  C   UNL A   1      37.818  20.934  25.135  1.00  0.00     0.338 C 
ATOM      4  O   UNL A   1      38.263  19.815  24.904  1.00  0.00    -0.246 OA
BRANCH   3   5
ATOM      5  C   UNL A   1      36.412  21.274  24.884  1.00  0.00     0.060 A 
ATOM      6  C   UNL A   1      34.711  24.557  24.298  1.00  0.00     0.048 C 
ATOM      7  C   UNL A   1      34.790  23.093  24.604  1.00  0.00    -0.008 A 
ATOM      8  C   UNL A   1      36.108  22.611  24.675  1.00  0.00     0.023 A 
ATOM      9  C   UNL A   1      33.741  22.192  24.826  1.00  0.00     0.125 A 
ATOM     10  C   UNL A   1      34.046  20.801  24.904  1.00  0.00    -0.008 A 
ATOM     11  C   UNL A   1      35.384  20.349  24.940  1.00  0.00     0.023 A 
ATOM     12  C   UNL A   1      32.969  19.747  24.887  1.00  0.00     0.048 C 
BRANCH   9  13
ATOM     13  O   UNL A   1      32.410  22.478  24.970  1.00  0.00    -0.490 OA
BRANCH  13  14
ATOM     14  C   UNL A   1      31.841  23.045  26.163  1.00  0.00     0.267 C 
BRANCH  14  15
ATOM     15  C   UNL A   1      31.049  24.360  25.991  1.00  0.00     0.210 C 
ATOM     16  C   UNL A   1      31.848  25.560  26.551  1.00  0.00     0.298 C 
ATOM     17  O   UNL A   1      30.824  24.612  24.578  1.00  0.00    -0.363 OA
ATOM     18  N   UNL A   1      30.982  26.749  26.512  1.00  0.00    -0.333 N 
ATOM     19  C   UNL A   1      30.080  25.834  24.389  1.00  0.00     0.222 C 
ATOM     20  C   UNL A   1      31.571  27.879  27.222  1.00  0.00     0.332 C 
ATOM     21  C   UNL A   1      30.710  27.055  25.098  1.00  0.00     0.290 C 
ATOM     22  H   UNL A   1      30.105  26.560  26.997  1.00  0.00     0.348 HD
ENDBRANCH  14  15
ENDBRANCH  13  14
ENDBRANCH   9  13
ENDBRANCH   3   5
ENDBRANCH   2   3
ENDBRANCH   1   2
BRANCH   1  23
ATOM     23  C   UNL A   1      40.699  22.690  26.368  1.00  0.00     0.275 C 
BRANCH  23  24
ATOM     24  O   UNL A   1      40.089  23.962  26.665  1.00  0.00    -0.458 OA
BRANCH  24  25
ATOM     25  C   UNL A   1      40.885  25.042  26.492  1.00  0.00     0.338 C 
ATOM     26  O   UNL A   1      41.745  25.182  25.632  1.00  0.00    -0.246 OA
BRANCH  25  27
ATOM     27  C   UNL A   1      40.608  26.090  27.499  1.00  0.00     0.060 A 
ATOM     28  C   UNL A   1      41.375  27.249  27.576  1.00  0.00     0.016 A 
ATOM     29  C   UNL A   1      39.649  25.835  28.482  1.00  0.00     0.016 A 
ATOM     30  C   UNL A   1      41.307  28.052  28.719  1.00  0.00     0.010 A 
ATOM     31  C   UNL A   1      39.477  26.729  29.545  1.00  0.00     0.010 A 
ATOM     32  C   UNL A   1      40.343  27.822  29.716  1.00  0.00    -0.014 A 
BRANCH  32  33
ATOM     33  C   UNL A   1      40.241  28.696  30.931  1.00  0.00     0.031 A 
ATOM     34  C   UNL A   1      39.202  29.797  31.013  1.00  0.00     0.074 A 
ATOM     35  C   UNL A   1      41.083  28.530  31.973  1.00  0.00     0.049 A 
ATOM     36  N   UNL A   1      39.102  30.776  31.879  1.00  0.00    -0.248 NA
ATOM     37  C   UNL A   1      38.155  29.812  29.979  1.00  0.00     0.031 C 
ATOM     38  C   UNL A   1      42.129  27.511  32.074  1.00  0.00     0.029 A 
ATOM     39  N   UNL A   1      41.186  29.219  33.160  1.00  0.00    -0.354 N 
ATOM     40  C   UNL A   1      38.039  31.565  31.448  1.00  0.00     0.074 A 
ATOM     41  C   UNL A   1      37.519  30.945  30.248  1.00  0.00     0.031 C 
ATOM     42  C   UNL A   1      42.715  27.592  33.277  1.00  0.00     0.029 A 
ATOM     43  C   UNL A   1      42.171  28.739  33.992  1.00  0.00     0.049 A 
ATOM     44  H   UNL A   1      40.610  29.983  33.393  1.00  0.00     0.167 HD
ATOM     45  C   UNL A   1      37.543  32.706  31.991  1.00  0.00     0.031 A 
ATOM     46  C   UNL A   1      42.631  29.186  35.178  1.00  0.00     0.031 A 
ATOM     47  C   UNL A   1      38.008  33.293  33.221  1.00  0.00     0.049 A 
ATOM     48  C   UNL A   1      42.066  30.442  35.768  1.00  0.00     0.074 A 
ATOM     49  C   UNL A   1      37.547  34.433  33.859  1.00  0.00     0.029 A 
ATOM     50  N   UNL A   1      39.022  32.779  34.012  1.00  0.00    -0.354 N 
ATOM     51  N   UNL A   1      41.111  31.210  35.303  1.00  0.00    -0.248 NA
ATOM     52  C   UNL A   1      42.659  30.907  37.029  1.00  0.00     0.031 C 
ATOM     53  C   UNL A   1      38.302  34.622  35.024  1.00  0.00     0.029 A 
ATOM     54  C   UNL A   1      39.204  33.577  35.129  1.00  0.00     0.049 A 
ATOM     55  H   UNL A   1      39.537  31.964  33.810  1.00  0.00     0.167 HD
ATOM     56  C   UNL A   1      40.992  32.252  36.213  1.00  0.00     0.074 A 
ATOM     57  C   UNL A   1      41.951  32.003  37.269  1.00  0.00     0.031 C 
ATOM     58  C   UNL A   1      40.167  33.327  36.169  1.00  0.00     0.031 A 
BRANCH  45  59
ATOM     59  C   UNL A   1      36.456  33.425  31.234  1.00  0.00    -0.014 A 
ATOM     60  C   UNL A   1      36.638  33.849  29.906  1.00  0.00     0.010 A 
ATOM     61  C   UNL A   1      35.213  33.644  31.857  1.00  0.00     0.010 A 
ATOM     62  C   UNL A   1      35.611  34.518  29.231  1.00  0.00     0.020 A 
ATOM     63  C   UNL A   1      34.177  34.291  31.178  1.00  0.00     0.020 A 
ATOM     64  C   UNL A   1      34.391  34.743  29.875  1.00  0.00     0.054 A 
BRANCH  64  65
ATOM     65  S   UNL A   1      33.071  35.608  28.978  1.00  0.00     0.124 S 
ATOM     66  O   UNL A   1      33.828  36.586  28.202  1.00  0.00    -0.237 OA
ATOM     67  O   UNL A   1      32.449  34.537  28.204  1.00  0.00    -0.237 OA
ATOM     68  O   UNL A   1      32.239  36.166  30.042  1.00  0.00    -0.744 OA
ENDBRANCH  64  65
ENDBRANCH  45  59
BRANCH  46  69
ATOM     69  C   UNL A   1      43.732  28.451  35.857  1.00  0.00    -0.014 A 
ATOM     70  C   UNL A   1      43.445  27.369  36.706  1.00  0.00     0.010 A 
ATOM     71  C   UNL A   1      45.074  28.798  35.614  1.00  0.00     0.010 A 
ATOM     72  C   UNL A   1      44.482  26.642  37.296  1.00  0.00     0.020 A 
ATOM     73  C   UNL A   1      46.112  28.056  36.180  1.00  0.00     0.020 A 
ATOM     74  C   UNL A   1      45.809  26.985  37.023  1.00  0.00     0.054 A 
BRANCH  74  75
ATOM     75  S   UNL A   1      47.145  25.971  37.718  1.00  0.00     0.124 S 
ATOM     76  O   UNL A   1      47.980  26.976  38.368  1.00  0.00    -0.237 OA
ATOM     77  O   UNL A   1      46.428  25.068  38.615  1.00  0.00    -0.237 OA
ATOM     78  O   UNL A   1      47.730  25.331  36.542  1.00  0.00    -0.744 OA
ENDBRANCH  74  75
ENDBRANCH  46  69
BRANCH  58  79
ATOM     79  C   UNL A   1      40.254  34.304  37.309  1.00  0.00    -0.014 A 
ATOM     80  C   UNL A   1      39.430  34.168  38.440  1.00  0.00     0.010 A 
ATOM     81  C   UNL A   1      41.191  35.351  37.259  1.00  0.00     0.010 A 
ATOM     82  C   UNL A   1      39.521  35.084  39.491  1.00  0.00     0.020 A 
ATOM     83  C   UNL A   1      41.295  36.259  38.316  1.00  0.00     0.020 A 
ATOM     84  C   UNL A   1      40.448  36.127  39.420  1.00  0.00     0.054 A 
BRANCH  84  85
ATOM     85  S   UNL A   1      40.571  37.290  40.808  1.00  0.00     0.124 S 
ATOM     86  O   UNL A   1      41.177  38.457  40.172  1.00  0.00    -0.237 OA
ATOM     87  O   UNL A   1      39.179  37.451  41.220  1.00  0.00    -0.237 OA
ATOM     88  O   UNL A   1      41.421  36.590  41.769  1.00  0.00    -0.744 OA
ENDBRANCH  84  85
ENDBRANCH  58  79
ENDBRANCH  32  33
ENDBRANCH  25  27
ENDBRANCH  24  25
ENDBRANCH  23  24
ENDBRANCH   1  23
TORSDOF 17
ENDMDL
MODEL 3
REMARK VINA RESULT:     -10.1      2.685      9.150
REMARK SMILES Cc1cc(C(=O)OCCOC(=O)c2ccc(-c3c4nc(c(-c5ccc(S(=O)(=O)[O-])cc5)c5ccc([nH]5)c(-c5ccc(S(=O)(=O)[O-])cc5)c5nc(c(-c6ccc(S(=O)(=O)[O-])cc6)c6ccc3[nH]6)C=C5)C=C4)cc2)cc(C)c1OC[C@H]1C[N@@H+](C)CCO1
REMARK SMILES IDX 8 1 7 2 5 3 6 4 4 5 1 6 2 7 3 8 76 9 74 10 73 11 75 12 77 13
REMARK SMILES IDX 78 14 79 15 80 16 85 17 81 18 84 19 82 20 83 21 9 23 10 24
REMARK SMILES IDX 11 25 12 26 13 27 14 28 72 29 15 30 71 31 16 32 17 33 18 34
REMARK SMILES IDX 65 35 19 36 70 37 64 38 66 39 20 40 69 41 63 42 62 43 21 45
REMARK SMILES IDX 51 46 32 47 50 48 33 49 36 50 49 51 67 52 34 53 35 54 48 56
REMARK SMILES IDX 68 57 37 58 22 59 23 60 31 61 24 62 30 63 25 64 26 65 27 66
REMARK SMILES IDX 28 67 29 68 52 69 53 70 61 71 54 72 60 73 55 74 56 75 57 76
REMARK SMILES IDX 58 77 59 78 38 79 39 80 47 81 40 82 46 83 41 84 42 85 43 86
REMARK SMILES IDX 44 87 45 88
REMARK H PARENT 81 22 66 44 36 55
REMARK Flexibility Score: inf
ROOT
ATOM      1  C   UNL A   1      33.788  29.156  26.442  1.00  0.00     0.275 C 
ENDROOT
BRANCH   1   2
ATOM      2  O   UNL A   1      33.635  27.746  26.179  1.00  0.00    -0.458 OA
BRANCH   2   3
ATOM      3  C   UNL A   1      33.625  27.421  24.868  1.00  0.00     0.338 C 
ATOM      4  O   UNL A   1      33.907  28.149  23.923  1.00  0.00    -0.246 OA
BRANCH   3   5
ATOM      5  C   UNL A   1      33.368  25.986  24.690  1.00  0.00     0.060 A 
ATOM      6  C   UNL A   1      32.473  23.295  27.134  1.00  0.00     0.048 C 
ATOM      7  C   UNL A   1      32.931  23.854  25.822  1.00  0.00    -0.008 A 
ATOM      8  C   UNL A   1      33.025  25.255  25.818  1.00  0.00     0.023 A 
ATOM      9  C   UNL A   1      33.269  23.163  24.652  1.00  0.00     0.125 A 
ATOM     10  C   UNL A   1      33.487  23.915  23.459  1.00  0.00    -0.008 A 
ATOM     11  C   UNL A   1      33.543  25.326  23.486  1.00  0.00     0.023 A 
ATOM     12  C   UNL A   1      33.604  23.252  22.110  1.00  0.00     0.048 C 
BRANCH   9  13
ATOM     13  O   UNL A   1      33.408  21.811  24.490  1.00  0.00    -0.490 OA
BRANCH  13  14
ATOM     14  C   UNL A   1      34.369  21.018  25.209  1.00  0.00     0.267 C 
BRANCH  14  15
ATOM     15  C   UNL A   1      35.858  21.306  24.915  1.00  0.00     0.210 C 
ATOM     16  C   UNL A   1      36.410  22.382  25.878  1.00  0.00     0.298 C 
ATOM     17  O   UNL A   1      36.639  20.098  25.123  1.00  0.00    -0.363 OA
ATOM     18  N   UNL A   1      37.773  22.733  25.447  1.00  0.00    -0.333 N 
ATOM     19  C   UNL A   1      38.035  20.339  24.849  1.00  0.00     0.222 C 
ATOM     20  C   UNL A   1      38.291  23.895  26.160  1.00  0.00     0.332 C 
ATOM     21  C   UNL A   1      38.617  21.541  25.627  1.00  0.00     0.290 C 
ATOM     22  H   UNL A   1      37.770  23.005  24.464  1.00  0.00     0.348 HD
ENDBRANCH  14  15
ENDBRANCH  13  14
ENDBRANCH   9  13
ENDBRANCH   3   5
ENDBRANCH   2   3
ENDBRANCH   1   2
BRANCH   1  23
ATOM     23  C   UNL A   1      34.518  29.378  27.766  1.00  0.00     0.275 C 
BRANCH  23  24
ATOM     24  O   UNL A   1      35.943  29.431  27.553  1.00  0.00    -0.458 OA
BRANCH  24  25
ATOM     25  C   UNL A   1      36.697  29.435  28.676  1.00  0.00     0.338 C 
ATOM     26  O   UNL A   1      36.335  29.772  29.796  1.00  0.00    -0.246 OA
BRANCH  25  27
ATOM     27  C   UNL A   1      38.078  28.978  28.404  1.00  0.00     0.060 A 
ATOM     28  C   UNL A   1      38.818  28.288  29.362  1.00  0.00     0.016 A 
ATOM     29  C   UNL A   1      38.693  29.378  27.217  1.00  0.00     0.016 A 
ATOM     30  C   UNL A   1      40.203  28.160  29.207  1.00  0.00     0.010 A 
ATOM     31  C   UNL A   1      40.049  29.104  27.001  1.00  0.00     0.010 A 
ATOM     32  C   UNL A   1      40.843  28.545  28.016  1.00  0.00    -0.014 A 
BRANCH  32  33
ATOM     33  C   UNL A   1      42.322  28.382  27.829  1.00  0.00     0.031 A 
ATOM     34  C   UNL A   1      43.282  29.496  28.200  1.00  0.00     0.074 A 
ATOM     35  C   UNL A   1      42.832  27.244  27.312  1.00  0.00     0.049 A 
ATOM     36  N   UNL A   1      44.556  29.619  27.916  1.00  0.00    -0.248 NA
ATOM     37  C   UNL A   1      42.735  30.625  28.969  1.00  0.00     0.031 C 
ATOM     38  C   UNL A   1      42.060  26.063  26.918  1.00  0.00     0.029 A 
ATOM     39  N   UNL A   1      44.132  26.889  27.034  1.00  0.00    -0.354 N 
ATOM     40  C   UNL A   1      44.939  30.868  28.396  1.00  0.00     0.074 A 
ATOM     41  C   UNL A   1      43.764  31.462  28.999  1.00  0.00     0.031 C 
ATOM     42  C   UNL A   1      42.899  25.096  26.521  1.00  0.00     0.029 A 
ATOM     43  C   UNL A   1      44.259  25.618  26.521  1.00  0.00     0.049 A 
ATOM     44  H   UNL A   1      44.899  27.487  27.189  1.00  0.00     0.167 HD
ATOM     45  C   UNL A   1      46.152  31.474  28.336  1.00  0.00     0.031 A 
ATOM     46  C   UNL A   1      45.332  24.951  26.053  1.00  0.00     0.031 A 
ATOM     47  C   UNL A   1      47.342  30.865  27.800  1.00  0.00     0.049 A 
ATOM     48  C   UNL A   1      46.667  25.631  26.002  1.00  0.00     0.074 A 
ATOM     49  C   UNL A   1      48.620  31.395  27.722  1.00  0.00     0.029 A 
ATOM     50  N   UNL A   1      47.411  29.585  27.273  1.00  0.00    -0.354 N 
ATOM     51  N   UNL A   1      46.986  26.840  26.394  1.00  0.00    -0.248 NA
ATOM     52  C   UNL A   1      47.778  24.867  25.419  1.00  0.00     0.031 C 
ATOM     53  C   UNL A   1      49.455  30.443  27.122  1.00  0.00     0.029 A 
ATOM     54  C   UNL A   1      48.705  29.308  26.865  1.00  0.00     0.049 A 
ATOM     55  H   UNL A   1      46.651  28.964  27.200  1.00  0.00     0.167 HD
ATOM     56  C   UNL A   1      48.337  26.983  26.102  1.00  0.00     0.074 A 
ATOM     57  C   UNL A   1      48.780  25.730  25.526  1.00  0.00     0.031 C 
ATOM     58  C   UNL A   1      49.135  28.064  26.285  1.00  0.00     0.031 A 
BRANCH  45  59
ATOM     59  C   UNL A   1      46.249  32.895  28.830  1.00  0.00    -0.014 A 
ATOM     60  C   UNL A   1      46.776  33.202  30.095  1.00  0.00     0.010 A 
ATOM     61  C   UNL A   1      45.838  33.944  27.986  1.00  0.00     0.010 A 
ATOM     62  C   UNL A   1      46.849  34.531  30.526  1.00  0.00     0.020 A 
ATOM     63  C   UNL A   1      45.931  35.275  28.405  1.00  0.00     0.020 A 
ATOM     64  C   UNL A   1      46.417  35.558  29.682  1.00  0.00     0.054 A 
BRANCH  64  65
ATOM     65  S   UNL A   1      46.526  37.275  30.259  1.00  0.00     0.124 S 
ATOM     66  O   UNL A   1      45.912  38.003  29.151  1.00  0.00    -0.237 OA
ATOM     67  O   UNL A   1      45.753  37.250  31.499  1.00  0.00    -0.237 OA
ATOM     68  O   UNL A   1      47.960  37.493  30.428  1.00  0.00    -0.744 OA
ENDBRANCH  64  65
ENDBRANCH  45  59
BRANCH  46  69
ATOM     69  C   UNL A   1      45.163  23.563  25.545  1.00  0.00    -0.014 A 
ATOM     70  C   UNL A   1      44.979  23.326  24.172  1.00  0.00     0.010 A 
ATOM     71  C   UNL A   1      45.239  22.469  26.426  1.00  0.00     0.010 A 
ATOM     72  C   UNL A   1      44.881  22.019  23.689  1.00  0.00     0.020 A 
ATOM     73  C   UNL A   1      45.169  21.161  25.943  1.00  0.00     0.020 A 
ATOM     74  C   UNL A   1      44.984  20.944  24.577  1.00  0.00     0.054 A 
BRANCH  74  75
ATOM     75  S   UNL A   1      44.953  19.252  23.921  1.00  0.00     0.124 S 
ATOM     76  O   UNL A   1      46.373  18.920  23.876  1.00  0.00    -0.237 OA
ATOM     77  O   UNL A   1      44.168  18.535  24.923  1.00  0.00    -0.237 OA
ATOM     78  O   UNL A   1      44.300  19.404  22.623  1.00  0.00    -0.744 OA
ENDBRANCH  74  75
ENDBRANCH  46  69
BRANCH  58  79
ATOM     79  C   UNL A   1      50.575  27.928  25.874  1.00  0.00    -0.014 A 
ATOM     80  C   UNL A   1      51.536  27.427  26.770  1.00  0.00     0.010 A 
ATOM     81  C   UNL A   1      50.964  28.280  24.570  1.00  0.00     0.010 A 
ATOM     82  C   UNL A   1      52.871  27.309  26.375  1.00  0.00     0.020 A 
ATOM     83  C   UNL A   1      52.295  28.146  24.167  1.00  0.00     0.020 A 
ATOM     84  C   UNL A   1      53.243  27.675  25.079  1.00  0.00     0.054 A 
BRANCH  84  85
ATOM     85  S   UNL A   1      54.977  27.486  24.577  1.00  0.00     0.124 S 
ATOM     86  O   UNL A   1      54.986  28.138  23.270  1.00  0.00    -0.237 OA
ATOM     87  O   UNL A   1      55.700  28.189  25.634  1.00  0.00    -0.237 OA
ATOM     88  O   UNL A   1      55.173  26.038  24.554  1.00  0.00    -0.744 OA
ENDBRANCH  84  85
ENDBRANCH  58  79
ENDBRANCH  32  33
ENDBRANCH  25  27
ENDBRANCH  24  25
ENDBRANCH  23  24
ENDBRANCH   1  23
TORSDOF 17
ENDMDL
