MODEL 1
REMARK VINA RESULT:     -13.8      0.000      0.000
REMARK SMILES CC(=O)Nc1ccc(/C=C2/CCc3oc(C(=O)OCCOC(=O)c4ccc(-c5c6nc(c(-c7ccc(S(=O)(=O)[O-])cc7)c7ccc([nH]7)c(-c7ccc(S(=O)(=O)[O-])cc7)c7nc(c(-c8ccc(S(=O)(=O)[O-])cc8)c8ccc5[nH]8)C=C7)C=C6)cc4)c(C)c3C2=O)cc1
REMARK SMILES IDX 20 1 19 2 18 3 16 4 17 5 15 6 9 7 10 8 11 9 87 10 12 11
REMARK SMILES IDX 86 12 88 13 13 14 84 15 14 16 85 17 8 18 5 19 6 20 90 21
REMARK SMILES IDX 7 22 89 23 4 24 1 25 2 26 3 27 21 29 22 30 23 31 24 32 25 33
REMARK SMILES IDX 83 34 26 35 82 36 27 37 28 38 29 39 76 40 30 41 81 42 75 43
REMARK SMILES IDX 77 44 31 45 80 46 74 47 73 48 32 50 62 51 43 52 61 53 44 54
REMARK SMILES IDX 47 55 60 56 78 57 45 58 46 59 59 61 79 62 48 63 33 64 34 65
REMARK SMILES IDX 42 66 35 67 41 68 36 69 37 70 38 71 39 72 40 73 63 74 64 75
REMARK SMILES IDX 72 76 65 77 71 78 66 79 67 80 68 81 69 82 70 83 49 84 50 85
REMARK SMILES IDX 58 86 51 87 57 88 52 89 53 90 54 91 55 92 56 93
REMARK H PARENT 4 28 77 49 47 60
REMARK Flexibility Score: inf
ROOT
ATOM      1  C   UNL A   1      38.762  21.110  25.658  1.00  0.00     0.275 C 
ENDROOT
BRANCH   1   2
ATOM      2  C   UNL A   1      37.536  21.189  24.758  1.00  0.00     0.275 C 
BRANCH   2   3
ATOM      3  O   UNL A   1      36.957  22.503  24.746  1.00  0.00    -0.456 OA
BRANCH   3   4
ATOM      4  C   UNL A   1      36.175  22.819  23.669  1.00  0.00     0.374 C 
ATOM      5  O   UNL A   1      36.581  22.861  22.509  1.00  0.00    -0.242 OA
BRANCH   4   6
ATOM      6  C   UNL A   1      34.808  23.046  24.089  1.00  0.00     0.215 A 
ATOM      7  C   UNL A   1      30.028  25.497  25.685  1.00  0.00     0.016 C 
ATOM      8  C   UNL A   1      30.680  24.324  25.536  1.00  0.00     0.001 C 
ATOM      9  C   UNL A   1      31.055  23.447  26.729  1.00  0.00     0.048 C 
ATOM     10  C   UNL A   1      31.204  23.784  24.234  1.00  0.00     0.192 C 
ATOM     11  C   UNL A   1      32.586  23.331  26.899  1.00  0.00     0.081 C 
ATOM     12  C   UNL A   1      32.613  23.468  24.338  1.00  0.00     0.067 A 
ATOM     13  O   UNL A   1      30.523  23.613  23.235  1.00  0.00    -0.289 OA
ATOM     14  C   UNL A   1      33.207  23.263  25.559  1.00  0.00     0.116 A 
ATOM     15  C   UNL A   1      33.643  23.316  23.367  1.00  0.00     0.014 A 
ATOM     16  O   UNL A   1      34.524  23.013  25.436  1.00  0.00    -0.453 OA
ATOM     17  C   UNL A   1      33.468  23.437  21.896  1.00  0.00     0.049 C 
BRANCH   7  18
ATOM     18  C   UNL A   1      29.676  26.586  24.743  1.00  0.00    -0.025 A 
ATOM     19  C   UNL A   1      29.220  28.710  22.905  1.00  0.00     0.041 A 
ATOM     20  C   UNL A   1      28.240  27.755  23.150  1.00  0.00     0.027 A 
ATOM     21  C   UNL A   1      30.417  28.633  23.609  1.00  0.00     0.027 A 
ATOM     22  C   UNL A   1      28.482  26.689  24.027  1.00  0.00     0.010 A 
ATOM     23  C   UNL A   1      30.636  27.590  24.523  1.00  0.00     0.010 A 
BRANCH  19  24
ATOM     24  N   UNL A   1      28.909  29.727  21.990  1.00  0.00    -0.326 N 
ATOM     25  C   UNL A   1      27.731  31.302  23.504  1.00  0.00     0.114 C 
ATOM     26  C   UNL A   1      28.138  30.845  22.129  1.00  0.00     0.221 C 
ATOM     27  O   UNL A   1      27.855  31.515  21.134  1.00  0.00    -0.275 OA
ATOM     28  H   UNL A   1      29.314  29.615  21.100  1.00  0.00     0.169 HD
ENDBRANCH  19  24
ENDBRANCH   7  18
ENDBRANCH   4   6
ENDBRANCH   3   4
ENDBRANCH   2   3
ENDBRANCH   1   2
BRANCH   1  29
ATOM     29  O   UNL A   1      39.003  22.348  26.324  1.00  0.00    -0.458 OA
BRANCH  29  30
ATOM     30  C   UNL A   1      40.173  22.411  26.999  1.00  0.00     0.338 C 
ATOM     31  O   UNL A   1      40.759  21.486  27.537  1.00  0.00    -0.246 OA
BRANCH  30  32
ATOM     32  C   UNL A   1      40.562  23.812  27.168  1.00  0.00     0.060 A 
ATOM     33  C   UNL A   1      41.665  24.071  27.987  1.00  0.00     0.016 A 
ATOM     34  C   UNL A   1      39.690  24.829  26.754  1.00  0.00     0.016 A 
ATOM     35  C   UNL A   1      41.783  25.326  28.542  1.00  0.00     0.010 A 
ATOM     36  C   UNL A   1      39.807  26.078  27.314  1.00  0.00     0.010 A 
ATOM     37  C   UNL A   1      40.803  26.287  28.262  1.00  0.00    -0.014 A 
BRANCH  37  38
ATOM     38  C   UNL A   1      40.927  27.587  28.884  1.00  0.00     0.031 A 
ATOM     39  C   UNL A   1      42.075  28.338  28.337  1.00  0.00     0.074 A 
ATOM     40  C   UNL A   1      40.041  28.073  29.774  1.00  0.00     0.049 A 
ATOM     41  N   UNL A   1      43.242  28.468  28.871  1.00  0.00    -0.248 NA
ATOM     42  C   UNL A   1      42.003  28.780  26.933  1.00  0.00     0.031 C 
ATOM     43  C   UNL A   1      38.731  27.519  30.131  1.00  0.00     0.029 A 
ATOM     44  N   UNL A   1      40.084  29.231  30.485  1.00  0.00    -0.354 N 
ATOM     45  C   UNL A   1      43.955  29.266  27.987  1.00  0.00     0.074 A 
ATOM     46  C   UNL A   1      43.254  29.199  26.731  1.00  0.00     0.031 C 
ATOM     47  C   UNL A   1      38.013  28.459  30.792  1.00  0.00     0.029 A 
ATOM     48  C   UNL A   1      38.868  29.608  31.044  1.00  0.00     0.049 A 
ATOM     49  H   UNL A   1      40.908  29.759  30.595  1.00  0.00     0.167 HD
ATOM     50  C   UNL A   1      44.824  30.202  28.458  1.00  0.00     0.031 A 
ATOM     51  C   UNL A   1      38.589  30.799  31.632  1.00  0.00     0.031 A 
ATOM     52  C   UNL A   1      45.082  30.005  29.861  1.00  0.00     0.049 A 
ATOM     53  C   UNL A   1      39.883  31.383  32.058  1.00  0.00     0.074 A 
ATOM     54  C   UNL A   1      45.804  29.131  30.640  1.00  0.00     0.029 A 
ATOM     55  N   UNL A   1      44.149  30.607  30.669  1.00  0.00    -0.354 N 
ATOM     56  N   UNL A   1      40.643  30.835  32.967  1.00  0.00    -0.248 NA
ATOM     57  C   UNL A   1      40.538  32.370  31.208  1.00  0.00     0.031 C 
ATOM     58  C   UNL A   1      45.150  29.102  31.908  1.00  0.00     0.029 A 
ATOM     59  C   UNL A   1      44.080  29.999  31.890  1.00  0.00     0.049 A 
ATOM     60  H   UNL A   1      43.600  31.378  30.402  1.00  0.00     0.167 HD
ATOM     61  C   UNL A   1      41.932  31.077  32.529  1.00  0.00     0.074 A 
ATOM     62  C   UNL A   1      41.812  32.152  31.552  1.00  0.00     0.031 C 
ATOM     63  C   UNL A   1      42.933  30.177  32.758  1.00  0.00     0.031 A 
BRANCH  50  64
ATOM     64  C   UNL A   1      44.977  31.575  27.838  1.00  0.00    -0.014 A 
ATOM     65  C   UNL A   1      46.268  32.014  27.485  1.00  0.00     0.010 A 
ATOM     66  C   UNL A   1      43.959  32.553  27.862  1.00  0.00     0.010 A 
ATOM     67  C   UNL A   1      46.532  33.364  27.212  1.00  0.00     0.020 A 
ATOM     68  C   UNL A   1      44.202  33.893  27.558  1.00  0.00     0.020 A 
ATOM     69  C   UNL A   1      45.493  34.295  27.255  1.00  0.00     0.054 A 
BRANCH  69  70
ATOM     70  S   UNL A   1      45.850  36.043  26.960  1.00  0.00     0.124 S 
ATOM     71  O   UNL A   1      44.511  36.609  26.831  1.00  0.00    -0.237 OA
ATOM     72  O   UNL A   1      46.584  36.414  28.167  1.00  0.00    -0.237 OA
ATOM     73  O   UNL A   1      46.646  36.026  25.734  1.00  0.00    -0.744 OA
ENDBRANCH  69  70
ENDBRANCH  50  64
BRANCH  51  74
ATOM     74  C   UNL A   1      37.344  31.606  31.535  1.00  0.00    -0.014 A 
ATOM     75  C   UNL A   1      36.346  31.533  32.528  1.00  0.00     0.010 A 
ATOM     76  C   UNL A   1      37.278  32.679  30.623  1.00  0.00     0.010 A 
ATOM     77  C   UNL A   1      35.363  32.533  32.644  1.00  0.00     0.020 A 
ATOM     78  C   UNL A   1      36.301  33.677  30.732  1.00  0.00     0.020 A 
ATOM     79  C   UNL A   1      35.361  33.614  31.759  1.00  0.00     0.054 A 
BRANCH  79  80
ATOM     80  S   UNL A   1      34.205  34.993  32.025  1.00  0.00     0.124 S 
ATOM     81  O   UNL A   1      35.006  35.924  32.814  1.00  0.00    -0.237 OA
ATOM     82  O   UNL A   1      33.900  35.422  30.663  1.00  0.00    -0.237 OA
ATOM     83  O   UNL A   1      33.090  34.376  32.742  1.00  0.00    -0.744 OA
ENDBRANCH  79  80
ENDBRANCH  51  74
BRANCH  63  84
ATOM     84  C   UNL A   1      42.786  29.234  33.920  1.00  0.00    -0.014 A 
ATOM     85  C   UNL A   1      42.965  29.582  35.271  1.00  0.00     0.010 A 
ATOM     86  C   UNL A   1      42.350  27.935  33.607  1.00  0.00     0.010 A 
ATOM     87  C   UNL A   1      42.726  28.636  36.283  1.00  0.00     0.020 A 
ATOM     88  C   UNL A   1      42.094  26.999  34.607  1.00  0.00     0.020 A 
ATOM     89  C   UNL A   1      42.293  27.349  35.941  1.00  0.00     0.054 A 
BRANCH  89  90
ATOM     90  S   UNL A   1      41.958  26.132  37.246  1.00  0.00     0.124 S 
ATOM     91  O   UNL A   1      40.630  26.521  37.710  1.00  0.00    -0.237 OA
ATOM     92  O   UNL A   1      42.029  24.861  36.529  1.00  0.00    -0.237 OA
ATOM     93  O   UNL A   1      43.037  26.349  38.210  1.00  0.00    -0.744 OA
ENDBRANCH  89  90
ENDBRANCH  63  84
ENDBRANCH  37  38
ENDBRANCH  30  32
ENDBRANCH  29  30
ENDBRANCH   1  29
TORSDOF 16
ENDMDL
MODEL 2
REMARK VINA RESULT:     -13.4      3.463      9.872
REMARK SMILES CC(=O)Nc1ccc(/C=C2/CCc3oc(C(=O)OCCOC(=O)c4ccc(-c5c6nc(c(-c7ccc(S(=O)(=O)[O-])cc7)c7ccc([nH]7)c(-c7ccc(S(=O)(=O)[O-])cc7)c7nc(c(-c8ccc(S(=O)(=O)[O-])cc8)c8ccc5[nH]8)C=C7)C=C6)cc4)c(C)c3C2=O)cc1
REMARK SMILES IDX 20 1 19 2 18 3 16 4 17 5 15 6 9 7 10 8 11 9 87 10 12 11
REMARK SMILES IDX 86 12 88 13 13 14 84 15 14 16 85 17 8 18 5 19 6 20 90 21
REMARK SMILES IDX 7 22 89 23 4 24 1 25 2 26 3 27 21 29 22 30 23 31 24 32 25 33
REMARK SMILES IDX 83 34 26 35 82 36 27 37 28 38 29 39 76 40 30 41 81 42 75 43
REMARK SMILES IDX 77 44 31 45 80 46 74 47 73 48 32 50 62 51 43 52 61 53 44 54
REMARK SMILES IDX 47 55 60 56 78 57 45 58 46 59 59 61 79 62 48 63 33 64 34 65
REMARK SMILES IDX 42 66 35 67 41 68 36 69 37 70 38 71 39 72 40 73 63 74 64 75
REMARK SMILES IDX 72 76 65 77 71 78 66 79 67 80 68 81 69 82 70 83 49 84 50 85
REMARK SMILES IDX 58 86 51 87 57 88 52 89 53 90 54 91 55 92 56 93
REMARK H PARENT 4 28 77 49 47 60
REMARK Flexibility Score: inf
ROOT
ATOM      1  C   UNL A   1      32.948  31.300  27.241  1.00  0.00     0.275 C 
ENDROOT
BRANCH   1   2
ATOM      2  C   UNL A   1      32.586  30.437  26.039  1.00  0.00     0.275 C 
BRANCH   2   3
ATOM      3  O   UNL A   1      31.395  29.666  26.265  1.00  0.00    -0.456 OA
BRANCH   3   4
ATOM      4  C   UNL A   1      31.570  28.384  26.707  1.00  0.00     0.374 C 
ATOM      5  O   UNL A   1      31.579  28.057  27.894  1.00  0.00    -0.242 OA
BRANCH   4   6
ATOM      6  C   UNL A   1      31.694  27.477  25.586  1.00  0.00     0.215 A 
ATOM      7  C   UNL A   1      33.223  23.221  22.277  1.00  0.00     0.016 C 
ATOM      8  C   UNL A   1      32.561  24.395  22.342  1.00  0.00     0.001 C 
ATOM      9  C   UNL A   1      33.030  25.634  21.582  1.00  0.00     0.048 C 
ATOM     10  C   UNL A   1      31.373  24.672  23.222  1.00  0.00     0.192 C 
ATOM     11  C   UNL A   1      33.461  26.768  22.538  1.00  0.00     0.081 C 
ATOM     12  C   UNL A   1      31.604  25.841  24.045  1.00  0.00     0.067 A 
ATOM     13  O   UNL A   1      30.345  24.013  23.220  1.00  0.00    -0.289 OA
ATOM     14  C   UNL A   1      32.552  26.774  23.705  1.00  0.00     0.116 A 
ATOM     15  C   UNL A   1      31.025  26.294  25.264  1.00  0.00     0.014 A 
ATOM     16  O   UNL A   1      32.628  27.763  24.615  1.00  0.00    -0.453 OA
ATOM     17  C   UNL A   1      29.938  25.608  26.011  1.00  0.00     0.049 C 
BRANCH   7  18
ATOM     18  C   UNL A   1      33.079  21.936  23.002  1.00  0.00    -0.025 A 
ATOM     19  C   UNL A   1      32.739  19.377  24.201  1.00  0.00     0.041 A 
ATOM     20  C   UNL A   1      33.553  20.339  24.789  1.00  0.00     0.027 A 
ATOM     21  C   UNL A   1      32.056  19.704  23.034  1.00  0.00     0.027 A 
ATOM     22  C   UNL A   1      33.747  21.584  24.176  1.00  0.00     0.010 A 
ATOM     23  C   UNL A   1      32.218  20.971  22.449  1.00  0.00     0.010 A 
BRANCH  19  24
ATOM     24  N   UNL A   1      32.621  18.145  24.862  1.00  0.00    -0.326 N 
ATOM     25  C   UNL A   1      34.014  16.736  23.368  1.00  0.00     0.114 C 
ATOM     26  C   UNL A   1      33.033  16.896  24.499  1.00  0.00     0.221 C 
ATOM     27  O   UNL A   1      32.666  15.920  25.156  1.00  0.00    -0.275 OA
ATOM     28  H   UNL A   1      32.163  18.190  25.732  1.00  0.00     0.169 HD
ENDBRANCH  19  24
ENDBRANCH   7  18
ENDBRANCH   4   6
ENDBRANCH   3   4
ENDBRANCH   2   3
ENDBRANCH   1   2
BRANCH   1  29
ATOM     29  O   UNL A   1      34.114  30.813  27.903  1.00  0.00    -0.458 OA
BRANCH  29  30
ATOM     30  C   UNL A   1      35.083  31.736  28.095  1.00  0.00     0.338 C 
ATOM     31  O   UNL A   1      35.114  32.870  27.647  1.00  0.00    -0.246 OA
BRANCH  30  32
ATOM     32  C   UNL A   1      36.219  31.113  28.776  1.00  0.00     0.060 A 
ATOM     33  C   UNL A   1      37.343  31.913  29.000  1.00  0.00     0.016 A 
ATOM     34  C   UNL A   1      36.259  29.719  28.926  1.00  0.00     0.016 A 
ATOM     35  C   UNL A   1      38.557  31.292  29.194  1.00  0.00     0.010 A 
ATOM     36  C   UNL A   1      37.473  29.102  29.113  1.00  0.00     0.010 A 
ATOM     37  C   UNL A   1      38.615  29.892  29.164  1.00  0.00    -0.014 A 
BRANCH  37  38
ATOM     38  C   UNL A   1      39.906  29.261  29.334  1.00  0.00     0.031 A 
ATOM     39  C   UNL A   1      40.233  29.081  30.762  1.00  0.00     0.074 A 
ATOM     40  C   UNL A   1      40.654  28.812  28.309  1.00  0.00     0.049 A 
ATOM     41  N   UNL A   1      41.003  29.826  31.481  1.00  0.00    -0.248 NA
ATOM     42  C   UNL A   1      39.425  28.125  31.540  1.00  0.00     0.031 C 
ATOM     43  C   UNL A   1      40.264  28.680  26.901  1.00  0.00     0.029 A 
ATOM     44  N   UNL A   1      41.905  28.279  28.327  1.00  0.00    -0.354 N 
ATOM     45  C   UNL A   1      40.997  29.240  32.740  1.00  0.00     0.074 A 
ATOM     46  C   UNL A   1      39.836  28.390  32.781  1.00  0.00     0.031 C 
ATOM     47  C   UNL A   1      41.157  27.888  26.261  1.00  0.00     0.029 A 
ATOM     48  C   UNL A   1      42.256  27.597  27.167  1.00  0.00     0.049 A 
ATOM     49  H   UNL A   1      42.513  28.371  29.096  1.00  0.00     0.167 HD
ATOM     50  C   UNL A   1      42.136  29.206  33.485  1.00  0.00     0.031 A 
ATOM     51  C   UNL A   1      43.356  26.819  26.995  1.00  0.00     0.031 A 
ATOM     52  C   UNL A   1      43.139  30.080  32.932  1.00  0.00     0.049 A 
ATOM     53  C   UNL A   1      44.352  27.250  28.004  1.00  0.00     0.074 A 
ATOM     54  C   UNL A   1      43.374  31.434  32.871  1.00  0.00     0.029 A 
ATOM     55  N   UNL A   1      43.884  29.485  31.944  1.00  0.00    -0.354 N 
ATOM     56  N   UNL A   1      44.892  28.438  28.005  1.00  0.00    -0.248 NA
ATOM     57  C   UNL A   1      44.471  26.509  29.254  1.00  0.00     0.031 C 
ATOM     58  C   UNL A   1      44.151  31.646  31.693  1.00  0.00     0.029 A 
ATOM     59  C   UNL A   1      44.419  30.413  31.096  1.00  0.00     0.049 A 
ATOM     60  H   UNL A   1      44.016  28.514  31.858  1.00  0.00     0.167 HD
ATOM     61  C   UNL A   1      45.026  28.755  29.344  1.00  0.00     0.074 A 
ATOM     62  C   UNL A   1      44.913  27.486  30.052  1.00  0.00     0.031 C 
ATOM     63  C   UNL A   1      44.899  30.043  29.779  1.00  0.00     0.031 A 
BRANCH  50  64
ATOM     64  C   UNL A   1      42.541  28.012  34.323  1.00  0.00    -0.014 A 
ATOM     65  C   UNL A   1      42.715  28.191  35.710  1.00  0.00     0.010 A 
ATOM     66  C   UNL A   1      43.038  26.812  33.772  1.00  0.00     0.010 A 
ATOM     67  C   UNL A   1      43.386  27.241  36.491  1.00  0.00     0.020 A 
ATOM     68  C   UNL A   1      43.677  25.841  34.545  1.00  0.00     0.020 A 
ATOM     69  C   UNL A   1      43.867  26.072  35.899  1.00  0.00     0.054 A 
BRANCH  69  70
ATOM     70  S   UNL A   1      44.782  24.876  36.900  1.00  0.00     0.124 S 
ATOM     71  O   UNL A   1      44.364  23.607  36.315  1.00  0.00    -0.237 OA
ATOM     72  O   UNL A   1      46.168  25.266  36.651  1.00  0.00    -0.237 OA
ATOM     73  O   UNL A   1      44.304  25.131  38.257  1.00  0.00    -0.744 OA
ENDBRANCH  69  70
ENDBRANCH  50  64
BRANCH  51  74
ATOM     74  C   UNL A   1      43.466  25.527  26.267  1.00  0.00    -0.014 A 
ATOM     75  C   UNL A   1      44.433  25.335  25.260  1.00  0.00     0.010 A 
ATOM     76  C   UNL A   1      42.823  24.382  26.780  1.00  0.00     0.010 A 
ATOM     77  C   UNL A   1      44.790  24.043  24.833  1.00  0.00     0.020 A 
ATOM     78  C   UNL A   1      43.173  23.093  26.359  1.00  0.00     0.020 A 
ATOM     79  C   UNL A   1      44.174  22.926  25.404  1.00  0.00     0.054 A 
BRANCH  79  80
ATOM     80  S   UNL A   1      44.766  21.258  24.983  1.00  0.00     0.124 S 
ATOM     81  O   UNL A   1      44.763  21.284  23.524  1.00  0.00    -0.237 OA
ATOM     82  O   UNL A   1      46.084  21.218  25.611  1.00  0.00    -0.237 OA
ATOM     83  O   UNL A   1      43.768  20.376  25.587  1.00  0.00    -0.744 OA
ENDBRANCH  79  80
ENDBRANCH  51  74
BRANCH  63  84
ATOM     84  C   UNL A   1      45.166  31.152  28.799  1.00  0.00    -0.014 A 
ATOM     85  C   UNL A   1      46.439  31.653  28.472  1.00  0.00     0.010 A 
ATOM     86  C   UNL A   1      44.046  31.645  28.107  1.00  0.00     0.010 A 
ATOM     87  C   UNL A   1      46.578  32.640  27.481  1.00  0.00     0.020 A 
ATOM     88  C   UNL A   1      44.180  32.611  27.113  1.00  0.00     0.020 A 
ATOM     89  C   UNL A   1      45.445  33.113  26.810  1.00  0.00     0.054 A 
BRANCH  89  90
ATOM     90  S   UNL A   1      45.622  34.371  25.513  1.00  0.00     0.124 S 
ATOM     91  O   UNL A   1      45.083  35.567  26.154  1.00  0.00    -0.237 OA
ATOM     92  O   UNL A   1      47.062  34.382  25.267  1.00  0.00    -0.237 OA
ATOM     93  O   UNL A   1      44.818  33.848  24.408  1.00  0.00    -0.744 OA
ENDBRANCH  89  90
ENDBRANCH  63  84
ENDBRANCH  37  38
ENDBRANCH  30  32
ENDBRANCH  29  30
ENDBRANCH   1  29
TORSDOF 16
ENDMDL
MODEL 3
REMARK VINA RESULT:     -13.2      2.089      3.079
REMARK SMILES CC(=O)Nc1ccc(/C=C2/CCc3oc(C(=O)OCCOC(=O)c4ccc(-c5c6nc(c(-c7ccc(S(=O)(=O)[O-])cc7)c7ccc([nH]7)c(-c7ccc(S(=O)(=O)[O-])cc7)c7nc(c(-c8ccc(S(=O)(=O)[O-])cc8)c8ccc5[nH]8)C=C7)C=C6)cc4)c(C)c3C2=O)cc1
REMARK SMILES IDX 20 1 19 2 18 3 16 4 17 5 15 6 9 7 10 8 11 9 87 10 12 11
REMARK SMILES IDX 86 12 88 13 13 14 84 15 14 16 85 17 8 18 5 19 6 20 90 21
REMARK SMILES IDX 7 22 89 23 4 24 1 25 2 26 3 27 21 29 22 30 23 31 24 32 25 33
REMARK SMILES IDX 83 34 26 35 82 36 27 37 28 38 29 39 76 40 30 41 81 42 75 43
REMARK SMILES IDX 77 44 31 45 80 46 74 47 73 48 32 50 62 51 43 52 61 53 44 54
REMARK SMILES IDX 47 55 60 56 78 57 45 58 46 59 59 61 79 62 48 63 33 64 34 65
REMARK SMILES IDX 42 66 35 67 41 68 36 69 37 70 38 71 39 72 40 73 63 74 64 75
REMARK SMILES IDX 72 76 65 77 71 78 66 79 67 80 68 81 69 82 70 83 49 84 50 85
REMARK SMILES IDX 58 86 51 87 57 88 52 89 53 90 54 91 55 92 56 93
REMARK H PARENT 4 28 77 49 47 60
REMARK Flexibility Score: inf
ROOT
ATOM      1  C   UNL A   1      37.834  21.074  25.270  1.00  0.00     0.275 C 
ENDROOT
BRANCH   1   2
ATOM      2  C   UNL A   1      36.319  21.104  25.119  1.00  0.00     0.275 C 
BRANCH   2   3
ATOM      3  O   UNL A   1      35.682  21.815  26.192  1.00  0.00    -0.456 OA
BRANCH   3   4
ATOM      4  C   UNL A   1      34.339  21.610  26.351  1.00  0.00     0.374 C 
ATOM      5  O   UNL A   1      33.840  20.543  26.705  1.00  0.00    -0.242 OA
BRANCH   4   6
ATOM      6  C   UNL A   1      33.609  22.833  26.089  1.00  0.00     0.215 A 
ATOM      7  C   UNL A   1      31.389  27.956  26.560  1.00  0.00     0.016 C 
ATOM      8  C   UNL A   1      31.402  26.812  25.844  1.00  0.00     0.001 C 
ATOM      9  C   UNL A   1      30.184  25.895  25.760  1.00  0.00     0.048 C 
ATOM     10  C   UNL A   1      32.603  26.245  25.139  1.00  0.00     0.192 C 
ATOM     11  C   UNL A   1      30.453  24.520  26.412  1.00  0.00     0.081 C 
ATOM     12  C   UNL A   1      32.842  24.877  25.550  1.00  0.00     0.067 A 
ATOM     13  O   UNL A   1      33.268  26.852  24.314  1.00  0.00    -0.289 OA
ATOM     14  C   UNL A   1      31.846  24.121  26.117  1.00  0.00     0.116 A 
ATOM     15  C   UNL A   1      33.997  24.045  25.512  1.00  0.00     0.014 A 
ATOM     16  O   UNL A   1      32.283  22.893  26.453  1.00  0.00    -0.453 OA
ATOM     17  C   UNL A   1      35.324  24.433  24.967  1.00  0.00     0.049 C 
BRANCH   7  18
ATOM     18  C   UNL A   1      32.442  28.935  26.924  1.00  0.00    -0.025 A 
ATOM     19  C   UNL A   1      34.614  30.657  27.571  1.00  0.00     0.041 A 
ATOM     20  C   UNL A   1      33.366  31.174  27.240  1.00  0.00     0.027 A 
ATOM     21  C   UNL A   1      34.770  29.275  27.622  1.00  0.00     0.027 A 
ATOM     22  C   UNL A   1      32.310  30.324  26.885  1.00  0.00     0.010 A 
ATOM     23  C   UNL A   1      33.694  28.428  27.312  1.00  0.00     0.010 A 
BRANCH  19  24
ATOM     24  N   UNL A   1      35.626  31.575  27.885  1.00  0.00    -0.326 N 
ATOM     25  C   UNL A   1      34.233  33.525  28.530  1.00  0.00     0.114 C 
ATOM     26  C   UNL A   1      35.560  32.905  28.185  1.00  0.00     0.221 C 
ATOM     27  O   UNL A   1      36.600  33.564  28.255  1.00  0.00    -0.275 OA
ATOM     28  H   UNL A   1      36.535  31.198  27.887  1.00  0.00     0.169 HD
ENDBRANCH  19  24
ENDBRANCH   7  18
ENDBRANCH   4   6
ENDBRANCH   3   4
ENDBRANCH   2   3
ENDBRANCH   1   2
BRANCH   1  29
ATOM     29  O   UNL A   1      38.348  22.351  25.645  1.00  0.00    -0.458 OA
BRANCH  29  30
ATOM     30  C   UNL A   1      39.585  22.327  26.191  1.00  0.00     0.338 C 
ATOM     31  O   UNL A   1      40.433  21.463  26.044  1.00  0.00    -0.246 OA
BRANCH  30  32
ATOM     32  C   UNL A   1      39.707  23.412  27.165  1.00  0.00     0.060 A 
ATOM     33  C   UNL A   1      38.757  24.434  27.101  1.00  0.00     0.016 A 
ATOM     34  C   UNL A   1      40.884  23.539  27.918  1.00  0.00     0.016 A 
ATOM     35  C   UNL A   1      39.078  25.658  27.645  1.00  0.00     0.010 A 
ATOM     36  C   UNL A   1      41.205  24.763  28.454  1.00  0.00     0.010 A 
ATOM     37  C   UNL A   1      40.335  25.827  28.241  1.00  0.00    -0.014 A 
BRANCH  37  38
ATOM     38  C   UNL A   1      40.666  27.130  28.775  1.00  0.00     0.031 A 
ATOM     39  C   UNL A   1      41.863  27.692  28.118  1.00  0.00     0.074 A 
ATOM     40  C   UNL A   1      39.910  27.775  29.684  1.00  0.00     0.049 A 
ATOM     41  N   UNL A   1      43.069  27.694  28.576  1.00  0.00    -0.248 NA
ATOM     42  C   UNL A   1      41.758  28.066  26.697  1.00  0.00     0.031 C 
ATOM     43  C   UNL A   1      38.566  27.419  30.149  1.00  0.00     0.029 A 
ATOM     44  N   UNL A   1      40.148  28.953  30.319  1.00  0.00    -0.354 N 
ATOM     45  C   UNL A   1      43.820  28.343  27.605  1.00  0.00     0.074 A 
ATOM     46  C   UNL A   1      43.036  28.304  26.398  1.00  0.00     0.031 C 
ATOM     47  C   UNL A   1      38.019  28.479  30.791  1.00  0.00     0.029 A 
ATOM     48  C   UNL A   1      39.030  29.517  30.923  1.00  0.00     0.049 A 
ATOM     49  H   UNL A   1      41.039  29.372  30.349  1.00  0.00     0.167 HD
ATOM     50  C   UNL A   1      44.831  29.180  27.967  1.00  0.00     0.031 A 
ATOM     51  C   UNL A   1      38.946  30.764  31.453  1.00  0.00     0.031 A 
ATOM     52  C   UNL A   1      45.153  29.024  29.362  1.00  0.00     0.049 A 
ATOM     53  C   UNL A   1      40.329  31.192  31.768  1.00  0.00     0.074 A 
ATOM     54  C   UNL A   1      45.805  28.105  30.150  1.00  0.00     0.029 A 
ATOM     55  N   UNL A   1      44.360  29.786  30.184  1.00  0.00    -0.354 N 
ATOM     56  N   UNL A   1      41.070  30.597  32.663  1.00  0.00    -0.248 NA
ATOM     57  C   UNL A   1      41.049  32.037  30.823  1.00  0.00     0.031 C 
ATOM     58  C   UNL A   1      45.237  28.229  31.453  1.00  0.00     0.029 A 
ATOM     59  C   UNL A   1      44.293  29.257  31.443  1.00  0.00     0.049 A 
ATOM     60  H   UNL A   1      43.899  30.608  29.903  1.00  0.00     0.167 HD
ATOM     61  C   UNL A   1      42.348  30.643  32.138  1.00  0.00     0.074 A 
ATOM     62  C   UNL A   1      42.304  31.671  31.106  1.00  0.00     0.031 C 
ATOM     63  C   UNL A   1      43.237  29.631  32.363  1.00  0.00     0.031 A 
BRANCH  50  64
ATOM     64  C   UNL A   1      45.119  30.486  27.257  1.00  0.00    -0.014 A 
ATOM     65  C   UNL A   1      46.462  30.873  27.078  1.00  0.00     0.010 A 
ATOM     66  C   UNL A   1      44.139  31.475  27.027  1.00  0.00     0.010 A 
ATOM     67  C   UNL A   1      46.803  32.188  26.730  1.00  0.00     0.020 A 
ATOM     68  C   UNL A   1      44.464  32.776  26.645  1.00  0.00     0.020 A 
ATOM     69  C   UNL A   1      45.797  33.132  26.520  1.00  0.00     0.054 A 
BRANCH  69  70
ATOM     70  S   UNL A   1      46.245  34.839  26.127  1.00  0.00     0.124 S 
ATOM     71  O   UNL A   1      46.861  34.698  24.812  1.00  0.00    -0.237 OA
ATOM     72  O   UNL A   1      44.947  35.509  26.153  1.00  0.00    -0.237 OA
ATOM     73  O   UNL A   1      47.153  35.211  27.210  1.00  0.00    -0.744 OA
ENDBRANCH  69  70
ENDBRANCH  50  64
BRANCH  51  74
ATOM     74  C   UNL A   1      37.811  31.722  31.380  1.00  0.00    -0.014 A 
ATOM     75  C   UNL A   1      36.481  31.295  31.565  1.00  0.00     0.010 A 
ATOM     76  C   UNL A   1      38.065  33.107  31.436  1.00  0.00     0.010 A 
ATOM     77  C   UNL A   1      35.458  32.215  31.862  1.00  0.00     0.020 A 
ATOM     78  C   UNL A   1      37.052  34.029  31.730  1.00  0.00     0.020 A 
ATOM     79  C   UNL A   1      35.755  33.576  31.967  1.00  0.00     0.054 A 
BRANCH  79  80
ATOM     80  S   UNL A   1      34.472  34.737  32.530  1.00  0.00     0.124 S 
ATOM     81  O   UNL A   1      35.177  35.513  33.546  1.00  0.00    -0.237 OA
ATOM     82  O   UNL A   1      34.135  35.459  31.306  1.00  0.00    -0.237 OA
ATOM     83  O   UNL A   1      33.417  33.864  33.041  1.00  0.00    -0.744 OA
ENDBRANCH  79  80
ENDBRANCH  51  74
BRANCH  63  84
ATOM     84  C   UNL A   1      43.046  28.779  33.586  1.00  0.00    -0.014 A 
ATOM     85  C   UNL A   1      43.505  29.101  34.876  1.00  0.00     0.010 A 
ATOM     86  C   UNL A   1      42.270  27.619  33.414  1.00  0.00     0.010 A 
ATOM     87  C   UNL A   1      43.201  28.265  35.965  1.00  0.00     0.020 A 
ATOM     88  C   UNL A   1      41.951  26.797  34.492  1.00  0.00     0.020 A 
ATOM     89  C   UNL A   1      42.427  27.117  35.762  1.00  0.00     0.054 A 
BRANCH  89  90
ATOM     90  S   UNL A   1      42.012  26.047  37.169  1.00  0.00     0.124 S 
ATOM     91  O   UNL A   1      42.986  26.455  38.176  1.00  0.00    -0.237 OA
ATOM     92  O   UNL A   1      40.624  26.407  37.452  1.00  0.00    -0.237 OA
ATOM     93  O   UNL A   1      42.195  24.694  36.644  1.00  0.00    -0.744 OA
ENDBRANCH  89  90
ENDBRANCH  63  84
ENDBRANCH  37  38
ENDBRANCH  30  32
ENDBRANCH  29  30
ENDBRANCH   1  29
TORSDOF 16
ENDMDL
