MODEL 1
REMARK VINA RESULT:     -11.2      0.000      0.000
REMARK SMILES Cc1cc2c(c(C)c1Cl)C=C(C(=O)OCCOC(=O)c1ccc(-c3c4nc(c(-c5ccc(S(=O)(=O)[O-])cc5)c5ccc([nH]5)c(-c5ccc(S(=O)(=O)[O-])cc5)c5nc(c(-c6ccc(S(=O)(=O)[O-])cc6)c6ccc3[nH]6)C=C5)C=C4)cc1)[C@@H](C(F)(F)F)O2
REMARK SMILES IDX 16 1 15 2 14 3 12 4 13 5 11 6 1 7 2 8 3 9 8 10 4 11 6 12
REMARK SMILES IDX 9 13 5 14 85 15 7 16 10 17 80 18 81 19 82 20 83 21 84 22
REMARK SMILES IDX 17 23 18 24 19 25 20 26 21 27 79 28 22 29 78 30 23 31 24 32
REMARK SMILES IDX 25 33 72 34 26 35 77 36 71 37 73 38 27 39 76 40 70 41 69 42
REMARK SMILES IDX 28 44 58 45 39 46 57 47 40 48 43 49 56 50 74 51 41 52 42 53
REMARK SMILES IDX 55 55 75 56 44 57 29 58 30 59 38 60 31 61 37 62 32 63 33 64
REMARK SMILES IDX 34 65 35 66 36 67 59 68 60 69 68 70 61 71 67 72 62 73 63 74
REMARK SMILES IDX 64 75 65 76 66 77 45 78 46 79 54 80 47 81 53 82 48 83 49 84
REMARK SMILES IDX 50 85 51 86 52 87
REMARK H PARENT 73 43 43 54
REMARK Flexibility Score: inf
ROOT
ATOM      1  C   UNL A   1      32.155  30.735  26.849  1.00  0.00     0.275 C 
ENDROOT
BRANCH   1   2
ATOM      2  C   UNL A   1      31.546  30.100  25.599  1.00  0.00     0.275 C 
BRANCH   2   3
ATOM      3  O   UNL A   1      31.555  28.658  25.674  1.00  0.00    -0.459 OA
BRANCH   3   4
ATOM      4  C   UNL A   1      31.134  28.017  24.557  1.00  0.00     0.338 C 
ATOM      5  O   UNL A   1      30.142  28.287  23.898  1.00  0.00    -0.246 OA
BRANCH   4   6
ATOM      6  C   UNL A   1      32.047  26.912  24.209  1.00  0.00     0.087 C 
ATOM      7  C   UNL A   1      36.401  22.104  24.070  1.00  0.00     0.046 C 
ATOM      8  C   UNL A   1      35.268  23.041  24.389  1.00  0.00    -0.028 A 
ATOM      9  C   UNL A   1      34.974  24.053  23.463  1.00  0.00     0.052 A 
ATOM     10  C   UNL A   1      34.465  22.915  25.538  1.00  0.00     0.047 A 
ATOM     11  C   UNL A   1      33.949  24.966  23.697  1.00  0.00     0.128 A 
ATOM     12  C   UNL A   1      33.431  23.841  25.804  1.00  0.00    -0.021 A 
ATOM     13  Cl  UNL A   1      34.761  21.590  26.625  1.00  0.00    -0.084 Cl
ATOM     14  C   UNL A   1      33.190  24.882  24.868  1.00  0.00     0.022 A 
ATOM     15  O   UNL A   1      33.753  25.896  22.713  1.00  0.00    -0.475 OA
ATOM     16  C   UNL A   1      32.576  23.730  27.046  1.00  0.00     0.047 C 
ATOM     17  C   UNL A   1      32.181  25.912  25.089  1.00  0.00     0.027 C 
ATOM     18  C   UNL A   1      32.884  27.030  22.974  1.00  0.00     0.316 C 
BRANCH  18  19
ATOM     19  C   UNL A   1      33.734  28.311  22.987  1.00  0.00     0.430 C 
ATOM     20  F   UNL A   1      34.693  28.274  22.031  1.00  0.00    -0.167 F 
ATOM     21  F   UNL A   1      32.985  29.412  22.734  1.00  0.00    -0.167 F 
ATOM     22  F   UNL A   1      34.352  28.506  24.174  1.00  0.00    -0.167 F 
ENDBRANCH  18  19
ENDBRANCH   4   6
ENDBRANCH   3   4
ENDBRANCH   2   3
ENDBRANCH   1   2
BRANCH   1  23
ATOM     23  O   UNL A   1      33.358  30.045  27.236  1.00  0.00    -0.458 OA
BRANCH  23  24
ATOM     24  C   UNL A   1      34.205  30.766  28.005  1.00  0.00     0.338 C 
ATOM     25  O   UNL A   1      33.961  31.800  28.603  1.00  0.00    -0.246 OA
BRANCH  24  26
ATOM     26  C   UNL A   1      35.501  30.080  28.118  1.00  0.00     0.060 A 
ATOM     27  C   UNL A   1      35.915  29.662  29.375  1.00  0.00     0.016 A 
ATOM     28  C   UNL A   1      36.388  30.046  27.046  1.00  0.00     0.016 A 
ATOM     29  C   UNL A   1      37.255  29.373  29.603  1.00  0.00     0.010 A 
ATOM     30  C   UNL A   1      37.704  29.606  27.252  1.00  0.00     0.010 A 
ATOM     31  C   UNL A   1      38.175  29.319  28.548  1.00  0.00    -0.014 A 
BRANCH  31  32
ATOM     32  C   UNL A   1      39.614  29.000  28.809  1.00  0.00     0.031 A 
ATOM     33  C   UNL A   1      40.523  30.023  29.453  1.00  0.00     0.074 A 
ATOM     34  C   UNL A   1      40.114  27.781  28.509  1.00  0.00     0.049 A 
ATOM     35  N   UNL A   1      41.829  30.016  29.564  1.00  0.00    -0.248 NA
ATOM     36  C   UNL A   1      39.886  31.214  30.042  1.00  0.00     0.031 C 
ATOM     37  C   UNL A   1      39.353  26.656  27.956  1.00  0.00     0.029 A 
ATOM     38  N   UNL A   1      41.384  27.271  28.646  1.00  0.00    -0.354 N 
ATOM     39  C   UNL A   1      42.171  31.223  30.169  1.00  0.00     0.074 A 
ATOM     40  C   UNL A   1      40.937  31.939  30.401  1.00  0.00     0.031 C 
ATOM     41  C   UNL A   1      40.142  25.577  27.881  1.00  0.00     0.029 A 
ATOM     42  C   UNL A   1      41.501  25.962  28.235  1.00  0.00     0.049 A 
ATOM     43  H   UNL A   1      42.139  27.792  29.005  1.00  0.00     0.167 HD
ATOM     44  C   UNL A   1      43.402  31.691  30.492  1.00  0.00     0.031 A 
ATOM     45  C   UNL A   1      42.579  25.168  28.091  1.00  0.00     0.031 A 
ATOM     46  C   UNL A   1      44.622  30.948  30.299  1.00  0.00     0.049 A 
ATOM     47  C   UNL A   1      43.938  25.731  28.384  1.00  0.00     0.074 A 
ATOM     48  C   UNL A   1      45.921  31.341  30.573  1.00  0.00     0.029 A 
ATOM     49  N   UNL A   1      44.693  29.652  29.809  1.00  0.00    -0.354 N 
ATOM     50  N   UNL A   1      44.255  26.920  28.838  1.00  0.00    -0.248 NA
ATOM     51  C   UNL A   1      45.088  24.856  28.119  1.00  0.00     0.031 C 
ATOM     52  C   UNL A   1      46.781  30.302  30.203  1.00  0.00     0.029 A 
ATOM     53  C   UNL A   1      46.014  29.237  29.763  1.00  0.00     0.049 A 
ATOM     54  H   UNL A   1      43.919  29.109  29.534  1.00  0.00     0.167 HD
ATOM     55  C   UNL A   1      45.640  26.930  28.931  1.00  0.00     0.074 A 
ATOM     56  C   UNL A   1      46.099  25.625  28.503  1.00  0.00     0.031 C 
ATOM     57  C   UNL A   1      46.457  27.934  29.334  1.00  0.00     0.031 A 
BRANCH  44  58
ATOM     58  C   UNL A   1      43.509  33.089  31.050  1.00  0.00    -0.014 A 
ATOM     59  C   UNL A   1      43.586  33.331  32.434  1.00  0.00     0.010 A 
ATOM     60  C   UNL A   1      43.612  34.178  30.163  1.00  0.00     0.010 A 
ATOM     61  C   UNL A   1      43.737  34.636  32.917  1.00  0.00     0.020 A 
ATOM     62  C   UNL A   1      43.791  35.479  30.640  1.00  0.00     0.020 A 
ATOM     63  C   UNL A   1      43.842  35.701  32.018  1.00  0.00     0.054 A 
BRANCH  63  64
ATOM     64  S   UNL A   1      44.076  37.377  32.674  1.00  0.00     0.124 S 
ATOM     65  O   UNL A   1      44.019  38.189  31.460  1.00  0.00    -0.237 OA
ATOM     66  O   UNL A   1      42.943  37.525  33.582  1.00  0.00    -0.237 OA
ATOM     67  O   UNL A   1      45.386  37.319  33.320  1.00  0.00    -0.744 OA
ENDBRANCH  63  64
ENDBRANCH  44  58
BRANCH  45  68
ATOM     68  C   UNL A   1      42.412  23.777  27.583  1.00  0.00    -0.014 A 
ATOM     69  C   UNL A   1      42.503  23.499  26.208  1.00  0.00     0.010 A 
ATOM     70  C   UNL A   1      42.203  22.711  28.481  1.00  0.00     0.010 A 
ATOM     71  C   UNL A   1      42.391  22.185  25.743  1.00  0.00     0.020 A 
ATOM     72  C   UNL A   1      42.129  21.394  28.024  1.00  0.00     0.020 A 
ATOM     73  C   UNL A   1      42.216  21.139  26.654  1.00  0.00     0.054 A 
BRANCH  73  74
ATOM     74  S   UNL A   1      42.152  19.436  26.033  1.00  0.00     0.124 S 
ATOM     75  O   UNL A   1      43.029  19.504  24.869  1.00  0.00    -0.237 OA
ATOM     76  O   UNL A   1      42.661  18.668  27.167  1.00  0.00    -0.237 OA
ATOM     77  O   UNL A   1      40.735  19.232  25.738  1.00  0.00    -0.744 OA
ENDBRANCH  73  74
ENDBRANCH  45  68
BRANCH  57  78
ATOM     78  C   UNL A   1      47.933  27.645  29.378  1.00  0.00    -0.014 A 
ATOM     79  C   UNL A   1      48.525  27.027  30.494  1.00  0.00     0.010 A 
ATOM     80  C   UNL A   1      48.731  27.961  28.264  1.00  0.00     0.010 A 
ATOM     81  C   UNL A   1      49.896  26.762  30.507  1.00  0.00     0.020 A 
ATOM     82  C   UNL A   1      50.097  27.671  28.261  1.00  0.00     0.020 A 
ATOM     83  C   UNL A   1      50.674  27.086  29.389  1.00  0.00     0.054 A 
BRANCH  83  84
ATOM     84  S   UNL A   1      52.446  26.703  29.422  1.00  0.00     0.124 S 
ATOM     85  O   UNL A   1      53.043  28.034  29.496  1.00  0.00    -0.237 OA
ATOM     86  O   UNL A   1      52.573  25.888  30.628  1.00  0.00    -0.237 OA
ATOM     87  O   UNL A   1      52.670  25.989  28.167  1.00  0.00    -0.744 OA
ENDBRANCH  83  84
ENDBRANCH  57  78
ENDBRANCH  31  32
ENDBRANCH  24  26
ENDBRANCH  23  24
ENDBRANCH   1  23
TORSDOF 15
ENDMDL
MODEL 2
REMARK VINA RESULT:     -10.8      3.074      9.299
REMARK SMILES Cc1cc2c(c(C)c1Cl)C=C(C(=O)OCCOC(=O)c1ccc(-c3c4nc(c(-c5ccc(S(=O)(=O)[O-])cc5)c5ccc([nH]5)c(-c5ccc(S(=O)(=O)[O-])cc5)c5nc(c(-c6ccc(S(=O)(=O)[O-])cc6)c6ccc3[nH]6)C=C5)C=C4)cc1)[C@@H](C(F)(F)F)O2
REMARK SMILES IDX 16 1 15 2 14 3 12 4 13 5 11 6 1 7 2 8 3 9 8 10 4 11 6 12
REMARK SMILES IDX 9 13 5 14 85 15 7 16 10 17 80 18 81 19 82 20 83 21 84 22
REMARK SMILES IDX 17 23 18 24 19 25 20 26 21 27 79 28 22 29 78 30 23 31 24 32
REMARK SMILES IDX 25 33 72 34 26 35 77 36 71 37 73 38 27 39 76 40 70 41 69 42
REMARK SMILES IDX 28 44 58 45 39 46 57 47 40 48 43 49 56 50 74 51 41 52 42 53
REMARK SMILES IDX 55 55 75 56 44 57 29 58 30 59 38 60 31 61 37 62 32 63 33 64
REMARK SMILES IDX 34 65 35 66 36 67 59 68 60 69 68 70 61 71 67 72 62 73 63 74
REMARK SMILES IDX 64 75 65 76 66 77 45 78 46 79 54 80 47 81 53 82 48 83 49 84
REMARK SMILES IDX 50 85 51 86 52 87
REMARK H PARENT 73 43 43 54
REMARK Flexibility Score: inf
ROOT
ATOM      1  C   UNL A   1      36.031  23.552  26.021  1.00  0.00     0.275 C 
ENDROOT
BRANCH   1   2
ATOM      2  C   UNL A   1      35.040  23.168  24.922  1.00  0.00     0.275 C 
BRANCH   2   3
ATOM      3  O   UNL A   1      33.912  24.070  24.881  1.00  0.00    -0.459 OA
BRANCH   3   4
ATOM      4  C   UNL A   1      33.755  24.747  23.718  1.00  0.00     0.338 C 
ATOM      5  O   UNL A   1      34.021  24.337  22.600  1.00  0.00    -0.246 OA
BRANCH   4   6
ATOM      6  C   UNL A   1      33.200  26.092  23.964  1.00  0.00     0.087 C 
ATOM      7  C   UNL A   1      31.119  31.731  26.408  1.00  0.00     0.046 C 
ATOM      8  C   UNL A   1      31.895  30.497  26.035  1.00  0.00    -0.028 A 
ATOM      9  C   UNL A   1      31.374  29.675  25.023  1.00  0.00     0.052 A 
ATOM     10  C   UNL A   1      33.134  30.163  26.613  1.00  0.00     0.047 A 
ATOM     11  C   UNL A   1      32.029  28.510  24.636  1.00  0.00     0.128 A 
ATOM     12  C   UNL A   1      33.808  28.976  26.247  1.00  0.00    -0.021 A 
ATOM     13  Cl  UNL A   1      33.830  31.244  27.783  1.00  0.00    -0.084 Cl
ATOM     14  C   UNL A   1      33.229  28.142  25.252  1.00  0.00     0.022 A 
ATOM     15  O   UNL A   1      31.428  27.803  23.631  1.00  0.00    -0.475 OA
ATOM     16  C   UNL A   1      35.128  28.594  26.877  1.00  0.00     0.047 C 
ATOM     17  C   UNL A   1      33.827  26.873  24.853  1.00  0.00     0.027 C 
ATOM     18  C   UNL A   1      31.896  26.461  23.331  1.00  0.00     0.316 C 
BRANCH  18  19
ATOM     19  C   UNL A   1      30.788  25.459  23.693  1.00  0.00     0.430 C 
ATOM     20  F   UNL A   1      30.793  24.395  22.854  1.00  0.00    -0.167 F 
ATOM     21  F   UNL A   1      30.954  24.960  24.943  1.00  0.00    -0.167 F 
ATOM     22  F   UNL A   1      29.556  26.012  23.639  1.00  0.00    -0.167 F 
ENDBRANCH  18  19
ENDBRANCH   4   6
ENDBRANCH   3   4
ENDBRANCH   2   3
ENDBRANCH   1   2
BRANCH   1  23
ATOM     23  O   UNL A   1      37.290  23.956  25.453  1.00  0.00    -0.458 OA
BRANCH  23  24
ATOM     24  C   UNL A   1      38.376  23.365  25.999  1.00  0.00     0.338 C 
ATOM     25  O   UNL A   1      38.728  22.205  25.874  1.00  0.00    -0.246 OA
BRANCH  24  26
ATOM     26  C   UNL A   1      39.180  24.354  26.733  1.00  0.00     0.060 A 
ATOM     27  C   UNL A   1      38.973  24.485  28.099  1.00  0.00     0.016 A 
ATOM     28  C   UNL A   1      39.962  25.286  26.055  1.00  0.00     0.016 A 
ATOM     29  C   UNL A   1      39.401  25.631  28.758  1.00  0.00     0.010 A 
ATOM     30  C   UNL A   1      40.519  26.363  26.760  1.00  0.00     0.010 A 
ATOM     31  C   UNL A   1      40.198  26.586  28.112  1.00  0.00    -0.014 A 
BRANCH  31  32
ATOM     32  C   UNL A   1      40.655  27.812  28.838  1.00  0.00     0.031 A 
ATOM     33  C   UNL A   1      42.070  27.912  29.365  1.00  0.00     0.074 A 
ATOM     34  C   UNL A   1      39.823  28.865  29.002  1.00  0.00     0.049 A 
ATOM     35  N   UNL A   1      42.583  28.787  30.194  1.00  0.00    -0.248 NA
ATOM     36  C   UNL A   1      43.031  26.892  28.909  1.00  0.00     0.031 C 
ATOM     37  C   UNL A   1      38.453  28.961  28.486  1.00  0.00     0.029 A 
ATOM     38  N   UNL A   1      40.013  30.072  29.632  1.00  0.00    -0.354 N 
ATOM     39  C   UNL A   1      43.899  28.385  30.410  1.00  0.00     0.074 A 
ATOM     40  C   UNL A   1      44.106  27.188  29.627  1.00  0.00     0.031 C 
ATOM     41  C   UNL A   1      37.963  30.180  28.747  1.00  0.00     0.029 A 
ATOM     42  C   UNL A   1      38.917  30.904  29.575  1.00  0.00     0.049 A 
ATOM     43  H   UNL A   1      40.853  30.319  30.082  1.00  0.00     0.167 HD
ATOM     44  C   UNL A   1      44.843  28.960  31.197  1.00  0.00     0.031 A 
ATOM     45  C   UNL A   1      38.665  32.086  30.168  1.00  0.00     0.031 A 
ATOM     46  C   UNL A   1      44.641  30.181  31.936  1.00  0.00     0.049 A 
ATOM     47  C   UNL A   1      39.695  32.667  31.092  1.00  0.00     0.074 A 
ATOM     48  C   UNL A   1      45.525  30.833  32.778  1.00  0.00     0.029 A 
ATOM     49  N   UNL A   1      43.485  30.947  31.903  1.00  0.00    -0.354 N 
ATOM     50  N   UNL A   1      40.888  32.208  31.384  1.00  0.00    -0.248 NA
ATOM     51  C   UNL A   1      39.334  33.908  31.789  1.00  0.00     0.031 C 
ATOM     52  C   UNL A   1      44.887  31.967  33.291  1.00  0.00     0.029 A 
ATOM     53  C   UNL A   1      43.630  32.058  32.717  1.00  0.00     0.049 A 
ATOM     54  H   UNL A   1      42.680  30.732  31.377  1.00  0.00     0.167 HD
ATOM     55  C   UNL A   1      41.429  33.117  32.285  1.00  0.00     0.074 A 
ATOM     56  C   UNL A   1      40.441  34.157  32.476  1.00  0.00     0.031 C 
ATOM     57  C   UNL A   1      42.637  33.087  32.899  1.00  0.00     0.031 A 
BRANCH  44  58
ATOM     58  C   UNL A   1      46.173  28.261  31.341  1.00  0.00    -0.014 A 
ATOM     59  C   UNL A   1      47.279  28.599  30.540  1.00  0.00     0.010 A 
ATOM     60  C   UNL A   1      46.337  27.297  32.354  1.00  0.00     0.010 A 
ATOM     61  C   UNL A   1      48.513  27.968  30.733  1.00  0.00     0.020 A 
ATOM     62  C   UNL A   1      47.575  26.685  32.570  1.00  0.00     0.020 A 
ATOM     63  C   UNL A   1      48.654  27.017  31.749  1.00  0.00     0.054 A 
BRANCH  63  64
ATOM     64  S   UNL A   1      50.277  26.245  32.002  1.00  0.00     0.124 S 
ATOM     65  O   UNL A   1      50.117  24.969  31.307  1.00  0.00    -0.237 OA
ATOM     66  O   UNL A   1      51.185  27.197  31.367  1.00  0.00    -0.237 OA
ATOM     67  O   UNL A   1      50.396  26.149  33.455  1.00  0.00    -0.744 OA
ENDBRANCH  63  64
ENDBRANCH  44  58
BRANCH  45  68
ATOM     68  C   UNL A   1      37.353  32.759  29.952  1.00  0.00    -0.014 A 
ATOM     69  C   UNL A   1      36.263  32.494  30.798  1.00  0.00     0.010 A 
ATOM     70  C   UNL A   1      37.201  33.707  28.920  1.00  0.00     0.010 A 
ATOM     71  C   UNL A   1      35.049  33.164  30.618  1.00  0.00     0.020 A 
ATOM     72  C   UNL A   1      36.002  34.406  28.761  1.00  0.00     0.020 A 
ATOM     73  C   UNL A   1      34.929  34.124  29.608  1.00  0.00     0.054 A 
BRANCH  73  74
ATOM     74  S   UNL A   1      33.369  35.034  29.444  1.00  0.00     0.124 S 
ATOM     75  O   UNL A   1      32.858  35.010  30.810  1.00  0.00    -0.237 OA
ATOM     76  O   UNL A   1      33.815  36.338  28.956  1.00  0.00    -0.237 OA
ATOM     77  O   UNL A   1      32.610  34.244  28.476  1.00  0.00    -0.744 OA
ENDBRANCH  73  74
ENDBRANCH  45  68
BRANCH  57  78
ATOM     78  C   UNL A   1      42.980  34.241  33.801  1.00  0.00    -0.014 A 
ATOM     79  C   UNL A   1      42.715  34.196  35.181  1.00  0.00     0.010 A 
ATOM     80  C   UNL A   1      43.617  35.372  33.259  1.00  0.00     0.010 A 
ATOM     81  C   UNL A   1      43.051  35.278  35.998  1.00  0.00     0.020 A 
ATOM     82  C   UNL A   1      43.980  36.445  34.078  1.00  0.00     0.020 A 
ATOM     83  C   UNL A   1      43.682  36.396  35.440  1.00  0.00     0.054 A 
BRANCH  83  84
ATOM     84  S   UNL A   1      44.134  37.774  36.530  1.00  0.00     0.124 S 
ATOM     85  O   UNL A   1      43.132  37.666  37.587  1.00  0.00    -0.237 OA
ATOM     86  O   UNL A   1      45.500  37.435  36.920  1.00  0.00    -0.237 OA
ATOM     87  O   UNL A   1      44.010  38.950  35.672  1.00  0.00    -0.744 OA
ENDBRANCH  83  84
ENDBRANCH  57  78
ENDBRANCH  31  32
ENDBRANCH  24  26
ENDBRANCH  23  24
ENDBRANCH   1  23
TORSDOF 15
ENDMDL
MODEL 3
REMARK VINA RESULT:     -10.7      2.976      3.549
REMARK SMILES Cc1cc2c(c(C)c1Cl)C=C(C(=O)OCCOC(=O)c1ccc(-c3c4nc(c(-c5ccc(S(=O)(=O)[O-])cc5)c5ccc([nH]5)c(-c5ccc(S(=O)(=O)[O-])cc5)c5nc(c(-c6ccc(S(=O)(=O)[O-])cc6)c6ccc3[nH]6)C=C5)C=C4)cc1)[C@@H](C(F)(F)F)O2
REMARK SMILES IDX 16 1 15 2 14 3 12 4 13 5 11 6 1 7 2 8 3 9 8 10 4 11 6 12
REMARK SMILES IDX 9 13 5 14 85 15 7 16 10 17 80 18 81 19 82 20 83 21 84 22
REMARK SMILES IDX 17 23 18 24 19 25 20 26 21 27 79 28 22 29 78 30 23 31 24 32
REMARK SMILES IDX 25 33 72 34 26 35 77 36 71 37 73 38 27 39 76 40 70 41 69 42
REMARK SMILES IDX 28 44 58 45 39 46 57 47 40 48 43 49 56 50 74 51 41 52 42 53
REMARK SMILES IDX 55 55 75 56 44 57 29 58 30 59 38 60 31 61 37 62 32 63 33 64
REMARK SMILES IDX 34 65 35 66 36 67 59 68 60 69 68 70 61 71 67 72 62 73 63 74
REMARK SMILES IDX 64 75 65 76 66 77 45 78 46 79 54 80 47 81 53 82 48 83 49 84
REMARK SMILES IDX 50 85 51 86 52 87
REMARK H PARENT 73 43 43 54
REMARK Flexibility Score: inf
ROOT
ATOM      1  C   UNL A   1      32.890  30.415  25.925  1.00  0.00     0.275 C 
ENDROOT
BRANCH   1   2
ATOM      2  C   UNL A   1      31.473  29.919  25.636  1.00  0.00     0.275 C 
BRANCH   2   3
ATOM      3  O   UNL A   1      31.402  28.476  25.632  1.00  0.00    -0.459 OA
BRANCH   3   4
ATOM      4  C   UNL A   1      31.068  27.916  24.446  1.00  0.00     0.338 C 
ATOM      5  O   UNL A   1      30.136  28.243  23.728  1.00  0.00    -0.246 OA
BRANCH   4   6
ATOM      6  C   UNL A   1      31.996  26.822  24.100  1.00  0.00     0.087 C 
ATOM      7  C   UNL A   1      36.457  22.113  23.963  1.00  0.00     0.046 C 
ATOM      8  C   UNL A   1      35.312  23.032  24.290  1.00  0.00    -0.028 A 
ATOM      9  C   UNL A   1      34.965  24.010  23.345  1.00  0.00     0.052 A 
ATOM     10  C   UNL A   1      34.549  22.922  25.467  1.00  0.00     0.047 A 
ATOM     11  C   UNL A   1      33.927  24.906  23.585  1.00  0.00     0.128 A 
ATOM     12  C   UNL A   1      33.502  23.832  25.740  1.00  0.00    -0.021 A 
ATOM     13  Cl  UNL A   1      34.910  21.638  26.582  1.00  0.00    -0.084 Cl
ATOM     14  C   UNL A   1      33.207  24.839  24.782  1.00  0.00     0.022 A 
ATOM     15  O   UNL A   1      33.678  25.801  22.581  1.00  0.00    -0.475 OA
ATOM     16  C   UNL A   1      32.689  23.738  27.011  1.00  0.00     0.047 C 
ATOM     17  C   UNL A   1      32.181  25.852  25.005  1.00  0.00     0.027 C 
ATOM     18  C   UNL A   1      32.791  26.923  22.837  1.00  0.00     0.316 C 
BRANCH  18  19
ATOM     19  C   UNL A   1      33.610  28.222  22.786  1.00  0.00     0.430 C 
ATOM     20  F   UNL A   1      34.335  28.391  23.918  1.00  0.00    -0.167 F 
ATOM     21  F   UNL A   1      34.499  28.214  21.762  1.00  0.00    -0.167 F 
ATOM     22  F   UNL A   1      32.832  29.317  22.637  1.00  0.00    -0.167 F 
ENDBRANCH  18  19
ENDBRANCH   4   6
ENDBRANCH   3   4
ENDBRANCH   2   3
ENDBRANCH   1   2
BRANCH   1  23
ATOM     23  O   UNL A   1      33.116  30.513  27.343  1.00  0.00    -0.458 OA
BRANCH  23  24
ATOM     24  C   UNL A   1      33.930  31.524  27.720  1.00  0.00     0.338 C 
ATOM     25  O   UNL A   1      33.634  32.699  27.858  1.00  0.00    -0.246 OA
BRANCH  24  26
ATOM     26  C   UNL A   1      35.267  31.007  28.049  1.00  0.00     0.060 A 
ATOM     27  C   UNL A   1      35.368  29.713  28.540  1.00  0.00     0.016 A 
ATOM     28  C   UNL A   1      36.373  31.853  28.083  1.00  0.00     0.016 A 
ATOM     29  C   UNL A   1      36.514  29.316  29.217  1.00  0.00     0.010 A 
ATOM     30  C   UNL A   1      37.578  31.392  28.634  1.00  0.00     0.010 A 
ATOM     31  C   UNL A   1      37.650  30.135  29.264  1.00  0.00    -0.014 A 
BRANCH  31  32
ATOM     32  C   UNL A   1      38.879  29.690  29.993  1.00  0.00     0.031 A 
ATOM     33  C   UNL A   1      39.273  30.338  31.303  1.00  0.00     0.074 A 
ATOM     34  C   UNL A   1      39.636  28.678  29.514  1.00  0.00     0.049 A 
ATOM     35  N   UNL A   1      40.398  30.243  31.967  1.00  0.00    -0.248 NA
ATOM     36  C   UNL A   1      38.277  31.214  31.947  1.00  0.00     0.031 C 
ATOM     37  C   UNL A   1      39.351  27.895  28.307  1.00  0.00     0.029 A 
ATOM     38  N   UNL A   1      40.793  28.113  29.996  1.00  0.00    -0.354 N 
ATOM     39  C   UNL A   1      40.272  31.094  33.062  1.00  0.00     0.074 A 
ATOM     40  C   UNL A   1      38.961  31.698  32.975  1.00  0.00     0.031 C 
ATOM     41  C   UNL A   1      40.252  26.911  28.191  1.00  0.00     0.029 A 
ATOM     42  C   UNL A   1      41.265  27.076  29.224  1.00  0.00     0.049 A 
ATOM     43  H   UNL A   1      41.242  28.421  30.817  1.00  0.00     0.167 HD
ATOM     44  C   UNL A   1      41.171  31.351  34.044  1.00  0.00     0.031 A 
ATOM     45  C   UNL A   1      42.411  26.370  29.285  1.00  0.00     0.031 A 
ATOM     46  C   UNL A   1      42.457  30.708  34.148  1.00  0.00     0.049 A 
ATOM     47  C   UNL A   1      43.423  26.723  30.335  1.00  0.00     0.074 A 
ATOM     48  C   UNL A   1      43.449  30.914  35.092  1.00  0.00     0.029 A 
ATOM     49  N   UNL A   1      42.919  29.716  33.296  1.00  0.00    -0.354 N 
ATOM     50  N   UNL A   1      43.339  27.619  31.289  1.00  0.00    -0.248 NA
ATOM     51  C   UNL A   1      44.695  25.990  30.300  1.00  0.00     0.031 C 
ATOM     52  C   UNL A   1      44.529  30.083  34.782  1.00  0.00     0.029 A 
ATOM     53  C   UNL A   1      44.185  29.309  33.686  1.00  0.00     0.049 A 
ATOM     54  H   UNL A   1      42.421  29.355  32.527  1.00  0.00     0.167 HD
ATOM     55  C   UNL A   1      44.541  27.544  31.981  1.00  0.00     0.074 A 
ATOM     56  C   UNL A   1      45.326  26.505  31.347  1.00  0.00     0.031 C 
ATOM     57  C   UNL A   1      44.956  28.274  33.045  1.00  0.00     0.031 A 
BRANCH  44  58
ATOM     58  C   UNL A   1      40.825  32.404  35.069  1.00  0.00    -0.014 A 
ATOM     59  C   UNL A   1      40.121  32.090  36.246  1.00  0.00     0.010 A 
ATOM     60  C   UNL A   1      41.285  33.722  34.884  1.00  0.00     0.010 A 
ATOM     61  C   UNL A   1      39.861  33.079  37.201  1.00  0.00     0.020 A 
ATOM     62  C   UNL A   1      41.052  34.707  35.848  1.00  0.00     0.020 A 
ATOM     63  C   UNL A   1      40.331  34.380  36.998  1.00  0.00     0.054 A 
BRANCH  63  64
ATOM     64  S   UNL A   1      40.012  35.632  38.273  1.00  0.00     0.124 S 
ATOM     65  O   UNL A   1      39.643  36.796  37.469  1.00  0.00    -0.237 OA
ATOM     66  O   UNL A   1      38.928  35.031  39.045  1.00  0.00    -0.237 OA
ATOM     67  O   UNL A   1      41.287  35.745  38.978  1.00  0.00    -0.744 OA
ENDBRANCH  63  64
ENDBRANCH  44  58
BRANCH  45  68
ATOM     68  C   UNL A   1      42.680  25.307  28.277  1.00  0.00    -0.014 A 
ATOM     69  C   UNL A   1      43.315  25.614  27.062  1.00  0.00     0.010 A 
ATOM     70  C   UNL A   1      42.341  23.966  28.548  1.00  0.00     0.010 A 
ATOM     71  C   UNL A   1      43.608  24.603  26.141  1.00  0.00     0.020 A 
ATOM     72  C   UNL A   1      42.666  22.949  27.648  1.00  0.00     0.020 A 
ATOM     73  C   UNL A   1      43.291  23.275  26.444  1.00  0.00     0.054 A 
BRANCH  73  74
ATOM     74  S   UNL A   1      43.750  21.974  25.267  1.00  0.00     0.124 S 
ATOM     75  O   UNL A   1      45.088  21.612  25.721  1.00  0.00    -0.237 OA
ATOM     76  O   UNL A   1      42.711  20.970  25.488  1.00  0.00    -0.237 OA
ATOM     77  O   UNL A   1      43.688  22.646  23.971  1.00  0.00    -0.744 OA
ENDBRANCH  73  74
ENDBRANCH  45  68
BRANCH  57  78
ATOM     78  C   UNL A   1      46.304  27.942  33.625  1.00  0.00    -0.014 A 
ATOM     79  C   UNL A   1      46.451  26.960  34.620  1.00  0.00     0.010 A 
ATOM     80  C   UNL A   1      47.446  28.597  33.132  1.00  0.00     0.010 A 
ATOM     81  C   UNL A   1      47.714  26.664  35.136  1.00  0.00     0.020 A 
ATOM     82  C   UNL A   1      48.715  28.284  33.625  1.00  0.00     0.020 A 
ATOM     83  C   UNL A   1      48.839  27.329  34.635  1.00  0.00     0.054 A 
BRANCH  83  84
ATOM     84  S   UNL A   1      50.471  26.904  35.302  1.00  0.00     0.124 S 
ATOM     85  O   UNL A   1      51.335  27.100  34.140  1.00  0.00    -0.237 OA
ATOM     86  O   UNL A   1      50.637  27.875  36.380  1.00  0.00    -0.237 OA
ATOM     87  O   UNL A   1      50.318  25.518  35.737  1.00  0.00    -0.744 OA
ENDBRANCH  83  84
ENDBRANCH  57  78
ENDBRANCH  31  32
ENDBRANCH  24  26
ENDBRANCH  23  24
ENDBRANCH   1  23
TORSDOF 15
ENDMDL
