MODEL 1
REMARK VINA RESULT:     -11.3      0.000      0.000
REMARK SMILES CCCc1cc(S(F)(F)(F)(F)F)cc2c1O[C@@H](C(F)(F)F)C(C(=O)OCCOC(=O)c1ccc(-c3c4nc(c(-c5ccc(S(=O)(=O)[O-])cc5)c5ccc([nH]5)c(-c5ccc(S(=O)(=O)[O-])cc5)c5nc(c(-c6ccc(S(=O)(=O)[O-])cc6)c6ccc3[nH]6)C=C5)C=C4)cc1)=C2
REMARK SMILES IDX 27 1 26 2 25 3 23 4 24 5 22 6 4 7 5 8 15 9 6 10 14 11 16 12
REMARK SMILES IDX 13 13 91 14 17 15 3 16 2 17 1 18 7 19 8 20 9 21 10 22 11 23
REMARK SMILES IDX 12 24 18 25 19 26 20 27 21 28 28 29 29 30 30 31 31 32 32 33
REMARK SMILES IDX 90 34 33 35 89 36 34 37 35 38 36 39 83 40 37 41 88 42 82 43
REMARK SMILES IDX 84 44 38 45 87 46 81 47 80 48 39 50 69 51 50 52 68 53 51 54
REMARK SMILES IDX 54 55 67 56 85 57 52 58 53 59 66 61 86 62 55 63 40 64 41 65
REMARK SMILES IDX 49 66 42 67 48 68 43 69 44 70 45 71 46 72 47 73 70 74 71 75
REMARK SMILES IDX 79 76 72 77 78 78 73 79 74 80 75 81 76 82 77 83 56 84 57 85
REMARK SMILES IDX 65 86 58 87 64 88 59 89 60 90 61 91 62 92 63 93
REMARK H PARENT 84 49 54 60
REMARK Flexibility Score: inf
ROOT
ATOM      1  C   UNL A   1      32.367  30.255  26.859  1.00  0.00     0.275 C 
ENDROOT
BRANCH   1   2
ATOM      2  C   UNL A   1      32.019  30.028  25.397  1.00  0.00     0.275 C 
BRANCH   2   3
ATOM      3  O   UNL A   1      31.789  28.644  25.173  1.00  0.00    -0.459 OA
BRANCH   3   4
ATOM      4  C   UNL A   1      32.273  28.027  23.989  1.00  0.00     0.338 C 
ATOM      5  O   UNL A   1      32.402  28.707  22.924  1.00  0.00    -0.246 OA
BRANCH   4   6
ATOM      6  C   UNL A   1      32.636  26.551  23.997  1.00  0.00     0.087 C 
ATOM      7  C   UNL A   1      33.379  22.466  24.459  1.00  0.00    -0.004 A 
ATOM      8  C   UNL A   1      34.668  22.022  24.692  1.00  0.00     0.032 A 
ATOM      9  C   UNL A   1      33.156  23.819  24.365  1.00  0.00     0.131 A 
ATOM     10  C   UNL A   1      35.705  22.906  24.832  1.00  0.00     0.108 A 
ATOM     11  C   UNL A   1      34.180  24.741  24.481  1.00  0.00     0.019 A 
ATOM     12  O   UNL A   1      31.857  24.249  24.246  1.00  0.00    -0.475 OA
ATOM     13  C   UNL A   1      35.463  24.260  24.720  1.00  0.00     0.036 A 
ATOM     14  C   UNL A   1      33.834  26.149  24.405  1.00  0.00     0.027 C 
ATOM     15  C   UNL A   1      31.634  25.500  23.537  1.00  0.00     0.316 C 
BRANCH   7  16
ATOM     16  C   UNL A   1      32.257  21.444  24.516  1.00  0.00     0.039 C 
BRANCH  16  17
ATOM     17  C   UNL A   1      32.431  20.438  23.389  1.00  0.00     0.001 C 
ATOM     18  C   UNL A   1      31.980  21.063  22.079  1.00  0.00     0.004 C 
ENDBRANCH  16  17
ENDBRANCH   7  16
BRANCH  10  19
ATOM     19  S   UNL A   1      37.380  22.305  25.160  1.00  0.00     0.310 S 
ATOM     20  F   UNL A   1      36.868  21.057  25.996  1.00  0.00    -0.094 F 
ATOM     21  F   UNL A   1      37.349  23.129  26.502  1.00  0.00    -0.094 F 
ATOM     22  F   UNL A   1      38.831  21.828  25.454  1.00  0.00    -0.094 F 
ATOM     23  F   UNL A   1      37.341  21.373  23.884  1.00  0.00    -0.094 F 
ATOM     24  F   UNL A   1      35.868  22.690  24.907  1.00  0.00    -0.094 F 
ENDBRANCH  10  19
BRANCH  15  25
ATOM     25  C   UNL A   1      30.227  25.995  23.831  1.00  0.00     0.430 C 
ATOM     26  F   UNL A   1      30.124  26.293  25.123  1.00  0.00    -0.167 F 
ATOM     27  F   UNL A   1      29.978  27.080  23.104  1.00  0.00    -0.167 F 
ATOM     28  F   UNL A   1      29.351  25.043  23.524  1.00  0.00    -0.167 F 
ENDBRANCH  15  25
ENDBRANCH   4   6
ENDBRANCH   3   4
ENDBRANCH   2   3
ENDBRANCH   1   2
BRANCH   1  29
ATOM     29  O   UNL A   1      33.723  29.896  27.084  1.00  0.00    -0.458 OA
BRANCH  29  30
ATOM     30  C   UNL A   1      34.519  30.655  27.982  1.00  0.00     0.338 C 
ATOM     31  O   UNL A   1      34.030  31.680  28.553  1.00  0.00    -0.246 OA
BRANCH  30  32
ATOM     32  C   UNL A   1      35.955  30.241  28.260  1.00  0.00     0.060 A 
ATOM     33  C   UNL A   1      36.944  30.367  27.298  1.00  0.00     0.016 A 
ATOM     34  C   UNL A   1      36.230  29.783  29.475  1.00  0.00     0.016 A 
ATOM     35  C   UNL A   1      38.151  29.708  27.628  1.00  0.00     0.010 A 
ATOM     36  C   UNL A   1      37.474  29.277  29.767  1.00  0.00     0.010 A 
ATOM     37  C   UNL A   1      38.482  29.315  28.844  1.00  0.00    -0.014 A 
BRANCH  37  38
ATOM     38  C   UNL A   1      39.908  28.927  29.200  1.00  0.00     0.031 A 
ATOM     39  C   UNL A   1      40.707  29.908  29.790  1.00  0.00     0.074 A 
ATOM     40  C   UNL A   1      40.362  27.668  28.845  1.00  0.00     0.049 A 
ATOM     41  N   UNL A   1      41.991  29.810  30.139  1.00  0.00    -0.248 NA
ATOM     42  C   UNL A   1      40.235  31.256  30.136  1.00  0.00     0.031 C 
ATOM     43  C   UNL A   1      39.562  26.671  28.257  1.00  0.00     0.029 A 
ATOM     44  N   UNL A   1      41.634  27.158  28.986  1.00  0.00    -0.354 N 
ATOM     45  C   UNL A   1      42.406  30.951  30.693  1.00  0.00     0.074 A 
ATOM     46  C   UNL A   1      41.284  31.900  30.694  1.00  0.00     0.031 C 
ATOM     47  C   UNL A   1      40.341  25.579  28.037  1.00  0.00     0.029 A 
ATOM     48  C   UNL A   1      41.643  25.876  28.484  1.00  0.00     0.049 A 
ATOM     49  H   UNL A   1      42.405  27.629  29.379  1.00  0.00     0.167 HD
ATOM     50  C   UNL A   1      43.674  31.237  31.200  1.00  0.00     0.031 A 
ATOM     51  C   UNL A   1      42.714  25.000  28.409  1.00  0.00     0.031 A 
ATOM     52  C   UNL A   1      44.734  30.344  31.164  1.00  0.00     0.049 A 
ATOM     53  C   UNL A   1      43.999  25.307  28.863  1.00  0.00     0.074 A 
ATOM     54  C   UNL A   1      46.018  30.614  31.678  1.00  0.00     0.029 A 
ATOM     55  N   UNL A   1      44.748  29.072  30.640  1.00  0.00    -0.354 N 
ATOM     56  N   UNL A   1      44.403  26.432  29.453  1.00  0.00    -0.248 NA
ATOM     57  C   UNL A   1      45.148  24.398  28.760  1.00  0.00     0.031 C 
ATOM     58  C   UNL A   1      46.798  29.522  31.458  1.00  0.00     0.029 A 
ATOM     59  C   UNL A   1      46.014  28.553  30.802  1.00  0.00     0.049 A 
ATOM     60  H   UNL A   1      43.986  28.612  30.221  1.00  0.00     0.167 HD
ATOM     61  C   UNL A   1      45.698  26.349  29.765  1.00  0.00     0.074 A 
ATOM     62  C   UNL A   1      46.198  25.043  29.316  1.00  0.00     0.031 C 
ATOM     63  C   UNL A   1      46.482  27.309  30.407  1.00  0.00     0.031 A 
BRANCH  50  64
ATOM     64  C   UNL A   1      43.907  32.602  31.826  1.00  0.00    -0.014 A 
ATOM     65  C   UNL A   1      44.364  33.625  31.011  1.00  0.00     0.010 A 
ATOM     66  C   UNL A   1      43.656  32.807  33.114  1.00  0.00     0.010 A 
ATOM     67  C   UNL A   1      44.803  34.769  31.719  1.00  0.00     0.020 A 
ATOM     68  C   UNL A   1      43.987  34.000  33.709  1.00  0.00     0.020 A 
ATOM     69  C   UNL A   1      44.498  35.034  32.975  1.00  0.00     0.054 A 
BRANCH  69  70
ATOM     70  S   UNL A   1      44.743  36.680  33.690  1.00  0.00     0.124 S 
ATOM     71  O   UNL A   1      44.964  36.553  35.199  1.00  0.00    -0.237 OA
ATOM     72  O   UNL A   1      45.969  37.336  33.049  1.00  0.00    -0.237 OA
ATOM     73  O   UNL A   1      43.361  37.642  33.394  1.00  0.00    -0.744 OA
ENDBRANCH  69  70
ENDBRANCH  50  64
BRANCH  51  74
ATOM     74  C   UNL A   1      42.477  23.628  27.798  1.00  0.00    -0.014 A 
ATOM     75  C   UNL A   1      42.170  22.575  28.643  1.00  0.00     0.010 A 
ATOM     76  C   UNL A   1      42.591  23.449  26.488  1.00  0.00     0.010 A 
ATOM     77  C   UNL A   1      42.285  21.302  28.038  1.00  0.00     0.020 A 
ATOM     78  C   UNL A   1      42.559  22.186  25.949  1.00  0.00     0.020 A 
ATOM     79  C   UNL A   1      42.318  21.092  26.734  1.00  0.00     0.054 A 
BRANCH  79  80
ATOM     80  S   UNL A   1      42.060  19.447  26.025  1.00  0.00     0.124 S 
ATOM     81  O   UNL A   1      42.886  19.306  24.745  1.00  0.00    -0.237 OA
ATOM     82  O   UNL A   1      42.498  18.383  27.034  1.00  0.00    -0.237 OA
ATOM     83  O   UNL A   1      40.402  19.238  25.659  1.00  0.00    -0.744 OA
ENDBRANCH  79  80
ENDBRANCH  51  74
BRANCH  63  84
ATOM     84  C   UNL A   1      47.935  26.969  30.692  1.00  0.00    -0.014 A 
ATOM     85  C   UNL A   1      48.953  27.205  29.781  1.00  0.00     0.010 A 
ATOM     86  C   UNL A   1      48.195  26.509  31.911  1.00  0.00     0.010 A 
ATOM     87  C   UNL A   1      50.197  26.647  30.155  1.00  0.00     0.020 A 
ATOM     88  C   UNL A   1      49.464  26.108  32.251  1.00  0.00     0.020 A 
ATOM     89  C   UNL A   1      50.506  26.257  31.379  1.00  0.00     0.054 A 
BRANCH  89  90
ATOM     90  S   UNL A   1      52.217  25.938  31.875  1.00  0.00     0.124 S 
ATOM     91  O   UNL A   1      53.159  26.306  30.725  1.00  0.00    -0.237 OA
ATOM     92  O   UNL A   1      52.559  26.784  33.104  1.00  0.00    -0.237 OA
ATOM     93  O   UNL A   1      52.401  24.281  32.255  1.00  0.00    -0.744 OA
ENDBRANCH  89  90
ENDBRANCH  63  84
ENDBRANCH  37  38
ENDBRANCH  30  32
ENDBRANCH  29  30
ENDBRANCH   1  29
TORSDOF 18
ENDMDL
MODEL 2
REMARK VINA RESULT:     -11.1      3.574      9.495
REMARK SMILES CCCc1cc(S(F)(F)(F)(F)F)cc2c1O[C@@H](C(F)(F)F)C(C(=O)OCCOC(=O)c1ccc(-c3c4nc(c(-c5ccc(S(=O)(=O)[O-])cc5)c5ccc([nH]5)c(-c5ccc(S(=O)(=O)[O-])cc5)c5nc(c(-c6ccc(S(=O)(=O)[O-])cc6)c6ccc3[nH]6)C=C5)C=C4)cc1)=C2
REMARK SMILES IDX 27 1 26 2 25 3 23 4 24 5 22 6 4 7 5 8 15 9 6 10 14 11 16 12
REMARK SMILES IDX 13 13 91 14 17 15 3 16 2 17 1 18 7 19 8 20 9 21 10 22 11 23
REMARK SMILES IDX 12 24 18 25 19 26 20 27 21 28 28 29 29 30 30 31 31 32 32 33
REMARK SMILES IDX 90 34 33 35 89 36 34 37 35 38 36 39 83 40 37 41 88 42 82 43
REMARK SMILES IDX 84 44 38 45 87 46 81 47 80 48 39 50 69 51 50 52 68 53 51 54
REMARK SMILES IDX 54 55 67 56 85 57 52 58 53 59 66 61 86 62 55 63 40 64 41 65
REMARK SMILES IDX 49 66 42 67 48 68 43 69 44 70 45 71 46 72 47 73 70 74 71 75
REMARK SMILES IDX 79 76 72 77 78 78 73 79 74 80 75 81 76 82 77 83 56 84 57 85
REMARK SMILES IDX 65 86 58 87 64 88 59 89 60 90 61 91 62 92 63 93
REMARK H PARENT 84 49 54 60
REMARK Flexibility Score: inf
ROOT
ATOM      1  C   UNL A   1      35.320  32.544  31.841  1.00  0.00     0.275 C 
ENDROOT
BRANCH   1   2
ATOM      2  C   UNL A   1      34.784  33.033  30.505  1.00  0.00     0.275 C 
BRANCH   2   3
ATOM      3  O   UNL A   1      34.360  31.920  29.730  1.00  0.00    -0.459 OA
BRANCH   3   4
ATOM      4  C   UNL A   1      34.364  32.000  28.312  1.00  0.00     0.338 C 
ATOM      5  O   UNL A   1      34.769  33.058  27.736  1.00  0.00    -0.246 OA
BRANCH   4   6
ATOM      6  C   UNL A   1      33.884  30.820  27.483  1.00  0.00     0.087 C 
ATOM      7  C   UNL A   1      32.965  27.668  24.900  1.00  0.00    -0.004 A 
ATOM      8  C   UNL A   1      31.827  27.727  24.118  1.00  0.00     0.032 A 
ATOM      9  C   UNL A   1      33.271  28.742  25.701  1.00  0.00     0.131 A 
ATOM     10  C   UNL A   1      31.018  28.833  24.131  1.00  0.00     0.108 A 
ATOM     11  C   UNL A   1      32.469  29.868  25.755  1.00  0.00     0.019 A 
ATOM     12  O   UNL A   1      34.461  28.716  26.385  1.00  0.00    -0.475 OA
ATOM     13  C   UNL A   1      31.334  29.895  24.952  1.00  0.00     0.036 A 
ATOM     14  C   UNL A   1      32.900  30.966  26.603  1.00  0.00     0.027 C 
ATOM     15  C   UNL A   1      34.520  29.446  27.643  1.00  0.00     0.316 C 
BRANCH   7  16
ATOM     16  C   UNL A   1      33.914  26.501  24.683  1.00  0.00     0.039 C 
BRANCH  16  17
ATOM     17  C   UNL A   1      33.802  25.533  25.850  1.00  0.00     0.001 C 
ATOM     18  C   UNL A   1      32.585  24.643  25.655  1.00  0.00     0.004 C 
ENDBRANCH  16  17
ENDBRANCH   7  16
BRANCH  10  19
ATOM     19  S   UNL A   1      29.545  28.900  23.081  1.00  0.00     0.310 S 
ATOM     20  F   UNL A   1      30.103  27.811  22.071  1.00  0.00    -0.094 F 
ATOM     21  F   UNL A   1      30.286  29.985  22.213  1.00  0.00    -0.094 F 
ATOM     22  F   UNL A   1      28.282  29.000  22.180  1.00  0.00    -0.094 F 
ATOM     23  F   UNL A   1      28.873  27.711  23.876  1.00  0.00    -0.094 F 
ATOM     24  F   UNL A   1      30.861  28.706  23.935  1.00  0.00    -0.094 F 
ENDBRANCH  10  19
BRANCH  15  25
ATOM     25  C   UNL A   1      35.975  29.618  28.050  1.00  0.00     0.430 C 
ATOM     26  F   UNL A   1      36.686  28.590  27.595  1.00  0.00    -0.167 F 
ATOM     27  F   UNL A   1      36.449  30.748  27.533  1.00  0.00    -0.167 F 
ATOM     28  F   UNL A   1      36.061  29.665  29.376  1.00  0.00    -0.167 F 
ENDBRANCH  15  25
ENDBRANCH   4   6
ENDBRANCH   3   4
ENDBRANCH   2   3
ENDBRANCH   1   2
BRANCH   1  29
ATOM     29  O   UNL A   1      36.730  32.397  31.760  1.00  0.00    -0.458 OA
BRANCH  29  30
ATOM     30  C   UNL A   1      37.324  31.125  31.967  1.00  0.00     0.338 C 
ATOM     31  O   UNL A   1      36.806  30.307  32.792  1.00  0.00    -0.246 OA
BRANCH  30  32
ATOM     32  C   UNL A   1      38.580  30.739  31.203  1.00  0.00     0.060 A 
ATOM     33  C   UNL A   1      38.750  31.078  29.870  1.00  0.00     0.016 A 
ATOM     34  C   UNL A   1      39.525  30.091  31.874  1.00  0.00     0.016 A 
ATOM     35  C   UNL A   1      39.844  30.431  29.249  1.00  0.00     0.010 A 
ATOM     36  C   UNL A   1      40.634  29.603  31.226  1.00  0.00     0.010 A 
ATOM     37  C   UNL A   1      40.836  29.849  29.896  1.00  0.00    -0.014 A 
BRANCH  37  38
ATOM     38  C   UNL A   1      42.136  29.475  29.202  1.00  0.00     0.031 A 
ATOM     39  C   UNL A   1      42.282  28.147  28.795  1.00  0.00     0.074 A 
ATOM     40  C   UNL A   1      43.128  30.433  29.090  1.00  0.00     0.049 A 
ATOM     41  N   UNL A   1      43.345  27.586  28.217  1.00  0.00    -0.248 NA
ATOM     42  C   UNL A   1      41.241  27.121  28.945  1.00  0.00     0.031 C 
ATOM     43  C   UNL A   1      42.987  31.776  29.489  1.00  0.00     0.029 A 
ATOM     44  N   UNL A   1      44.402  30.276  28.587  1.00  0.00    -0.354 N 
ATOM     45  C   UNL A   1      43.102  26.300  27.957  1.00  0.00     0.074 A 
ATOM     46  C   UNL A   1      41.748  25.980  28.427  1.00  0.00     0.031 C 
ATOM     47  C   UNL A   1      44.160  32.416  29.242  1.00  0.00     0.029 A 
ATOM     48  C   UNL A   1      45.055  31.484  28.683  1.00  0.00     0.049 A 
ATOM     49  H   UNL A   1      44.780  29.443  28.223  1.00  0.00     0.167 HD
ATOM     50  C   UNL A   1      43.956  25.381  27.345  1.00  0.00     0.031 A 
ATOM     51  C   UNL A   1      46.358  31.777  28.313  1.00  0.00     0.031 A 
ATOM     52  C   UNL A   1      45.245  25.686  26.935  1.00  0.00     0.049 A 
ATOM     53  C   UNL A   1      47.233  30.843  27.753  1.00  0.00     0.074 A 
ATOM     54  C   UNL A   1      46.117  24.773  26.309  1.00  0.00     0.029 A 
ATOM     55  N   UNL A   1      45.906  26.888  27.054  1.00  0.00    -0.354 N 
ATOM     56  N   UNL A   1      46.977  29.568  27.458  1.00  0.00    -0.248 NA
ATOM     57  C   UNL A   1      48.625  31.134  27.387  1.00  0.00     0.031 C 
ATOM     58  C   UNL A   1      47.290  25.414  26.062  1.00  0.00     0.029 A 
ATOM     59  C   UNL A   1      47.171  26.737  26.531  1.00  0.00     0.049 A 
ATOM     60  H   UNL A   1      45.538  27.712  27.444  1.00  0.00     0.167 HD
ATOM     61  C   UNL A   1      48.054  28.996  26.917  1.00  0.00     0.074 A 
ATOM     62  C   UNL A   1      49.133  29.993  26.870  1.00  0.00     0.031 C 
ATOM     63  C   UNL A   1      48.181  27.684  26.457  1.00  0.00     0.031 A 
BRANCH  50  64
ATOM     64  C   UNL A   1      43.446  23.968  27.115  1.00  0.00    -0.014 A 
ATOM     65  C   UNL A   1      42.977  23.641  25.853  1.00  0.00     0.010 A 
ATOM     66  C   UNL A   1      43.472  23.072  28.094  1.00  0.00     0.010 A 
ATOM     67  C   UNL A   1      42.283  22.408  25.802  1.00  0.00     0.020 A 
ATOM     68  C   UNL A   1      42.894  21.837  27.928  1.00  0.00     0.020 A 
ATOM     69  C   UNL A   1      42.359  21.468  26.725  1.00  0.00     0.054 A 
BRANCH  69  70
ATOM     70  S   UNL A   1      41.784  19.779  26.416  1.00  0.00     0.124 S 
ATOM     71  O   UNL A   1      40.262  19.779  26.257  1.00  0.00    -0.237 OA
ATOM     72  O   UNL A   1      42.430  19.247  25.134  1.00  0.00    -0.237 OA
ATOM     73  O   UNL A   1      42.219  18.778  27.732  1.00  0.00    -0.744 OA
ENDBRANCH  69  70
ENDBRANCH  50  64
BRANCH  51  74
ATOM     74  C   UNL A   1      46.864  33.195  28.528  1.00  0.00    -0.014 A 
ATOM     75  C   UNL A   1      47.499  33.493  29.721  1.00  0.00     0.010 A 
ATOM     76  C   UNL A   1      46.672  34.123  27.598  1.00  0.00     0.010 A 
ATOM     77  C   UNL A   1      47.642  34.879  29.964  1.00  0.00     0.020 A 
ATOM     78  C   UNL A   1      46.961  35.441  27.857  1.00  0.00     0.020 A 
ATOM     79  C   UNL A   1      47.536  35.816  29.039  1.00  0.00     0.054 A 
BRANCH  79  80
ATOM     80  S   UNL A   1      48.120  37.506  29.323  1.00  0.00     0.124 S 
ATOM     81  O   UNL A   1      48.488  38.151  27.985  1.00  0.00    -0.237 OA
ATOM     82  O   UNL A   1      47.015  38.321  29.996  1.00  0.00    -0.237 OA
ATOM     83  O   UNL A   1      49.499  37.469  30.334  1.00  0.00    -0.744 OA
ENDBRANCH  79  80
ENDBRANCH  51  74
BRANCH  63  84
ATOM     84  C   UNL A   1      49.506  27.269  25.839  1.00  0.00    -0.014 A 
ATOM     85  C   UNL A   1      49.821  27.507  24.511  1.00  0.00     0.010 A 
ATOM     86  C   UNL A   1      50.393  26.739  26.673  1.00  0.00     0.010 A 
ATOM     87  C   UNL A   1      51.014  26.879  24.084  1.00  0.00     0.020 A 
ATOM     88  C   UNL A   1      51.597  26.268  26.207  1.00  0.00     0.020 A 
ATOM     89  C   UNL A   1      51.949  26.417  24.895  1.00  0.00     0.054 A 
BRANCH  89  90
ATOM     90  S   UNL A   1      53.607  26.001  24.299  1.00  0.00     0.124 S 
ATOM     91  O   UNL A   1      53.618  26.015  22.769  1.00  0.00    -0.237 OA
ATOM     92  O   UNL A   1      54.611  27.031  24.825  1.00  0.00    -0.237 OA
ATOM     93  O   UNL A   1      54.041  24.445  24.860  1.00  0.00    -0.744 OA
ENDBRANCH  89  90
ENDBRANCH  63  84
ENDBRANCH  37  38
ENDBRANCH  30  32
ENDBRANCH  29  30
ENDBRANCH   1  29
TORSDOF 18
ENDMDL
MODEL 3
REMARK VINA RESULT:     -11.1      0.560      8.005
REMARK SMILES CCCc1cc(S(F)(F)(F)(F)F)cc2c1O[C@@H](C(F)(F)F)C(C(=O)OCCOC(=O)c1ccc(-c3c4nc(c(-c5ccc(S(=O)(=O)[O-])cc5)c5ccc([nH]5)c(-c5ccc(S(=O)(=O)[O-])cc5)c5nc(c(-c6ccc(S(=O)(=O)[O-])cc6)c6ccc3[nH]6)C=C5)C=C4)cc1)=C2
REMARK SMILES IDX 27 1 26 2 25 3 23 4 24 5 22 6 4 7 5 8 15 9 6 10 14 11 16 12
REMARK SMILES IDX 13 13 91 14 17 15 3 16 2 17 1 18 7 19 8 20 9 21 10 22 11 23
REMARK SMILES IDX 12 24 18 25 19 26 20 27 21 28 28 29 29 30 30 31 31 32 32 33
REMARK SMILES IDX 90 34 33 35 89 36 34 37 35 38 36 39 83 40 37 41 88 42 82 43
REMARK SMILES IDX 84 44 38 45 87 46 81 47 80 48 39 50 69 51 50 52 68 53 51 54
REMARK SMILES IDX 54 55 67 56 85 57 52 58 53 59 66 61 86 62 55 63 40 64 41 65
REMARK SMILES IDX 49 66 42 67 48 68 43 69 44 70 45 71 46 72 47 73 70 74 71 75
REMARK SMILES IDX 79 76 72 77 78 78 73 79 74 80 75 81 76 82 77 83 56 84 57 85
REMARK SMILES IDX 65 86 58 87 64 88 59 89 60 90 61 91 62 92 63 93
REMARK H PARENT 84 49 54 60
REMARK Flexibility Score: inf
ROOT
ATOM      1  C   UNL A   1      33.177  30.000  25.985  1.00  0.00     0.275 C 
ENDROOT
BRANCH   1   2
ATOM      2  C   UNL A   1      31.672  29.782  25.956  1.00  0.00     0.275 C 
BRANCH   2   3
ATOM      3  O   UNL A   1      31.394  28.456  25.527  1.00  0.00    -0.459 OA
BRANCH   3   4
ATOM      4  C   UNL A   1      31.881  27.999  24.274  1.00  0.00     0.338 C 
ATOM      5  O   UNL A   1      31.872  28.774  23.267  1.00  0.00    -0.246 OA
BRANCH   4   6
ATOM      6  C   UNL A   1      32.414  26.583  24.137  1.00  0.00     0.087 C 
ATOM      7  C   UNL A   1      33.568  22.567  24.149  1.00  0.00    -0.004 A 
ATOM      8  C   UNL A   1      34.854  22.220  24.522  1.00  0.00     0.032 A 
ATOM      9  C   UNL A   1      33.200  23.890  24.206  1.00  0.00     0.131 A 
ATOM     10  C   UNL A   1      35.746  23.170  24.944  1.00  0.00     0.108 A 
ATOM     11  C   UNL A   1      34.079  24.879  24.609  1.00  0.00     0.019 A 
ATOM     12  O   UNL A   1      31.889  24.205  23.943  1.00  0.00    -0.475 OA
ATOM     13  C   UNL A   1      35.362  24.494  24.981  1.00  0.00     0.036 A 
ATOM     14  C   UNL A   1      33.581  26.242  24.673  1.00  0.00     0.027 C 
ATOM     15  C   UNL A   1      31.622  25.522  23.385  1.00  0.00     0.316 C 
BRANCH   7  16
ATOM     16  C   UNL A   1      32.580  21.444  23.887  1.00  0.00     0.039 C 
BRANCH  16  17
ATOM     17  C   UNL A   1      33.005  20.205  24.659  1.00  0.00     0.001 C 
ATOM     18  C   UNL A   1      32.651  18.962  23.858  1.00  0.00     0.004 C 
ENDBRANCH  16  17
ENDBRANCH   7  16
BRANCH  10  19
ATOM     19  S   UNL A   1      37.417  22.692  25.449  1.00  0.00     0.310 S 
ATOM     20  F   UNL A   1      37.291  23.395  26.865  1.00  0.00    -0.094 F 
ATOM     21  F   UNL A   1      37.919  24.074  24.884  1.00  0.00    -0.094 F 
ATOM     22  F   UNL A   1      38.868  22.295  25.844  1.00  0.00    -0.094 F 
ATOM     23  F   UNL A   1      36.878  21.375  26.136  1.00  0.00    -0.094 F 
ATOM     24  F   UNL A   1      35.928  23.130  25.156  1.00  0.00    -0.094 F 
ENDBRANCH  10  19
BRANCH  15  25
ATOM     25  C   UNL A   1      30.138  25.826  23.516  1.00  0.00     0.430 C 
ATOM     26  F   UNL A   1      29.433  24.772  23.115  1.00  0.00    -0.167 F 
ATOM     27  F   UNL A   1      29.851  26.093  24.787  1.00  0.00    -0.167 F 
ATOM     28  F   UNL A   1      29.833  26.877  22.761  1.00  0.00    -0.167 F 
ENDBRANCH  15  25
ENDBRANCH   4   6
ENDBRANCH   3   4
ENDBRANCH   2   3
ENDBRANCH   1   2
BRANCH   1  29
ATOM     29  O   UNL A   1      33.695  29.567  27.234  1.00  0.00    -0.458 OA
BRANCH  29  30
ATOM     30  C   UNL A   1      34.530  30.428  27.994  1.00  0.00     0.338 C 
ATOM     31  O   UNL A   1      34.060  31.506  28.476  1.00  0.00    -0.246 OA
BRANCH  30  32
ATOM     32  C   UNL A   1      35.985  30.059  28.232  1.00  0.00     0.060 A 
ATOM     33  C   UNL A   1      36.964  30.329  27.289  1.00  0.00     0.016 A 
ATOM     34  C   UNL A   1      36.286  29.497  29.397  1.00  0.00     0.016 A 
ATOM     35  C   UNL A   1      38.203  29.699  27.554  1.00  0.00     0.010 A 
ATOM     36  C   UNL A   1      37.555  29.027  29.638  1.00  0.00     0.010 A 
ATOM     37  C   UNL A   1      38.557  29.205  28.725  1.00  0.00    -0.014 A 
BRANCH  37  38
ATOM     38  C   UNL A   1      40.002  28.854  29.043  1.00  0.00     0.031 A 
ATOM     39  C   UNL A   1      40.432  27.567  28.714  1.00  0.00     0.074 A 
ATOM     40  C   UNL A   1      40.778  29.783  29.714  1.00  0.00     0.049 A 
ATOM     41  N   UNL A   1      41.630  27.027  28.942  1.00  0.00    -0.248 NA
ATOM     42  C   UNL A   1      39.597  26.568  28.032  1.00  0.00     0.031 C 
ATOM     43  C   UNL A   1      40.355  31.085  30.042  1.00  0.00     0.029 A 
ATOM     44  N   UNL A   1      42.066  29.630  30.177  1.00  0.00    -0.354 N 
ATOM     45  C   UNL A   1      41.672  25.782  28.466  1.00  0.00     0.074 A 
ATOM     46  C   UNL A   1      40.363  25.466  27.880  1.00  0.00     0.031 C 
ATOM     47  C   UNL A   1      41.368  31.705  30.703  1.00  0.00     0.029 A 
ATOM     48  C   UNL A   1      42.442  30.800  30.799  1.00  0.00     0.049 A 
ATOM     49  H   UNL A   1      42.623  28.823  30.081  1.00  0.00     0.167 HD
ATOM     50  C   UNL A   1      42.751  24.897  28.496  1.00  0.00     0.031 A 
ATOM     51  C   UNL A   1      43.648  31.081  31.422  1.00  0.00     0.031 A 
ATOM     52  C   UNL A   1      43.972  25.194  29.082  1.00  0.00     0.049 A 
ATOM     53  C   UNL A   1      44.707  30.175  31.504  1.00  0.00     0.074 A 
ATOM     54  C   UNL A   1      45.073  24.316  29.114  1.00  0.00     0.029 A 
ATOM     55  N   UNL A   1      44.339  26.355  29.725  1.00  0.00    -0.354 N 
ATOM     56  N   UNL A   1      44.763  28.945  30.993  1.00  0.00    -0.248 NA
ATOM     57  C   UNL A   1      45.977  30.451  32.190  1.00  0.00     0.031 C 
ATOM     58  C   UNL A   1      46.087  24.936  29.776  1.00  0.00     0.029 A 
ATOM     59  C   UNL A   1      45.634  26.210  30.168  1.00  0.00     0.049 A 
ATOM     60  H   UNL A   1      43.773  27.150  29.847  1.00  0.00     0.167 HD
ATOM     61  C   UNL A   1      45.948  28.389  31.258  1.00  0.00     0.074 A 
ATOM     62  C   UNL A   1      46.743  29.348  32.038  1.00  0.00     0.031 C 
ATOM     63  C   UNL A   1      46.398  27.124  30.878  1.00  0.00     0.031 A 
BRANCH  50  64
ATOM     64  C   UNL A   1      42.579  23.531  27.851  1.00  0.00    -0.014 A 
ATOM     65  C   UNL A   1      41.880  22.562  28.552  1.00  0.00     0.010 A 
ATOM     66  C   UNL A   1      43.068  23.289  26.641  1.00  0.00     0.010 A 
ATOM     67  C   UNL A   1      41.999  21.262  28.005  1.00  0.00     0.020 A 
ATOM     68  C   UNL A   1      43.027  22.022  26.111  1.00  0.00     0.020 A 
ATOM     69  C   UNL A   1      42.404  21.002  26.776  1.00  0.00     0.054 A 
BRANCH  69  70
ATOM     70  S   UNL A   1      42.151  19.381  26.011  1.00  0.00     0.124 S 
ATOM     71  O   UNL A   1      40.663  19.182  25.716  1.00  0.00    -0.237 OA
ATOM     72  O   UNL A   1      42.943  19.305  24.703  1.00  0.00    -0.237 OA
ATOM     73  O   UNL A   1      42.690  18.156  27.075  1.00  0.00    -0.744 OA
ENDBRANCH  69  70
ENDBRANCH  50  64
BRANCH  51  74
ATOM     74  C   UNL A   1      43.826  32.453  32.053  1.00  0.00    -0.014 A 
ATOM     75  C   UNL A   1      43.425  32.630  33.367  1.00  0.00     0.010 A 
ATOM     76  C   UNL A   1      44.331  33.456  31.346  1.00  0.00     0.010 A 
ATOM     77  C   UNL A   1      43.328  33.985  33.759  1.00  0.00     0.020 A 
ATOM     78  C   UNL A   1      44.327  34.735  31.846  1.00  0.00     0.020 A 
ATOM     79  C   UNL A   1      43.890  34.993  33.116  1.00  0.00     0.054 A 
BRANCH  79  80
ATOM     80  S   UNL A   1      44.070  36.627  33.874  1.00  0.00     0.124 S 
ATOM     81  O   UNL A   1      42.691  37.170  34.252  1.00  0.00    -0.237 OA
ATOM     82  O   UNL A   1      44.936  36.513  35.130  1.00  0.00    -0.237 OA
ATOM     83  O   UNL A   1      44.815  37.692  32.762  1.00  0.00    -0.744 OA
ENDBRANCH  79  80
ENDBRANCH  51  74
BRANCH  63  84
ATOM     84  C   UNL A   1      47.812  26.725  31.266  1.00  0.00    -0.014 A 
ATOM     85  C   UNL A   1      48.107  26.060  32.445  1.00  0.00     0.010 A 
ATOM     86  C   UNL A   1      48.753  26.971  30.361  1.00  0.00     0.010 A 
ATOM     87  C   UNL A   1      49.492  25.948  32.710  1.00  0.00     0.020 A 
ATOM     88  C   UNL A   1      50.074  26.711  30.637  1.00  0.00     0.020 A 
ATOM     89  C   UNL A   1      50.443  26.110  31.807  1.00  0.00     0.054 A 
BRANCH  89  90
ATOM     90  S   UNL A   1      52.143  25.564  32.104  1.00  0.00     0.124 S 
ATOM     91  O   UNL A   1      52.168  24.042  32.272  1.00  0.00    -0.237 OA
ATOM     92  O   UNL A   1      53.021  25.960  30.915  1.00  0.00    -0.237 OA
ATOM     93  O   UNL A   1      52.740  26.305  33.525  1.00  0.00    -0.744 OA
ENDBRANCH  89  90
ENDBRANCH  63  84
ENDBRANCH  37  38
ENDBRANCH  30  32
ENDBRANCH  29  30
ENDBRANCH   1  29
TORSDOF 18
ENDMDL
