MODEL 1
REMARK VINA RESULT:     -10.1      0.000      0.000
REMARK SMILES O=C(CCCN1C(=O)/C(=C/c2cc(Br)ccc2O)SC1=S)OCCOC(=O)c1ccc(-c2c3nc(c(-c4ccc(S(=O)(=O)[O-])cc4)c4ccc([nH]4)c(-c4ccc(S(=O)(=O)[O-])cc4)c4nc(c(-c5ccc(S(=O)(=O)[O-])cc5)c5ccc2[nH]5)C=C4)C=C3)cc1
REMARK SMILES IDX 23 1 22 2 2 3 1 4 3 5 4 6 5 7 6 8 7 9 20 10 8 11 9 12 19 13
REMARK SMILES IDX 21 14 10 15 11 16 12 17 17 18 13 19 16 20 14 21 15 22 18 23
REMARK SMILES IDX 24 25 25 26 26 27 27 28 28 29 29 30 87 31 30 32 86 33 31 34
REMARK SMILES IDX 32 35 33 36 80 37 34 38 85 39 79 40 81 41 35 42 84 43 78 44
REMARK SMILES IDX 77 45 36 47 66 48 47 49 65 50 48 51 51 52 64 53 82 54 49 55
REMARK SMILES IDX 50 56 63 58 83 59 52 60 37 61 38 62 46 63 39 64 45 65 40 66
REMARK SMILES IDX 41 67 42 68 43 69 44 70 67 71 68 72 76 73 69 74 75 75 70 76
REMARK SMILES IDX 71 77 72 78 73 79 74 80 53 81 54 82 62 83 55 84 61 85 56 86
REMARK SMILES IDX 57 87 58 88 59 89 60 90
REMARK H PARENT 18 24 81 46 51 57
REMARK Flexibility Score: inf
ROOT
ATOM      1  C   UNL A   1      32.186  30.137  25.671  1.00  0.00     0.274 C 
ENDROOT
BRANCH   1   2
ATOM      2  O   UNL A   1      33.236  29.273  25.203  1.00  0.00    -0.462 OA
BRANCH   2   3
ATOM      3  C   UNL A   1      32.935  28.008  24.810  1.00  0.00     0.305 C 
ATOM      4  O   UNL A   1      33.742  27.331  24.183  1.00  0.00    -0.252 OA
BRANCH   3   5
ATOM      5  C   UNL A   1      31.518  27.538  25.061  1.00  0.00     0.124 C 
BRANCH   5   6
ATOM      6  C   UNL A   1      30.729  27.196  23.801  1.00  0.00     0.034 C 
BRANCH   6   7
ATOM      7  C   UNL A   1      30.458  25.703  23.562  1.00  0.00     0.128 C 
BRANCH   7   8
ATOM      8  N   UNL A   1      31.587  24.752  23.574  1.00  0.00    -0.293 N 
ATOM      9  C   UNL A   1      31.740  23.793  24.564  1.00  0.00     0.266 C 
ATOM     10  C   UNL A   1      32.500  24.677  22.533  1.00  0.00     0.148 C 
ATOM     11  O   UNL A   1      30.960  23.542  25.471  1.00  0.00    -0.268 OA
ATOM     12  C   UNL A   1      33.028  23.067  24.389  1.00  0.00     0.081 C 
ATOM     13  S   UNL A   1      33.730  23.471  22.881  1.00  0.00    -0.054 SA
ATOM     14  S   UNL A   1      32.545  25.574  21.125  1.00  0.00    -0.052 S 
ATOM     15  C   UNL A   1      33.517  22.250  25.333  1.00  0.00     0.033 C 
BRANCH  15  16
ATOM     16  C   UNL A   1      34.789  21.519  25.256  1.00  0.00     0.019 A 
ATOM     17  C   UNL A   1      35.967  22.196  25.600  1.00  0.00     0.027 A 
ATOM     18  C   UNL A   1      34.873  20.184  24.830  1.00  0.00     0.122 A 
ATOM     19  C   UNL A   1      37.195  21.536  25.537  1.00  0.00     0.018 A 
ATOM     20  C   UNL A   1      36.103  19.525  24.771  1.00  0.00     0.048 A 
ATOM     21  Br  UNL A   1      38.777  22.455  26.011  1.00  0.00    -0.051 Br
ATOM     22  C   UNL A   1      37.268  20.205  25.129  1.00  0.00     0.019 A 
BRANCH  18  23
ATOM     23  O   UNL A   1      33.734  19.523  24.457  1.00  0.00    -0.507 OA
ATOM     24  H   UNL A   1      33.782  18.815  23.845  1.00  0.00     0.293 HD
ENDBRANCH  18  23
ENDBRANCH  15  16
ENDBRANCH   7   8
ENDBRANCH   6   7
ENDBRANCH   5   6
ENDBRANCH   3   5
ENDBRANCH   2   3
ENDBRANCH   1   2
BRANCH   1  25
ATOM     25  C   UNL A   1      32.392  30.611  27.110  1.00  0.00     0.275 C 
BRANCH  25  26
ATOM     26  O   UNL A   1      33.543  29.987  27.699  1.00  0.00    -0.458 OA
BRANCH  26  27
ATOM     27  C   UNL A   1      34.431  30.863  28.241  1.00  0.00     0.338 C 
ATOM     28  O   UNL A   1      34.165  31.945  28.729  1.00  0.00    -0.246 OA
BRANCH  27  29
ATOM     29  C   UNL A   1      35.781  30.256  28.312  1.00  0.00     0.060 A 
ATOM     30  C   UNL A   1      36.173  29.720  29.545  1.00  0.00     0.016 A 
ATOM     31  C   UNL A   1      36.660  30.220  27.224  1.00  0.00     0.016 A 
ATOM     32  C   UNL A   1      37.455  29.199  29.707  1.00  0.00     0.010 A 
ATOM     33  C   UNL A   1      37.948  29.689  27.388  1.00  0.00     0.010 A 
ATOM     34  C   UNL A   1      38.364  29.209  28.640  1.00  0.00    -0.014 A 
BRANCH  34  35
ATOM     35  C   UNL A   1      39.775  28.826  28.904  1.00  0.00     0.031 A 
ATOM     36  C   UNL A   1      40.681  29.797  29.618  1.00  0.00     0.074 A 
ATOM     37  C   UNL A   1      40.225  27.595  28.597  1.00  0.00     0.049 A 
ATOM     38  N   UNL A   1      41.896  29.614  30.069  1.00  0.00    -0.248 NA
ATOM     39  C   UNL A   1      40.144  31.146  29.862  1.00  0.00     0.031 C 
ATOM     40  C   UNL A   1      39.452  26.556  27.916  1.00  0.00     0.029 A 
ATOM     41  N   UNL A   1      41.442  27.006  28.834  1.00  0.00    -0.354 N 
ATOM     42  C   UNL A   1      42.260  30.812  30.670  1.00  0.00     0.074 A 
ATOM     43  C   UNL A   1      41.158  31.732  30.483  1.00  0.00     0.031 C 
ATOM     44  C   UNL A   1      40.212  25.453  27.798  1.00  0.00     0.029 A 
ATOM     45  C   UNL A   1      41.526  25.709  28.386  1.00  0.00     0.049 A 
ATOM     46  H   UNL A   1      42.187  27.469  29.282  1.00  0.00     0.167 HD
ATOM     47  C   UNL A   1      43.397  31.117  31.339  1.00  0.00     0.031 A 
ATOM     48  C   UNL A   1      42.543  24.826  28.449  1.00  0.00     0.031 A 
ATOM     49  C   UNL A   1      44.508  30.220  31.510  1.00  0.00     0.049 A 
ATOM     50  C   UNL A   1      43.823  25.211  29.145  1.00  0.00     0.074 A 
ATOM     51  C   UNL A   1      45.699  30.443  32.178  1.00  0.00     0.029 A 
ATOM     52  N   UNL A   1      44.569  28.931  31.005  1.00  0.00    -0.354 N 
ATOM     53  N   UNL A   1      44.126  26.332  29.756  1.00  0.00    -0.248 NA
ATOM     54  C   UNL A   1      44.891  24.202  29.175  1.00  0.00     0.031 C 
ATOM     55  C   UNL A   1      46.501  29.304  32.038  1.00  0.00     0.029 A 
ATOM     56  C   UNL A   1      45.787  28.354  31.326  1.00  0.00     0.049 A 
ATOM     57  H   UNL A   1      43.853  28.490  30.493  1.00  0.00     0.167 HD
ATOM     58  C   UNL A   1      45.410  26.151  30.262  1.00  0.00     0.074 A 
ATOM     59  C   UNL A   1      45.817  24.808  29.906  1.00  0.00     0.031 C 
ATOM     60  C   UNL A   1      46.184  27.019  30.960  1.00  0.00     0.031 A 
BRANCH  47  61
ATOM     61  C   UNL A   1      43.500  32.494  31.938  1.00  0.00    -0.014 A 
ATOM     62  C   UNL A   1      43.086  32.734  33.261  1.00  0.00     0.010 A 
ATOM     63  C   UNL A   1      44.066  33.545  31.195  1.00  0.00     0.010 A 
ATOM     64  C   UNL A   1      43.213  34.007  33.822  1.00  0.00     0.020 A 
ATOM     65  C   UNL A   1      44.214  34.816  31.759  1.00  0.00     0.020 A 
ATOM     66  C   UNL A   1      43.774  35.041  33.066  1.00  0.00     0.054 A 
BRANCH  66  67
ATOM     67  S   UNL A   1      43.959  36.675  33.831  1.00  0.00     0.124 S 
ATOM     68  O   UNL A   1      42.683  36.829  34.524  1.00  0.00    -0.237 OA
ATOM     69  O   UNL A   1      45.124  36.496  34.694  1.00  0.00    -0.237 OA
ATOM     70  O   UNL A   1      44.161  37.569  32.694  1.00  0.00    -0.744 OA
ENDBRANCH  66  67
ENDBRANCH  47  61
BRANCH  48  71
ATOM     71  C   UNL A   1      42.406  23.481  27.825  1.00  0.00    -0.014 A 
ATOM     72  C   UNL A   1      41.907  22.390  28.558  1.00  0.00     0.010 A 
ATOM     73  C   UNL A   1      42.818  23.280  26.495  1.00  0.00     0.010 A 
ATOM     74  C   UNL A   1      41.857  21.115  27.985  1.00  0.00     0.020 A 
ATOM     75  C   UNL A   1      42.745  22.013  25.910  1.00  0.00     0.020 A 
ATOM     76  C   UNL A   1      42.281  20.935  26.666  1.00  0.00     0.054 A 
BRANCH  76  77
ATOM     77  S   UNL A   1      42.193  19.278  25.930  1.00  0.00     0.124 S 
ATOM     78  O   UNL A   1      40.762  19.132  25.685  1.00  0.00    -0.237 OA
ATOM     79  O   UNL A   1      43.028  19.414  24.738  1.00  0.00    -0.237 OA
ATOM     80  O   UNL A   1      42.743  18.414  26.971  1.00  0.00    -0.744 OA
ENDBRANCH  76  77
ENDBRANCH  48  71
BRANCH  60  81
ATOM     81  C   UNL A   1      47.540  26.536  31.403  1.00  0.00    -0.014 A 
ATOM     82  C   UNL A   1      48.692  26.806  30.644  1.00  0.00     0.010 A 
ATOM     83  C   UNL A   1      47.668  25.826  32.611  1.00  0.00     0.010 A 
ATOM     84  C   UNL A   1      49.941  26.336  31.061  1.00  0.00     0.020 A 
ATOM     85  C   UNL A   1      48.919  25.378  33.045  1.00  0.00     0.020 A 
ATOM     86  C   UNL A   1      50.045  25.619  32.256  1.00  0.00     0.054 A 
BRANCH  86  87
ATOM     87  S   UNL A   1      51.678  25.034  32.789  1.00  0.00     0.124 S 
ATOM     88  O   UNL A   1      51.416  23.628  33.082  1.00  0.00    -0.237 OA
ATOM     89  O   UNL A   1      52.511  25.287  31.616  1.00  0.00    -0.237 OA
ATOM     90  O   UNL A   1      51.982  25.868  33.950  1.00  0.00    -0.744 OA
ENDBRANCH  86  87
ENDBRANCH  60  81
ENDBRANCH  34  35
ENDBRANCH  27  29
ENDBRANCH  26  27
ENDBRANCH  25  26
ENDBRANCH   1  25
TORSDOF 19
ENDMDL
MODEL 2
REMARK VINA RESULT:      -9.7      3.648      9.026
REMARK SMILES O=C(CCCN1C(=O)/C(=C/c2cc(Br)ccc2O)SC1=S)OCCOC(=O)c1ccc(-c2c3nc(c(-c4ccc(S(=O)(=O)[O-])cc4)c4ccc([nH]4)c(-c4ccc(S(=O)(=O)[O-])cc4)c4nc(c(-c5ccc(S(=O)(=O)[O-])cc5)c5ccc2[nH]5)C=C4)C=C3)cc1
REMARK SMILES IDX 23 1 22 2 2 3 1 4 3 5 4 6 5 7 6 8 7 9 20 10 8 11 9 12 19 13
REMARK SMILES IDX 21 14 10 15 11 16 12 17 17 18 13 19 16 20 14 21 15 22 18 23
REMARK SMILES IDX 24 25 25 26 26 27 27 28 28 29 29 30 87 31 30 32 86 33 31 34
REMARK SMILES IDX 32 35 33 36 80 37 34 38 85 39 79 40 81 41 35 42 84 43 78 44
REMARK SMILES IDX 77 45 36 47 66 48 47 49 65 50 48 51 51 52 64 53 82 54 49 55
REMARK SMILES IDX 50 56 63 58 83 59 52 60 37 61 38 62 46 63 39 64 45 65 40 66
REMARK SMILES IDX 41 67 42 68 43 69 44 70 67 71 68 72 76 73 69 74 75 75 70 76
REMARK SMILES IDX 71 77 72 78 73 79 74 80 53 81 54 82 62 83 55 84 61 85 56 86
REMARK SMILES IDX 57 87 58 88 59 89 60 90
REMARK H PARENT 18 24 81 46 51 57
REMARK Flexibility Score: inf
ROOT
ATOM      1  C   UNL A   1      34.372  30.839  27.193  1.00  0.00     0.274 C 
ENDROOT
BRANCH   1   2
ATOM      2  O   UNL A   1      33.197  30.027  27.028  1.00  0.00    -0.462 OA
BRANCH   2   3
ATOM      3  C   UNL A   1      32.531  30.050  25.844  1.00  0.00     0.305 C 
ATOM      4  O   UNL A   1      31.442  30.604  25.741  1.00  0.00    -0.252 OA
BRANCH   3   5
ATOM      5  C   UNL A   1      33.130  29.243  24.712  1.00  0.00     0.124 C 
BRANCH   5   6
ATOM      6  C   UNL A   1      32.233  29.106  23.485  1.00  0.00     0.034 C 
BRANCH   6   7
ATOM      7  C   UNL A   1      31.646  27.709  23.235  1.00  0.00     0.128 C 
BRANCH   7   8
ATOM      8  N   UNL A   1      32.343  26.525  23.774  1.00  0.00    -0.293 N 
ATOM      9  C   UNL A   1      33.374  25.896  23.093  1.00  0.00     0.266 C 
ATOM     10  C   UNL A   1      32.094  26.038  25.048  1.00  0.00     0.148 C 
ATOM     11  O   UNL A   1      33.895  26.260  22.049  1.00  0.00    -0.268 OA
ATOM     12  C   UNL A   1      33.796  24.663  23.812  1.00  0.00     0.081 C 
ATOM     13  S   UNL A   1      33.063  24.605  25.359  1.00  0.00    -0.054 SA
ATOM     14  S   UNL A   1      31.027  26.623  26.193  1.00  0.00    -0.052 S 
ATOM     15  C   UNL A   1      34.616  23.760  23.255  1.00  0.00     0.033 C 
BRANCH  15  16
ATOM     16  C   UNL A   1      35.059  22.506  23.881  1.00  0.00     0.019 A 
ATOM     17  C   UNL A   1      34.102  21.516  24.135  1.00  0.00     0.027 A 
ATOM     18  C   UNL A   1      36.392  22.274  24.253  1.00  0.00     0.122 A 
ATOM     19  C   UNL A   1      34.483  20.313  24.730  1.00  0.00     0.018 A 
ATOM     20  C   UNL A   1      36.772  21.068  24.845  1.00  0.00     0.048 A 
ATOM     21  Br  UNL A   1      33.185  18.979  25.062  1.00  0.00    -0.051 Br
ATOM     22  C   UNL A   1      35.813  20.082  25.082  1.00  0.00     0.019 A 
BRANCH  18  23
ATOM     23  O   UNL A   1      37.331  23.248  24.042  1.00  0.00    -0.507 OA
ATOM     24  H   UNL A   1      37.253  23.822  23.306  1.00  0.00     0.293 HD
ENDBRANCH  18  23
ENDBRANCH  15  16
ENDBRANCH   7   8
ENDBRANCH   6   7
ENDBRANCH   5   6
ENDBRANCH   3   5
ENDBRANCH   2   3
ENDBRANCH   1   2
BRANCH   1  25
ATOM     25  C   UNL A   1      34.933  30.806  28.615  1.00  0.00     0.275 C 
BRANCH  25  26
ATOM     26  O   UNL A   1      35.835  29.703  28.789  1.00  0.00    -0.458 OA
BRANCH  26  27
ATOM     27  C   UNL A   1      36.492  29.707  29.980  1.00  0.00     0.338 C 
ATOM     28  O   UNL A   1      35.979  29.649  31.082  1.00  0.00    -0.246 OA
BRANCH  27  29
ATOM     29  C   UNL A   1      37.956  29.628  29.766  1.00  0.00     0.060 A 
ATOM     30  C   UNL A   1      38.408  29.676  28.442  1.00  0.00     0.016 A 
ATOM     31  C   UNL A   1      38.875  29.493  30.812  1.00  0.00     0.016 A 
ATOM     32  C   UNL A   1      39.765  29.535  28.158  1.00  0.00     0.010 A 
ATOM     33  C   UNL A   1      40.241  29.357  30.526  1.00  0.00     0.010 A 
ATOM     34  C   UNL A   1      40.689  29.341  29.194  1.00  0.00    -0.014 A 
BRANCH  34  35
ATOM     35  C   UNL A   1      42.092  29.001  28.843  1.00  0.00     0.031 A 
ATOM     36  C   UNL A   1      42.420  27.600  28.395  1.00  0.00     0.074 A 
ATOM     37  C   UNL A   1      43.049  29.947  28.833  1.00  0.00     0.049 A 
ATOM     38  N   UNL A   1      43.542  27.129  27.912  1.00  0.00    -0.248 NA
ATOM     39  C   UNL A   1      41.342  26.603  28.495  1.00  0.00     0.031 C 
ATOM     40  C   UNL A   1      42.865  31.343  29.233  1.00  0.00     0.029 A 
ATOM     41  N   UNL A   1      44.367  29.878  28.456  1.00  0.00    -0.354 N 
ATOM     42  C   UNL A   1      43.299  25.791  27.629  1.00  0.00     0.074 A 
ATOM     43  C   UNL A   1      41.940  25.511  28.041  1.00  0.00     0.031 C 
ATOM     44  C   UNL A   1      44.027  32.000  29.071  1.00  0.00     0.029 A 
ATOM     45  C   UNL A   1      45.038  31.073  28.565  1.00  0.00     0.049 A 
ATOM     46  H   UNL A   1      44.793  29.049  28.137  1.00  0.00     0.167 HD
ATOM     47  C   UNL A   1      44.122  24.879  27.057  1.00  0.00     0.031 A 
ATOM     48  C   UNL A   1      46.318  31.386  28.284  1.00  0.00     0.031 A 
ATOM     49  C   UNL A   1      45.482  25.140  26.667  1.00  0.00     0.049 A 
ATOM     50  C   UNL A   1      47.233  30.337  27.705  1.00  0.00     0.074 A 
ATOM     51  C   UNL A   1      46.388  24.277  26.076  1.00  0.00     0.029 A 
ATOM     52  N   UNL A   1      46.135  26.350  26.834  1.00  0.00    -0.354 N 
ATOM     53  N   UNL A   1      46.967  29.090  27.395  1.00  0.00    -0.248 NA
ATOM     54  C   UNL A   1      48.617  30.745  27.424  1.00  0.00     0.031 C 
ATOM     55  C   UNL A   1      47.604  24.952  25.927  1.00  0.00     0.029 A 
ATOM     56  C   UNL A   1      47.439  26.251  26.379  1.00  0.00     0.049 A 
ATOM     57  H   UNL A   1      45.731  27.162  27.220  1.00  0.00     0.167 HD
ATOM     58  C   UNL A   1      48.144  28.575  26.859  1.00  0.00     0.074 A 
ATOM     59  C   UNL A   1      49.115  29.649  26.868  1.00  0.00     0.031 C 
ATOM     60  C   UNL A   1      48.399  27.325  26.399  1.00  0.00     0.031 A 
BRANCH  47  61
ATOM     61  C   UNL A   1      43.570  23.500  26.821  1.00  0.00    -0.014 A 
ATOM     62  C   UNL A   1      43.510  22.963  25.522  1.00  0.00     0.010 A 
ATOM     63  C   UNL A   1      43.157  22.710  27.910  1.00  0.00     0.010 A 
ATOM     64  C   UNL A   1      43.025  21.670  25.313  1.00  0.00     0.020 A 
ATOM     65  C   UNL A   1      42.691  21.408  27.707  1.00  0.00     0.020 A 
ATOM     66  C   UNL A   1      42.616  20.901  26.407  1.00  0.00     0.054 A 
BRANCH  66  67
ATOM     67  S   UNL A   1      42.024  19.213  26.110  1.00  0.00     0.124 S 
ATOM     68  O   UNL A   1      42.802  18.823  24.937  1.00  0.00    -0.237 OA
ATOM     69  O   UNL A   1      42.371  18.527  27.351  1.00  0.00    -0.237 OA
ATOM     70  O   UNL A   1      40.592  19.384  25.875  1.00  0.00    -0.744 OA
ENDBRANCH  66  67
ENDBRANCH  47  61
BRANCH  48  71
ATOM     71  C   UNL A   1      46.830  32.758  28.551  1.00  0.00    -0.014 A 
ATOM     72  C   UNL A   1      47.286  33.126  29.829  1.00  0.00     0.010 A 
ATOM     73  C   UNL A   1      46.822  33.721  27.525  1.00  0.00     0.010 A 
ATOM     74  C   UNL A   1      47.690  34.440  30.086  1.00  0.00     0.020 A 
ATOM     75  C   UNL A   1      47.250  35.028  27.771  1.00  0.00     0.020 A 
ATOM     76  C   UNL A   1      47.665  35.384  29.056  1.00  0.00     0.054 A 
BRANCH  76  77
ATOM     77  S   UNL A   1      48.209  37.080  29.400  1.00  0.00     0.124 S 
ATOM     78  O   UNL A   1      47.237  37.868  28.650  1.00  0.00    -0.237 OA
ATOM     79  O   UNL A   1      48.102  37.161  30.855  1.00  0.00    -0.237 OA
ATOM     80  O   UNL A   1      49.575  37.110  28.882  1.00  0.00    -0.744 OA
ENDBRANCH  76  77
ENDBRANCH  48  71
BRANCH  60  81
ATOM     81  C   UNL A   1      49.775  27.056  25.850  1.00  0.00    -0.014 A 
ATOM     82  C   UNL A   1      50.805  26.568  26.673  1.00  0.00     0.010 A 
ATOM     83  C   UNL A   1      50.035  27.268  24.483  1.00  0.00     0.010 A 
ATOM     84  C   UNL A   1      52.082  26.339  26.151  1.00  0.00     0.020 A 
ATOM     85  C   UNL A   1      51.302  27.015  23.951  1.00  0.00     0.020 A 
ATOM     86  C   UNL A   1      52.324  26.571  24.793  1.00  0.00     0.054 A 
BRANCH  86  87
ATOM     87  S   UNL A   1      53.982  26.250  24.131  1.00  0.00     0.124 S 
ATOM     88  O   UNL A   1      54.718  27.431  24.572  1.00  0.00    -0.237 OA
ATOM     89  O   UNL A   1      54.354  24.998  24.785  1.00  0.00    -0.237 OA
ATOM     90  O   UNL A   1      53.766  26.151  22.690  1.00  0.00    -0.744 OA
ENDBRANCH  86  87
ENDBRANCH  60  81
ENDBRANCH  34  35
ENDBRANCH  27  29
ENDBRANCH  26  27
ENDBRANCH  25  26
ENDBRANCH   1  25
TORSDOF 19
ENDMDL
MODEL 3
REMARK VINA RESULT:      -9.7      3.892      5.175
REMARK SMILES O=C(CCCN1C(=O)/C(=C/c2cc(Br)ccc2O)SC1=S)OCCOC(=O)c1ccc(-c2c3nc(c(-c4ccc(S(=O)(=O)[O-])cc4)c4ccc([nH]4)c(-c4ccc(S(=O)(=O)[O-])cc4)c4nc(c(-c5ccc(S(=O)(=O)[O-])cc5)c5ccc2[nH]5)C=C4)C=C3)cc1
REMARK SMILES IDX 23 1 22 2 2 3 1 4 3 5 4 6 5 7 6 8 7 9 20 10 8 11 9 12 19 13
REMARK SMILES IDX 21 14 10 15 11 16 12 17 17 18 13 19 16 20 14 21 15 22 18 23
REMARK SMILES IDX 24 25 25 26 26 27 27 28 28 29 29 30 87 31 30 32 86 33 31 34
REMARK SMILES IDX 32 35 33 36 80 37 34 38 85 39 79 40 81 41 35 42 84 43 78 44
REMARK SMILES IDX 77 45 36 47 66 48 47 49 65 50 48 51 51 52 64 53 82 54 49 55
REMARK SMILES IDX 50 56 63 58 83 59 52 60 37 61 38 62 46 63 39 64 45 65 40 66
REMARK SMILES IDX 41 67 42 68 43 69 44 70 67 71 68 72 76 73 69 74 75 75 70 76
REMARK SMILES IDX 71 77 72 78 73 79 74 80 53 81 54 82 62 83 55 84 61 85 56 86
REMARK SMILES IDX 57 87 58 88 59 89 60 90
REMARK H PARENT 18 24 81 46 51 57
REMARK Flexibility Score: inf
ROOT
ATOM      1  C   UNL A   1      33.633  31.409  27.574  1.00  0.00     0.274 C 
ENDROOT
BRANCH   1   2
ATOM      2  O   UNL A   1      33.324  30.415  26.582  1.00  0.00    -0.462 OA
BRANCH   2   3
ATOM      3  C   UNL A   1      33.879  29.179  26.680  1.00  0.00     0.305 C 
ATOM      4  O   UNL A   1      34.990  29.021  27.174  1.00  0.00    -0.252 OA
BRANCH   3   5
ATOM      5  C   UNL A   1      33.124  28.042  26.026  1.00  0.00     0.124 C 
BRANCH   5   6
ATOM      6  C   UNL A   1      31.643  28.321  25.781  1.00  0.00     0.034 C 
BRANCH   6   7
ATOM      7  C   UNL A   1      30.878  27.244  24.997  1.00  0.00     0.128 C 
BRANCH   7   8
ATOM      8  N   UNL A   1      31.520  25.939  24.745  1.00  0.00    -0.293 N 
ATOM      9  C   UNL A   1      31.638  24.967  25.727  1.00  0.00     0.266 C 
ATOM     10  C   UNL A   1      31.938  25.555  23.480  1.00  0.00     0.148 C 
ATOM     11  O   UNL A   1      31.173  25.003  26.857  1.00  0.00    -0.268 OA
ATOM     12  C   UNL A   1      32.437  23.815  25.225  1.00  0.00     0.081 C 
ATOM     13  S   UNL A   1      32.689  23.966  23.538  1.00  0.00    -0.054 SA
ATOM     14  S   UNL A   1      31.830  26.406  22.047  1.00  0.00    -0.052 S 
ATOM     15  C   UNL A   1      32.884  22.850  26.041  1.00  0.00     0.033 C 
BRANCH  15  16
ATOM     16  C   UNL A   1      33.700  21.697  25.636  1.00  0.00     0.019 A 
ATOM     17  C   UNL A   1      35.086  21.870  25.525  1.00  0.00     0.027 A 
ATOM     18  C   UNL A   1      33.146  20.444  25.334  1.00  0.00     0.122 A 
ATOM     19  C   UNL A   1      35.894  20.800  25.141  1.00  0.00     0.018 A 
ATOM     20  C   UNL A   1      33.958  19.373  24.954  1.00  0.00     0.048 A 
ATOM     21  Br  UNL A   1      37.764  21.042  25.002  1.00  0.00    -0.051 Br
ATOM     22  C   UNL A   1      35.339  19.553  24.860  1.00  0.00     0.019 A 
BRANCH  18  23
ATOM     23  O   UNL A   1      31.790  20.271  25.404  1.00  0.00    -0.507 OA
ATOM     24  H   UNL A   1      31.419  19.419  25.283  1.00  0.00     0.293 HD
ENDBRANCH  18  23
ENDBRANCH  15  16
ENDBRANCH   7   8
ENDBRANCH   6   7
ENDBRANCH   5   6
ENDBRANCH   3   5
ENDBRANCH   2   3
ENDBRANCH   1   2
BRANCH   1  25
ATOM     25  C   UNL A   1      32.728  32.639  27.497  1.00  0.00     0.275 C 
BRANCH  25  26
ATOM     26  O   UNL A   1      33.494  33.849  27.592  1.00  0.00    -0.458 OA
BRANCH  26  27
ATOM     27  C   UNL A   1      33.439  34.446  28.813  1.00  0.00     0.338 C 
ATOM     28  O   UNL A   1      32.524  35.127  29.238  1.00  0.00    -0.246 OA
BRANCH  27  29
ATOM     29  C   UNL A   1      34.588  34.027  29.648  1.00  0.00     0.060 A 
ATOM     30  C   UNL A   1      35.867  34.232  29.117  1.00  0.00     0.016 A 
ATOM     31  C   UNL A   1      34.443  33.432  30.906  1.00  0.00     0.016 A 
ATOM     32  C   UNL A   1      36.994  33.798  29.812  1.00  0.00     0.010 A 
ATOM     33  C   UNL A   1      35.578  33.001  31.608  1.00  0.00     0.010 A 
ATOM     34  C   UNL A   1      36.858  33.149  31.048  1.00  0.00    -0.014 A 
BRANCH  34  35
ATOM     35  C   UNL A   1      38.059  32.530  31.664  1.00  0.00     0.031 A 
ATOM     36  C   UNL A   1      38.551  33.040  32.994  1.00  0.00     0.074 A 
ATOM     37  C   UNL A   1      38.655  31.465  31.096  1.00  0.00     0.049 A 
ATOM     38  N   UNL A   1      39.488  32.557  33.770  1.00  0.00    -0.248 NA
ATOM     39  C   UNL A   1      37.895  34.248  33.523  1.00  0.00     0.031 C 
ATOM     40  C   UNL A   1      38.274  30.864  29.817  1.00  0.00     0.029 A 
ATOM     41  N   UNL A   1      39.700  30.691  31.532  1.00  0.00    -0.354 N 
ATOM     42  C   UNL A   1      39.518  33.383  34.886  1.00  0.00     0.074 A 
ATOM     43  C   UNL A   1      38.542  34.428  34.666  1.00  0.00     0.031 C 
ATOM     44  C   UNL A   1      39.071  29.807  29.577  1.00  0.00     0.029 A 
ATOM     45  C   UNL A   1      40.022  29.661  30.679  1.00  0.00     0.049 A 
ATOM     46  H   UNL A   1      40.177  30.855  32.379  1.00  0.00     0.167 HD
ATOM     47  C   UNL A   1      40.273  33.272  36.006  1.00  0.00     0.031 A 
ATOM     48  C   UNL A   1      40.969  28.708  30.776  1.00  0.00     0.031 A 
ATOM     49  C   UNL A   1      41.263  32.252  36.224  1.00  0.00     0.049 A 
ATOM     50  C   UNL A   1      41.838  28.643  32.006  1.00  0.00     0.074 A 
ATOM     51  C   UNL A   1      42.071  32.060  37.331  1.00  0.00     0.029 A 
ATOM     52  N   UNL A   1      41.586  31.256  35.317  1.00  0.00    -0.354 N 
ATOM     53  N   UNL A   1      41.814  29.402  33.076  1.00  0.00    -0.248 NA
ATOM     54  C   UNL A   1      42.852  27.579  32.046  1.00  0.00     0.031 C 
ATOM     55  C   UNL A   1      42.916  30.974  37.075  1.00  0.00     0.029 A 
ATOM     56  C   UNL A   1      42.598  30.460  35.828  1.00  0.00     0.049 A 
ATOM     57  H   UNL A   1      41.160  31.132  34.438  1.00  0.00     0.167 HD
ATOM     58  C   UNL A   1      42.792  28.890  33.924  1.00  0.00     0.074 A 
ATOM     59  C   UNL A   1      43.373  27.747  33.254  1.00  0.00     0.031 C 
ATOM     60  C   UNL A   1      43.174  29.328  35.150  1.00  0.00     0.031 A 
BRANCH  47  61
ATOM     61  C   UNL A   1      40.057  34.293  37.089  1.00  0.00    -0.014 A 
ATOM     62  C   UNL A   1      40.817  35.477  37.121  1.00  0.00     0.010 A 
ATOM     63  C   UNL A   1      39.052  34.097  38.053  1.00  0.00     0.010 A 
ATOM     64  C   UNL A   1      40.591  36.436  38.111  1.00  0.00     0.020 A 
ATOM     65  C   UNL A   1      38.809  35.063  39.034  1.00  0.00     0.020 A 
ATOM     66  C   UNL A   1      39.590  36.222  39.063  1.00  0.00     0.054 A 
BRANCH  66  67
ATOM     67  S   UNL A   1      39.295  37.499  40.317  1.00  0.00     0.124 S 
ATOM     68  O   UNL A   1      40.647  37.989  40.571  1.00  0.00    -0.237 OA
ATOM     69  O   UNL A   1      38.409  38.431  39.624  1.00  0.00    -0.237 OA
ATOM     70  O   UNL A   1      38.682  36.766  41.422  1.00  0.00    -0.744 OA
ENDBRANCH  66  67
ENDBRANCH  47  61
BRANCH  48  71
ATOM     71  C   UNL A   1      41.161  27.728  29.672  1.00  0.00    -0.014 A 
ATOM     72  C   UNL A   1      42.232  27.854  28.770  1.00  0.00     0.010 A 
ATOM     73  C   UNL A   1      40.239  26.680  29.496  1.00  0.00     0.010 A 
ATOM     74  C   UNL A   1      42.357  26.973  27.690  1.00  0.00     0.020 A 
ATOM     75  C   UNL A   1      40.374  25.782  28.434  1.00  0.00     0.020 A 
ATOM     76  C   UNL A   1      41.424  25.946  27.527  1.00  0.00     0.054 A 
BRANCH  76  77
ATOM     77  S   UNL A   1      41.609  24.800  26.132  1.00  0.00     0.124 S 
ATOM     78  O   UNL A   1      41.694  25.715  24.999  1.00  0.00    -0.237 OA
ATOM     79  O   UNL A   1      42.841  24.089  26.465  1.00  0.00    -0.237 OA
ATOM     80  O   UNL A   1      40.395  23.989  26.195  1.00  0.00    -0.744 OA
ENDBRANCH  76  77
ENDBRANCH  48  71
BRANCH  60  81
ATOM     81  C   UNL A   1      44.258  28.555  35.854  1.00  0.00    -0.014 A 
ATOM     82  C   UNL A   1      43.951  27.467  36.689  1.00  0.00     0.010 A 
ATOM     83  C   UNL A   1      45.606  28.906  35.655  1.00  0.00     0.010 A 
ATOM     84  C   UNL A   1      44.968  26.770  37.349  1.00  0.00     0.020 A 
ATOM     85  C   UNL A   1      46.628  28.195  36.291  1.00  0.00     0.020 A 
ATOM     86  C   UNL A   1      46.301  27.144  37.150  1.00  0.00     0.054 A 
BRANCH  86  87
ATOM     87  S   UNL A   1      47.608  26.216  38.000  1.00  0.00     0.124 S 
ATOM     88  O   UNL A   1      48.492  27.285  38.456  1.00  0.00    -0.237 OA
ATOM     89  O   UNL A   1      46.875  25.516  39.053  1.00  0.00    -0.237 OA
ATOM     90  O   UNL A   1      48.156  25.355  36.956  1.00  0.00    -0.744 OA
ENDBRANCH  86  87
ENDBRANCH  60  81
ENDBRANCH  34  35
ENDBRANCH  27  29
ENDBRANCH  26  27
ENDBRANCH  25  26
ENDBRANCH   1  25
TORSDOF 19
ENDMDL
