MODEL 1
REMARK VINA RESULT:      -9.9      0.000      0.000
REMARK SMILES O=C(CCc1ccc(S(=O)(=O)NC2COC2)cc1)OCCOC(=O)c1ccc(-c2c3nc(c(-c4ccc(S(=O)(=O)[O-])cc4)c4ccc([nH]4)c(-c4ccc(S(=O)(=O)[O-])cc4)c4nc(c(-c5ccc(S(=O)(=O)[O-])cc5)c5ccc2[nH]5)C=C4)C=C3)cc1
REMARK SMILES IDX 20 1 19 2 2 3 1 4 3 5 4 6 5 7 6 8 18 9 7 10 17 11 8 12 9 13
REMARK SMILES IDX 10 14 11 15 12 16 13 18 14 19 16 20 15 21 21 22 22 23 23 24
REMARK SMILES IDX 24 25 25 26 26 27 84 28 27 29 83 30 28 31 29 32 30 33 77 34
REMARK SMILES IDX 31 35 82 36 76 37 78 38 32 39 81 40 75 41 74 42 33 44 63 45
REMARK SMILES IDX 44 46 62 47 45 48 48 49 61 50 79 51 46 52 47 53 60 55 80 56
REMARK SMILES IDX 49 57 34 58 35 59 43 60 36 61 42 62 37 63 38 64 39 65 40 66
REMARK SMILES IDX 41 67 64 68 65 69 73 70 66 71 72 72 67 73 68 74 69 75 70 76
REMARK SMILES IDX 71 77 50 78 51 79 59 80 52 81 58 82 53 83 54 84 55 85 56 86
REMARK SMILES IDX 57 87
REMARK H PARENT 12 17 78 43 48 54
REMARK Flexibility Score: inf
ROOT
ATOM      1  C   UNL A   1      43.538  22.284  25.625  1.00  0.00     0.274 C 
ENDROOT
BRANCH   1   2
ATOM      2  O   UNL A   1      42.841  22.014  26.853  1.00  0.00    -0.462 OA
BRANCH   2   3
ATOM      3  C   UNL A   1      41.757  21.194  26.745  1.00  0.00     0.306 C 
ATOM      4  O   UNL A   1      41.764  20.202  26.026  1.00  0.00    -0.252 OA
BRANCH   3   5
ATOM      5  C   UNL A   1      40.512  21.729  27.427  1.00  0.00     0.127 C 
BRANCH   5   6
ATOM      6  C   UNL A   1      39.843  22.881  26.679  1.00  0.00     0.047 C 
BRANCH   6   7
ATOM      7  C   UNL A   1      38.502  22.516  26.084  1.00  0.00    -0.047 A 
ATOM      8  C   UNL A   1      37.381  23.354  26.188  1.00  0.00     0.005 A 
ATOM      9  C   UNL A   1      38.362  21.279  25.452  1.00  0.00     0.005 A 
ATOM     10  C   UNL A   1      36.109  22.876  25.859  1.00  0.00     0.022 A 
ATOM     11  C   UNL A   1      37.104  20.820  25.074  1.00  0.00     0.022 A 
ATOM     12  C   UNL A   1      35.971  21.580  25.358  1.00  0.00     0.082 A 
BRANCH  12  13
ATOM     13  S   UNL A   1      34.341  20.894  25.237  1.00  0.00     0.240 S 
ATOM     14  O   UNL A   1      33.801  20.823  26.577  1.00  0.00    -0.207 OA
ATOM     15  O   UNL A   1      33.651  21.580  24.167  1.00  0.00    -0.207 OA
BRANCH  13  16
ATOM     16  N   UNL A   1      34.561  19.323  24.698  1.00  0.00    -0.203 NA
ATOM     17  H   UNL A   1      35.105  18.868  25.431  1.00  0.00     0.141 HD
BRANCH  16  18
ATOM     18  C   UNL A   1      33.498  18.336  24.340  1.00  0.00     0.121 C 
ATOM     19  C   UNL A   1      32.699  18.516  23.046  1.00  0.00     0.182 C 
ATOM     20  C   UNL A   1      33.976  17.030  23.685  1.00  0.00     0.182 C 
ATOM     21  O   UNL A   1      33.066  17.197  22.575  1.00  0.00    -0.378 OA
ENDBRANCH  16  18
ENDBRANCH  13  16
ENDBRANCH  12  13
ENDBRANCH   6   7
ENDBRANCH   5   6
ENDBRANCH   3   5
ENDBRANCH   2   3
ENDBRANCH   1   2
BRANCH   1  22
ATOM     22  C   UNL A   1      43.204  23.660  25.032  1.00  0.00     0.275 C 
BRANCH  22  23
ATOM     23  O   UNL A   1      43.307  24.699  26.017  1.00  0.00    -0.458 OA
BRANCH  23  24
ATOM     24  C   UNL A   1      42.340  25.650  25.910  1.00  0.00     0.338 C 
ATOM     25  O   UNL A   1      41.552  25.785  24.989  1.00  0.00    -0.246 OA
BRANCH  24  26
ATOM     26  C   UNL A   1      42.230  26.388  27.186  1.00  0.00     0.060 A 
ATOM     27  C   UNL A   1      41.303  25.919  28.125  1.00  0.00     0.016 A 
ATOM     28  C   UNL A   1      43.027  27.500  27.477  1.00  0.00     0.016 A 
ATOM     29  C   UNL A   1      41.148  26.575  29.345  1.00  0.00     0.010 A 
ATOM     30  C   UNL A   1      42.862  28.163  28.698  1.00  0.00     0.010 A 
ATOM     31  C   UNL A   1      41.907  27.717  29.628  1.00  0.00    -0.014 A 
BRANCH  31  32
ATOM     32  C   UNL A   1      41.609  28.524  30.836  1.00  0.00     0.031 A 
ATOM     33  C   UNL A   1      40.448  29.480  30.802  1.00  0.00     0.074 A 
ATOM     34  C   UNL A   1      42.361  28.416  31.948  1.00  0.00     0.049 A 
ATOM     35  N   UNL A   1      40.021  30.293  31.732  1.00  0.00    -0.248 NA
ATOM     36  C   UNL A   1      39.665  29.524  29.555  1.00  0.00     0.031 C 
ATOM     37  C   UNL A   1      43.498  27.514  32.119  1.00  0.00     0.029 A 
ATOM     38  N   UNL A   1      42.283  29.090  33.142  1.00  0.00    -0.354 N 
ATOM     39  C   UNL A   1      38.926  30.950  31.185  1.00  0.00     0.074 A 
ATOM     40  C   UNL A   1      38.763  30.454  29.835  1.00  0.00     0.031 C 
ATOM     41  C   UNL A   1      44.028  27.708  33.340  1.00  0.00     0.029 A 
ATOM     42  C   UNL A   1      43.283  28.762  34.027  1.00  0.00     0.049 A 
ATOM     43  H   UNL A   1      41.577  29.746  33.345  1.00  0.00     0.167 HD
ATOM     44  C   UNL A   1      38.125  31.880  31.754  1.00  0.00     0.031 A 
ATOM     45  C   UNL A   1      43.578  29.273  35.240  1.00  0.00     0.031 A 
ATOM     46  C   UNL A   1      38.287  32.383  33.091  1.00  0.00     0.049 A 
ATOM     47  C   UNL A   1      42.716  30.365  35.820  1.00  0.00     0.074 A 
ATOM     48  C   UNL A   1      37.487  33.285  33.771  1.00  0.00     0.029 A 
ATOM     49  N   UNL A   1      39.327  32.048  33.941  1.00  0.00    -0.354 N 
ATOM     50  N   UNL A   1      41.634  30.913  35.322  1.00  0.00    -0.248 NA
ATOM     51  C   UNL A   1      43.116  30.907  37.129  1.00  0.00     0.031 C 
ATOM     52  C   UNL A   1      38.078  33.542  35.011  1.00  0.00     0.029 A 
ATOM     53  C   UNL A   1      39.218  32.761  35.122  1.00  0.00     0.049 A 
ATOM     54  H   UNL A   1      40.039  31.398  33.738  1.00  0.00     0.167 HD
ATOM     55  C   UNL A   1      41.217  31.850  36.262  1.00  0.00     0.074 A 
ATOM     56  C   UNL A   1      42.151  31.786  37.366  1.00  0.00     0.031 C 
ATOM     57  C   UNL A   1      40.154  32.690  36.214  1.00  0.00     0.031 A 
BRANCH  44  58
ATOM     58  C   UNL A   1      37.012  32.446  30.920  1.00  0.00    -0.014 A 
ATOM     59  C   UNL A   1      35.731  31.871  30.934  1.00  0.00     0.010 A 
ATOM     60  C   UNL A   1      37.238  33.611  30.165  1.00  0.00     0.010 A 
ATOM     61  C   UNL A   1      34.695  32.440  30.189  1.00  0.00     0.020 A 
ATOM     62  C   UNL A   1      36.201  34.193  29.432  1.00  0.00     0.020 A 
ATOM     63  C   UNL A   1      34.938  33.597  29.441  1.00  0.00     0.054 A 
BRANCH  63  64
ATOM     64  S   UNL A   1      33.566  34.339  28.515  1.00  0.00     0.124 S 
ATOM     65  O   UNL A   1      32.995  33.176  27.842  1.00  0.00    -0.237 OA
ATOM     66  O   UNL A   1      32.743  34.920  29.571  1.00  0.00    -0.237 OA
ATOM     67  O   UNL A   1      34.223  35.306  27.638  1.00  0.00    -0.744 OA
ENDBRANCH  63  64
ENDBRANCH  44  58
BRANCH  45  68
ATOM     68  C   UNL A   1      44.781  28.798  35.978  1.00  0.00    -0.014 A 
ATOM     69  C   UNL A   1      44.697  27.725  36.882  1.00  0.00     0.010 A 
ATOM     70  C   UNL A   1      46.013  29.453  35.804  1.00  0.00     0.010 A 
ATOM     71  C   UNL A   1      45.817  27.332  37.619  1.00  0.00     0.020 A 
ATOM     72  C   UNL A   1      47.142  29.047  36.522  1.00  0.00     0.020 A 
ATOM     73  C   UNL A   1      47.033  28.000  37.438  1.00  0.00     0.054 A 
BRANCH  73  74
ATOM     74  S   UNL A   1      48.485  27.463  38.385  1.00  0.00     0.124 S 
ATOM     75  O   UNL A   1      49.374  26.989  37.330  1.00  0.00    -0.237 OA
ATOM     76  O   UNL A   1      48.898  28.691  39.059  1.00  0.00    -0.237 OA
ATOM     77  O   UNL A   1      47.949  26.430  39.268  1.00  0.00    -0.744 OA
ENDBRANCH  73  74
ENDBRANCH  45  68
BRANCH  57  78
ATOM     78  C   UNL A   1      39.924  33.603  37.388  1.00  0.00    -0.014 A 
ATOM     79  C   UNL A   1      40.311  34.954  37.338  1.00  0.00     0.010 A 
ATOM     80  C   UNL A   1      39.233  33.128  38.518  1.00  0.00     0.010 A 
ATOM     81  C   UNL A   1      40.020  35.811  38.402  1.00  0.00     0.020 A 
ATOM     82  C   UNL A   1      38.921  33.988  39.574  1.00  0.00     0.020 A 
ATOM     83  C   UNL A   1      39.324  35.324  39.513  1.00  0.00     0.054 A 
BRANCH  83  84
ATOM     84  S   UNL A   1      38.892  36.475  40.849  1.00  0.00     0.124 S 
ATOM     85  O   UNL A   1      38.431  37.644  40.105  1.00  0.00    -0.237 OA
ATOM     86  O   UNL A   1      37.858  35.748  41.580  1.00  0.00    -0.237 OA
ATOM     87  O   UNL A   1      40.150  36.652  41.571  1.00  0.00    -0.744 OA
ENDBRANCH  83  84
ENDBRANCH  57  78
ENDBRANCH  31  32
ENDBRANCH  24  26
ENDBRANCH  23  24
ENDBRANCH  22  23
ENDBRANCH   1  22
TORSDOF 19
ENDMDL
MODEL 2
REMARK VINA RESULT:      -9.8      2.989      8.916
REMARK SMILES O=C(CCc1ccc(S(=O)(=O)NC2COC2)cc1)OCCOC(=O)c1ccc(-c2c3nc(c(-c4ccc(S(=O)(=O)[O-])cc4)c4ccc([nH]4)c(-c4ccc(S(=O)(=O)[O-])cc4)c4nc(c(-c5ccc(S(=O)(=O)[O-])cc5)c5ccc2[nH]5)C=C4)C=C3)cc1
REMARK SMILES IDX 20 1 19 2 2 3 1 4 3 5 4 6 5 7 6 8 18 9 7 10 17 11 8 12 9 13
REMARK SMILES IDX 10 14 11 15 12 16 13 18 14 19 16 20 15 21 21 22 22 23 23 24
REMARK SMILES IDX 24 25 25 26 26 27 84 28 27 29 83 30 28 31 29 32 30 33 77 34
REMARK SMILES IDX 31 35 82 36 76 37 78 38 32 39 81 40 75 41 74 42 33 44 63 45
REMARK SMILES IDX 44 46 62 47 45 48 48 49 61 50 79 51 46 52 47 53 60 55 80 56
REMARK SMILES IDX 49 57 34 58 35 59 43 60 36 61 42 62 37 63 38 64 39 65 40 66
REMARK SMILES IDX 41 67 64 68 65 69 73 70 66 71 72 72 67 73 68 74 69 75 70 76
REMARK SMILES IDX 71 77 50 78 51 79 59 80 52 81 58 82 53 83 54 84 55 85 56 86
REMARK SMILES IDX 57 87
REMARK H PARENT 12 17 78 43 48 54
REMARK Flexibility Score: inf
ROOT
ATOM      1  C   UNL A   1      39.084  22.757  26.912  1.00  0.00     0.274 C 
ENDROOT
BRANCH   1   2
ATOM      2  O   UNL A   1      38.887  21.703  25.955  1.00  0.00    -0.462 OA
BRANCH   2   3
ATOM      3  C   UNL A   1      37.707  21.738  25.275  1.00  0.00     0.306 C 
ATOM      4  O   UNL A   1      37.552  21.143  24.215  1.00  0.00    -0.252 OA
BRANCH   3   5
ATOM      5  C   UNL A   1      36.701  22.722  25.840  1.00  0.00     0.127 C 
BRANCH   5   6
ATOM      6  C   UNL A   1      35.386  22.779  25.063  1.00  0.00     0.047 C 
BRANCH   6   7
ATOM      7  C   UNL A   1      34.380  23.742  25.650  1.00  0.00    -0.047 A 
ATOM      8  C   UNL A   1      33.255  23.309  26.369  1.00  0.00     0.005 A 
ATOM      9  C   UNL A   1      34.550  25.110  25.426  1.00  0.00     0.005 A 
ATOM     10  C   UNL A   1      32.221  24.201  26.669  1.00  0.00     0.022 A 
ATOM     11  C   UNL A   1      33.546  26.010  25.770  1.00  0.00     0.022 A 
ATOM     12  C   UNL A   1      32.349  25.543  26.310  1.00  0.00     0.082 A 
BRANCH  12  13
ATOM     13  S   UNL A   1      30.917  26.584  26.423  1.00  0.00     0.240 S 
ATOM     14  O   UNL A   1      29.754  25.725  26.391  1.00  0.00    -0.207 OA
ATOM     15  O   UNL A   1      31.142  27.531  27.493  1.00  0.00    -0.207 OA
BRANCH  13  16
ATOM     16  N   UNL A   1      30.915  27.489  25.013  1.00  0.00    -0.203 NA
ATOM     17  H   UNL A   1      31.900  27.620  24.784  1.00  0.00     0.141 HD
BRANCH  16  18
ATOM     18  C   UNL A   1      30.261  27.136  23.717  1.00  0.00     0.121 C 
ATOM     19  C   UNL A   1      29.976  28.233  22.687  1.00  0.00     0.182 C 
ATOM     20  C   UNL A   1      31.181  26.562  22.627  1.00  0.00     0.182 C 
ATOM     21  O   UNL A   1      30.729  27.538  21.664  1.00  0.00    -0.378 OA
ENDBRANCH  16  18
ENDBRANCH  13  16
ENDBRANCH  12  13
ENDBRANCH   6   7
ENDBRANCH   5   6
ENDBRANCH   3   5
ENDBRANCH   2   3
ENDBRANCH   1   2
BRANCH   1  22
ATOM     22  C   UNL A   1      40.020  23.863  26.407  1.00  0.00     0.275 C 
BRANCH  22  23
ATOM     23  O   UNL A   1      39.447  25.166  26.590  1.00  0.00    -0.458 OA
BRANCH  23  24
ATOM     24  C   UNL A   1      40.360  26.174  26.552  1.00  0.00     0.338 C 
ATOM     25  O   UNL A   1      41.082  26.465  25.614  1.00  0.00    -0.246 OA
BRANCH  24  26
ATOM     26  C   UNL A   1      40.208  27.022  27.753  1.00  0.00     0.060 A 
ATOM     27  C   UNL A   1      40.852  28.266  27.750  1.00  0.00     0.016 A 
ATOM     28  C   UNL A   1      39.438  26.630  28.852  1.00  0.00     0.016 A 
ATOM     29  C   UNL A   1      40.752  29.110  28.855  1.00  0.00     0.010 A 
ATOM     30  C   UNL A   1      39.347  27.474  29.964  1.00  0.00     0.010 A 
ATOM     31  C   UNL A   1      40.022  28.708  29.980  1.00  0.00    -0.014 A 
BRANCH  31  32
ATOM     32  C   UNL A   1      40.073  29.514  31.223  1.00  0.00     0.031 A 
ATOM     33  C   UNL A   1      41.158  29.232  32.227  1.00  0.00     0.074 A 
ATOM     34  C   UNL A   1      39.167  30.481  31.464  1.00  0.00     0.049 A 
ATOM     35  N   UNL A   1      41.378  29.799  33.384  1.00  0.00    -0.248 NA
ATOM     36  C   UNL A   1      42.120  28.172  31.880  1.00  0.00     0.031 C 
ATOM     37  C   UNL A   1      38.081  30.868  30.565  1.00  0.00     0.029 A 
ATOM     38  N   UNL A   1      39.012  31.303  32.553  1.00  0.00    -0.354 N 
ATOM     39  C   UNL A   1      42.498  29.163  33.907  1.00  0.00     0.074 A 
ATOM     40  C   UNL A   1      42.902  28.156  32.950  1.00  0.00     0.031 C 
ATOM     41  C   UNL A   1      37.356  31.838  31.152  1.00  0.00     0.029 A 
ATOM     42  C   UNL A   1      37.913  32.123  32.474  1.00  0.00     0.049 A 
ATOM     43  H   UNL A   1      39.632  31.305  33.318  1.00  0.00     0.167 HD
ATOM     44  C   UNL A   1      43.135  29.398  35.078  1.00  0.00     0.031 A 
ATOM     45  C   UNL A   1      37.398  32.986  33.375  1.00  0.00     0.031 A 
ATOM     46  C   UNL A   1      42.734  30.391  36.036  1.00  0.00     0.049 A 
ATOM     47  C   UNL A   1      38.084  33.172  34.704  1.00  0.00     0.074 A 
ATOM     48  C   UNL A   1      43.356  30.737  37.223  1.00  0.00     0.029 A 
ATOM     49  N   UNL A   1      41.600  31.178  35.932  1.00  0.00    -0.354 N 
ATOM     50  N   UNL A   1      39.190  32.623  35.146  1.00  0.00    -0.248 NA
ATOM     51  C   UNL A   1      37.449  34.096  35.659  1.00  0.00     0.031 C 
ATOM     52  C   UNL A   1      42.564  31.693  37.867  1.00  0.00     0.029 A 
ATOM     53  C   UNL A   1      41.476  31.976  37.056  1.00  0.00     0.049 A 
ATOM     54  H   UNL A   1      40.974  31.173  35.171  1.00  0.00     0.167 HD
ATOM     55  C   UNL A   1      39.391  33.148  36.419  1.00  0.00     0.074 A 
ATOM     56  C   UNL A   1      38.304  34.068  36.673  1.00  0.00     0.031 C 
ATOM     57  C   UNL A   1      40.389  32.889  37.299  1.00  0.00     0.031 A 
BRANCH  44  58
ATOM     58  C   UNL A   1      44.323  28.541  35.409  1.00  0.00    -0.014 A 
ATOM     59  C   UNL A   1      45.624  28.938  35.057  1.00  0.00     0.010 A 
ATOM     60  C   UNL A   1      44.138  27.355  36.141  1.00  0.00     0.010 A 
ATOM     61  C   UNL A   1      46.721  28.151  35.415  1.00  0.00     0.020 A 
ATOM     62  C   UNL A   1      45.233  26.574  36.516  1.00  0.00     0.020 A 
ATOM     63  C   UNL A   1      46.518  26.972  36.141  1.00  0.00     0.054 A 
BRANCH  63  64
ATOM     64  S   UNL A   1      47.962  25.991  36.630  1.00  0.00     0.124 S 
ATOM     65  O   UNL A   1      48.844  26.160  35.478  1.00  0.00    -0.237 OA
ATOM     66  O   UNL A   1      48.399  26.649  37.857  1.00  0.00    -0.237 OA
ATOM     67  O   UNL A   1      47.423  24.644  36.807  1.00  0.00    -0.744 OA
ENDBRANCH  63  64
ENDBRANCH  44  58
BRANCH  45  68
ATOM     68  C   UNL A   1      36.131  33.708  33.078  1.00  0.00    -0.014 A 
ATOM     69  C   UNL A   1      36.148  35.028  32.595  1.00  0.00     0.010 A 
ATOM     70  C   UNL A   1      34.895  33.083  33.322  1.00  0.00     0.010 A 
ATOM     71  C   UNL A   1      34.951  35.720  32.385  1.00  0.00     0.020 A 
ATOM     72  C   UNL A   1      33.696  33.763  33.090  1.00  0.00     0.020 A 
ATOM     73  C   UNL A   1      33.732  35.084  32.640  1.00  0.00     0.054 A 
BRANCH  73  74
ATOM     74  S   UNL A   1      32.187  35.986  32.340  1.00  0.00     0.124 S 
ATOM     75  O   UNL A   1      32.308  37.109  33.263  1.00  0.00    -0.237 OA
ATOM     76  O   UNL A   1      32.281  36.318  30.921  1.00  0.00    -0.237 OA
ATOM     77  O   UNL A   1      31.154  35.007  32.673  1.00  0.00    -0.744 OA
ENDBRANCH  73  74
ENDBRANCH  45  68
BRANCH  57  78
ATOM     78  C   UNL A   1      40.371  33.613  38.617  1.00  0.00    -0.014 A 
ATOM     79  C   UNL A   1      41.028  34.847  38.772  1.00  0.00     0.010 A 
ATOM     80  C   UNL A   1      39.613  33.100  39.687  1.00  0.00     0.010 A 
ATOM     81  C   UNL A   1      40.937  35.549  39.977  1.00  0.00     0.020 A 
ATOM     82  C   UNL A   1      39.502  33.811  40.885  1.00  0.00     0.020 A 
ATOM     83  C   UNL A   1      40.171  35.029  41.025  1.00  0.00     0.054 A 
BRANCH  83  84
ATOM     84  S   UNL A   1      40.007  35.995  42.552  1.00  0.00     0.124 S 
ATOM     85  O   UNL A   1      40.676  37.243  42.196  1.00  0.00    -0.237 OA
ATOM     86  O   UNL A   1      38.559  36.086  42.723  1.00  0.00    -0.237 OA
ATOM     87  O   UNL A   1      40.696  35.182  43.551  1.00  0.00    -0.744 OA
ENDBRANCH  83  84
ENDBRANCH  57  78
ENDBRANCH  31  32
ENDBRANCH  24  26
ENDBRANCH  23  24
ENDBRANCH  22  23
ENDBRANCH   1  22
TORSDOF 19
ENDMDL
MODEL 3
REMARK VINA RESULT:      -9.7      4.413     11.562
REMARK SMILES O=C(CCc1ccc(S(=O)(=O)NC2COC2)cc1)OCCOC(=O)c1ccc(-c2c3nc(c(-c4ccc(S(=O)(=O)[O-])cc4)c4ccc([nH]4)c(-c4ccc(S(=O)(=O)[O-])cc4)c4nc(c(-c5ccc(S(=O)(=O)[O-])cc5)c5ccc2[nH]5)C=C4)C=C3)cc1
REMARK SMILES IDX 20 1 19 2 2 3 1 4 3 5 4 6 5 7 6 8 18 9 7 10 17 11 8 12 9 13
REMARK SMILES IDX 10 14 11 15 12 16 13 18 14 19 16 20 15 21 21 22 22 23 23 24
REMARK SMILES IDX 24 25 25 26 26 27 84 28 27 29 83 30 28 31 29 32 30 33 77 34
REMARK SMILES IDX 31 35 82 36 76 37 78 38 32 39 81 40 75 41 74 42 33 44 63 45
REMARK SMILES IDX 44 46 62 47 45 48 48 49 61 50 79 51 46 52 47 53 60 55 80 56
REMARK SMILES IDX 49 57 34 58 35 59 43 60 36 61 42 62 37 63 38 64 39 65 40 66
REMARK SMILES IDX 41 67 64 68 65 69 73 70 66 71 72 72 67 73 68 74 69 75 70 76
REMARK SMILES IDX 71 77 50 78 51 79 59 80 52 81 58 82 53 83 54 84 55 85 56 86
REMARK SMILES IDX 57 87
REMARK H PARENT 12 17 78 43 48 54
REMARK Flexibility Score: inf
ROOT
ATOM      1  C   UNL A   1      33.553  34.464  28.809  1.00  0.00     0.274 C 
ENDROOT
BRANCH   1   2
ATOM      2  O   UNL A   1      33.437  34.115  30.199  1.00  0.00    -0.462 OA
BRANCH   2   3
ATOM      3  C   UNL A   1      33.761  35.101  31.083  1.00  0.00     0.306 C 
ATOM      4  O   UNL A   1      33.302  36.233  30.986  1.00  0.00    -0.252 OA
BRANCH   3   5
ATOM      5  C   UNL A   1      34.869  34.723  32.047  1.00  0.00     0.127 C 
BRANCH   5   6
ATOM      6  C   UNL A   1      35.721  33.544  31.579  1.00  0.00     0.047 C 
BRANCH   6   7
ATOM      7  C   UNL A   1      37.125  33.936  31.180  1.00  0.00    -0.047 A 
ATOM      8  C   UNL A   1      37.611  33.761  29.874  1.00  0.00     0.005 A 
ATOM      9  C   UNL A   1      37.985  34.442  32.157  1.00  0.00     0.005 A 
ATOM     10  C   UNL A   1      38.977  33.889  29.606  1.00  0.00     0.022 A 
ATOM     11  C   UNL A   1      39.337  34.622  31.880  1.00  0.00     0.022 A 
ATOM     12  C   UNL A   1      39.846  34.262  30.633  1.00  0.00     0.082 A 
BRANCH  12  13
ATOM     13  S   UNL A   1      41.591  34.123  30.351  1.00  0.00     0.240 S 
ATOM     14  O   UNL A   1      41.861  34.664  29.038  1.00  0.00    -0.207 OA
ATOM     15  O   UNL A   1      42.270  34.605  31.534  1.00  0.00    -0.207 OA
BRANCH  13  16
ATOM     16  N   UNL A   1      41.901  32.477  30.293  1.00  0.00    -0.203 NA
ATOM     17  H   UNL A   1      41.073  32.070  29.857  1.00  0.00     0.141 HD
BRANCH  16  18
ATOM     18  C   UNL A   1      43.056  31.801  29.631  1.00  0.00     0.121 C 
ATOM     19  C   UNL A   1      43.885  30.776  30.411  1.00  0.00     0.182 C 
ATOM     20  C   UNL A   1      42.716  30.609  28.722  1.00  0.00     0.182 C 
ATOM     21  O   UNL A   1      43.649  29.752  29.415  1.00  0.00    -0.378 OA
ENDBRANCH  16  18
ENDBRANCH  13  16
ENDBRANCH  12  13
ENDBRANCH   6   7
ENDBRANCH   5   6
ENDBRANCH   3   5
ENDBRANCH   2   3
ENDBRANCH   1   2
BRANCH   1  22
ATOM     22  C   UNL A   1      33.451  33.252  27.873  1.00  0.00     0.275 C 
BRANCH  22  23
ATOM     23  O   UNL A   1      34.699  32.550  27.779  1.00  0.00    -0.458 OA
BRANCH  23  24
ATOM     24  C   UNL A   1      34.575  31.200  27.891  1.00  0.00     0.338 C 
ATOM     25  O   UNL A   1      33.647  30.518  27.489  1.00  0.00    -0.246 OA
BRANCH  24  26
ATOM     26  C   UNL A   1      35.843  30.628  28.392  1.00  0.00     0.060 A 
ATOM     27  C   UNL A   1      35.788  29.862  29.564  1.00  0.00     0.016 A 
ATOM     28  C   UNL A   1      37.059  30.812  27.727  1.00  0.00     0.016 A 
ATOM     29  C   UNL A   1      36.951  29.301  30.089  1.00  0.00     0.010 A 
ATOM     30  C   UNL A   1      38.227  30.257  28.262  1.00  0.00     0.010 A 
ATOM     31  C   UNL A   1      38.182  29.518  29.457  1.00  0.00    -0.014 A 
BRANCH  31  32
ATOM     32  C   UNL A   1      39.438  29.087  30.116  1.00  0.00     0.031 A 
ATOM     33  C   UNL A   1      39.895  29.812  31.353  1.00  0.00     0.074 A 
ATOM     34  C   UNL A   1      40.169  28.070  29.622  1.00  0.00     0.049 A 
ATOM     35  N   UNL A   1      40.967  29.616  32.075  1.00  0.00    -0.248 NA
ATOM     36  C   UNL A   1      39.029  30.900  31.839  1.00  0.00     0.031 C 
ATOM     37  C   UNL A   1      39.828  27.272  28.445  1.00  0.00     0.029 A 
ATOM     38  N   UNL A   1      41.366  27.547  30.048  1.00  0.00    -0.354 N 
ATOM     39  C   UNL A   1      40.910  30.557  33.096  1.00  0.00     0.074 A 
ATOM     40  C   UNL A   1      39.707  31.335  32.891  1.00  0.00     0.031 C 
ATOM     41  C   UNL A   1      40.807  26.375  28.229  1.00  0.00     0.029 A 
ATOM     42  C   UNL A   1      41.853  26.550  29.236  1.00  0.00     0.049 A 
ATOM     43  H   UNL A   1      41.831  27.857  30.858  1.00  0.00     0.167 HD
ATOM     44  C   UNL A   1      41.778  30.755  34.114  1.00  0.00     0.031 A 
ATOM     45  C   UNL A   1      43.020  25.875  29.284  1.00  0.00     0.031 A 
ATOM     46  C   UNL A   1      42.979  29.992  34.318  1.00  0.00     0.049 A 
ATOM     47  C   UNL A   1      44.007  26.169  30.385  1.00  0.00     0.074 A 
ATOM     48  C   UNL A   1      43.888  30.085  35.357  1.00  0.00     0.029 A 
ATOM     49  N   UNL A   1      43.449  29.013  33.458  1.00  0.00    -0.354 N 
ATOM     50  N   UNL A   1      43.896  27.004  31.391  1.00  0.00    -0.248 NA
ATOM     51  C   UNL A   1      45.278  25.428  30.357  1.00  0.00     0.031 C 
ATOM     52  C   UNL A   1      44.942  29.205  35.094  1.00  0.00     0.029 A 
ATOM     53  C   UNL A   1      44.662  28.529  33.917  1.00  0.00     0.049 A 
ATOM     54  H   UNL A   1      42.991  28.707  32.643  1.00  0.00     0.167 HD
ATOM     55  C   UNL A   1      45.073  26.875  32.122  1.00  0.00     0.074 A 
ATOM     56  C   UNL A   1      45.876  25.873  31.455  1.00  0.00     0.031 C 
ATOM     57  C   UNL A   1      45.454  27.531  33.245  1.00  0.00     0.031 A 
BRANCH  44  58
ATOM     58  C   UNL A   1      41.481  31.868  35.077  1.00  0.00    -0.014 A 
ATOM     59  C   UNL A   1      41.833  33.196  34.782  1.00  0.00     0.010 A 
ATOM     60  C   UNL A   1      40.780  31.587  36.264  1.00  0.00     0.010 A 
ATOM     61  C   UNL A   1      41.506  34.225  35.669  1.00  0.00     0.020 A 
ATOM     62  C   UNL A   1      40.435  32.615  37.144  1.00  0.00     0.020 A 
ATOM     63  C   UNL A   1      40.810  33.927  36.846  1.00  0.00     0.054 A 
BRANCH  63  64
ATOM     64  S   UNL A   1      40.361  35.285  37.959  1.00  0.00     0.124 S 
ATOM     65  O   UNL A   1      41.510  35.328  38.860  1.00  0.00    -0.237 OA
ATOM     66  O   UNL A   1      40.235  36.420  37.049  1.00  0.00    -0.237 OA
ATOM     67  O   UNL A   1      39.110  34.837  38.568  1.00  0.00    -0.744 OA
ENDBRANCH  63  64
ENDBRANCH  44  58
BRANCH  45  68
ATOM     68  C   UNL A   1      43.354  24.884  28.225  1.00  0.00    -0.014 A 
ATOM     69  C   UNL A   1      42.979  23.536  28.352  1.00  0.00     0.010 A 
ATOM     70  C   UNL A   1      44.092  25.287  27.097  1.00  0.00     0.010 A 
ATOM     71  C   UNL A   1      43.358  22.602  27.384  1.00  0.00     0.020 A 
ATOM     72  C   UNL A   1      44.452  24.360  26.114  1.00  0.00     0.020 A 
ATOM     73  C   UNL A   1      44.097  23.019  26.273  1.00  0.00     0.054 A 
BRANCH  73  74
ATOM     74  S   UNL A   1      44.561  21.800  25.012  1.00  0.00     0.124 S 
ATOM     75  O   UNL A   1      45.949  21.517  25.360  1.00  0.00    -0.237 OA
ATOM     76  O   UNL A   1      43.612  20.716  25.253  1.00  0.00    -0.237 OA
ATOM     77  O   UNL A   1      44.362  22.520  23.756  1.00  0.00    -0.744 OA
ENDBRANCH  73  74
ENDBRANCH  45  68
BRANCH  57  78
ATOM     78  C   UNL A   1      46.790  27.184  33.844  1.00  0.00    -0.014 A 
ATOM     79  C   UNL A   1      46.919  26.123  34.756  1.00  0.00     0.010 A 
ATOM     80  C   UNL A   1      47.944  27.870  33.420  1.00  0.00     0.010 A 
ATOM     81  C   UNL A   1      48.177  25.759  35.243  1.00  0.00     0.020 A 
ATOM     82  C   UNL A   1      49.206  27.494  33.888  1.00  0.00     0.020 A 
ATOM     83  C   UNL A   1      49.314  26.445  34.803  1.00  0.00     0.054 A 
BRANCH  83  84
ATOM     84  S   UNL A   1      50.944  25.905  35.392  1.00  0.00     0.124 S 
ATOM     85  O   UNL A   1      51.634  27.178  35.583  1.00  0.00    -0.237 OA
ATOM     86  O   UNL A   1      50.621  25.178  36.616  1.00  0.00    -0.237 OA
ATOM     87  O   UNL A   1      51.451  25.080  34.298  1.00  0.00    -0.744 OA
ENDBRANCH  83  84
ENDBRANCH  57  78
ENDBRANCH  31  32
ENDBRANCH  24  26
ENDBRANCH  23  24
ENDBRANCH  22  23
ENDBRANCH   1  22
TORSDOF 19
ENDMDL
