MODEL 1
REMARK VINA RESULT:     -10.1      0.000      0.000
REMARK SMILES Cc1cc(Cl)cc2c1O[C@H](C(F)(F)F)C(C(=O)OCCOC(=O)c1ccc(-c3c4nc(c(-c5ccc(S(=O)(=O)[O-])cc5)c5ccc([nH]5)c(-c5ccc(S(=O)(=O)[O-])cc5)c5nc(c(-c6ccc(S(=O)(=O)[O-])cc6)c6ccc3[nH]6)C=C5)C=C4)cc1)=C2
REMARK SMILES IDX 20 1 19 2 18 3 16 4 17 5 15 6 1 7 2 8 3 9 8 10 4 11 7 12
REMARK SMILES IDX 9 13 5 14 6 15 84 16 10 17 11 18 12 19 13 20 14 21 21 22
REMARK SMILES IDX 22 23 23 24 24 25 25 26 83 27 26 28 82 29 27 30 28 31 29 32
REMARK SMILES IDX 76 33 30 34 81 35 75 36 77 37 31 38 80 39 74 40 73 41 32 43
REMARK SMILES IDX 62 44 43 45 61 46 44 47 47 48 60 49 78 50 45 51 46 52 59 54
REMARK SMILES IDX 79 55 48 56 33 57 34 58 42 59 35 60 41 61 36 62 37 63 38 64
REMARK SMILES IDX 39 65 40 66 63 67 64 68 72 69 65 70 71 71 66 72 67 73 68 74
REMARK SMILES IDX 69 75 70 76 49 77 50 78 58 79 51 80 57 81 52 82 53 83 54 84
REMARK SMILES IDX 55 85 56 86
REMARK H PARENT 77 42 47 53
REMARK Flexibility Score: inf
ROOT
ATOM      1  C   UNL A   1      40.887  20.131  26.488  1.00  0.00     0.275 C 
ENDROOT
BRANCH   1   2
ATOM      2  C   UNL A   1      42.366  20.071  26.872  1.00  0.00     0.275 C 
BRANCH   2   3
ATOM      3  O   UNL A   1      43.213  20.580  25.817  1.00  0.00    -0.459 OA
BRANCH   3   4
ATOM      4  C   UNL A   1      43.186  21.923  25.653  1.00  0.00     0.338 C 
ATOM      5  O   UNL A   1      42.367  22.557  25.006  1.00  0.00    -0.246 OA
BRANCH   4   6
ATOM      6  C   UNL A   1      44.301  22.565  26.372  1.00  0.00     0.087 C 
ATOM      7  C   UNL A   1      48.668  24.998  27.507  1.00  0.00     0.048 C 
ATOM      8  C   UNL A   1      47.307  24.890  28.126  1.00  0.00    -0.007 A 
ATOM      9  C   UNL A   1      46.986  25.669  29.250  1.00  0.00     0.027 A 
ATOM     10  C   UNL A   1      46.328  24.053  27.568  1.00  0.00     0.131 A 
ATOM     11  C   UNL A   1      45.717  25.599  29.820  1.00  0.00     0.042 A 
ATOM     12  C   UNL A   1      45.054  24.004  28.137  1.00  0.00     0.019 A 
ATOM     13  O   UNL A   1      46.683  23.304  26.479  1.00  0.00    -0.475 OA
ATOM     14  Cl  UNL A   1      45.337  26.563  31.191  1.00  0.00    -0.084 Cl
ATOM     15  C   UNL A   1      44.749  24.766  29.272  1.00  0.00     0.032 A 
ATOM     16  C   UNL A   1      44.022  23.205  27.511  1.00  0.00     0.027 C 
ATOM     17  C   UNL A   1      45.650  22.611  25.721  1.00  0.00     0.316 C 
BRANCH  17  18
ATOM     18  C   UNL A   1      45.577  23.227  24.315  1.00  0.00     0.430 C 
ATOM     19  F   UNL A   1      46.807  23.588  23.873  1.00  0.00    -0.167 F 
ATOM     20  F   UNL A   1      45.090  22.346  23.407  1.00  0.00    -0.167 F 
ATOM     21  F   UNL A   1      44.794  24.328  24.274  1.00  0.00    -0.167 F 
ENDBRANCH  17  18
ENDBRANCH   4   6
ENDBRANCH   3   4
ENDBRANCH   2   3
ENDBRANCH   1   2
BRANCH   1  22
ATOM     22  O   UNL A   1      40.185  21.089  27.301  1.00  0.00    -0.458 OA
BRANCH  22  23
ATOM     23  C   UNL A   1      39.505  22.028  26.606  1.00  0.00     0.338 C 
ATOM     24  O   UNL A   1      38.705  21.844  25.704  1.00  0.00    -0.246 OA
BRANCH  23  25
ATOM     25  C   UNL A   1      39.773  23.367  27.149  1.00  0.00     0.060 A 
ATOM     26  C   UNL A   1      39.285  24.463  26.452  1.00  0.00     0.016 A 
ATOM     27  C   UNL A   1      40.694  23.548  28.176  1.00  0.00     0.016 A 
ATOM     28  C   UNL A   1      39.858  25.716  26.637  1.00  0.00     0.010 A 
ATOM     29  C   UNL A   1      41.137  24.842  28.481  1.00  0.00     0.010 A 
ATOM     30  C   UNL A   1      40.771  25.937  27.676  1.00  0.00    -0.014 A 
BRANCH  30  31
ATOM     31  C   UNL A   1      41.345  27.298  27.903  1.00  0.00     0.031 A 
ATOM     32  C   UNL A   1      42.734  27.636  27.411  1.00  0.00     0.074 A 
ATOM     33  C   UNL A   1      40.619  28.244  28.535  1.00  0.00     0.049 A 
ATOM     34  N   UNL A   1      43.477  28.677  27.689  1.00  0.00    -0.248 NA
ATOM     35  C   UNL A   1      43.378  26.672  26.502  1.00  0.00     0.031 C 
ATOM     36  C   UNL A   1      39.238  28.091  29.004  1.00  0.00     0.029 A 
ATOM     37  N   UNL A   1      40.934  29.536  28.883  1.00  0.00    -0.354 N 
ATOM     38  C   UNL A   1      44.690  28.468  27.040  1.00  0.00     0.074 A 
ATOM     39  C   UNL A   1      44.590  27.193  26.364  1.00  0.00     0.031 C 
ATOM     40  C   UNL A   1      38.807  29.252  29.514  1.00  0.00     0.029 A 
ATOM     41  C   UNL A   1      39.915  30.195  29.533  1.00  0.00     0.049 A 
ATOM     42  H   UNL A   1      41.805  29.950  28.687  1.00  0.00     0.167 HD
ATOM     43  C   UNL A   1      45.786  29.265  27.012  1.00  0.00     0.031 A 
ATOM     44  C   UNL A   1      39.881  31.399  30.136  1.00  0.00     0.031 A 
ATOM     45  C   UNL A   1      45.860  30.552  27.658  1.00  0.00     0.049 A 
ATOM     46  C   UNL A   1      41.130  32.228  30.165  1.00  0.00     0.074 A 
ATOM     47  C   UNL A   1      46.924  31.435  27.696  1.00  0.00     0.029 A 
ATOM     48  N   UNL A   1      44.822  31.146  28.362  1.00  0.00    -0.354 N 
ATOM     49  N   UNL A   1      42.295  31.975  29.617  1.00  0.00    -0.248 NA
ATOM     50  C   UNL A   1      41.070  33.491  30.911  1.00  0.00     0.031 C 
ATOM     51  C   UNL A   1      46.549  32.538  28.470  1.00  0.00     0.029 A 
ATOM     52  C   UNL A   1      45.229  32.373  28.858  1.00  0.00     0.049 A 
ATOM     53  H   UNL A   1      43.929  30.752  28.491  1.00  0.00     0.167 HD
ATOM     54  C   UNL A   1      43.103  33.059  29.938  1.00  0.00     0.074 A 
ATOM     55  C   UNL A   1      42.287  33.975  30.709  1.00  0.00     0.031 C 
ATOM     56  C   UNL A   1      44.405  33.272  29.627  1.00  0.00     0.031 A 
BRANCH  43  57
ATOM     57  C   UNL A   1      47.012  28.764  26.290  1.00  0.00    -0.014 A 
ATOM     58  C   UNL A   1      48.265  28.693  26.923  1.00  0.00     0.010 A 
ATOM     59  C   UNL A   1      46.892  28.294  24.966  1.00  0.00     0.010 A 
ATOM     60  C   UNL A   1      49.378  28.191  26.241  1.00  0.00     0.020 A 
ATOM     61  C   UNL A   1      47.995  27.764  24.290  1.00  0.00     0.020 A 
ATOM     62  C   UNL A   1      49.236  27.728  24.928  1.00  0.00     0.054 A 
BRANCH  62  63
ATOM     63  S   UNL A   1      50.691  27.053  24.081  1.00  0.00     0.124 S 
ATOM     64  O   UNL A   1      51.613  28.187  24.113  1.00  0.00    -0.237 OA
ATOM     65  O   UNL A   1      51.059  25.923  24.929  1.00  0.00    -0.237 OA
ATOM     66  O   UNL A   1      50.191  26.698  22.756  1.00  0.00    -0.744 OA
ENDBRANCH  62  63
ENDBRANCH  43  57
BRANCH  44  67
ATOM     67  C   UNL A   1      38.630  31.858  30.805  1.00  0.00    -0.014 A 
ATOM     68  C   UNL A   1      38.381  31.534  32.148  1.00  0.00     0.010 A 
ATOM     69  C   UNL A   1      37.701  32.659  30.112  1.00  0.00     0.010 A 
ATOM     70  C   UNL A   1      37.227  32.000  32.787  1.00  0.00     0.020 A 
ATOM     71  C   UNL A   1      36.565  33.155  30.757  1.00  0.00     0.020 A 
ATOM     72  C   UNL A   1      36.332  32.815  32.089  1.00  0.00     0.054 A 
BRANCH  72  73
ATOM     73  S   UNL A   1      34.877  33.459  32.960  1.00  0.00     0.124 S 
ATOM     74  O   UNL A   1      34.920  34.878  32.618  1.00  0.00    -0.237 OA
ATOM     75  O   UNL A   1      33.787  32.696  32.356  1.00  0.00    -0.237 OA
ATOM     76  O   UNL A   1      35.146  33.144  34.361  1.00  0.00    -0.744 OA
ENDBRANCH  72  73
ENDBRANCH  44  67
BRANCH  56  77
ATOM     77  C   UNL A   1      45.023  34.562  30.094  1.00  0.00    -0.014 A 
ATOM     78  C   UNL A   1      44.970  35.721  29.301  1.00  0.00     0.010 A 
ATOM     79  C   UNL A   1      45.615  34.627  31.369  1.00  0.00     0.010 A 
ATOM     80  C   UNL A   1      45.526  36.917  29.762  1.00  0.00     0.020 A 
ATOM     81  C   UNL A   1      46.144  35.828  31.846  1.00  0.00     0.020 A 
ATOM     82  C   UNL A   1      46.107  36.962  31.033  1.00  0.00     0.054 A 
BRANCH  82  83
ATOM     83  S   UNL A   1      46.781  38.539  31.623  1.00  0.00     0.124 S 
ATOM     84  O   UNL A   1      46.135  39.499  30.733  1.00  0.00    -0.237 OA
ATOM     85  O   UNL A   1      46.337  38.574  33.014  1.00  0.00    -0.237 OA
ATOM     86  O   UNL A   1      48.224  38.392  31.438  1.00  0.00    -0.744 OA
ENDBRANCH  82  83
ENDBRANCH  56  77
ENDBRANCH  30  31
ENDBRANCH  23  25
ENDBRANCH  22  23
ENDBRANCH   1  22
TORSDOF 15
ENDMDL
MODEL 2
REMARK VINA RESULT:      -9.6      4.914     10.694
REMARK SMILES Cc1cc(Cl)cc2c1O[C@H](C(F)(F)F)C(C(=O)OCCOC(=O)c1ccc(-c3c4nc(c(-c5ccc(S(=O)(=O)[O-])cc5)c5ccc([nH]5)c(-c5ccc(S(=O)(=O)[O-])cc5)c5nc(c(-c6ccc(S(=O)(=O)[O-])cc6)c6ccc3[nH]6)C=C5)C=C4)cc1)=C2
REMARK SMILES IDX 20 1 19 2 18 3 16 4 17 5 15 6 1 7 2 8 3 9 8 10 4 11 7 12
REMARK SMILES IDX 9 13 5 14 6 15 84 16 10 17 11 18 12 19 13 20 14 21 21 22
REMARK SMILES IDX 22 23 23 24 24 25 25 26 83 27 26 28 82 29 27 30 28 31 29 32
REMARK SMILES IDX 76 33 30 34 81 35 75 36 77 37 31 38 80 39 74 40 73 41 32 43
REMARK SMILES IDX 62 44 43 45 61 46 44 47 47 48 60 49 78 50 45 51 46 52 59 54
REMARK SMILES IDX 79 55 48 56 33 57 34 58 42 59 35 60 41 61 36 62 37 63 38 64
REMARK SMILES IDX 39 65 40 66 63 67 64 68 72 69 65 70 71 71 66 72 67 73 68 74
REMARK SMILES IDX 69 75 70 76 49 77 50 78 58 79 51 80 57 81 52 82 53 83 54 84
REMARK SMILES IDX 55 85 56 86
REMARK H PARENT 77 42 47 53
REMARK Flexibility Score: inf
ROOT
ATOM      1  C   UNL A   1      33.421  29.020  25.232  1.00  0.00     0.275 C 
ENDROOT
BRANCH   1   2
ATOM      2  C   UNL A   1      32.148  28.213  24.977  1.00  0.00     0.275 C 
BRANCH   2   3
ATOM      3  O   UNL A   1      32.446  26.859  24.570  1.00  0.00    -0.459 OA
BRANCH   3   4
ATOM      4  C   UNL A   1      31.766  25.894  25.231  1.00  0.00     0.338 C 
ATOM      5  O   UNL A   1      30.631  25.981  25.674  1.00  0.00    -0.246 OA
BRANCH   4   6
ATOM      6  C   UNL A   1      32.580  24.672  25.364  1.00  0.00     0.087 C 
ATOM      7  C   UNL A   1      34.552  19.984  24.723  1.00  0.00     0.048 C 
ATOM      8  C   UNL A   1      35.072  21.315  25.180  1.00  0.00    -0.007 A 
ATOM      9  C   UNL A   1      36.443  21.478  25.441  1.00  0.00     0.027 A 
ATOM     10  C   UNL A   1      34.213  22.417  25.304  1.00  0.00     0.131 A 
ATOM     11  C   UNL A   1      36.944  22.715  25.841  1.00  0.00     0.042 A 
ATOM     12  C   UNL A   1      34.729  23.657  25.687  1.00  0.00     0.019 A 
ATOM     13  O   UNL A   1      32.884  22.215  25.048  1.00  0.00    -0.475 OA
ATOM     14  Cl  UNL A   1      38.624  22.901  26.151  1.00  0.00    -0.084 Cl
ATOM     15  C   UNL A   1      36.092  23.806  25.970  1.00  0.00     0.032 A 
ATOM     16  C   UNL A   1      33.856  24.811  25.735  1.00  0.00     0.027 C 
ATOM     17  C   UNL A   1      31.996  23.363  24.926  1.00  0.00     0.316 C 
BRANCH  17  18
ATOM     18  C   UNL A   1      31.478  23.431  23.481  1.00  0.00     0.430 C 
ATOM     19  F   UNL A   1      30.200  23.882  23.439  1.00  0.00    -0.167 F 
ATOM     20  F   UNL A   1      32.208  24.289  22.727  1.00  0.00    -0.167 F 
ATOM     21  F   UNL A   1      31.503  22.228  22.867  1.00  0.00    -0.167 F 
ENDBRANCH  17  18
ENDBRANCH   4   6
ENDBRANCH   3   4
ENDBRANCH   2   3
ENDBRANCH   1   2
BRANCH   1  22
ATOM     22  O   UNL A   1      33.926  28.776  26.558  1.00  0.00    -0.458 OA
BRANCH  22  23
ATOM     23  C   UNL A   1      34.077  29.883  27.317  1.00  0.00     0.338 C 
ATOM     24  O   UNL A   1      33.222  30.704  27.602  1.00  0.00    -0.246 OA
BRANCH  23  25
ATOM     25  C   UNL A   1      35.435  29.946  27.876  1.00  0.00     0.060 A 
ATOM     26  C   UNL A   1      36.487  30.198  27.007  1.00  0.00     0.016 A 
ATOM     27  C   UNL A   1      35.690  29.518  29.175  1.00  0.00     0.016 A 
ATOM     28  C   UNL A   1      37.781  29.834  27.361  1.00  0.00     0.010 A 
ATOM     29  C   UNL A   1      37.015  29.323  29.586  1.00  0.00     0.010 A 
ATOM     30  C   UNL A   1      38.076  29.420  28.666  1.00  0.00    -0.014 A 
BRANCH  30  31
ATOM     31  C   UNL A   1      39.478  29.079  29.053  1.00  0.00     0.031 A 
ATOM     32  C   UNL A   1      40.335  30.082  29.790  1.00  0.00     0.074 A 
ATOM     33  C   UNL A   1      39.986  27.862  28.763  1.00  0.00     0.049 A 
ATOM     34  N   UNL A   1      41.623  30.052  30.026  1.00  0.00    -0.248 NA
ATOM     35  C   UNL A   1      39.663  31.282  30.318  1.00  0.00     0.031 C 
ATOM     36  C   UNL A   1      39.259  26.763  28.120  1.00  0.00     0.029 A 
ATOM     37  N   UNL A   1      41.236  27.333  28.985  1.00  0.00    -0.354 N 
ATOM     38  C   UNL A   1      41.922  31.248  30.673  1.00  0.00     0.074 A 
ATOM     39  C   UNL A   1      40.684  31.988  30.782  1.00  0.00     0.031 C 
ATOM     40  C   UNL A   1      40.046  25.681  28.059  1.00  0.00     0.029 A 
ATOM     41  C   UNL A   1      41.374  26.040  28.534  1.00  0.00     0.049 A 
ATOM     42  H   UNL A   1      41.962  27.832  29.423  1.00  0.00     0.167 HD
ATOM     43  C   UNL A   1      43.119  31.687  31.134  1.00  0.00     0.031 A 
ATOM     44  C   UNL A   1      42.455  25.242  28.449  1.00  0.00     0.031 A 
ATOM     45  C   UNL A   1      44.339  30.922  31.053  1.00  0.00     0.049 A 
ATOM     46  C   UNL A   1      43.785  25.779  28.885  1.00  0.00     0.074 A 
ATOM     47  C   UNL A   1      45.606  31.277  31.482  1.00  0.00     0.029 A 
ATOM     48  N   UNL A   1      44.440  29.643  30.525  1.00  0.00    -0.354 N 
ATOM     49  N   UNL A   1      44.064  26.945  29.419  1.00  0.00    -0.248 NA
ATOM     50  C   UNL A   1      44.949  24.905  28.689  1.00  0.00     0.031 C 
ATOM     51  C   UNL A   1      46.484  30.236  31.163  1.00  0.00     0.029 A 
ATOM     52  C   UNL A   1      45.752  29.204  30.597  1.00  0.00     0.049 A 
ATOM     53  H   UNL A   1      43.691  29.125  30.153  1.00  0.00     0.167 HD
ATOM     54  C   UNL A   1      45.436  26.937  29.638  1.00  0.00     0.074 A 
ATOM     55  C   UNL A   1      45.923  25.645  29.200  1.00  0.00     0.031 C 
ATOM     56  C   UNL A   1      46.221  27.916  30.151  1.00  0.00     0.031 A 
BRANCH  43  57
ATOM     57  C   UNL A   1      43.187  33.068  31.735  1.00  0.00    -0.014 A 
ATOM     58  C   UNL A   1      43.023  33.281  33.116  1.00  0.00     0.010 A 
ATOM     59  C   UNL A   1      43.485  34.169  30.908  1.00  0.00     0.010 A 
ATOM     60  C   UNL A   1      43.126  34.570  33.651  1.00  0.00     0.020 A 
ATOM     61  C   UNL A   1      43.619  35.454  31.443  1.00  0.00     0.020 A 
ATOM     62  C   UNL A   1      43.425  35.648  32.813  1.00  0.00     0.054 A 
BRANCH  62  63
ATOM     63  S   UNL A   1      43.584  37.301  33.543  1.00  0.00     0.124 S 
ATOM     64  O   UNL A   1      43.697  38.146  32.355  1.00  0.00    -0.237 OA
ATOM     65  O   UNL A   1      42.339  37.439  34.293  1.00  0.00    -0.237 OA
ATOM     66  O   UNL A   1      44.793  37.209  34.356  1.00  0.00    -0.744 OA
ENDBRANCH  62  63
ENDBRANCH  43  57
BRANCH  44  67
ATOM     67  C   UNL A   1      42.322  23.872  27.876  1.00  0.00    -0.014 A 
ATOM     68  C   UNL A   1      42.345  23.676  26.486  1.00  0.00     0.010 A 
ATOM     69  C   UNL A   1      42.216  22.750  28.722  1.00  0.00     0.010 A 
ATOM     70  C   UNL A   1      42.261  22.386  25.951  1.00  0.00     0.020 A 
ATOM     71  C   UNL A   1      42.168  21.458  28.192  1.00  0.00     0.020 A 
ATOM     72  C   UNL A   1      42.183  21.285  26.809  1.00  0.00     0.054 A 
BRANCH  72  73
ATOM     73  S   UNL A   1      42.142  19.620  26.090  1.00  0.00     0.124 S 
ATOM     74  O   UNL A   1      42.561  18.792  27.217  1.00  0.00    -0.237 OA
ATOM     75  O   UNL A   1      40.743  19.485  25.692  1.00  0.00    -0.237 OA
ATOM     76  O   UNL A   1      43.093  19.699  24.984  1.00  0.00    -0.744 OA
ENDBRANCH  72  73
ENDBRANCH  44  67
BRANCH  56  77
ATOM     77  C   UNL A   1      47.688  27.616  30.298  1.00  0.00    -0.014 A 
ATOM     78  C   UNL A   1      48.197  27.032  31.471  1.00  0.00     0.010 A 
ATOM     79  C   UNL A   1      48.559  27.872  29.223  1.00  0.00     0.010 A 
ATOM     80  C   UNL A   1      49.558  26.737  31.578  1.00  0.00     0.020 A 
ATOM     81  C   UNL A   1      49.915  27.550  29.315  1.00  0.00     0.020 A 
ATOM     82  C   UNL A   1      50.408  26.996  30.498  1.00  0.00     0.054 A 
BRANCH  82  83
ATOM     83  S   UNL A   1      52.161  26.562  30.650  1.00  0.00     0.124 S 
ATOM     84  O   UNL A   1      52.697  27.707  31.379  1.00  0.00    -0.237 OA
ATOM     85  O   UNL A   1      52.115  25.307  31.397  1.00  0.00    -0.237 OA
ATOM     86  O   UNL A   1      52.612  26.439  29.265  1.00  0.00    -0.744 OA
ENDBRANCH  82  83
ENDBRANCH  56  77
ENDBRANCH  30  31
ENDBRANCH  23  25
ENDBRANCH  22  23
ENDBRANCH   1  22
TORSDOF 15
ENDMDL
MODEL 3
REMARK VINA RESULT:      -9.5      5.479      7.965
REMARK SMILES Cc1cc(Cl)cc2c1O[C@H](C(F)(F)F)C(C(=O)OCCOC(=O)c1ccc(-c3c4nc(c(-c5ccc(S(=O)(=O)[O-])cc5)c5ccc([nH]5)c(-c5ccc(S(=O)(=O)[O-])cc5)c5nc(c(-c6ccc(S(=O)(=O)[O-])cc6)c6ccc3[nH]6)C=C5)C=C4)cc1)=C2
REMARK SMILES IDX 20 1 19 2 18 3 16 4 17 5 15 6 1 7 2 8 3 9 8 10 4 11 7 12
REMARK SMILES IDX 9 13 5 14 6 15 84 16 10 17 11 18 12 19 13 20 14 21 21 22
REMARK SMILES IDX 22 23 23 24 24 25 25 26 83 27 26 28 82 29 27 30 28 31 29 32
REMARK SMILES IDX 76 33 30 34 81 35 75 36 77 37 31 38 80 39 74 40 73 41 32 43
REMARK SMILES IDX 62 44 43 45 61 46 44 47 47 48 60 49 78 50 45 51 46 52 59 54
REMARK SMILES IDX 79 55 48 56 33 57 34 58 42 59 35 60 41 61 36 62 37 63 38 64
REMARK SMILES IDX 39 65 40 66 63 67 64 68 72 69 65 70 71 71 66 72 67 73 68 74
REMARK SMILES IDX 69 75 70 76 49 77 50 78 58 79 51 80 57 81 52 82 53 83 54 84
REMARK SMILES IDX 55 85 56 86
REMARK H PARENT 77 42 47 53
REMARK Flexibility Score: inf
ROOT
ATOM      1  C   UNL A   1      36.119  23.656  25.987  1.00  0.00     0.275 C 
ENDROOT
BRANCH   1   2
ATOM      2  C   UNL A   1      35.158  22.705  25.272  1.00  0.00     0.275 C 
BRANCH   2   3
ATOM      3  O   UNL A   1      33.926  23.365  24.908  1.00  0.00    -0.459 OA
BRANCH   3   4
ATOM      4  C   UNL A   1      33.936  23.984  23.705  1.00  0.00     0.338 C 
ATOM      5  O   UNL A   1      34.322  23.508  22.648  1.00  0.00    -0.246 OA
BRANCH   4   6
ATOM      6  C   UNL A   1      33.407  25.355  23.812  1.00  0.00     0.087 C 
ATOM      7  C   UNL A   1      30.294  29.425  23.990  1.00  0.00     0.048 C 
ATOM      8  C   UNL A   1      31.611  29.052  24.604  1.00  0.00    -0.007 A 
ATOM      9  C   UNL A   1      32.205  29.900  25.554  1.00  0.00     0.027 A 
ATOM     10  C   UNL A   1      32.238  27.840  24.278  1.00  0.00     0.131 A 
ATOM     11  C   UNL A   1      33.415  29.554  26.152  1.00  0.00     0.042 A 
ATOM     12  C   UNL A   1      33.441  27.494  24.897  1.00  0.00     0.019 A 
ATOM     13  O   UNL A   1      31.631  27.046  23.343  1.00  0.00    -0.475 OA
ATOM     14  Cl  UNL A   1      34.126  30.599  27.316  1.00  0.00    -0.084 Cl
ATOM     15  C   UNL A   1      34.039  28.356  25.825  1.00  0.00     0.032 A 
ATOM     16  C   UNL A   1      34.043  26.207  24.622  1.00  0.00     0.027 C 
ATOM     17  C   UNL A   1      32.104  25.682  23.147  1.00  0.00     0.316 C 
BRANCH  17  18
ATOM     18  C   UNL A   1      30.993  24.711  23.575  1.00  0.00     0.430 C 
ATOM     19  F   UNL A   1      31.113  23.518  22.942  1.00  0.00    -0.167 F 
ATOM     20  F   UNL A   1      31.045  24.444  24.903  1.00  0.00    -0.167 F 
ATOM     21  F   UNL A   1      29.758  25.190  23.305  1.00  0.00    -0.167 F 
ENDBRANCH  17  18
ENDBRANCH   4   6
ENDBRANCH   3   4
ENDBRANCH   2   3
ENDBRANCH   1   2
BRANCH   1  22
ATOM     22  O   UNL A   1      37.327  23.834  25.223  1.00  0.00    -0.458 OA
BRANCH  22  23
ATOM     23  C   UNL A   1      38.415  23.219  25.737  1.00  0.00     0.338 C 
ATOM     24  O   UNL A   1      38.793  22.081  25.514  1.00  0.00    -0.246 OA
BRANCH  23  25
ATOM     25  C   UNL A   1      39.194  24.151  26.563  1.00  0.00     0.060 A 
ATOM     26  C   UNL A   1      38.990  24.134  27.935  1.00  0.00     0.016 A 
ATOM     27  C   UNL A   1      39.918  25.185  25.979  1.00  0.00     0.016 A 
ATOM     28  C   UNL A   1      39.329  25.243  28.702  1.00  0.00     0.010 A 
ATOM     29  C   UNL A   1      40.416  26.216  26.786  1.00  0.00     0.010 A 
ATOM     30  C   UNL A   1      40.076  26.291  28.150  1.00  0.00    -0.014 A 
BRANCH  30  31
ATOM     31  C   UNL A   1      40.482  27.457  28.992  1.00  0.00     0.031 A 
ATOM     32  C   UNL A   1      41.813  27.458  29.709  1.00  0.00     0.074 A 
ATOM     33  C   UNL A   1      39.669  28.529  29.106  1.00  0.00     0.049 A 
ATOM     34  N   UNL A   1      42.249  28.271  30.638  1.00  0.00    -0.248 NA
ATOM     35  C   UNL A   1      42.773  26.402  29.346  1.00  0.00     0.031 C 
ATOM     36  C   UNL A   1      38.385  28.705  28.418  1.00  0.00     0.029 A 
ATOM     37  N   UNL A   1      39.804  29.687  29.833  1.00  0.00    -0.354 N 
ATOM     38  C   UNL A   1      43.502  27.793  31.010  1.00  0.00     0.074 A 
ATOM     39  C   UNL A   1      43.752  26.610  30.215  1.00  0.00     0.031 C 
ATOM     40  C   UNL A   1      37.888  29.916  28.702  1.00  0.00     0.029 A 
ATOM     41  C   UNL A   1      38.743  30.552  29.693  1.00  0.00     0.049 A 
ATOM     42  H   UNL A   1      40.585  29.879  30.401  1.00  0.00     0.167 HD
ATOM     43  C   UNL A   1      44.363  28.294  31.929  1.00  0.00     0.031 A 
ATOM     44  C   UNL A   1      38.447  31.703  30.328  1.00  0.00     0.031 A 
ATOM     45  C   UNL A   1      44.118  29.495  32.687  1.00  0.00     0.049 A 
ATOM     46  C   UNL A   1      39.372  32.193  31.401  1.00  0.00     0.074 A 
ATOM     47  C   UNL A   1      44.922  30.085  33.647  1.00  0.00     0.029 A 
ATOM     48  N   UNL A   1      42.996  30.300  32.557  1.00  0.00    -0.354 N 
ATOM     49  N   UNL A   1      40.513  31.681  31.798  1.00  0.00    -0.248 NA
ATOM     50  C   UNL A   1      38.961  33.401  32.127  1.00  0.00     0.031 C 
ATOM     51  C   UNL A   1      44.259  31.215  34.137  1.00  0.00     0.029 A 
ATOM     52  C   UNL A   1      43.075  31.368  33.435  1.00  0.00     0.049 A 
ATOM     53  H   UNL A   1      42.252  30.136  31.932  1.00  0.00     0.167 HD
ATOM     54  C   UNL A   1      40.966  32.517  32.812  1.00  0.00     0.074 A 
ATOM     55  C   UNL A   1      39.987  33.576  32.950  1.00  0.00     0.031 C 
ATOM     56  C   UNL A   1      42.089  32.412  33.563  1.00  0.00     0.031 A 
BRANCH  43  57
ATOM     57  C   UNL A   1      45.637  27.532  32.199  1.00  0.00    -0.014 A 
ATOM     58  C   UNL A   1      45.668  26.432  33.074  1.00  0.00     0.010 A 
ATOM     59  C   UNL A   1      46.815  27.889  31.513  1.00  0.00     0.010 A 
ATOM     60  C   UNL A   1      46.856  25.722  33.279  1.00  0.00     0.020 A 
ATOM     61  C   UNL A   1      47.997  27.165  31.692  1.00  0.00     0.020 A 
ATOM     62  C   UNL A   1      48.014  26.092  32.586  1.00  0.00     0.054 A 
BRANCH  62  63
ATOM     63  S   UNL A   1      49.531  25.132  32.849  1.00  0.00     0.124 S 
ATOM     64  O   UNL A   1      49.037  23.991  33.618  1.00  0.00    -0.237 OA
ATOM     65  O   UNL A   1      49.958  24.832  31.486  1.00  0.00    -0.237 OA
ATOM     66  O   UNL A   1      50.399  26.047  33.586  1.00  0.00    -0.744 OA
ENDBRANCH  62  63
ENDBRANCH  43  57
BRANCH  44  67
ATOM     67  C   UNL A   1      37.189  32.431  29.995  1.00  0.00    -0.014 A 
ATOM     68  C   UNL A   1      36.005  32.167  30.701  1.00  0.00     0.010 A 
ATOM     69  C   UNL A   1      37.181  33.426  28.997  1.00  0.00     0.010 A 
ATOM     70  C   UNL A   1      34.836  32.879  30.416  1.00  0.00     0.020 A 
ATOM     71  C   UNL A   1      36.025  34.164  28.734  1.00  0.00     0.020 A 
ATOM     72  C   UNL A   1      34.857  33.880  29.440  1.00  0.00     0.054 A 
BRANCH  72  73
ATOM     73  S   UNL A   1      33.345  34.834  29.136  1.00  0.00     0.124 S 
ATOM     74  O   UNL A   1      32.767  34.925  30.474  1.00  0.00    -0.237 OA
ATOM     75  O   UNL A   1      33.867  36.083  28.586  1.00  0.00    -0.237 OA
ATOM     76  O   UNL A   1      32.600  34.008  28.188  1.00  0.00    -0.744 OA
ENDBRANCH  72  73
ENDBRANCH  44  67
BRANCH  56  77
ATOM     77  C   UNL A   1      42.338  33.489  34.583  1.00  0.00    -0.014 A 
ATOM     78  C   UNL A   1      43.056  34.651  34.252  1.00  0.00     0.010 A 
ATOM     79  C   UNL A   1      41.797  33.359  35.876  1.00  0.00     0.010 A 
ATOM     80  C   UNL A   1      43.254  35.653  35.206  1.00  0.00     0.020 A 
ATOM     81  C   UNL A   1      41.967  34.372  36.822  1.00  0.00     0.020 A 
ATOM     82  C   UNL A   1      42.706  35.507  36.484  1.00  0.00     0.054 A 
BRANCH  82  83
ATOM     83  S   UNL A   1      42.943  36.842  37.687  1.00  0.00     0.124 S 
ATOM     84  O   UNL A   1      43.635  37.852  36.890  1.00  0.00    -0.237 OA
ATOM     85  O   UNL A   1      41.573  37.174  38.069  1.00  0.00    -0.237 OA
ATOM     86  O   UNL A   1      43.746  36.224  38.741  1.00  0.00    -0.744 OA
ENDBRANCH  82  83
ENDBRANCH  56  77
ENDBRANCH  30  31
ENDBRANCH  23  25
ENDBRANCH  22  23
ENDBRANCH   1  22
TORSDOF 15
ENDMDL
