MODEL 1
REMARK VINA RESULT:     -11.0      0.000      0.000
REMARK SMILES Cc1cc(C(=O)OCCOC(=O)c2ccc(-c3c4nc(c(-c5ccc(S(=O)(=O)[O-])cc5)c5ccc([nH]5)c(-c5ccc(S(=O)(=O)[O-])cc5)c5nc(c(-c6ccc(S(=O)(=O)[O-])cc6)c6ccc3[nH]6)C=C5)C=C4)cc2)c(C)n1[C@@H]1C[N@H+]2CC[C@@H]1CC2
REMARK SMILES IDX 9 1 8 2 7 3 5 4 6 5 4 6 1 7 2 8 3 9 75 10 73 11 74 12 76 13
REMARK SMILES IDX 77 14 81 15 78 16 82 17 80 18 83 19 79 20 10 22 11 23 12 24
REMARK SMILES IDX 13 25 14 26 72 27 15 28 71 29 16 30 17 31 18 32 65 33 19 34
REMARK SMILES IDX 70 35 64 36 66 37 20 38 69 39 63 40 62 41 21 43 51 44 32 45
REMARK SMILES IDX 50 46 33 47 36 48 49 49 67 50 34 51 35 52 48 54 68 55 37 56
REMARK SMILES IDX 22 57 23 58 31 59 24 60 30 61 25 62 26 63 27 64 28 65 29 66
REMARK SMILES IDX 52 67 53 68 61 69 54 70 60 71 55 72 56 73 57 74 58 75 59 76
REMARK SMILES IDX 38 77 39 78 47 79 40 80 46 81 41 82 42 83 43 84 44 85 45 86
REMARK H PARENT 78 21 66 42 36 53
REMARK Flexibility Score: inf
ROOT
ATOM      1  C   UNL A   1      33.887  35.457  31.990  1.00  0.00     0.275 C 
ENDROOT
BRANCH   1   2
ATOM      2  C   UNL A   1      33.488  35.385  30.490  1.00  0.00     0.275 C 
BRANCH   2   3
ATOM      3  O   UNL A   1      33.656  34.040  29.952  1.00  0.00    -0.458 OA
BRANCH   3   4
ATOM      4  C   UNL A   1      34.091  33.957  28.662  1.00  0.00     0.340 C 
ATOM      5  O   UNL A   1      34.423  34.935  27.992  1.00  0.00    -0.246 OA
BRANCH   4   6
ATOM      6  C   UNL A   1      34.182  32.589  28.136  1.00  0.00     0.081 A 
ATOM      7  C   UNL A   1      35.616  29.190  27.625  1.00  0.00     0.064 C 
ATOM      8  C   UNL A   1      34.811  30.446  27.657  1.00  0.00     0.016 A 
ATOM      9  C   UNL A   1      35.251  31.664  28.163  1.00  0.00     0.038 A 
ATOM     10  N   UNL A   1      33.503  30.618  27.211  1.00  0.00    -0.339 N 
ATOM     11  C   UNL A   1      33.124  31.931  27.515  1.00  0.00     0.030 A 
ATOM     12  C   UNL A   1      31.804  32.573  27.207  1.00  0.00     0.065 C 
BRANCH  10  13
ATOM     13  C   UNL A   1      32.601  29.645  26.583  1.00  0.00     0.145 C 
ATOM     14  C   UNL A   1      32.473  28.246  27.233  1.00  0.00     0.288 C 
ATOM     15  C   UNL A   1      32.683  29.481  25.037  1.00  0.00     0.029 C 
ATOM     16  N   UNL A   1      32.382  27.162  26.214  1.00  0.00    -0.333 N 
ATOM     17  C   UNL A   1      31.364  28.795  24.601  1.00  0.00     0.067 C 
ATOM     18  C   UNL A   1      33.783  28.495  24.627  1.00  0.00     0.067 C 
ATOM     19  C   UNL A   1      31.232  27.437  25.320  1.00  0.00     0.262 C 
ATOM     20  C   UNL A   1      33.617  27.176  25.398  1.00  0.00     0.262 C 
ATOM     21  H   UNL A   1      32.265  26.260  26.676  1.00  0.00     0.348 HD
ENDBRANCH  10  13
ENDBRANCH   4   6
ENDBRANCH   3   4
ENDBRANCH   2   3
ENDBRANCH   1   2
BRANCH   1  22
ATOM     22  O   UNL A   1      35.296  35.769  32.310  1.00  0.00    -0.458 OA
BRANCH  22  23
ATOM     23  C   UNL A   1      36.032  34.746  32.874  1.00  0.00     0.338 C 
ATOM     24  O   UNL A   1      36.277  34.690  34.070  1.00  0.00    -0.246 OA
BRANCH  23  25
ATOM     25  C   UNL A   1      36.587  33.692  31.906  1.00  0.00     0.060 A 
ATOM     26  C   UNL A   1      36.535  32.333  32.200  1.00  0.00     0.016 A 
ATOM     27  C   UNL A   1      37.433  34.030  30.825  1.00  0.00     0.016 A 
ATOM     28  C   UNL A   1      37.262  31.364  31.409  1.00  0.00     0.010 A 
ATOM     29  C   UNL A   1      38.197  33.047  30.048  1.00  0.00     0.010 A 
ATOM     30  C   UNL A   1      38.142  31.663  30.305  1.00  0.00    -0.014 A 
BRANCH  30  31
ATOM     31  C   UNL A   1      39.285  30.572  29.945  1.00  0.00     0.031 A 
ATOM     32  C   UNL A   1      40.251  30.739  31.069  1.00  0.00     0.074 A 
ATOM     33  C   UNL A   1      39.706  29.657  28.973  1.00  0.00     0.049 A 
ATOM     34  N   UNL A   1      40.813  31.893  31.295  1.00  0.00    -0.248 NA
ATOM     35  C   UNL A   1      40.338  29.781  32.170  1.00  0.00     0.031 C 
ATOM     36  C   UNL A   1      39.110  29.392  27.652  1.00  0.00     0.029 A 
ATOM     37  N   UNL A   1      40.792  28.712  28.928  1.00  0.00    -0.354 N 
ATOM     38  C   UNL A   1      41.561  31.733  32.435  1.00  0.00     0.074 A 
ATOM     39  C   UNL A   1      41.048  30.507  33.038  1.00  0.00     0.031 C 
ATOM     40  C   UNL A   1      39.696  28.324  27.028  1.00  0.00     0.029 A 
ATOM     41  C   UNL A   1      40.797  27.776  27.820  1.00  0.00     0.049 A 
ATOM     42  H   UNL A   1      41.496  28.701  29.615  1.00  0.00     0.167 HD
ATOM     43  C   UNL A   1      42.862  32.140  32.382  1.00  0.00     0.031 A 
ATOM     44  C   UNL A   1      41.641  26.704  27.513  1.00  0.00     0.031 A 
ATOM     45  C   UNL A   1      43.762  31.034  32.180  1.00  0.00     0.049 A 
ATOM     46  C   UNL A   1      42.920  26.979  28.186  1.00  0.00     0.074 A 
ATOM     47  C   UNL A   1      43.885  29.789  32.764  1.00  0.00     0.029 A 
ATOM     48  N   UNL A   1      44.399  30.971  30.956  1.00  0.00    -0.354 N 
ATOM     49  N   UNL A   1      43.754  27.859  27.726  1.00  0.00    -0.248 NA
ATOM     50  C   UNL A   1      43.395  26.188  29.316  1.00  0.00     0.031 C 
ATOM     51  C   UNL A   1      44.166  28.910  31.696  1.00  0.00     0.029 A 
ATOM     52  C   UNL A   1      44.523  29.651  30.575  1.00  0.00     0.049 A 
ATOM     53  H   UNL A   1      44.715  31.746  30.437  1.00  0.00     0.167 HD
ATOM     54  C   UNL A   1      44.591  28.074  28.780  1.00  0.00     0.074 A 
ATOM     55  C   UNL A   1      44.508  26.872  29.587  1.00  0.00     0.031 C 
ATOM     56  C   UNL A   1      44.750  29.362  29.177  1.00  0.00     0.031 A 
BRANCH  43  57
ATOM     57  C   UNL A   1      43.118  33.500  31.797  1.00  0.00    -0.014 A 
ATOM     58  C   UNL A   1      43.206  33.629  30.405  1.00  0.00     0.010 A 
ATOM     59  C   UNL A   1      43.301  34.652  32.593  1.00  0.00     0.010 A 
ATOM     60  C   UNL A   1      43.535  34.861  29.829  1.00  0.00     0.020 A 
ATOM     61  C   UNL A   1      43.649  35.880  32.027  1.00  0.00     0.020 A 
ATOM     62  C   UNL A   1      43.777  35.973  30.644  1.00  0.00     0.054 A 
BRANCH  62  63
ATOM     63  S   UNL A   1      44.328  37.514  29.866  1.00  0.00     0.124 S 
ATOM     64  O   UNL A   1      43.106  37.994  29.221  1.00  0.00    -0.237 OA
ATOM     65  O   UNL A   1      44.767  38.301  31.014  1.00  0.00    -0.237 OA
ATOM     66  O   UNL A   1      45.377  37.092  28.942  1.00  0.00    -0.744 OA
ENDBRANCH  62  63
ENDBRANCH  43  57
BRANCH  44  67
ATOM     67  C   UNL A   1      41.852  25.438  26.608  1.00  0.00    -0.014 A 
ATOM     68  C   UNL A   1      42.806  25.488  25.528  1.00  0.00     0.010 A 
ATOM     69  C   UNL A   1      41.529  24.134  27.020  1.00  0.00     0.010 A 
ATOM     70  C   UNL A   1      43.488  24.357  25.010  1.00  0.00     0.020 A 
ATOM     71  C   UNL A   1      42.186  22.979  26.476  1.00  0.00     0.020 A 
ATOM     72  C   UNL A   1      43.196  23.098  25.513  1.00  0.00     0.054 A 
BRANCH  72  73
ATOM     73  S   UNL A   1      44.238  21.670  25.008  1.00  0.00     0.124 S 
ATOM     74  O   UNL A   1      44.526  21.951  23.605  1.00  0.00    -0.237 OA
ATOM     75  O   UNL A   1      45.381  21.768  25.914  1.00  0.00    -0.237 OA
ATOM     76  O   UNL A   1      43.373  20.515  25.243  1.00  0.00    -0.744 OA
ENDBRANCH  72  73
ENDBRANCH  44  67
BRANCH  56  77
ATOM     77  C   UNL A   1      44.913  30.412  28.089  1.00  0.00    -0.014 A 
ATOM     78  C   UNL A   1      46.146  30.954  27.654  1.00  0.00     0.010 A 
ATOM     79  C   UNL A   1      43.743  30.936  27.519  1.00  0.00     0.010 A 
ATOM     80  C   UNL A   1      46.200  32.030  26.756  1.00  0.00     0.020 A 
ATOM     81  C   UNL A   1      43.788  31.984  26.589  1.00  0.00     0.020 A 
ATOM     82  C   UNL A   1      45.014  32.549  26.240  1.00  0.00     0.054 A 
BRANCH  82  83
ATOM     83  S   UNL A   1      45.090  33.993  25.144  1.00  0.00     0.124 S 
ATOM     84  O   UNL A   1      44.527  33.467  23.900  1.00  0.00    -0.237 OA
ATOM     85  O   UNL A   1      44.257  34.971  25.836  1.00  0.00    -0.237 OA
ATOM     86  O   UNL A   1      46.515  34.308  25.083  1.00  0.00    -0.744 OA
ENDBRANCH  82  83
ENDBRANCH  56  77
ENDBRANCH  30  31
ENDBRANCH  23  25
ENDBRANCH  22  23
ENDBRANCH   1  22
TORSDOF 15
ENDMDL
MODEL 2
REMARK VINA RESULT:     -10.8      4.442     10.478
REMARK SMILES Cc1cc(C(=O)OCCOC(=O)c2ccc(-c3c4nc(c(-c5ccc(S(=O)(=O)[O-])cc5)c5ccc([nH]5)c(-c5ccc(S(=O)(=O)[O-])cc5)c5nc(c(-c6ccc(S(=O)(=O)[O-])cc6)c6ccc3[nH]6)C=C5)C=C4)cc2)c(C)n1[C@@H]1C[N@H+]2CC[C@@H]1CC2
REMARK SMILES IDX 9 1 8 2 7 3 5 4 6 5 4 6 1 7 2 8 3 9 75 10 73 11 74 12 76 13
REMARK SMILES IDX 77 14 81 15 78 16 82 17 80 18 83 19 79 20 10 22 11 23 12 24
REMARK SMILES IDX 13 25 14 26 72 27 15 28 71 29 16 30 17 31 18 32 65 33 19 34
REMARK SMILES IDX 70 35 64 36 66 37 20 38 69 39 63 40 62 41 21 43 51 44 32 45
REMARK SMILES IDX 50 46 33 47 36 48 49 49 67 50 34 51 35 52 48 54 68 55 37 56
REMARK SMILES IDX 22 57 23 58 31 59 24 60 30 61 25 62 26 63 27 64 28 65 29 66
REMARK SMILES IDX 52 67 53 68 61 69 54 70 60 71 55 72 56 73 57 74 58 75 59 76
REMARK SMILES IDX 38 77 39 78 47 79 40 80 46 81 41 82 42 83 43 84 44 85 45 86
REMARK H PARENT 78 21 66 42 36 53
REMARK Flexibility Score: inf
ROOT
ATOM      1  C   UNL A   1      39.635  21.415  26.189  1.00  0.00     0.275 C 
ENDROOT
BRANCH   1   2
ATOM      2  C   UNL A   1      38.422  20.909  25.360  1.00  0.00     0.275 C 
BRANCH   2   3
ATOM      3  O   UNL A   1      37.214  21.669  25.654  1.00  0.00    -0.458 OA
BRANCH   3   4
ATOM      4  C   UNL A   1      36.034  21.091  25.288  1.00  0.00     0.340 C 
ATOM      5  O   UNL A   1      35.927  19.907  24.966  1.00  0.00    -0.246 OA
BRANCH   4   6
ATOM      6  C   UNL A   1      34.870  21.985  25.352  1.00  0.00     0.081 A 
ATOM      7  C   UNL A   1      31.919  23.684  26.860  1.00  0.00     0.064 C 
ATOM      8  C   UNL A   1      33.040  23.181  26.014  1.00  0.00     0.016 A 
ATOM      9  C   UNL A   1      33.845  22.089  26.320  1.00  0.00     0.038 A 
ATOM     10  N   UNL A   1      33.480  23.707  24.801  1.00  0.00    -0.339 N 
ATOM     11  C   UNL A   1      34.605  22.973  24.408  1.00  0.00     0.030 A 
ATOM     12  C   UNL A   1      35.407  23.171  23.156  1.00  0.00     0.065 C 
BRANCH  10  13
ATOM     13  C   UNL A   1      32.956  24.848  24.040  1.00  0.00     0.145 C 
ATOM     14  C   UNL A   1      32.533  26.113  24.824  1.00  0.00     0.288 C 
ATOM     15  C   UNL A   1      31.896  24.553  22.940  1.00  0.00     0.029 C 
ATOM     16  N   UNL A   1      31.297  26.731  24.265  1.00  0.00    -0.333 N 
ATOM     17  C   UNL A   1      31.877  25.792  22.010  1.00  0.00     0.067 C 
ATOM     18  C   UNL A   1      30.478  24.487  23.520  1.00  0.00     0.067 C 
ATOM     19  C   UNL A   1      31.522  27.046  22.834  1.00  0.00     0.262 C 
ATOM     20  C   UNL A   1      30.195  25.746  24.355  1.00  0.00     0.262 C 
ATOM     21  H   UNL A   1      31.066  27.578  24.783  1.00  0.00     0.348 HD
ENDBRANCH  10  13
ENDBRANCH   4   6
ENDBRANCH   3   4
ENDBRANCH   2   3
ENDBRANCH   1   2
BRANCH   1  22
ATOM     22  O   UNL A   1      40.768  20.487  26.382  1.00  0.00    -0.458 OA
BRANCH  22  23
ATOM     23  C   UNL A   1      42.026  21.007  26.151  1.00  0.00     0.338 C 
ATOM     24  O   UNL A   1      42.868  20.428  25.479  1.00  0.00    -0.246 OA
BRANCH  23  25
ATOM     25  C   UNL A   1      42.347  22.343  26.835  1.00  0.00     0.060 A 
ATOM     26  C   UNL A   1      42.060  22.562  28.178  1.00  0.00     0.016 A 
ATOM     27  C   UNL A   1      42.668  23.509  26.102  1.00  0.00     0.016 A 
ATOM     28  C   UNL A   1      42.141  23.885  28.759  1.00  0.00     0.010 A 
ATOM     29  C   UNL A   1      42.715  24.853  26.688  1.00  0.00     0.010 A 
ATOM     30  C   UNL A   1      42.456  25.102  28.049  1.00  0.00    -0.014 A 
BRANCH  30  31
ATOM     31  C   UNL A   1      41.933  26.495  28.691  1.00  0.00     0.031 A 
ATOM     32  C   UNL A   1      43.206  27.233  28.933  1.00  0.00     0.074 A 
ATOM     33  C   UNL A   1      40.795  27.168  29.153  1.00  0.00     0.049 A 
ATOM     34  N   UNL A   1      44.131  26.728  29.699  1.00  0.00    -0.248 NA
ATOM     35  C   UNL A   1      43.645  28.331  28.073  1.00  0.00     0.031 C 
ATOM     36  C   UNL A   1      39.416  26.661  29.257  1.00  0.00     0.029 A 
ATOM     37  N   UNL A   1      40.586  28.505  29.648  1.00  0.00    -0.354 N 
ATOM     38  C   UNL A   1      45.191  27.599  29.638  1.00  0.00     0.074 A 
ATOM     39  C   UNL A   1      44.919  28.420  28.464  1.00  0.00     0.031 C 
ATOM     40  C   UNL A   1      38.532  27.645  29.610  1.00  0.00     0.029 A 
ATOM     41  C   UNL A   1      39.212  28.918  29.849  1.00  0.00     0.049 A 
ATOM     42  H   UNL A   1      41.340  29.108  29.839  1.00  0.00     0.167 HD
ATOM     43  C   UNL A   1      45.718  28.012  30.826  1.00  0.00     0.031 A 
ATOM     44  C   UNL A   1      38.656  30.141  30.240  1.00  0.00     0.031 A 
ATOM     45  C   UNL A   1      45.248  29.322  31.195  1.00  0.00     0.049 A 
ATOM     46  C   UNL A   1      39.704  30.847  30.993  1.00  0.00     0.074 A 
ATOM     47  C   UNL A   1      45.130  30.517  30.513  1.00  0.00     0.029 A 
ATOM     48  N   UNL A   1      44.396  29.391  32.280  1.00  0.00    -0.354 N 
ATOM     49  N   UNL A   1      40.007  30.516  32.210  1.00  0.00    -0.248 NA
ATOM     50  C   UNL A   1      40.359  32.047  30.483  1.00  0.00     0.031 C 
ATOM     51  C   UNL A   1      43.893  31.055  30.929  1.00  0.00     0.029 A 
ATOM     52  C   UNL A   1      43.453  30.373  32.057  1.00  0.00     0.049 A 
ATOM     53  H   UNL A   1      44.453  28.827  33.085  1.00  0.00     0.167 HD
ATOM     54  C   UNL A   1      41.211  31.124  32.406  1.00  0.00     0.074 A 
ATOM     55  C   UNL A   1      41.239  32.231  31.469  1.00  0.00     0.031 C 
ATOM     56  C   UNL A   1      42.230  30.333  32.827  1.00  0.00     0.031 A 
BRANCH  43  57
ATOM     57  C   UNL A   1      46.000  26.944  31.846  1.00  0.00    -0.014 A 
ATOM     58  C   UNL A   1      47.299  26.828  32.358  1.00  0.00     0.010 A 
ATOM     59  C   UNL A   1      45.017  26.034  32.290  1.00  0.00     0.010 A 
ATOM     60  C   UNL A   1      47.620  25.789  33.238  1.00  0.00     0.020 A 
ATOM     61  C   UNL A   1      45.335  24.983  33.152  1.00  0.00     0.020 A 
ATOM     62  C   UNL A   1      46.643  24.860  33.611  1.00  0.00     0.054 A 
BRANCH  62  63
ATOM     63  S   UNL A   1      47.133  23.455  34.647  1.00  0.00     0.124 S 
ATOM     64  O   UNL A   1      47.119  24.036  35.989  1.00  0.00    -0.237 OA
ATOM     65  O   UNL A   1      46.070  22.491  34.383  1.00  0.00    -0.237 OA
ATOM     66  O   UNL A   1      48.460  23.096  34.154  1.00  0.00    -0.744 OA
ENDBRANCH  62  63
ENDBRANCH  43  57
BRANCH  44  67
ATOM     67  C   UNL A   1      37.337  30.984  30.370  1.00  0.00    -0.014 A 
ATOM     68  C   UNL A   1      36.536  30.869  31.563  1.00  0.00     0.010 A 
ATOM     69  C   UNL A   1      37.098  32.158  29.635  1.00  0.00     0.010 A 
ATOM     70  C   UNL A   1      35.689  31.893  32.059  1.00  0.00     0.020 A 
ATOM     71  C   UNL A   1      36.214  33.185  30.110  1.00  0.00     0.020 A 
ATOM     72  C   UNL A   1      35.554  33.071  31.341  1.00  0.00     0.054 A 
BRANCH  72  73
ATOM     73  S   UNL A   1      34.645  34.480  32.094  1.00  0.00     0.124 S 
ATOM     74  O   UNL A   1      34.136  35.204  30.933  1.00  0.00    -0.237 OA
ATOM     75  O   UNL A   1      33.631  33.811  32.908  1.00  0.00    -0.237 OA
ATOM     76  O   UNL A   1      35.673  35.182  32.860  1.00  0.00    -0.744 OA
ENDBRANCH  72  73
ENDBRANCH  44  67
BRANCH  56  77
ATOM     77  C   UNL A   1      41.918  29.310  33.908  1.00  0.00    -0.014 A 
ATOM     78  C   UNL A   1      41.695  29.607  35.274  1.00  0.00     0.010 A 
ATOM     79  C   UNL A   1      41.920  27.957  33.535  1.00  0.00     0.010 A 
ATOM     80  C   UNL A   1      41.568  28.592  36.235  1.00  0.00     0.020 A 
ATOM     81  C   UNL A   1      41.752  26.937  34.482  1.00  0.00     0.020 A 
ATOM     82  C   UNL A   1      41.613  27.260  35.832  1.00  0.00     0.054 A 
BRANCH  82  83
ATOM     83  S   UNL A   1      41.531  25.956  37.091  1.00  0.00     0.124 S 
ATOM     84  O   UNL A   1      41.691  24.742  36.292  1.00  0.00    -0.237 OA
ATOM     85  O   UNL A   1      42.655  26.276  37.965  1.00  0.00    -0.237 OA
ATOM     86  O   UNL A   1      40.205  26.128  37.681  1.00  0.00    -0.744 OA
ENDBRANCH  82  83
ENDBRANCH  56  77
ENDBRANCH  30  31
ENDBRANCH  23  25
ENDBRANCH  22  23
ENDBRANCH   1  22
TORSDOF 15
ENDMDL
MODEL 3
REMARK VINA RESULT:     -10.5      1.133      2.144
REMARK SMILES Cc1cc(C(=O)OCCOC(=O)c2ccc(-c3c4nc(c(-c5ccc(S(=O)(=O)[O-])cc5)c5ccc([nH]5)c(-c5ccc(S(=O)(=O)[O-])cc5)c5nc(c(-c6ccc(S(=O)(=O)[O-])cc6)c6ccc3[nH]6)C=C5)C=C4)cc2)c(C)n1[C@@H]1C[N@H+]2CC[C@@H]1CC2
REMARK SMILES IDX 9 1 8 2 7 3 5 4 6 5 4 6 1 7 2 8 3 9 75 10 73 11 74 12 76 13
REMARK SMILES IDX 77 14 81 15 78 16 82 17 80 18 83 19 79 20 10 22 11 23 12 24
REMARK SMILES IDX 13 25 14 26 72 27 15 28 71 29 16 30 17 31 18 32 65 33 19 34
REMARK SMILES IDX 70 35 64 36 66 37 20 38 69 39 63 40 62 41 21 43 51 44 32 45
REMARK SMILES IDX 50 46 33 47 36 48 49 49 67 50 34 51 35 52 48 54 68 55 37 56
REMARK SMILES IDX 22 57 23 58 31 59 24 60 30 61 25 62 26 63 27 64 28 65 29 66
REMARK SMILES IDX 52 67 53 68 61 69 54 70 60 71 55 72 56 73 57 74 58 75 59 76
REMARK SMILES IDX 38 77 39 78 47 79 40 80 46 81 41 82 42 83 43 84 44 85 45 86
REMARK H PARENT 78 21 66 42 36 53
REMARK Flexibility Score: inf
ROOT
ATOM      1  C   UNL A   1      33.989  34.914  29.492  1.00  0.00     0.275 C 
ENDROOT
BRANCH   1   2
ATOM      2  C   UNL A   1      33.569  34.189  28.184  1.00  0.00     0.275 C 
BRANCH   2   3
ATOM      3  O   UNL A   1      34.561  33.204  27.771  1.00  0.00    -0.458 OA
BRANCH   3   4
ATOM      4  C   UNL A   1      34.418  31.950  28.288  1.00  0.00     0.340 C 
ATOM      5  O   UNL A   1      34.786  31.635  29.420  1.00  0.00    -0.246 OA
BRANCH   4   6
ATOM      6  C   UNL A   1      33.740  30.997  27.399  1.00  0.00     0.081 A 
ATOM      7  C   UNL A   1      31.178  29.763  24.995  1.00  0.00     0.064 C 
ATOM      8  C   UNL A   1      32.332  29.982  25.915  1.00  0.00     0.016 A 
ATOM      9  C   UNL A   1      32.474  31.066  26.775  1.00  0.00     0.038 A 
ATOM     10  N   UNL A   1      33.452  29.169  26.068  1.00  0.00    -0.339 N 
ATOM     11  C   UNL A   1      34.312  29.801  26.973  1.00  0.00     0.030 A 
ATOM     12  C   UNL A   1      35.636  29.288  27.454  1.00  0.00     0.065 C 
BRANCH  10  13
ATOM     13  C   UNL A   1      33.776  27.900  25.402  1.00  0.00     0.145 C 
ATOM     14  C   UNL A   1      33.502  27.785  23.883  1.00  0.00     0.288 C 
ATOM     15  C   UNL A   1      33.324  26.585  26.101  1.00  0.00     0.029 C 
ATOM     16  N   UNL A   1      32.971  26.444  23.511  1.00  0.00    -0.333 N 
ATOM     17  C   UNL A   1      34.171  25.447  25.478  1.00  0.00     0.067 C 
ATOM     18  C   UNL A   1      31.876  26.222  25.751  1.00  0.00     0.067 C 
ATOM     19  C   UNL A   1      33.931  25.405  23.955  1.00  0.00     0.262 C 
ATOM     20  C   UNL A   1      31.691  26.227  24.224  1.00  0.00     0.262 C 
ATOM     21  H   UNL A   1      32.833  26.391  22.501  1.00  0.00     0.348 HD
ENDBRANCH  10  13
ENDBRANCH   4   6
ENDBRANCH   3   4
ENDBRANCH   2   3
ENDBRANCH   1   2
BRANCH   1  22
ATOM     22  O   UNL A   1      33.603  34.292  30.775  1.00  0.00    -0.458 OA
BRANCH  22  23
ATOM     23  C   UNL A   1      34.371  34.632  31.871  1.00  0.00     0.338 C 
ATOM     24  O   UNL A   1      34.029  35.484  32.679  1.00  0.00    -0.246 OA
BRANCH  23  25
ATOM     25  C   UNL A   1      35.725  33.922  32.002  1.00  0.00     0.060 A 
ATOM     26  C   UNL A   1      36.786  34.212  31.149  1.00  0.00     0.016 A 
ATOM     27  C   UNL A   1      35.891  32.749  32.773  1.00  0.00     0.016 A 
ATOM     28  C   UNL A   1      37.972  33.385  31.117  1.00  0.00     0.010 A 
ATOM     29  C   UNL A   1      37.082  31.894  32.711  1.00  0.00     0.010 A 
ATOM     30  C   UNL A   1      38.182  32.177  31.879  1.00  0.00    -0.014 A 
BRANCH  30  31
ATOM     31  C   UNL A   1      39.251  31.106  31.299  1.00  0.00     0.031 A 
ATOM     32  C   UNL A   1      40.363  31.195  32.287  1.00  0.00     0.074 A 
ATOM     33  C   UNL A   1      39.523  30.253  30.221  1.00  0.00     0.049 A 
ATOM     34  N   UNL A   1      40.967  32.329  32.508  1.00  0.00    -0.248 NA
ATOM     35  C   UNL A   1      40.586  30.168  33.303  1.00  0.00     0.031 C 
ATOM     36  C   UNL A   1      38.749  30.077  28.981  1.00  0.00     0.029 A 
ATOM     37  N   UNL A   1      40.580  29.307  29.969  1.00  0.00    -0.354 N 
ATOM     38  C   UNL A   1      41.860  32.092  33.522  1.00  0.00     0.074 A 
ATOM     39  C   UNL A   1      41.417  30.833  34.110  1.00  0.00     0.031 C 
ATOM     40  C   UNL A   1      39.229  29.048  28.217  1.00  0.00     0.029 A 
ATOM     41  C   UNL A   1      40.421  28.445  28.814  1.00  0.00     0.049 A 
ATOM     42  H   UNL A   1      41.370  29.249  30.551  1.00  0.00     0.167 HD
ATOM     43  C   UNL A   1      43.148  32.495  33.317  1.00  0.00     0.031 A 
ATOM     44  C   UNL A   1      41.200  27.391  28.327  1.00  0.00     0.031 A 
ATOM     45  C   UNL A   1      43.996  31.400  32.924  1.00  0.00     0.049 A 
ATOM     46  C   UNL A   1      42.562  27.616  28.835  1.00  0.00     0.074 A 
ATOM     47  C   UNL A   1      44.181  30.120  33.406  1.00  0.00     0.029 A 
ATOM     48  N   UNL A   1      44.460  31.413  31.623  1.00  0.00    -0.354 N 
ATOM     49  N   UNL A   1      43.338  28.520  28.322  1.00  0.00    -0.248 NA
ATOM     50  C   UNL A   1      43.176  26.751  29.837  1.00  0.00     0.031 C 
ATOM     51  C   UNL A   1      44.301  29.310  32.256  1.00  0.00     0.029 A 
ATOM     52  C   UNL A   1      44.513  30.120  31.146  1.00  0.00     0.049 A 
ATOM     53  H   UNL A   1      44.712  32.219  31.116  1.00  0.00     0.167 HD
ATOM     54  C   UNL A   1      44.314  28.662  29.263  1.00  0.00     0.074 A 
ATOM     55  C   UNL A   1      44.325  27.411  29.996  1.00  0.00     0.031 C 
ATOM     56  C   UNL A   1      44.543  29.920  29.715  1.00  0.00     0.031 A 
BRANCH  43  57
ATOM     57  C   UNL A   1      43.340  33.889  32.790  1.00  0.00    -0.014 A 
ATOM     58  C   UNL A   1      42.903  34.185  31.492  1.00  0.00     0.010 A 
ATOM     59  C   UNL A   1      43.969  34.909  33.537  1.00  0.00     0.010 A 
ATOM     60  C   UNL A   1      43.148  35.444  30.934  1.00  0.00     0.020 A 
ATOM     61  C   UNL A   1      44.235  36.161  32.980  1.00  0.00     0.020 A 
ATOM     62  C   UNL A   1      43.833  36.416  31.673  1.00  0.00     0.054 A 
BRANCH  62  63
ATOM     63  S   UNL A   1      44.245  37.986  30.866  1.00  0.00     0.124 S 
ATOM     64  O   UNL A   1      45.702  37.913  30.764  1.00  0.00    -0.237 OA
ATOM     65  O   UNL A   1      43.533  37.878  29.597  1.00  0.00    -0.237 OA
ATOM     66  O   UNL A   1      43.750  39.002  31.791  1.00  0.00    -0.744 OA
ENDBRANCH  62  63
ENDBRANCH  43  57
BRANCH  44  67
ATOM     67  C   UNL A   1      41.268  26.185  27.324  1.00  0.00    -0.014 A 
ATOM     68  C   UNL A   1      42.176  26.242  26.205  1.00  0.00     0.010 A 
ATOM     69  C   UNL A   1      40.857  24.882  27.656  1.00  0.00     0.010 A 
ATOM     70  C   UNL A   1      42.741  25.104  25.574  1.00  0.00     0.020 A 
ATOM     71  C   UNL A   1      41.395  23.725  26.998  1.00  0.00     0.020 A 
ATOM     72  C   UNL A   1      42.369  23.837  25.998  1.00  0.00     0.054 A 
BRANCH  72  73
ATOM     73  S   UNL A   1      43.268  22.375  25.341  1.00  0.00     0.124 S 
ATOM     74  O   UNL A   1      42.338  21.277  25.589  1.00  0.00    -0.237 OA
ATOM     75  O   UNL A   1      43.466  22.721  23.935  1.00  0.00    -0.237 OA
ATOM     76  O   UNL A   1      44.494  22.340  26.137  1.00  0.00    -0.744 OA
ENDBRANCH  72  73
ENDBRANCH  44  67
BRANCH  56  77
ATOM     77  C   UNL A   1      44.571  31.037  28.684  1.00  0.00    -0.014 A 
ATOM     78  C   UNL A   1      43.699  32.152  28.661  1.00  0.00     0.010 A 
ATOM     79  C   UNL A   1      45.490  30.919  27.629  1.00  0.00     0.010 A 
ATOM     80  C   UNL A   1      43.688  33.055  27.588  1.00  0.00     0.020 A 
ATOM     81  C   UNL A   1      45.515  31.840  26.574  1.00  0.00     0.020 A 
ATOM     82  C   UNL A   1      44.590  32.883  26.541  1.00  0.00     0.054 A 
BRANCH  82  83
ATOM     83  S   UNL A   1      44.514  34.009  25.119  1.00  0.00     0.124 S 
ATOM     84  O   UNL A   1      44.180  33.100  24.023  1.00  0.00    -0.237 OA
ATOM     85  O   UNL A   1      43.455  34.939  25.498  1.00  0.00    -0.237 OA
ATOM     86  O   UNL A   1      45.858  34.576  25.054  1.00  0.00    -0.744 OA
ENDBRANCH  82  83
ENDBRANCH  56  77
ENDBRANCH  30  31
ENDBRANCH  23  25
ENDBRANCH  22  23
ENDBRANCH   1  22
TORSDOF 15
ENDMDL
