MODEL 1
REMARK VINA RESULT:     -11.4      0.000      0.000
REMARK SMILES CCc1nn(-c2ccncn2)c(Cl)c1C(=O)OCCOC(=O)c1ccc(-c2c3nc(c(-c4ccc(S(=O)(=O)[O-])cc4)c4ccc([nH]4)c(-c4ccc(S(=O)(=O)[O-])cc4)c4nc(c(-c5ccc(S(=O)(=O)[O-])cc5)c5ccc2[nH]5)C=C4)C=C3)cc1
REMARK SMILES IDX 19 1 18 2 17 3 15 4 16 5 14 6 3 7 4 8 5 9 12 10 13 11 2 12
REMARK SMILES IDX 1 13 6 14 7 15 11 16 8 17 10 18 9 19 20 20 21 21 22 22 23 23
REMARK SMILES IDX 24 24 82 25 25 26 81 27 26 28 27 29 28 30 75 31 29 32 80 33
REMARK SMILES IDX 74 34 76 35 30 36 79 37 73 38 72 39 31 41 61 42 42 43 60 44
REMARK SMILES IDX 43 45 46 46 59 47 77 48 44 49 45 50 58 52 78 53 47 54 32 55
REMARK SMILES IDX 33 56 41 57 34 58 40 59 35 60 36 61 37 62 38 63 39 64 62 65
REMARK SMILES IDX 63 66 71 67 64 68 70 69 65 70 66 71 67 72 68 73 69 74 48 75
REMARK SMILES IDX 49 76 57 77 50 78 56 79 51 80 52 81 53 82 54 83 55 84
REMARK H PARENT 76 40 46 51
REMARK Flexibility Score: inf
ROOT
ATOM      1  C   UNL A   1      40.827  33.117  33.053  1.00  0.00     0.275 C 
ENDROOT
BRANCH   1   2
ATOM      2  C   UNL A   1      39.397  33.430  33.461  1.00  0.00     0.275 C 
BRANCH   2   3
ATOM      3  O   UNL A   1      38.623  32.220  33.459  1.00  0.00    -0.458 OA
BRANCH   3   4
ATOM      4  C   UNL A   1      37.323  32.324  33.821  1.00  0.00     0.343 C 
ATOM      5  O   UNL A   1      36.966  32.381  34.995  1.00  0.00    -0.246 OA
BRANCH   4   6
ATOM      6  C   UNL A   1      36.403  32.435  32.699  1.00  0.00     0.120 A 
ATOM      7  C   UNL A   1      35.970  31.536  31.662  1.00  0.00     0.079 A 
ATOM      8  N   UNL A   1      35.026  32.109  30.885  1.00  0.00    -0.169 NA
ATOM      9  N   UNL A   1      34.965  33.397  31.288  1.00  0.00    -0.203 N 
ATOM     10  C   UNL A   1      35.768  33.618  32.372  1.00  0.00     0.149 A 
ATOM     11  Cl  UNL A   1      35.827  35.173  33.093  1.00  0.00    -0.061 Cl
BRANCH   7  12
ATOM     12  C   UNL A   1      36.285  30.112  31.286  1.00  0.00     0.056 C 
ATOM     13  C   UNL A   1      36.819  29.777  29.912  1.00  0.00     0.011 C 
ENDBRANCH   7  12
BRANCH   9  14
ATOM     14  C   UNL A   1      34.094  34.322  30.661  1.00  0.00     0.158 A 
ATOM     15  C   UNL A   1      34.294  34.600  29.321  1.00  0.00     0.069 A 
ATOM     16  N   UNL A   1      33.194  34.971  31.439  1.00  0.00    -0.217 NA
ATOM     17  C   UNL A   1      33.518  35.613  28.809  1.00  0.00     0.117 A 
ATOM     18  C   UNL A   1      32.515  35.949  30.829  1.00  0.00     0.224 A 
ATOM     19  N   UNL A   1      32.630  36.311  29.542  1.00  0.00    -0.245 NA
ENDBRANCH   9  14
ENDBRANCH   4   6
ENDBRANCH   3   4
ENDBRANCH   2   3
ENDBRANCH   1   2
BRANCH   1  20
ATOM     20  O   UNL A   1      41.251  33.971  31.991  1.00  0.00    -0.458 OA
BRANCH  20  21
ATOM     21  C   UNL A   1      40.613  33.794  30.812  1.00  0.00     0.338 C 
ATOM     22  O   UNL A   1      39.720  34.478  30.343  1.00  0.00    -0.246 OA
BRANCH  21  23
ATOM     23  C   UNL A   1      41.024  32.507  30.247  1.00  0.00     0.060 A 
ATOM     24  C   UNL A   1      40.110  31.450  30.251  1.00  0.00     0.016 A 
ATOM     25  C   UNL A   1      42.377  32.312  29.936  1.00  0.00     0.016 A 
ATOM     26  C   UNL A   1      40.582  30.168  30.048  1.00  0.00     0.010 A 
ATOM     27  C   UNL A   1      42.846  31.037  29.740  1.00  0.00     0.010 A 
ATOM     28  C   UNL A   1      41.956  29.972  29.858  1.00  0.00    -0.014 A 
BRANCH  28  29
ATOM     29  C   UNL A   1      42.454  28.621  29.706  1.00  0.00     0.031 A 
ATOM     30  C   UNL A   1      43.187  28.101  30.885  1.00  0.00     0.074 A 
ATOM     31  C   UNL A   1      42.117  27.842  28.663  1.00  0.00     0.049 A 
ATOM     32  N   UNL A   1      44.425  27.746  30.956  1.00  0.00    -0.248 NA
ATOM     33  C   UNL A   1      42.481  28.099  32.177  1.00  0.00     0.031 C 
ATOM     34  C   UNL A   1      41.141  28.118  27.604  1.00  0.00     0.029 A 
ATOM     35  N   UNL A   1      42.483  26.558  28.416  1.00  0.00    -0.354 N 
ATOM     36  C   UNL A   1      44.612  27.290  32.256  1.00  0.00     0.074 A 
ATOM     37  C   UNL A   1      43.441  27.682  33.000  1.00  0.00     0.031 C 
ATOM     38  C   UNL A   1      40.813  26.956  26.996  1.00  0.00     0.029 A 
ATOM     39  C   UNL A   1      41.651  25.894  27.527  1.00  0.00     0.049 A 
ATOM     40  H   UNL A   1      43.270  26.136  28.833  1.00  0.00     0.167 HD
ATOM     41  C   UNL A   1      45.615  26.429  32.582  1.00  0.00     0.031 A 
ATOM     42  C   UNL A   1      41.602  24.554  27.324  1.00  0.00     0.031 A 
ATOM     43  C   UNL A   1      46.612  26.343  31.548  1.00  0.00     0.049 A 
ATOM     44  C   UNL A   1      42.877  23.983  27.833  1.00  0.00     0.074 A 
ATOM     45  C   UNL A   1      47.452  27.254  30.939  1.00  0.00     0.029 A 
ATOM     46  N   UNL A   1      46.569  25.249  30.714  1.00  0.00    -0.354 N 
ATOM     47  N   UNL A   1      44.039  24.225  27.292  1.00  0.00    -0.248 NA
ATOM     48  C   UNL A   1      42.922  23.509  29.209  1.00  0.00     0.031 C 
ATOM     49  C   UNL A   1      47.471  26.873  29.566  1.00  0.00     0.029 A 
ATOM     50  C   UNL A   1      46.696  25.718  29.431  1.00  0.00     0.049 A 
ATOM     51  H   UNL A   1      46.468  24.309  30.987  1.00  0.00     0.167 HD
ATOM     52  C   UNL A   1      44.915  24.350  28.362  1.00  0.00     0.074 A 
ATOM     53  C   UNL A   1      44.194  23.797  29.506  1.00  0.00     0.031 C 
ATOM     54  C   UNL A   1      46.027  25.141  28.282  1.00  0.00     0.031 A 
BRANCH  41  55
ATOM     55  C   UNL A   1      45.492  25.393  33.668  1.00  0.00    -0.014 A 
ATOM     56  C   UNL A   1      46.102  25.630  34.914  1.00  0.00     0.010 A 
ATOM     57  C   UNL A   1      45.032  24.083  33.414  1.00  0.00     0.010 A 
ATOM     58  C   UNL A   1      46.300  24.590  35.832  1.00  0.00     0.020 A 
ATOM     59  C   UNL A   1      45.182  23.052  34.341  1.00  0.00     0.020 A 
ATOM     60  C   UNL A   1      45.851  23.304  35.530  1.00  0.00     0.054 A 
BRANCH  60  61
ATOM     61  S   UNL A   1      46.217  21.944  36.665  1.00  0.00     0.124 S 
ATOM     62  O   UNL A   1      45.705  22.465  37.929  1.00  0.00    -0.237 OA
ATOM     63  O   UNL A   1      45.461  20.840  36.080  1.00  0.00    -0.237 OA
ATOM     64  O   UNL A   1      47.670  21.812  36.583  1.00  0.00    -0.744 OA
ENDBRANCH  60  61
ENDBRANCH  41  55
BRANCH  42  65
ATOM     65  C   UNL A   1      40.405  23.728  27.031  1.00  0.00    -0.014 A 
ATOM     66  C   UNL A   1      39.148  24.325  26.821  1.00  0.00     0.010 A 
ATOM     67  C   UNL A   1      40.546  22.366  26.693  1.00  0.00     0.010 A 
ATOM     68  C   UNL A   1      38.094  23.603  26.233  1.00  0.00     0.020 A 
ATOM     69  C   UNL A   1      39.499  21.637  26.119  1.00  0.00     0.020 A 
ATOM     70  C   UNL A   1      38.284  22.267  25.866  1.00  0.00     0.054 A 
BRANCH  70  71
ATOM     71  S   UNL A   1      36.986  21.399  24.938  1.00  0.00     0.124 S 
ATOM     72  O   UNL A   1      36.868  22.213  23.732  1.00  0.00    -0.237 OA
ATOM     73  O   UNL A   1      37.564  20.071  24.751  1.00  0.00    -0.237 OA
ATOM     74  O   UNL A   1      35.831  21.447  25.834  1.00  0.00    -0.744 OA
ENDBRANCH  70  71
ENDBRANCH  42  65
BRANCH  54  75
ATOM     75  C   UNL A   1      46.443  25.675  26.929  1.00  0.00    -0.014 A 
ATOM     76  C   UNL A   1      45.946  26.872  26.377  1.00  0.00     0.010 A 
ATOM     77  C   UNL A   1      47.500  25.023  26.267  1.00  0.00     0.010 A 
ATOM     78  C   UNL A   1      46.471  27.385  25.181  1.00  0.00     0.020 A 
ATOM     79  C   UNL A   1      48.042  25.539  25.087  1.00  0.00     0.020 A 
ATOM     80  C   UNL A   1      47.518  26.713  24.543  1.00  0.00     0.054 A 
BRANCH  80  81
ATOM     81  S   UNL A   1      48.229  27.407  23.025  1.00  0.00     0.124 S 
ATOM     82  O   UNL A   1      48.482  26.217  22.219  1.00  0.00    -0.237 OA
ATOM     83  O   UNL A   1      47.163  28.281  22.537  1.00  0.00    -0.237 OA
ATOM     84  O   UNL A   1      49.426  28.107  23.488  1.00  0.00    -0.744 OA
ENDBRANCH  80  81
ENDBRANCH  54  75
ENDBRANCH  28  29
ENDBRANCH  21  23
ENDBRANCH  20  21
ENDBRANCH   1  20
TORSDOF 16
ENDMDL
MODEL 2
REMARK VINA RESULT:     -11.4      4.810     10.725
REMARK SMILES CCc1nn(-c2ccncn2)c(Cl)c1C(=O)OCCOC(=O)c1ccc(-c2c3nc(c(-c4ccc(S(=O)(=O)[O-])cc4)c4ccc([nH]4)c(-c4ccc(S(=O)(=O)[O-])cc4)c4nc(c(-c5ccc(S(=O)(=O)[O-])cc5)c5ccc2[nH]5)C=C4)C=C3)cc1
REMARK SMILES IDX 19 1 18 2 17 3 15 4 16 5 14 6 3 7 4 8 5 9 12 10 13 11 2 12
REMARK SMILES IDX 1 13 6 14 7 15 11 16 8 17 10 18 9 19 20 20 21 21 22 22 23 23
REMARK SMILES IDX 24 24 82 25 25 26 81 27 26 28 27 29 28 30 75 31 29 32 80 33
REMARK SMILES IDX 74 34 76 35 30 36 79 37 73 38 72 39 31 41 61 42 42 43 60 44
REMARK SMILES IDX 43 45 46 46 59 47 77 48 44 49 45 50 58 52 78 53 47 54 32 55
REMARK SMILES IDX 33 56 41 57 34 58 40 59 35 60 36 61 37 62 38 63 39 64 62 65
REMARK SMILES IDX 63 66 71 67 64 68 70 69 65 70 66 71 67 72 68 73 69 74 48 75
REMARK SMILES IDX 49 76 57 77 50 78 56 79 51 80 52 81 53 82 54 83 55 84
REMARK H PARENT 76 40 46 51
REMARK Flexibility Score: inf
ROOT
ATOM      1  C   UNL A   1      37.572  21.759  24.895  1.00  0.00     0.275 C 
ENDROOT
BRANCH   1   2
ATOM      2  C   UNL A   1      36.752  22.710  24.039  1.00  0.00     0.275 C 
BRANCH   2   3
ATOM      3  O   UNL A   1      35.653  23.221  24.810  1.00  0.00    -0.458 OA
BRANCH   3   4
ATOM      4  C   UNL A   1      34.424  23.151  24.246  1.00  0.00     0.343 C 
ATOM      5  O   UNL A   1      34.145  22.340  23.367  1.00  0.00    -0.246 OA
BRANCH   4   6
ATOM      6  C   UNL A   1      33.455  24.069  24.824  1.00  0.00     0.120 A 
ATOM      7  C   UNL A   1      32.631  24.049  26.003  1.00  0.00     0.079 A 
ATOM      8  N   UNL A   1      31.939  25.202  26.133  1.00  0.00    -0.169 NA
ATOM      9  N   UNL A   1      32.168  25.886  24.991  1.00  0.00    -0.203 N 
ATOM     10  C   UNL A   1      33.073  25.239  24.196  1.00  0.00     0.149 A 
ATOM     11  Cl  UNL A   1      33.557  25.936  22.706  1.00  0.00    -0.061 Cl
BRANCH   7  12
ATOM     12  C   UNL A   1      32.408  23.076  27.131  1.00  0.00     0.056 C 
ATOM     13  C   UNL A   1      33.574  22.360  27.774  1.00  0.00     0.011 C 
ENDBRANCH   7  12
BRANCH   9  14
ATOM     14  C   UNL A   1      31.564  27.146  24.757  1.00  0.00     0.158 A 
ATOM     15  C   UNL A   1      30.434  27.190  23.961  1.00  0.00     0.069 A 
ATOM     16  N   UNL A   1      32.199  28.248  25.224  1.00  0.00    -0.217 NA
ATOM     17  C   UNL A   1      29.985  28.451  23.648  1.00  0.00     0.117 A 
ATOM     18  C   UNL A   1      31.676  29.416  24.834  1.00  0.00     0.224 A 
ATOM     19  N   UNL A   1      30.593  29.580  24.060  1.00  0.00    -0.245 NA
ENDBRANCH   9  14
ENDBRANCH   4   6
ENDBRANCH   3   4
ENDBRANCH   2   3
ENDBRANCH   1   2
BRANCH   1  20
ATOM     20  O   UNL A   1      37.979  22.391  26.109  1.00  0.00    -0.458 OA
BRANCH  20  21
ATOM     21  C   UNL A   1      39.276  22.216  26.448  1.00  0.00     0.338 C 
ATOM     22  O   UNL A   1      39.867  21.162  26.600  1.00  0.00    -0.246 OA
BRANCH  21  23
ATOM     23  C   UNL A   1      39.842  23.517  26.813  1.00  0.00     0.060 A 
ATOM     24  C   UNL A   1      41.018  23.549  27.567  1.00  0.00     0.016 A 
ATOM     25  C   UNL A   1      39.072  24.669  26.596  1.00  0.00     0.016 A 
ATOM     26  C   UNL A   1      41.365  24.727  28.200  1.00  0.00     0.010 A 
ATOM     27  C   UNL A   1      39.416  25.837  27.230  1.00  0.00     0.010 A 
ATOM     28  C   UNL A   1      40.523  25.839  28.075  1.00  0.00    -0.014 A 
BRANCH  28  29
ATOM     29  C   UNL A   1      40.859  27.053  28.788  1.00  0.00     0.031 A 
ATOM     30  C   UNL A   1      42.004  27.802  28.217  1.00  0.00     0.074 A 
ATOM     31  C   UNL A   1      40.083  27.554  29.766  1.00  0.00     0.049 A 
ATOM     32  N   UNL A   1      43.141  28.056  28.771  1.00  0.00    -0.248 NA
ATOM     33  C   UNL A   1      41.914  28.207  26.805  1.00  0.00     0.031 C 
ATOM     34  C   UNL A   1      38.760  27.093  30.198  1.00  0.00     0.029 A 
ATOM     35  N   UNL A   1      40.262  28.691  30.487  1.00  0.00    -0.354 N 
ATOM     36  C   UNL A   1      43.847  28.822  27.850  1.00  0.00     0.074 A 
ATOM     37  C   UNL A   1      43.118  28.744  26.609  1.00  0.00     0.031 C 
ATOM     38  C   UNL A   1      38.163  28.075  30.908  1.00  0.00     0.029 A 
ATOM     39  C   UNL A   1      39.108  29.164  31.092  1.00  0.00     0.049 A 
ATOM     40  H   UNL A   1      41.136  29.138  30.572  1.00  0.00     0.167 HD
ATOM     41  C   UNL A   1      44.861  29.649  28.225  1.00  0.00     0.031 A 
ATOM     42  C   UNL A   1      38.929  30.401  31.618  1.00  0.00     0.031 A 
ATOM     43  C   UNL A   1      45.320  29.371  29.560  1.00  0.00     0.049 A 
ATOM     44  C   UNL A   1      40.278  30.974  31.868  1.00  0.00     0.074 A 
ATOM     45  C   UNL A   1      45.854  28.262  30.187  1.00  0.00     0.029 A 
ATOM     46  N   UNL A   1      44.888  30.204  30.566  1.00  0.00    -0.354 N 
ATOM     47  N   UNL A   1      41.107  30.499  32.755  1.00  0.00    -0.248 NA
ATOM     48  C   UNL A   1      40.886  31.790  30.827  1.00  0.00     0.031 C 
ATOM     49  C   UNL A   1      45.274  28.263  31.488  1.00  0.00     0.029 A 
ATOM     50  C   UNL A   1      44.474  29.403  31.600  1.00  0.00     0.049 A 
ATOM     51  H   UNL A   1      44.878  31.189  30.548  1.00  0.00     0.167 HD
ATOM     52  C   UNL A   1      42.359  30.587  32.160  1.00  0.00     0.074 A 
ATOM     53  C   UNL A   1      42.173  31.483  31.021  1.00  0.00     0.031 C 
ATOM     54  C   UNL A   1      43.359  29.710  32.475  1.00  0.00     0.031 A 
BRANCH  41  55
ATOM     55  C   UNL A   1      45.174  30.942  27.520  1.00  0.00    -0.014 A 
ATOM     56  C   UNL A   1      46.453  31.128  26.962  1.00  0.00     0.010 A 
ATOM     57  C   UNL A   1      44.346  32.081  27.628  1.00  0.00     0.010 A 
ATOM     58  C   UNL A   1      46.903  32.402  26.592  1.00  0.00     0.020 A 
ATOM     59  C   UNL A   1      44.768  33.345  27.218  1.00  0.00     0.020 A 
ATOM     60  C   UNL A   1      46.060  33.504  26.738  1.00  0.00     0.054 A 
BRANCH  60  61
ATOM     61  S   UNL A   1      46.689  35.160  26.372  1.00  0.00     0.124 S 
ATOM     62  O   UNL A   1      47.425  34.932  25.133  1.00  0.00    -0.237 OA
ATOM     63  O   UNL A   1      45.460  35.939  26.247  1.00  0.00    -0.237 OA
ATOM     64  O   UNL A   1      47.509  35.479  27.539  1.00  0.00    -0.744 OA
ENDBRANCH  60  61
ENDBRANCH  41  55
BRANCH  42  65
ATOM     65  C   UNL A   1      37.691  31.220  31.599  1.00  0.00    -0.014 A 
ATOM     66  C   UNL A   1      36.862  31.303  32.733  1.00  0.00     0.010 A 
ATOM     67  C   UNL A   1      37.461  32.137  30.552  1.00  0.00     0.010 A 
ATOM     68  C   UNL A   1      35.885  32.308  32.841  1.00  0.00     0.020 A 
ATOM     69  C   UNL A   1      36.482  33.132  30.647  1.00  0.00     0.020 A 
ATOM     70  C   UNL A   1      35.716  33.230  31.804  1.00  0.00     0.054 A 
BRANCH  70  71
ATOM     71  S   UNL A   1      34.586  34.636  32.028  1.00  0.00     0.124 S 
ATOM     72  O   UNL A   1      34.318  35.042  30.652  1.00  0.00    -0.237 OA
ATOM     73  O   UNL A   1      33.464  34.031  32.741  1.00  0.00    -0.237 OA
ATOM     74  O   UNL A   1      35.373  35.587  32.813  1.00  0.00    -0.744 OA
ENDBRANCH  70  71
ENDBRANCH  42  65
BRANCH  54  75
ATOM     75  C   UNL A   1      43.180  28.803  33.672  1.00  0.00    -0.014 A 
ATOM     76  C   UNL A   1      43.540  29.166  34.985  1.00  0.00     0.010 A 
ATOM     77  C   UNL A   1      42.470  27.603  33.483  1.00  0.00     0.010 A 
ATOM     78  C   UNL A   1      43.225  28.338  36.073  1.00  0.00     0.020 A 
ATOM     79  C   UNL A   1      42.134  26.784  34.564  1.00  0.00     0.020 A 
ATOM     80  C   UNL A   1      42.522  27.150  35.853  1.00  0.00     0.054 A 
BRANCH  80  81
ATOM     81  S   UNL A   1      42.069  26.107  37.269  1.00  0.00     0.124 S 
ATOM     82  O   UNL A   1      40.731  26.586  37.601  1.00  0.00    -0.237 OA
ATOM     83  O   UNL A   1      42.134  24.758  36.711  1.00  0.00    -0.237 OA
ATOM     84  O   UNL A   1      43.098  26.405  38.264  1.00  0.00    -0.744 OA
ENDBRANCH  80  81
ENDBRANCH  54  75
ENDBRANCH  28  29
ENDBRANCH  21  23
ENDBRANCH  20  21
ENDBRANCH   1  20
TORSDOF 16
ENDMDL
MODEL 3
REMARK VINA RESULT:     -11.3      3.680      5.724
REMARK SMILES CCc1nn(-c2ccncn2)c(Cl)c1C(=O)OCCOC(=O)c1ccc(-c2c3nc(c(-c4ccc(S(=O)(=O)[O-])cc4)c4ccc([nH]4)c(-c4ccc(S(=O)(=O)[O-])cc4)c4nc(c(-c5ccc(S(=O)(=O)[O-])cc5)c5ccc2[nH]5)C=C4)C=C3)cc1
REMARK SMILES IDX 19 1 18 2 17 3 15 4 16 5 14 6 3 7 4 8 5 9 12 10 13 11 2 12
REMARK SMILES IDX 1 13 6 14 7 15 11 16 8 17 10 18 9 19 20 20 21 21 22 22 23 23
REMARK SMILES IDX 24 24 82 25 25 26 81 27 26 28 27 29 28 30 75 31 29 32 80 33
REMARK SMILES IDX 74 34 76 35 30 36 79 37 73 38 72 39 31 41 61 42 42 43 60 44
REMARK SMILES IDX 43 45 46 46 59 47 77 48 44 49 45 50 58 52 78 53 47 54 32 55
REMARK SMILES IDX 33 56 41 57 34 58 40 59 35 60 36 61 37 62 38 63 39 64 62 65
REMARK SMILES IDX 63 66 71 67 64 68 70 69 65 70 66 71 67 72 68 73 69 74 48 75
REMARK SMILES IDX 49 76 57 77 50 78 56 79 51 80 52 81 53 82 54 83 55 84
REMARK H PARENT 76 40 46 51
REMARK Flexibility Score: inf
ROOT
ATOM      1  C   UNL A   1      33.696  33.592  28.086  1.00  0.00     0.275 C 
ENDROOT
BRANCH   1   2
ATOM      2  C   UNL A   1      33.988  34.557  29.224  1.00  0.00     0.275 C 
BRANCH   2   3
ATOM      3  O   UNL A   1      35.105  34.074  29.986  1.00  0.00    -0.458 OA
BRANCH   3   4
ATOM      4  C   UNL A   1      34.824  33.327  31.079  1.00  0.00     0.343 C 
ATOM      5  O   UNL A   1      34.290  32.224  31.007  1.00  0.00    -0.246 OA
BRANCH   4   6
ATOM      6  C   UNL A   1      35.276  33.918  32.330  1.00  0.00     0.120 A 
ATOM      7  C   UNL A   1      35.036  35.171  32.995  1.00  0.00     0.079 A 
ATOM      8  N   UNL A   1      35.647  35.209  34.198  1.00  0.00    -0.169 NA
ATOM      9  N   UNL A   1      36.403  34.091  34.249  1.00  0.00    -0.203 N 
ATOM     10  C   UNL A   1      36.197  33.299  33.154  1.00  0.00     0.149 A 
ATOM     11  Cl  UNL A   1      37.017  31.800  33.013  1.00  0.00    -0.061 Cl
BRANCH   7  12
ATOM     12  C   UNL A   1      34.230  36.405  32.683  1.00  0.00     0.056 C 
ATOM     13  C   UNL A   1      33.704  37.285  33.795  1.00  0.00     0.011 C 
ENDBRANCH   7  12
BRANCH   9  14
ATOM     14  C   UNL A   1      37.224  33.811  35.370  1.00  0.00     0.158 A 
ATOM     15  C   UNL A   1      38.592  33.943  35.224  1.00  0.00     0.069 A 
ATOM     16  N   UNL A   1      36.630  33.312  36.481  1.00  0.00    -0.217 NA
ATOM     17  C   UNL A   1      39.341  33.514  36.295  1.00  0.00     0.117 A 
ATOM     18  C   UNL A   1      37.467  32.910  37.444  1.00  0.00     0.224 A 
ATOM     19  N   UNL A   1      38.806  32.983  37.410  1.00  0.00    -0.245 NA
ENDBRANCH   9  14
ENDBRANCH   4   6
ENDBRANCH   3   4
ENDBRANCH   2   3
ENDBRANCH   1   2
BRANCH   1  20
ATOM     20  O   UNL A   1      34.889  32.937  27.657  1.00  0.00    -0.458 OA
BRANCH  20  21
ATOM     21  C   UNL A   1      34.815  31.589  27.577  1.00  0.00     0.338 C 
ATOM     22  O   UNL A   1      33.864  30.919  27.216  1.00  0.00    -0.246 OA
BRANCH  21  23
ATOM     23  C   UNL A   1      36.016  31.019  28.192  1.00  0.00     0.060 A 
ATOM     24  C   UNL A   1      36.935  31.883  28.794  1.00  0.00     0.016 A 
ATOM     25  C   UNL A   1      36.316  29.670  27.955  1.00  0.00     0.016 A 
ATOM     26  C   UNL A   1      38.206  31.412  29.062  1.00  0.00     0.010 A 
ATOM     27  C   UNL A   1      37.581  29.206  28.218  1.00  0.00     0.010 A 
ATOM     28  C   UNL A   1      38.531  30.096  28.710  1.00  0.00    -0.014 A 
BRANCH  28  29
ATOM     29  C   UNL A   1      39.882  29.626  28.938  1.00  0.00     0.031 A 
ATOM     30  C   UNL A   1      40.258  29.514  30.368  1.00  0.00     0.074 A 
ATOM     31  C   UNL A   1      40.658  29.153  27.947  1.00  0.00     0.049 A 
ATOM     32  N   UNL A   1      41.180  30.159  30.998  1.00  0.00    -0.248 NA
ATOM     33  C   UNL A   1      39.415  28.668  31.228  1.00  0.00     0.031 C 
ATOM     34  C   UNL A   1      40.290  28.902  26.550  1.00  0.00     0.029 A 
ATOM     35  N   UNL A   1      41.919  28.656  28.027  1.00  0.00    -0.354 N 
ATOM     36  C   UNL A   1      41.167  29.664  32.297  1.00  0.00     0.074 A 
ATOM     37  C   UNL A   1      39.965  28.879  32.423  1.00  0.00     0.031 C 
ATOM     38  C   UNL A   1      41.206  28.076  25.996  1.00  0.00     0.029 A 
ATOM     39  C   UNL A   1      42.281  27.860  26.950  1.00  0.00     0.049 A 
ATOM     40  H   UNL A   1      42.521  28.843  28.783  1.00  0.00     0.167 HD
ATOM     41  C   UNL A   1      42.253  29.749  33.113  1.00  0.00     0.031 A 
ATOM     42  C   UNL A   1      43.342  27.016  26.899  1.00  0.00     0.031 A 
ATOM     43  C   UNL A   1      43.231  30.681  32.618  1.00  0.00     0.049 A 
ATOM     44  C   UNL A   1      44.292  27.437  27.963  1.00  0.00     0.074 A 
ATOM     45  C   UNL A   1      43.217  32.030  32.324  1.00  0.00     0.029 A 
ATOM     46  N   UNL A   1      44.332  30.164  31.975  1.00  0.00    -0.354 N 
ATOM     47  N   UNL A   1      44.937  28.570  27.943  1.00  0.00    -0.248 NA
ATOM     48  C   UNL A   1      44.188  26.808  29.271  1.00  0.00     0.031 C 
ATOM     49  C   UNL A   1      44.004  32.155  31.142  1.00  0.00     0.029 A 
ATOM     50  C   UNL A   1      44.502  30.890  30.823  1.00  0.00     0.049 A 
ATOM     51  H   UNL A   1      44.893  29.416  32.284  1.00  0.00     0.167 HD
ATOM     52  C   UNL A   1      44.943  29.004  29.262  1.00  0.00     0.074 A 
ATOM     53  C   UNL A   1      44.560  27.832  30.046  1.00  0.00     0.031 C 
ATOM     54  C   UNL A   1      44.980  30.335  29.573  1.00  0.00     0.031 A 
BRANCH  41  55
ATOM     55  C   UNL A   1      42.585  28.713  34.154  1.00  0.00    -0.014 A 
ATOM     56  C   UNL A   1      43.371  27.602  33.791  1.00  0.00     0.010 A 
ATOM     57  C   UNL A   1      41.925  28.655  35.400  1.00  0.00     0.010 A 
ATOM     58  C   UNL A   1      43.437  26.465  34.607  1.00  0.00     0.020 A 
ATOM     59  C   UNL A   1      42.023  27.547  36.241  1.00  0.00     0.020 A 
ATOM     60  C   UNL A   1      42.749  26.441  35.820  1.00  0.00     0.054 A 
BRANCH  60  61
ATOM     61  S   UNL A   1      42.741  24.927  36.809  1.00  0.00     0.124 S 
ATOM     62  O   UNL A   1      43.740  25.232  37.828  1.00  0.00    -0.237 OA
ATOM     63  O   UNL A   1      41.358  24.867  37.274  1.00  0.00    -0.237 OA
ATOM     64  O   UNL A   1      43.119  23.891  35.850  1.00  0.00    -0.744 OA
ENDBRANCH  60  61
ENDBRANCH  41  55
BRANCH  42  65
ATOM     65  C   UNL A   1      43.416  25.698  26.221  1.00  0.00    -0.014 A 
ATOM     66  C   UNL A   1      44.355  25.462  25.201  1.00  0.00     0.010 A 
ATOM     67  C   UNL A   1      42.741  24.583  26.760  1.00  0.00     0.010 A 
ATOM     68  C   UNL A   1      44.653  24.152  24.783  1.00  0.00     0.020 A 
ATOM     69  C   UNL A   1      43.023  23.279  26.342  1.00  0.00     0.020 A 
ATOM     70  C   UNL A   1      43.999  23.067  25.373  1.00  0.00     0.054 A 
BRANCH  70  71
ATOM     71  S   UNL A   1      44.523  21.375  24.965  1.00  0.00     0.124 S 
ATOM     72  O   UNL A   1      44.594  21.414  23.508  1.00  0.00    -0.237 OA
ATOM     73  O   UNL A   1      45.804  21.264  25.659  1.00  0.00    -0.237 OA
ATOM     74  O   UNL A   1      43.452  20.543  25.513  1.00  0.00    -0.744 OA
ENDBRANCH  70  71
ENDBRANCH  42  65
BRANCH  54  75
ATOM     75  C   UNL A   1      45.284  31.329  28.474  1.00  0.00    -0.014 A 
ATOM     76  C   UNL A   1      44.326  31.782  27.546  1.00  0.00     0.010 A 
ATOM     77  C   UNL A   1      46.547  31.949  28.485  1.00  0.00     0.010 A 
ATOM     78  C   UNL A   1      44.633  32.806  26.637  1.00  0.00     0.020 A 
ATOM     79  C   UNL A   1      46.853  32.984  27.597  1.00  0.00     0.020 A 
ATOM     80  C   UNL A   1      45.897  33.401  26.669  1.00  0.00     0.054 A 
BRANCH  80  81
ATOM     81  S   UNL A   1      46.272  34.760  25.527  1.00  0.00     0.124 S 
ATOM     82  O   UNL A   1      47.695  34.568  25.262  1.00  0.00    -0.237 OA
ATOM     83  O   UNL A   1      45.381  34.492  24.399  1.00  0.00    -0.237 OA
ATOM     84  O   UNL A   1      45.942  35.961  26.292  1.00  0.00    -0.744 OA
ENDBRANCH  80  81
ENDBRANCH  54  75
ENDBRANCH  28  29
ENDBRANCH  21  23
ENDBRANCH  20  21
ENDBRANCH   1  20
TORSDOF 16
ENDMDL
