MODEL 1
REMARK VINA RESULT:     -11.0      0.000      0.000
REMARK SMILES CC1=C[C@H](C)[C@@H](C(=O)OCCOC(=O)c2ccc(-c3c4nc(c(-c5ccc(S(=O)(=O)[O-])cc5)c5ccc([nH]5)c(-c5ccc(S(=O)(=O)[O-])cc5)c5nc(c(-c6ccc(S(=O)(=O)[O-])cc6)c6ccc3[nH]6)C=C5)C=C4)cc2)[C@H](C(=O)Nc2cccnc2)C1
REMARK SMILES IDX 11 1 10 2 9 3 7 4 8 5 6 6 1 7 2 8 3 9 85 10 4 11 75 12 5 13
REMARK SMILES IDX 76 14 77 15 78 16 79 18 80 19 84 20 81 21 83 22 82 23 12 24
REMARK SMILES IDX 13 25 14 26 15 27 16 28 74 29 17 30 73 31 18 32 19 33 20 34
REMARK SMILES IDX 67 35 21 36 72 37 66 38 68 39 22 40 71 41 65 42 64 43 23 45
REMARK SMILES IDX 53 46 34 47 52 48 35 49 38 50 51 51 69 52 36 53 37 54 50 56
REMARK SMILES IDX 70 57 39 58 24 59 25 60 33 61 26 62 32 63 27 64 28 65 29 66
REMARK SMILES IDX 30 67 31 68 54 69 55 70 63 71 56 72 62 73 57 74 58 75 59 76
REMARK SMILES IDX 60 77 61 78 40 79 41 80 49 81 42 82 48 83 43 84 44 85 45 86
REMARK SMILES IDX 46 87 47 88
REMARK H PARENT 78 17 68 44 38 55
REMARK Flexibility Score: inf
ROOT
ATOM      1  C   UNL A   1      33.286  28.846  26.056  1.00  0.00     0.275 C 
ENDROOT
BRANCH   1   2
ATOM      2  C   UNL A   1      33.535  27.563  25.254  1.00  0.00     0.274 C 
BRANCH   2   3
ATOM      3  O   UNL A   1      33.803  26.417  26.086  1.00  0.00    -0.462 OA
BRANCH   3   4
ATOM      4  C   UNL A   1      32.784  25.524  26.208  1.00  0.00     0.310 C 
ATOM      5  O   UNL A   1      31.768  25.715  26.866  1.00  0.00    -0.252 OA
BRANCH   4   6
ATOM      6  C   UNL A   1      33.100  24.170  25.578  1.00  0.00     0.118 C 
ATOM      7  C   UNL A   1      37.129  22.441  24.749  1.00  0.00     0.039 C 
ATOM      8  C   UNL A   1      35.790  23.041  25.072  1.00  0.00    -0.076 C 
ATOM      9  C   UNL A   1      35.150  22.736  26.211  1.00  0.00    -0.024 C 
ATOM     10  C   UNL A   1      35.243  24.029  24.084  1.00  0.00     0.044 C 
ATOM     11  C   UNL A   1      33.894  23.413  26.673  1.00  0.00     0.023 C 
ATOM     12  C   UNL A   1      33.736  24.295  24.176  1.00  0.00     0.097 C 
ATOM     13  C   UNL A   1      32.973  22.477  27.477  1.00  0.00     0.013 C 
BRANCH  12  14
ATOM     14  C   UNL A   1      32.917  23.664  23.024  1.00  0.00     0.228 C 
ATOM     15  O   UNL A   1      33.383  22.706  22.399  1.00  0.00    -0.274 OA
ATOM     16  N   UNL A   1      31.635  24.016  22.725  1.00  0.00    -0.324 N 
ATOM     17  H   UNL A   1      31.072  23.279  22.393  1.00  0.00     0.169 HD
BRANCH  16  18
ATOM     18  C   UNL A   1      30.990  25.250  22.813  1.00  0.00     0.059 A 
ATOM     19  C   UNL A   1      30.017  25.495  23.769  1.00  0.00     0.029 A 
ATOM     20  C   UNL A   1      31.393  26.318  22.022  1.00  0.00     0.137 A 
ATOM     21  C   UNL A   1      29.401  26.740  23.830  1.00  0.00     0.022 A 
ATOM     22  N   UNL A   1      30.809  27.542  22.045  1.00  0.00    -0.263 NA
ATOM     23  C   UNL A   1      29.813  27.716  22.940  1.00  0.00     0.111 A 
ENDBRANCH  16  18
ENDBRANCH  12  14
ENDBRANCH   4   6
ENDBRANCH   3   4
ENDBRANCH   2   3
ENDBRANCH   1   2
BRANCH   1  24
ATOM     24  O   UNL A   1      33.925  28.814  27.343  1.00  0.00    -0.458 OA
BRANCH  24  25
ATOM     25  C   UNL A   1      34.364  30.020  27.779  1.00  0.00     0.338 C 
ATOM     26  O   UNL A   1      33.691  31.023  27.940  1.00  0.00    -0.246 OA
BRANCH  25  27
ATOM     27  C   UNL A   1      35.775  29.916  28.186  1.00  0.00     0.060 A 
ATOM     28  C   UNL A   1      36.751  30.158  27.217  1.00  0.00     0.016 A 
ATOM     29  C   UNL A   1      36.141  29.496  29.463  1.00  0.00     0.016 A 
ATOM     30  C   UNL A   1      38.096  29.954  27.499  1.00  0.00     0.010 A 
ATOM     31  C   UNL A   1      37.494  29.293  29.752  1.00  0.00     0.010 A 
ATOM     32  C   UNL A   1      38.476  29.501  28.764  1.00  0.00    -0.014 A 
BRANCH  32  33
ATOM     33  C   UNL A   1      39.890  29.137  29.008  1.00  0.00     0.031 A 
ATOM     34  C   UNL A   1      40.807  30.147  29.637  1.00  0.00     0.074 A 
ATOM     35  C   UNL A   1      40.336  27.901  28.718  1.00  0.00     0.049 A 
ATOM     36  N   UNL A   1      42.098  30.083  29.830  1.00  0.00    -0.248 NA
ATOM     37  C   UNL A   1      40.184  31.393  30.112  1.00  0.00     0.031 C 
ATOM     38  C   UNL A   1      39.516  26.806  28.198  1.00  0.00     0.029 A 
ATOM     39  N   UNL A   1      41.591  27.358  28.828  1.00  0.00    -0.354 N 
ATOM     40  C   UNL A   1      42.450  31.294  30.418  1.00  0.00     0.074 A 
ATOM     41  C   UNL A   1      41.237  32.072  30.543  1.00  0.00     0.031 C 
ATOM     42  C   UNL A   1      40.290  25.719  28.039  1.00  0.00     0.029 A 
ATOM     43  C   UNL A   1      41.667  26.058  28.391  1.00  0.00     0.049 A 
ATOM     44  H   UNL A   1      42.362  27.854  29.186  1.00  0.00     0.167 HD
ATOM     45  C   UNL A   1      43.675  31.716  30.811  1.00  0.00     0.031 A 
ATOM     46  C   UNL A   1      42.733  25.245  28.258  1.00  0.00     0.031 A 
ATOM     47  C   UNL A   1      44.874  30.930  30.687  1.00  0.00     0.049 A 
ATOM     48  C   UNL A   1      44.096  25.765  28.625  1.00  0.00     0.074 A 
ATOM     49  C   UNL A   1      46.170  31.273  31.028  1.00  0.00     0.029 A 
ATOM     50  N   UNL A   1      44.920  29.636  30.187  1.00  0.00    -0.354 N 
ATOM     51  N   UNL A   1      44.428  26.934  29.119  1.00  0.00    -0.248 NA
ATOM     52  C   UNL A   1      45.231  24.858  28.406  1.00  0.00     0.031 C 
ATOM     53  C   UNL A   1      47.006  30.199  30.699  1.00  0.00     0.029 A 
ATOM     54  C   UNL A   1      46.222  29.170  30.199  1.00  0.00     0.049 A 
ATOM     55  H   UNL A   1      44.140  29.126  29.870  1.00  0.00     0.167 HD
ATOM     56  C   UNL A   1      45.807  26.897  29.291  1.00  0.00     0.074 A 
ATOM     57  C   UNL A   1      46.246  25.585  28.858  1.00  0.00     0.031 C 
ATOM     58  C   UNL A   1      46.636  27.860  29.765  1.00  0.00     0.031 A 
BRANCH  45  59
ATOM     59  C   UNL A   1      43.778  33.114  31.357  1.00  0.00    -0.014 A 
ATOM     60  C   UNL A   1      43.619  33.379  32.729  1.00  0.00     0.010 A 
ATOM     61  C   UNL A   1      44.035  34.183  30.479  1.00  0.00     0.010 A 
ATOM     62  C   UNL A   1      43.669  34.693  33.205  1.00  0.00     0.020 A 
ATOM     63  C   UNL A   1      44.111  35.494  30.954  1.00  0.00     0.020 A 
ATOM     64  C   UNL A   1      43.906  35.744  32.313  1.00  0.00     0.054 A 
BRANCH  64  65
ATOM     65  S   UNL A   1      43.962  37.441  32.952  1.00  0.00     0.124 S 
ATOM     66  O   UNL A   1      45.294  37.493  33.550  1.00  0.00    -0.237 OA
ATOM     67  O   UNL A   1      43.783  38.246  31.748  1.00  0.00    -0.237 OA
ATOM     68  O   UNL A   1      42.851  37.490  33.901  1.00  0.00    -0.744 OA
ENDBRANCH  64  65
ENDBRANCH  45  59
BRANCH  46  69
ATOM     69  C   UNL A   1      42.556  23.868  27.724  1.00  0.00    -0.014 A 
ATOM     70  C   UNL A   1      42.579  23.630  26.339  1.00  0.00     0.010 A 
ATOM     71  C   UNL A   1      42.375  22.783  28.602  1.00  0.00     0.010 A 
ATOM     72  C   UNL A   1      42.417  22.334  25.841  1.00  0.00     0.020 A 
ATOM     73  C   UNL A   1      42.238  21.483  28.109  1.00  0.00     0.020 A 
ATOM     74  C   UNL A   1      42.250  21.267  26.730  1.00  0.00     0.054 A 
BRANCH  74  75
ATOM     75  S   UNL A   1      42.105  19.585  26.066  1.00  0.00     0.124 S 
ATOM     76  O   UNL A   1      40.688  19.514  25.726  1.00  0.00    -0.237 OA
ATOM     77  O   UNL A   1      43.027  19.610  24.932  1.00  0.00    -0.237 OA
ATOM     78  O   UNL A   1      42.527  18.740  27.181  1.00  0.00    -0.744 OA
ENDBRANCH  74  75
ENDBRANCH  46  69
BRANCH  58  79
ATOM     79  C   UNL A   1      48.096  27.515  29.877  1.00  0.00    -0.014 A 
ATOM     80  C   UNL A   1      49.007  27.862  28.864  1.00  0.00     0.010 A 
ATOM     81  C   UNL A   1      48.568  26.875  31.036  1.00  0.00     0.010 A 
ATOM     82  C   UNL A   1      50.362  27.549  28.997  1.00  0.00     0.020 A 
ATOM     83  C   UNL A   1      49.925  26.580  31.183  1.00  0.00     0.020 A 
ATOM     84  C   UNL A   1      50.812  26.906  30.155  1.00  0.00     0.054 A 
BRANCH  84  85
ATOM     85  S   UNL A   1      52.581  26.545  30.326  1.00  0.00     0.124 S 
ATOM     86  O   UNL A   1      52.579  25.493  31.339  1.00  0.00    -0.237 OA
ATOM     87  O   UNL A   1      52.956  26.119  28.979  1.00  0.00    -0.237 OA
ATOM     88  O   UNL A   1      53.155  27.820  30.751  1.00  0.00    -0.744 OA
ENDBRANCH  84  85
ENDBRANCH  58  79
ENDBRANCH  32  33
ENDBRANCH  25  27
ENDBRANCH  24  25
ENDBRANCH   1  24
TORSDOF 16
ENDMDL
MODEL 2
REMARK VINA RESULT:     -10.9      2.667      9.049
REMARK SMILES CC1=C[C@H](C)[C@@H](C(=O)OCCOC(=O)c2ccc(-c3c4nc(c(-c5ccc(S(=O)(=O)[O-])cc5)c5ccc([nH]5)c(-c5ccc(S(=O)(=O)[O-])cc5)c5nc(c(-c6ccc(S(=O)(=O)[O-])cc6)c6ccc3[nH]6)C=C5)C=C4)cc2)[C@H](C(=O)Nc2cccnc2)C1
REMARK SMILES IDX 11 1 10 2 9 3 7 4 8 5 6 6 1 7 2 8 3 9 85 10 4 11 75 12 5 13
REMARK SMILES IDX 76 14 77 15 78 16 79 18 80 19 84 20 81 21 83 22 82 23 12 24
REMARK SMILES IDX 13 25 14 26 15 27 16 28 74 29 17 30 73 31 18 32 19 33 20 34
REMARK SMILES IDX 67 35 21 36 72 37 66 38 68 39 22 40 71 41 65 42 64 43 23 45
REMARK SMILES IDX 53 46 34 47 52 48 35 49 38 50 51 51 69 52 36 53 37 54 50 56
REMARK SMILES IDX 70 57 39 58 24 59 25 60 33 61 26 62 32 63 27 64 28 65 29 66
REMARK SMILES IDX 30 67 31 68 54 69 55 70 63 71 56 72 62 73 57 74 58 75 59 76
REMARK SMILES IDX 60 77 61 78 40 79 41 80 49 81 42 82 48 83 43 84 44 85 45 86
REMARK SMILES IDX 46 87 47 88
REMARK H PARENT 78 17 68 44 38 55
REMARK Flexibility Score: inf
ROOT
ATOM      1  C   UNL A   1      36.090  23.402  25.199  1.00  0.00     0.275 C 
ENDROOT
BRANCH   1   2
ATOM      2  C   UNL A   1      35.369  23.030  23.898  1.00  0.00     0.274 C 
BRANCH   2   3
ATOM      3  O   UNL A   1      34.930  24.177  23.145  1.00  0.00    -0.462 OA
BRANCH   3   4
ATOM      4  C   UNL A   1      33.583  24.363  23.081  1.00  0.00     0.310 C 
ATOM      5  O   UNL A   1      32.805  23.611  22.505  1.00  0.00    -0.252 OA
BRANCH   4   6
ATOM      6  C   UNL A   1      33.139  25.705  23.655  1.00  0.00     0.118 C 
ATOM      7  C   UNL A   1      29.053  27.493  23.514  1.00  0.00     0.039 C 
ATOM      8  C   UNL A   1      30.407  26.846  23.570  1.00  0.00    -0.076 C 
ATOM      9  C   UNL A   1      30.793  26.137  24.642  1.00  0.00    -0.024 C 
ATOM     10  C   UNL A   1      31.270  26.992  22.351  1.00  0.00     0.044 C 
ATOM     11  C   UNL A   1      32.059  25.335  24.704  1.00  0.00     0.023 C 
ATOM     12  C   UNL A   1      32.766  26.731  22.562  1.00  0.00     0.097 C 
ATOM     13  C   UNL A   1      32.660  25.277  26.120  1.00  0.00     0.013 C 
BRANCH  12  14
ATOM     14  C   UNL A   1      33.635  28.012  22.541  1.00  0.00     0.228 C 
ATOM     15  O   UNL A   1      34.423  28.198  21.607  1.00  0.00    -0.274 OA
ATOM     16  N   UNL A   1      33.500  29.034  23.431  1.00  0.00    -0.324 N 
ATOM     17  H   UNL A   1      33.678  29.929  23.061  1.00  0.00     0.169 HD
BRANCH  16  18
ATOM     18  C   UNL A   1      33.153  29.019  24.782  1.00  0.00     0.059 A 
ATOM     19  C   UNL A   1      34.031  28.565  25.753  1.00  0.00     0.029 A 
ATOM     20  C   UNL A   1      31.957  29.580  25.212  1.00  0.00     0.137 A 
ATOM     21  C   UNL A   1      33.652  28.572  27.091  1.00  0.00     0.022 A 
ATOM     22  N   UNL A   1      31.548  29.594  26.505  1.00  0.00    -0.263 NA
ATOM     23  C   UNL A   1      32.402  29.073  27.412  1.00  0.00     0.111 A 
ENDBRANCH  16  18
ENDBRANCH  12  14
ENDBRANCH   4   6
ENDBRANCH   3   4
ENDBRANCH   2   3
ENDBRANCH   1   2
BRANCH   1  24
ATOM     24  O   UNL A   1      37.479  23.700  24.983  1.00  0.00    -0.458 OA
BRANCH  24  25
ATOM     25  C   UNL A   1      38.315  23.175  25.912  1.00  0.00     0.338 C 
ATOM     26  O   UNL A   1      38.550  21.993  26.092  1.00  0.00    -0.246 OA
BRANCH  25  27
ATOM     27  C   UNL A   1      39.036  24.259  26.599  1.00  0.00     0.060 A 
ATOM     28  C   UNL A   1      38.757  24.471  27.950  1.00  0.00     0.016 A 
ATOM     29  C   UNL A   1      39.897  25.115  25.916  1.00  0.00     0.016 A 
ATOM     30  C   UNL A   1      39.305  25.554  28.626  1.00  0.00     0.010 A 
ATOM     31  C   UNL A   1      40.454  26.205  26.594  1.00  0.00     0.010 A 
ATOM     32  C   UNL A   1      40.143  26.441  27.947  1.00  0.00    -0.014 A 
BRANCH  32  33
ATOM     33  C   UNL A   1      40.596  27.675  28.628  1.00  0.00     0.031 A 
ATOM     34  C   UNL A   1      42.006  27.751  29.140  1.00  0.00     0.074 A 
ATOM     35  C   UNL A   1      39.773  28.733  28.740  1.00  0.00     0.049 A 
ATOM     36  N   UNL A   1      42.573  28.680  29.865  1.00  0.00    -0.248 NA
ATOM     37  C   UNL A   1      42.894  26.632  28.788  1.00  0.00     0.031 C 
ATOM     38  C   UNL A   1      38.418  28.813  28.194  1.00  0.00     0.029 A 
ATOM     39  N   UNL A   1      39.963  29.948  29.347  1.00  0.00    -0.354 N 
ATOM     40  C   UNL A   1      43.874  28.242  30.086  1.00  0.00     0.074 A 
ATOM     41  C   UNL A   1      44.009  26.963  29.422  1.00  0.00     0.031 C 
ATOM     42  C   UNL A   1      37.900  30.019  28.487  1.00  0.00     0.029 A 
ATOM     43  C   UNL A   1      38.863  30.769  29.289  1.00  0.00     0.049 A 
ATOM     44  H   UNL A   1      40.807  30.206  29.784  1.00  0.00     0.167 HD
ATOM     45  C   UNL A   1      44.863  28.851  30.783  1.00  0.00     0.031 A 
ATOM     46  C   UNL A   1      38.647  31.976  29.847  1.00  0.00     0.031 A 
ATOM     47  C   UNL A   1      44.718  30.126  31.433  1.00  0.00     0.049 A 
ATOM     48  C   UNL A   1      39.731  32.597  30.685  1.00  0.00     0.074 A 
ATOM     49  C   UNL A   1      45.647  30.820  32.189  1.00  0.00     0.029 A 
ATOM     50  N   UNL A   1      43.569  30.904  31.397  1.00  0.00    -0.354 N 
ATOM     51  N   UNL A   1      40.936  32.145  30.941  1.00  0.00    -0.248 NA
ATOM     52  C   UNL A   1      39.422  33.886  31.318  1.00  0.00     0.031 C 
ATOM     53  C   UNL A   1      45.045  32.001  32.641  1.00  0.00     0.029 A 
ATOM     54  C   UNL A   1      43.760  32.064  32.126  1.00  0.00     0.049 A 
ATOM     55  H   UNL A   1      42.741  30.664  30.924  1.00  0.00     0.167 HD
ATOM     56  C   UNL A   1      41.537  33.105  31.748  1.00  0.00     0.074 A 
ATOM     57  C   UNL A   1      40.567  34.166  31.928  1.00  0.00     0.031 C 
ATOM     58  C   UNL A   1      42.780  33.108  32.290  1.00  0.00     0.031 A 
BRANCH  45  59
ATOM     59  C   UNL A   1      46.165  28.110  30.920  1.00  0.00    -0.014 A 
ATOM     60  C   UNL A   1      47.239  28.346  30.044  1.00  0.00     0.010 A 
ATOM     61  C   UNL A   1      46.313  27.157  31.945  1.00  0.00     0.010 A 
ATOM     62  C   UNL A   1      48.422  27.608  30.162  1.00  0.00     0.020 A 
ATOM     63  C   UNL A   1      47.502  26.436  32.081  1.00  0.00     0.020 A 
ATOM     64  C   UNL A   1      48.542  26.651  31.174  1.00  0.00     0.054 A 
BRANCH  64  65
ATOM     65  S   UNL A   1      50.083  25.703  31.305  1.00  0.00     0.124 S 
ATOM     66  O   UNL A   1      49.801  24.825  32.438  1.00  0.00    -0.237 OA
ATOM     67  O   UNL A   1      50.168  25.043  30.005  1.00  0.00    -0.237 OA
ATOM     68  O   UNL A   1      51.099  26.725  31.547  1.00  0.00    -0.744 OA
ENDBRANCH  64  65
ENDBRANCH  45  59
BRANCH  46  69
ATOM     69  C   UNL A   1      37.339  32.659  29.657  1.00  0.00    -0.014 A 
ATOM     70  C   UNL A   1      36.413  32.735  30.712  1.00  0.00     0.010 A 
ATOM     71  C   UNL A   1      37.018  33.249  28.421  1.00  0.00     0.010 A 
ATOM     72  C   UNL A   1      35.186  33.381  30.531  1.00  0.00     0.020 A 
ATOM     73  C   UNL A   1      35.804  33.919  28.244  1.00  0.00     0.020 A 
ATOM     74  C   UNL A   1      34.891  33.972  29.298  1.00  0.00     0.054 A 
BRANCH  74  75
ATOM     75  S   UNL A   1      33.320  34.861  29.104  1.00  0.00     0.124 S 
ATOM     76  O   UNL A   1      32.603  34.008  28.164  1.00  0.00    -0.237 OA
ATOM     77  O   UNL A   1      32.796  34.881  30.469  1.00  0.00    -0.237 OA
ATOM     78  O   UNL A   1      33.729  36.164  28.585  1.00  0.00    -0.744 OA
ENDBRANCH  74  75
ENDBRANCH  46  69
BRANCH  58  79
ATOM     79  C   UNL A   1      43.174  34.316  33.097  1.00  0.00    -0.014 A 
ATOM     80  C   UNL A   1      43.769  35.435  32.489  1.00  0.00     0.010 A 
ATOM     81  C   UNL A   1      42.902  34.345  34.476  1.00  0.00     0.010 A 
ATOM     82  C   UNL A   1      44.111  36.554  33.254  1.00  0.00     0.020 A 
ATOM     83  C   UNL A   1      43.221  35.470  35.240  1.00  0.00     0.020 A 
ATOM     84  C   UNL A   1      43.838  36.562  34.626  1.00  0.00     0.054 A 
BRANCH  84  85
ATOM     85  S   UNL A   1      44.252  38.040  35.593  1.00  0.00     0.124 S 
ATOM     86  O   UNL A   1      45.706  37.944  35.685  1.00  0.00    -0.237 OA
ATOM     87  O   UNL A   1      43.746  39.126  34.757  1.00  0.00    -0.237 OA
ATOM     88  O   UNL A   1      43.533  37.844  36.850  1.00  0.00    -0.744 OA
ENDBRANCH  84  85
ENDBRANCH  58  79
ENDBRANCH  32  33
ENDBRANCH  25  27
ENDBRANCH  24  25
ENDBRANCH   1  24
TORSDOF 16
ENDMDL
MODEL 3
REMARK VINA RESULT:     -10.8      1.362      2.949
REMARK SMILES CC1=C[C@H](C)[C@@H](C(=O)OCCOC(=O)c2ccc(-c3c4nc(c(-c5ccc(S(=O)(=O)[O-])cc5)c5ccc([nH]5)c(-c5ccc(S(=O)(=O)[O-])cc5)c5nc(c(-c6ccc(S(=O)(=O)[O-])cc6)c6ccc3[nH]6)C=C5)C=C4)cc2)[C@H](C(=O)Nc2cccnc2)C1
REMARK SMILES IDX 11 1 10 2 9 3 7 4 8 5 6 6 1 7 2 8 3 9 85 10 4 11 75 12 5 13
REMARK SMILES IDX 76 14 77 15 78 16 79 18 80 19 84 20 81 21 83 22 82 23 12 24
REMARK SMILES IDX 13 25 14 26 15 27 16 28 74 29 17 30 73 31 18 32 19 33 20 34
REMARK SMILES IDX 67 35 21 36 72 37 66 38 68 39 22 40 71 41 65 42 64 43 23 45
REMARK SMILES IDX 53 46 34 47 52 48 35 49 38 50 51 51 69 52 36 53 37 54 50 56
REMARK SMILES IDX 70 57 39 58 24 59 25 60 33 61 26 62 32 63 27 64 28 65 29 66
REMARK SMILES IDX 30 67 31 68 54 69 55 70 63 71 56 72 62 73 57 74 58 75 59 76
REMARK SMILES IDX 60 77 61 78 40 79 41 80 49 81 42 82 48 83 43 84 44 85 45 86
REMARK SMILES IDX 46 87 47 88
REMARK H PARENT 78 17 68 44 38 55
REMARK Flexibility Score: inf
ROOT
ATOM      1  C   UNL A   1      32.283  30.392  27.106  1.00  0.00     0.275 C 
ENDROOT
BRANCH   1   2
ATOM      2  C   UNL A   1      32.269  30.401  25.573  1.00  0.00     0.274 C 
BRANCH   2   3
ATOM      3  O   UNL A   1      31.003  29.996  25.015  1.00  0.00    -0.462 OA
BRANCH   3   4
ATOM      4  C   UNL A   1      31.069  29.117  23.978  1.00  0.00     0.310 C 
ATOM      5  O   UNL A   1      30.543  29.293  22.885  1.00  0.00    -0.252 OA
BRANCH   4   6
ATOM      6  C   UNL A   1      31.723  27.792  24.360  1.00  0.00     0.118 C 
ATOM      7  C   UNL A   1      30.507  23.698  23.068  1.00  0.00     0.039 C 
ATOM      8  C   UNL A   1      30.907  25.093  23.457  1.00  0.00    -0.076 C 
ATOM      9  C   UNL A   1      31.861  25.753  22.783  1.00  0.00    -0.024 C 
ATOM     10  C   UNL A   1      30.148  25.715  24.592  1.00  0.00     0.044 C 
ATOM     11  C   UNL A   1      32.200  27.196  23.010  1.00  0.00     0.023 C 
ATOM     12  C   UNL A   1      30.824  26.917  25.261  1.00  0.00     0.097 C 
ATOM     13  C   UNL A   1      33.688  27.506  22.764  1.00  0.00     0.013 C 
BRANCH  12  14
ATOM     14  C   UNL A   1      31.402  26.611  26.664  1.00  0.00     0.228 C 
ATOM     15  O   UNL A   1      31.127  27.354  27.612  1.00  0.00    -0.274 OA
ATOM     16  N   UNL A   1      32.104  25.483  26.965  1.00  0.00    -0.324 N 
ATOM     17  H   UNL A   1      31.968  25.144  27.879  1.00  0.00     0.169 HD
BRANCH  16  18
ATOM     18  C   UNL A   1      32.985  24.730  26.188  1.00  0.00     0.059 A 
ATOM     19  C   UNL A   1      34.143  25.282  25.663  1.00  0.00     0.029 A 
ATOM     20  C   UNL A   1      32.794  23.365  26.020  1.00  0.00     0.137 A 
ATOM     21  C   UNL A   1      35.001  24.499  24.899  1.00  0.00     0.022 A 
ATOM     22  N   UNL A   1      33.601  22.572  25.274  1.00  0.00    -0.263 NA
ATOM     23  C   UNL A   1      34.679  23.165  24.717  1.00  0.00     0.111 A 
ENDBRANCH  16  18
ENDBRANCH  12  14
ENDBRANCH   4   6
ENDBRANCH   3   4
ENDBRANCH   2   3
ENDBRANCH   1   2
BRANCH   1  24
ATOM     24  O   UNL A   1      33.493  29.824  27.634  1.00  0.00    -0.458 OA
BRANCH  24  25
ATOM     25  C   UNL A   1      34.349  30.729  28.168  1.00  0.00     0.338 C 
ATOM     26  O   UNL A   1      34.061  31.827  28.612  1.00  0.00    -0.246 OA
BRANCH  25  27
ATOM     27  C   UNL A   1      35.692  30.137  28.282  1.00  0.00     0.060 A 
ATOM     28  C   UNL A   1      36.113  29.718  29.545  1.00  0.00     0.016 A 
ATOM     29  C   UNL A   1      36.562  30.081  27.195  1.00  0.00     0.016 A 
ATOM     30  C   UNL A   1      37.412  29.269  29.746  1.00  0.00     0.010 A 
ATOM     31  C   UNL A   1      37.870  29.625  27.393  1.00  0.00     0.010 A 
ATOM     32  C   UNL A   1      38.307  29.238  28.675  1.00  0.00    -0.014 A 
BRANCH  32  33
ATOM     33  C   UNL A   1      39.728  28.909  28.926  1.00  0.00     0.031 A 
ATOM     34  C   UNL A   1      40.616  29.940  29.562  1.00  0.00     0.074 A 
ATOM     35  C   UNL A   1      40.206  27.684  28.636  1.00  0.00     0.049 A 
ATOM     36  N   UNL A   1      41.908  29.908  29.762  1.00  0.00    -0.248 NA
ATOM     37  C   UNL A   1      39.960  31.169  30.036  1.00  0.00     0.031 C 
ATOM     38  C   UNL A   1      39.417  26.571  28.110  1.00  0.00     0.029 A 
ATOM     39  N   UNL A   1      41.473  27.173  28.752  1.00  0.00    -0.354 N 
ATOM     40  C   UNL A   1      42.226  31.126  30.354  1.00  0.00     0.074 A 
ATOM     41  C   UNL A   1      40.993  31.873  30.474  1.00  0.00     0.031 C 
ATOM     42  C   UNL A   1      40.219  25.503  27.953  1.00  0.00     0.029 A 
ATOM     43  C   UNL A   1      41.585  25.876  28.313  1.00  0.00     0.049 A 
ATOM     44  H   UNL A   1      42.231  27.687  29.115  1.00  0.00     0.167 HD
ATOM     45  C   UNL A   1      43.438  31.578  30.755  1.00  0.00     0.031 A 
ATOM     46  C   UNL A   1      42.671  25.091  28.184  1.00  0.00     0.031 A 
ATOM     47  C   UNL A   1      44.656  30.822  30.635  1.00  0.00     0.049 A 
ATOM     48  C   UNL A   1      44.019  25.644  28.559  1.00  0.00     0.074 A 
ATOM     49  C   UNL A   1      45.942  31.197  30.983  1.00  0.00     0.029 A 
ATOM     50  N   UNL A   1      44.737  29.531  30.133  1.00  0.00    -0.354 N 
ATOM     51  N   UNL A   1      44.318  26.820  29.057  1.00  0.00    -0.248 NA
ATOM     52  C   UNL A   1      45.177  24.766  28.345  1.00  0.00     0.031 C 
ATOM     53  C   UNL A   1      46.806  30.144  30.657  1.00  0.00     0.029 A 
ATOM     54  C   UNL A   1      46.051  29.097  30.151  1.00  0.00     0.049 A 
ATOM     55  H   UNL A   1      43.973  29.002  29.811  1.00  0.00     0.167 HD
ATOM     56  C   UNL A   1      45.697  26.816  29.236  1.00  0.00     0.074 A 
ATOM     57  C   UNL A   1      46.171  25.517  28.803  1.00  0.00     0.031 C 
ATOM     58  C   UNL A   1      46.499  27.798  29.716  1.00  0.00     0.031 A 
BRANCH  45  59
ATOM     59  C   UNL A   1      43.502  32.977  31.304  1.00  0.00    -0.014 A 
ATOM     60  C   UNL A   1      43.667  34.089  30.459  1.00  0.00     0.010 A 
ATOM     61  C   UNL A   1      43.400  33.181  32.692  1.00  0.00     0.010 A 
ATOM     62  C   UNL A   1      43.774  35.375  30.998  1.00  0.00     0.020 A 
ATOM     63  C   UNL A   1      43.481  34.466  33.232  1.00  0.00     0.020 A 
ATOM     64  C   UNL A   1      43.690  35.555  32.382  1.00  0.00     0.054 A 
BRANCH  64  65
ATOM     65  S   UNL A   1      43.837  37.231  33.059  1.00  0.00     0.124 S 
ATOM     66  O   UNL A   1      43.738  38.052  31.855  1.00  0.00    -0.237 OA
ATOM     67  O   UNL A   1      42.698  37.314  33.970  1.00  0.00    -0.237 OA
ATOM     68  O   UNL A   1      45.147  37.230  33.706  1.00  0.00    -0.744 OA
ENDBRANCH  64  65
ENDBRANCH  45  59
BRANCH  46  69
ATOM     69  C   UNL A   1      42.531  23.711  27.646  1.00  0.00    -0.014 A 
ATOM     70  C   UNL A   1      42.704  23.457  26.275  1.00  0.00     0.010 A 
ATOM     71  C   UNL A   1      42.236  22.638  28.509  1.00  0.00     0.010 A 
ATOM     72  C   UNL A   1      42.576  22.158  25.774  1.00  0.00     0.020 A 
ATOM     73  C   UNL A   1      42.133  21.335  28.016  1.00  0.00     0.020 A 
ATOM     74  C   UNL A   1      42.294  21.104  26.649  1.00  0.00     0.054 A 
BRANCH  74  75
ATOM     75  S   UNL A   1      42.195  19.417  25.988  1.00  0.00     0.124 S 
ATOM     76  O   UNL A   1      40.767  19.276  25.727  1.00  0.00    -0.237 OA
ATOM     77  O   UNL A   1      43.052  19.488  24.806  1.00  0.00    -0.237 OA
ATOM     78  O   UNL A   1      42.719  18.593  27.077  1.00  0.00    -0.744 OA
ENDBRANCH  74  75
ENDBRANCH  46  69
BRANCH  58  79
ATOM     79  C   UNL A   1      47.967  27.490  29.836  1.00  0.00    -0.014 A 
ATOM     80  C   UNL A   1      48.450  26.616  30.824  1.00  0.00     0.010 A 
ATOM     81  C   UNL A   1      48.868  28.051  28.914  1.00  0.00     0.010 A 
ATOM     82  C   UNL A   1      49.816  26.329  30.906  1.00  0.00     0.020 A 
ATOM     83  C   UNL A   1      50.231  27.750  28.977  1.00  0.00     0.020 A 
ATOM     84  C   UNL A   1      50.698  26.901  29.983  1.00  0.00     0.054 A 
BRANCH  84  85
ATOM     85  S   UNL A   1      52.461  26.484  30.081  1.00  0.00     0.124 S 
ATOM     86  O   UNL A   1      52.702  25.882  28.774  1.00  0.00    -0.237 OA
ATOM     87  O   UNL A   1      53.089  27.786  30.300  1.00  0.00    -0.237 OA
ATOM     88  O   UNL A   1      52.536  25.566  31.216  1.00  0.00    -0.744 OA
ENDBRANCH  84  85
ENDBRANCH  58  79
ENDBRANCH  32  33
ENDBRANCH  25  27
ENDBRANCH  24  25
ENDBRANCH   1  24
TORSDOF 16
ENDMDL
