MODEL 1
REMARK VINA RESULT:     -10.7      0.000      0.000
REMARK SMILES C[C@]1(C(=O)N2CCC(CC(=O)OCCOC(=O)c3ccc(-c4c5nc(c(-c6ccc(S(=O)(=O)[O-])cc6)c6ccc([nH]6)c(-c6ccc(S(=O)(=O)[O-])cc6)c6nc(c(-c7ccc(S(=O)(=O)[O-])cc7)c7ccc4[nH]7)C=C6)C=C5)cc3)CC2)CCC[NH2+]C1
REMARK SMILES IDX 14 1 13 2 12 3 10 4 11 5 9 6 8 7 3 8 4 9 5 10 6 11 79 12
REMARK SMILES IDX 7 13 78 14 2 15 1 16 80 17 84 18 81 19 83 20 82 21 15 24
REMARK SMILES IDX 16 25 17 26 18 27 19 28 77 29 20 30 76 31 21 32 22 33 23 34
REMARK SMILES IDX 70 35 24 36 75 37 69 38 71 39 25 40 74 41 68 42 67 43 26 45
REMARK SMILES IDX 56 46 37 47 55 48 38 49 41 50 54 51 72 52 39 53 40 54 53 56
REMARK SMILES IDX 73 57 42 58 27 59 28 60 36 61 29 62 35 63 30 64 31 65 32 66
REMARK SMILES IDX 33 67 34 68 57 69 58 70 66 71 59 72 65 73 60 74 61 75 62 76
REMARK SMILES IDX 63 77 64 78 43 79 44 80 52 81 45 82 51 83 46 84 47 85 48 86
REMARK SMILES IDX 49 87 50 88
REMARK H PARENT 83 22 83 23 71 44 41 55
REMARK Flexibility Score: inf
ROOT
ATOM      1  C   UNL A   1      32.255  29.608  27.027  1.00  0.00     0.275 C 
ENDROOT
BRANCH   1   2
ATOM      2  C   UNL A   1      31.822  28.547  26.015  1.00  0.00     0.274 C 
BRANCH   2   3
ATOM      3  O   UNL A   1      31.818  27.245  26.624  1.00  0.00    -0.462 OA
BRANCH   3   4
ATOM      4  C   UNL A   1      30.922  26.356  26.129  1.00  0.00     0.306 C 
ATOM      5  O   UNL A   1      30.543  25.346  26.707  1.00  0.00    -0.252 OA
BRANCH   4   6
ATOM      6  C   UNL A   1      30.480  26.707  24.729  1.00  0.00     0.126 C 
BRANCH   6   7
ATOM      7  C   UNL A   1      31.050  25.843  23.577  1.00  0.00     0.003 C 
ATOM      8  C   UNL A   1      33.814  22.739  23.970  1.00  0.00     0.234 C 
ATOM      9  O   UNL A   1      33.839  21.624  23.436  1.00  0.00    -0.274 OA
ATOM     10  N   UNL A   1      32.950  23.707  23.514  1.00  0.00    -0.342 N 
ATOM     11  C   UNL A   1      31.585  23.345  23.197  1.00  0.00     0.120 C 
ATOM     12  C   UNL A   1      33.386  24.930  22.880  1.00  0.00     0.120 C 
ATOM     13  C   UNL A   1      30.667  24.365  23.853  1.00  0.00     0.026 C 
ATOM     14  C   UNL A   1      32.565  26.111  23.375  1.00  0.00     0.026 C 
BRANCH   8  15
ATOM     15  C   UNL A   1      34.638  23.011  25.260  1.00  0.00     0.095 C 
ATOM     16  C   UNL A   1      35.882  23.806  24.809  1.00  0.00     0.028 C 
ATOM     17  C   UNL A   1      33.985  23.780  26.428  1.00  0.00     0.028 C 
ATOM     18  C   UNL A   1      35.096  21.623  25.787  1.00  0.00     0.277 C 
ATOM     19  C   UNL A   1      32.984  22.951  27.230  1.00  0.00     0.063 C 
ATOM     20  N   UNL A   1      34.027  20.875  26.463  1.00  0.00    -0.345 N 
ATOM     21  C   UNL A   1      33.532  21.591  27.631  1.00  0.00     0.260 C 
ATOM     22  H   UNL A   1      33.257  20.734  25.809  1.00  0.00     0.346 HD
ATOM     23  H   UNL A   1      34.409  19.982  26.774  1.00  0.00     0.346 HD
ENDBRANCH   8  15
ENDBRANCH   6   7
ENDBRANCH   4   6
ENDBRANCH   3   4
ENDBRANCH   2   3
ENDBRANCH   1   2
BRANCH   1  24
ATOM     24  O   UNL A   1      33.613  29.386  27.451  1.00  0.00    -0.458 OA
BRANCH  24  25
ATOM     25  C   UNL A   1      34.273  30.467  27.930  1.00  0.00     0.338 C 
ATOM     26  O   UNL A   1      33.819  31.573  28.162  1.00  0.00    -0.246 OA
BRANCH  25  27
ATOM     27  C   UNL A   1      35.660  30.074  28.217  1.00  0.00     0.060 A 
ATOM     28  C   UNL A   1      36.606  30.094  27.189  1.00  0.00     0.016 A 
ATOM     29  C   UNL A   1      36.017  29.662  29.501  1.00  0.00     0.016 A 
ATOM     30  C   UNL A   1      37.925  29.727  27.444  1.00  0.00     0.010 A 
ATOM     31  C   UNL A   1      37.343  29.307  29.759  1.00  0.00     0.010 A 
ATOM     32  C   UNL A   1      38.306  29.345  28.735  1.00  0.00    -0.014 A 
BRANCH  32  33
ATOM     33  C   UNL A   1      39.718  29.009  29.035  1.00  0.00     0.031 A 
ATOM     34  C   UNL A   1      40.645  30.057  29.572  1.00  0.00     0.074 A 
ATOM     35  C   UNL A   1      40.168  27.764  28.786  1.00  0.00     0.049 A 
ATOM     36  N   UNL A   1      41.937  29.997  29.756  1.00  0.00    -0.248 NA
ATOM     37  C   UNL A   1      40.038  31.342  29.952  1.00  0.00     0.031 C 
ATOM     38  C   UNL A   1      39.349  26.647  28.309  1.00  0.00     0.029 A 
ATOM     39  N   UNL A   1      41.430  27.235  28.883  1.00  0.00    -0.354 N 
ATOM     40  C   UNL A   1      42.307  31.241  30.251  1.00  0.00     0.074 A 
ATOM     41  C   UNL A   1      41.101  32.040  30.330  1.00  0.00     0.031 C 
ATOM     42  C   UNL A   1      40.131  25.568  28.150  1.00  0.00     0.029 A 
ATOM     43  C   UNL A   1      41.512  25.932  28.454  1.00  0.00     0.049 A 
ATOM     44  H   UNL A   1      42.203  27.739  29.228  1.00  0.00     0.167 HD
ATOM     45  C   UNL A   1      43.540  31.676  30.605  1.00  0.00     0.031 A 
ATOM     46  C   UNL A   1      42.583  25.133  28.280  1.00  0.00     0.031 A 
ATOM     47  C   UNL A   1      44.734  30.877  30.512  1.00  0.00     0.049 A 
ATOM     48  C   UNL A   1      43.954  25.671  28.579  1.00  0.00     0.074 A 
ATOM     49  C   UNL A   1      46.028  31.218  30.865  1.00  0.00     0.029 A 
ATOM     50  N   UNL A   1      44.782  29.582  30.020  1.00  0.00    -0.354 N 
ATOM     51  N   UNL A   1      44.289  26.848  29.053  1.00  0.00    -0.248 NA
ATOM     52  C   UNL A   1      45.092  24.783  28.305  1.00  0.00     0.031 C 
ATOM     53  C   UNL A   1      46.866  30.149  30.532  1.00  0.00     0.029 A 
ATOM     54  C   UNL A   1      46.088  29.122  30.021  1.00  0.00     0.049 A 
ATOM     55  H   UNL A   1      44.002  29.064  29.715  1.00  0.00     0.167 HD
ATOM     56  C   UNL A   1      45.677  26.841  29.139  1.00  0.00     0.074 A 
ATOM     57  C   UNL A   1      46.116  25.536  28.687  1.00  0.00     0.031 C 
ATOM     58  C   UNL A   1      46.510  27.826  29.551  1.00  0.00     0.031 A 
BRANCH  45  59
ATOM     59  C   UNL A   1      43.665  33.098  31.081  1.00  0.00    -0.014 A 
ATOM     60  C   UNL A   1      43.500  33.431  32.438  1.00  0.00     0.010 A 
ATOM     61  C   UNL A   1      43.980  34.113  30.160  1.00  0.00     0.010 A 
ATOM     62  C   UNL A   1      43.609  34.759  32.857  1.00  0.00     0.020 A 
ATOM     63  C   UNL A   1      44.112  35.440  30.579  1.00  0.00     0.020 A 
ATOM     64  C   UNL A   1      43.907  35.757  31.923  1.00  0.00     0.054 A 
BRANCH  64  65
ATOM     65  S   UNL A   1      44.050  37.473  32.493  1.00  0.00     0.124 S 
ATOM     66  O   UNL A   1      45.426  37.514  32.983  1.00  0.00    -0.237 OA
ATOM     67  O   UNL A   1      43.794  38.239  31.276  1.00  0.00    -0.237 OA
ATOM     68  O   UNL A   1      43.019  37.584  33.522  1.00  0.00    -0.744 OA
ENDBRANCH  64  65
ENDBRANCH  45  59
BRANCH  46  69
ATOM     69  C   UNL A   1      42.398  23.757  27.746  1.00  0.00    -0.014 A 
ATOM     70  C   UNL A   1      42.417  23.520  26.362  1.00  0.00     0.010 A 
ATOM     71  C   UNL A   1      42.231  22.670  28.625  1.00  0.00     0.010 A 
ATOM     72  C   UNL A   1      42.272  22.220  25.865  1.00  0.00     0.020 A 
ATOM     73  C   UNL A   1      42.111  21.368  28.135  1.00  0.00     0.020 A 
ATOM     74  C   UNL A   1      42.124  21.152  26.755  1.00  0.00     0.054 A 
BRANCH  74  75
ATOM     75  S   UNL A   1      42.009  19.466  26.092  1.00  0.00     0.124 S 
ATOM     76  O   UNL A   1      42.900  19.534  24.938  1.00  0.00    -0.237 OA
ATOM     77  O   UNL A   1      42.481  18.653  27.210  1.00  0.00    -0.237 OA
ATOM     78  O   UNL A   1      40.589  19.319  25.780  1.00  0.00    -0.744 OA
ENDBRANCH  74  75
ENDBRANCH  46  69
BRANCH  58  79
ATOM     79  C   UNL A   1      47.986  27.536  29.532  1.00  0.00    -0.014 A 
ATOM     80  C   UNL A   1      48.741  27.727  28.362  1.00  0.00     0.010 A 
ATOM     81  C   UNL A   1      48.636  27.136  30.713  1.00  0.00     0.010 A 
ATOM     82  C   UNL A   1      50.121  27.510  28.370  1.00  0.00     0.020 A 
ATOM     83  C   UNL A   1      50.019  26.940  30.731  1.00  0.00     0.020 A 
ATOM     84  C   UNL A   1      50.752  27.121  29.555  1.00  0.00     0.054 A 
BRANCH  84  85
ATOM     85  S   UNL A   1      52.554  26.911  29.557  1.00  0.00     0.124 S 
ATOM     86  O   UNL A   1      53.022  28.294  29.588  1.00  0.00    -0.237 OA
ATOM     87  O   UNL A   1      52.786  26.142  30.777  1.00  0.00    -0.237 OA
ATOM     88  O   UNL A   1      52.820  26.191  28.314  1.00  0.00    -0.744 OA
ENDBRANCH  84  85
ENDBRANCH  58  79
ENDBRANCH  32  33
ENDBRANCH  25  27
ENDBRANCH  24  25
ENDBRANCH   1  24
TORSDOF 16
ENDMDL
MODEL 2
REMARK VINA RESULT:     -10.6      1.329      2.118
REMARK SMILES C[C@]1(C(=O)N2CCC(CC(=O)OCCOC(=O)c3ccc(-c4c5nc(c(-c6ccc(S(=O)(=O)[O-])cc6)c6ccc([nH]6)c(-c6ccc(S(=O)(=O)[O-])cc6)c6nc(c(-c7ccc(S(=O)(=O)[O-])cc7)c7ccc4[nH]7)C=C6)C=C5)cc3)CC2)CCC[NH2+]C1
REMARK SMILES IDX 14 1 13 2 12 3 10 4 11 5 9 6 8 7 3 8 4 9 5 10 6 11 79 12
REMARK SMILES IDX 7 13 78 14 2 15 1 16 80 17 84 18 81 19 83 20 82 21 15 24
REMARK SMILES IDX 16 25 17 26 18 27 19 28 77 29 20 30 76 31 21 32 22 33 23 34
REMARK SMILES IDX 70 35 24 36 75 37 69 38 71 39 25 40 74 41 68 42 67 43 26 45
REMARK SMILES IDX 56 46 37 47 55 48 38 49 41 50 54 51 72 52 39 53 40 54 53 56
REMARK SMILES IDX 73 57 42 58 27 59 28 60 36 61 29 62 35 63 30 64 31 65 32 66
REMARK SMILES IDX 33 67 34 68 57 69 58 70 66 71 59 72 65 73 60 74 61 75 62 76
REMARK SMILES IDX 63 77 64 78 43 79 44 80 52 81 45 82 51 83 46 84 47 85 48 86
REMARK SMILES IDX 49 87 50 88
REMARK H PARENT 83 22 83 23 71 44 41 55
REMARK Flexibility Score: inf
ROOT
ATOM      1  C   UNL A   1      32.624  29.387  26.081  1.00  0.00     0.275 C 
ENDROOT
BRANCH   1   2
ATOM      2  C   UNL A   1      32.547  29.141  24.574  1.00  0.00     0.274 C 
BRANCH   2   3
ATOM      3  O   UNL A   1      31.201  28.817  24.187  1.00  0.00    -0.462 OA
BRANCH   3   4
ATOM      4  C   UNL A   1      31.069  27.924  23.176  1.00  0.00     0.306 C 
ATOM      5  O   UNL A   1      30.370  28.086  22.183  1.00  0.00    -0.252 OA
BRANCH   4   6
ATOM      6  C   UNL A   1      31.831  26.647  23.434  1.00  0.00     0.126 C 
BRANCH   6   7
ATOM      7  C   UNL A   1      31.175  25.620  24.388  1.00  0.00     0.003 C 
ATOM      8  C   UNL A   1      33.050  22.305  26.098  1.00  0.00     0.234 C 
ATOM      9  O   UNL A   1      32.991  21.866  27.253  1.00  0.00    -0.274 OA
ATOM     10  N   UNL A   1      32.159  23.264  25.675  1.00  0.00    -0.342 N 
ATOM     11  C   UNL A   1      31.845  24.375  26.549  1.00  0.00     0.120 C 
ATOM     12  C   UNL A   1      31.162  23.031  24.656  1.00  0.00     0.120 C 
ATOM     13  C   UNL A   1      31.948  25.654  25.734  1.00  0.00     0.026 C 
ATOM     14  C   UNL A   1      31.066  24.225  23.718  1.00  0.00     0.026 C 
BRANCH   8  15
ATOM     15  C   UNL A   1      34.225  21.903  25.164  1.00  0.00     0.095 C 
ATOM     16  C   UNL A   1      33.807  20.572  24.505  1.00  0.00     0.028 C 
ATOM     17  C   UNL A   1      34.665  22.867  24.041  1.00  0.00     0.028 C 
ATOM     18  C   UNL A   1      35.448  21.641  26.087  1.00  0.00     0.277 C 
ATOM     19  C   UNL A   1      35.460  24.073  24.539  1.00  0.00     0.063 C 
ATOM     20  N   UNL A   1      36.081  22.873  26.579  1.00  0.00    -0.345 N 
ATOM     21  C   UNL A   1      36.587  23.687  25.483  1.00  0.00     0.260 C 
ATOM     22  H   UNL A   1      35.391  23.413  27.102  1.00  0.00     0.346 HD
ATOM     23  H   UNL A   1      36.866  22.613  27.174  1.00  0.00     0.346 HD
ENDBRANCH   8  15
ENDBRANCH   6   7
ENDBRANCH   4   6
ENDBRANCH   3   4
ENDBRANCH   2   3
ENDBRANCH   1   2
BRANCH   1  24
ATOM     24  O   UNL A   1      33.987  29.324  26.540  1.00  0.00    -0.458 OA
BRANCH  24  25
ATOM     25  C   UNL A   1      34.366  30.282  27.418  1.00  0.00     0.338 C 
ATOM     26  O   UNL A   1      33.709  31.226  27.818  1.00  0.00    -0.246 OA
BRANCH  25  27
ATOM     27  C   UNL A   1      35.717  29.961  27.901  1.00  0.00     0.060 A 
ATOM     28  C   UNL A   1      35.898  29.589  29.236  1.00  0.00     0.016 A 
ATOM     29  C   UNL A   1      36.807  30.054  27.037  1.00  0.00     0.016 A 
ATOM     30  C   UNL A   1      37.171  29.279  29.709  1.00  0.00     0.010 A 
ATOM     31  C   UNL A   1      38.082  29.731  27.509  1.00  0.00     0.010 A 
ATOM     32  C   UNL A   1      38.270  29.333  28.846  1.00  0.00    -0.014 A 
BRANCH  32  33
ATOM     33  C   UNL A   1      39.620  28.951  29.320  1.00  0.00     0.031 A 
ATOM     34  C   UNL A   1      40.459  29.935  30.080  1.00  0.00     0.074 A 
ATOM     35  C   UNL A   1      40.101  27.726  29.032  1.00  0.00     0.049 A 
ATOM     36  N   UNL A   1      41.709  29.840  30.447  1.00  0.00    -0.248 NA
ATOM     37  C   UNL A   1      39.804  31.191  30.477  1.00  0.00     0.031 C 
ATOM     38  C   UNL A   1      39.359  26.668  28.342  1.00  0.00     0.029 A 
ATOM     39  N   UNL A   1      41.333  27.172  29.268  1.00  0.00    -0.354 N 
ATOM     40  C   UNL A   1      42.003  31.031  31.100  1.00  0.00     0.074 A 
ATOM     41  C   UNL A   1      40.800  31.837  31.069  1.00  0.00     0.031 C 
ATOM     42  C   UNL A   1      40.155  25.595  28.206  1.00  0.00     0.029 A 
ATOM     43  C   UNL A   1      41.476  25.910  28.743  1.00  0.00     0.049 A 
ATOM     44  H   UNL A   1      42.046  27.633  29.767  1.00  0.00     0.167 HD
ATOM     45  C   UNL A   1      43.170  31.415  31.669  1.00  0.00     0.031 A 
ATOM     46  C   UNL A   1      42.559  25.114  28.660  1.00  0.00     0.031 A 
ATOM     47  C   UNL A   1      44.363  30.610  31.684  1.00  0.00     0.049 A 
ATOM     48  C   UNL A   1      43.871  25.604  29.205  1.00  0.00     0.074 A 
ATOM     49  C   UNL A   1      45.591  30.899  32.253  1.00  0.00     0.029 A 
ATOM     50  N   UNL A   1      44.482  29.361  31.092  1.00  0.00    -0.354 N 
ATOM     51  N   UNL A   1      44.134  26.730  29.825  1.00  0.00    -0.248 NA
ATOM     52  C   UNL A   1      45.036  24.727  29.025  1.00  0.00     0.031 C 
ATOM     53  C   UNL A   1      46.468  29.851  31.956  1.00  0.00     0.029 A 
ATOM     54  C   UNL A   1      45.773  28.884  31.246  1.00  0.00     0.049 A 
ATOM     55  H   UNL A   1      43.756  28.883  30.631  1.00  0.00     0.167 HD
ATOM     56  C   UNL A   1      45.494  26.694  30.115  1.00  0.00     0.074 A 
ATOM     57  C   UNL A   1      45.993  25.428  29.619  1.00  0.00     0.031 C 
ATOM     58  C   UNL A   1      46.258  27.628  30.732  1.00  0.00     0.031 A 
BRANCH  45  59
ATOM     59  C   UNL A   1      43.225  32.788  32.282  1.00  0.00    -0.014 A 
ATOM     60  C   UNL A   1      43.643  33.905  31.537  1.00  0.00     0.010 A 
ATOM     61  C   UNL A   1      42.823  32.967  33.618  1.00  0.00     0.010 A 
ATOM     62  C   UNL A   1      43.696  35.169  32.129  1.00  0.00     0.020 A 
ATOM     63  C   UNL A   1      42.854  34.234  34.208  1.00  0.00     0.020 A 
ATOM     64  C   UNL A   1      43.308  35.324  33.464  1.00  0.00     0.054 A 
BRANCH  64  65
ATOM     65  S   UNL A   1      43.381  36.977  34.208  1.00  0.00     0.124 S 
ATOM     66  O   UNL A   1      44.617  36.903  34.985  1.00  0.00    -0.237 OA
ATOM     67  O   UNL A   1      43.426  37.854  33.041  1.00  0.00    -0.237 OA
ATOM     68  O   UNL A   1      42.154  37.058  34.997  1.00  0.00    -0.744 OA
ENDBRANCH  64  65
ENDBRANCH  45  59
BRANCH  46  69
ATOM     69  C   UNL A   1      42.454  23.793  27.984  1.00  0.00    -0.014 A 
ATOM     70  C   UNL A   1      42.807  23.651  26.632  1.00  0.00     0.010 A 
ATOM     71  C   UNL A   1      42.027  22.660  28.703  1.00  0.00     0.010 A 
ATOM     72  C   UNL A   1      42.733  22.401  26.009  1.00  0.00     0.020 A 
ATOM     73  C   UNL A   1      41.976  21.405  28.092  1.00  0.00     0.020 A 
ATOM     74  C   UNL A   1      42.322  21.284  26.745  1.00  0.00     0.054 A 
BRANCH  74  75
ATOM     75  S   UNL A   1      42.303  19.660  25.937  1.00  0.00     0.124 S 
ATOM     76  O   UNL A   1      40.920  19.564  25.482  1.00  0.00    -0.237 OA
ATOM     77  O   UNL A   1      43.307  19.816  24.887  1.00  0.00    -0.237 OA
ATOM     78  O   UNL A   1      42.675  18.741  27.011  1.00  0.00    -0.744 OA
ENDBRANCH  74  75
ENDBRANCH  46  69
BRANCH  58  79
ATOM     79  C   UNL A   1      47.719  27.319  30.906  1.00  0.00    -0.014 A 
ATOM     80  C   UNL A   1      48.193  26.727  32.089  1.00  0.00     0.010 A 
ATOM     81  C   UNL A   1      48.616  27.559  29.849  1.00  0.00     0.010 A 
ATOM     82  C   UNL A   1      49.543  26.391  32.218  1.00  0.00     0.020 A 
ATOM     83  C   UNL A   1      49.962  27.203  29.966  1.00  0.00     0.020 A 
ATOM     84  C   UNL A   1      50.418  26.629  31.154  1.00  0.00     0.054 A 
BRANCH  84  85
ATOM     85  S   UNL A   1      52.153  26.121  31.321  1.00  0.00     0.124 S 
ATOM     86  O   UNL A   1      52.024  24.733  31.754  1.00  0.00    -0.237 OA
ATOM     87  O   UNL A   1      52.674  26.311  29.969  1.00  0.00    -0.237 OA
ATOM     88  O   UNL A   1      52.688  27.040  32.323  1.00  0.00    -0.744 OA
ENDBRANCH  84  85
ENDBRANCH  58  79
ENDBRANCH  32  33
ENDBRANCH  25  27
ENDBRANCH  24  25
ENDBRANCH   1  24
TORSDOF 16
ENDMDL
MODEL 3
REMARK VINA RESULT:     -10.6      5.463     10.929
REMARK SMILES C[C@]1(C(=O)N2CCC(CC(=O)OCCOC(=O)c3ccc(-c4c5nc(c(-c6ccc(S(=O)(=O)[O-])cc6)c6ccc([nH]6)c(-c6ccc(S(=O)(=O)[O-])cc6)c6nc(c(-c7ccc(S(=O)(=O)[O-])cc7)c7ccc4[nH]7)C=C6)C=C5)cc3)CC2)CCC[NH2+]C1
REMARK SMILES IDX 14 1 13 2 12 3 10 4 11 5 9 6 8 7 3 8 4 9 5 10 6 11 79 12
REMARK SMILES IDX 7 13 78 14 2 15 1 16 80 17 84 18 81 19 83 20 82 21 15 24
REMARK SMILES IDX 16 25 17 26 18 27 19 28 77 29 20 30 76 31 21 32 22 33 23 34
REMARK SMILES IDX 70 35 24 36 75 37 69 38 71 39 25 40 74 41 68 42 67 43 26 45
REMARK SMILES IDX 56 46 37 47 55 48 38 49 41 50 54 51 72 52 39 53 40 54 53 56
REMARK SMILES IDX 73 57 42 58 27 59 28 60 36 61 29 62 35 63 30 64 31 65 32 66
REMARK SMILES IDX 33 67 34 68 57 69 58 70 66 71 59 72 65 73 60 74 61 75 62 76
REMARK SMILES IDX 63 77 64 78 43 79 44 80 52 81 45 82 51 83 46 84 47 85 48 86
REMARK SMILES IDX 49 87 50 88
REMARK H PARENT 83 22 83 23 71 44 41 55
REMARK Flexibility Score: inf
ROOT
ATOM      1  C   UNL A   1      38.575  23.758  26.552  1.00  0.00     0.275 C 
ENDROOT
BRANCH   1   2
ATOM      2  C   UNL A   1      37.409  23.676  25.567  1.00  0.00     0.274 C 
BRANCH   2   3
ATOM      3  O   UNL A   1      36.156  23.795  26.262  1.00  0.00    -0.462 OA
BRANCH   3   4
ATOM      4  C   UNL A   1      35.257  22.804  26.045  1.00  0.00     0.306 C 
ATOM      5  O   UNL A   1      35.533  21.616  25.939  1.00  0.00    -0.252 OA
BRANCH   4   6
ATOM      6  C   UNL A   1      33.853  23.331  25.873  1.00  0.00     0.126 C 
BRANCH   6   7
ATOM      7  C   UNL A   1      33.287  23.360  24.432  1.00  0.00     0.003 C 
ATOM      8  C   UNL A   1      30.967  26.403  22.762  1.00  0.00     0.234 C 
ATOM      9  O   UNL A   1      31.029  26.928  21.644  1.00  0.00    -0.274 OA
ATOM     10  N   UNL A   1      31.662  25.246  23.024  1.00  0.00    -0.342 N 
ATOM     11  C   UNL A   1      33.027  25.117  22.557  1.00  0.00     0.120 C 
ATOM     12  C   UNL A   1      31.025  23.979  23.303  1.00  0.00     0.120 C 
ATOM     13  C   UNL A   1      33.871  24.607  23.714  1.00  0.00     0.026 C 
ATOM     14  C   UNL A   1      31.739  23.259  24.437  1.00  0.00     0.026 C 
BRANCH   8  15
ATOM     15  C   UNL A   1      30.240  27.126  23.930  1.00  0.00     0.095 C 
ATOM     16  C   UNL A   1      28.793  26.588  23.926  1.00  0.00     0.028 C 
ATOM     17  C   UNL A   1      30.788  26.989  25.366  1.00  0.00     0.028 C 
ATOM     18  C   UNL A   1      30.212  28.635  23.561  1.00  0.00     0.277 C 
ATOM     19  C   UNL A   1      32.047  27.814  25.628  1.00  0.00     0.063 C 
ATOM     20  N   UNL A   1      31.502  29.308  23.768  1.00  0.00    -0.345 N 
ATOM     21  C   UNL A   1      31.914  29.256  25.165  1.00  0.00     0.260 C 
ATOM     22  H   UNL A   1      32.211  28.849  23.196  1.00  0.00     0.346 HD
ATOM     23  H   UNL A   1      31.399  30.287  23.502  1.00  0.00     0.346 HD
ENDBRANCH   8  15
ENDBRANCH   6   7
ENDBRANCH   4   6
ENDBRANCH   3   4
ENDBRANCH   2   3
ENDBRANCH   1   2
BRANCH   1  24
ATOM     24  O   UNL A   1      38.586  25.029  27.227  1.00  0.00    -0.458 OA
BRANCH  24  25
ATOM     25  C   UNL A   1      39.690  25.791  27.048  1.00  0.00     0.338 C 
ATOM     26  O   UNL A   1      40.453  25.784  26.099  1.00  0.00    -0.246 OA
BRANCH  25  27
ATOM     27  C   UNL A   1      39.798  26.726  28.178  1.00  0.00     0.060 A 
ATOM     28  C   UNL A   1      39.126  26.441  29.370  1.00  0.00     0.016 A 
ATOM     29  C   UNL A   1      40.544  27.896  28.047  1.00  0.00     0.016 A 
ATOM     30  C   UNL A   1      39.219  27.314  30.452  1.00  0.00     0.010 A 
ATOM     31  C   UNL A   1      40.648  28.765  29.136  1.00  0.00     0.010 A 
ATOM     32  C   UNL A   1      39.993  28.474  30.347  1.00  0.00    -0.014 A 
BRANCH  32  33
ATOM     33  C   UNL A   1      40.148  29.383  31.508  1.00  0.00     0.031 A 
ATOM     34  C   UNL A   1      41.273  29.180  32.478  1.00  0.00     0.074 A 
ATOM     35  C   UNL A   1      39.249  30.367  31.702  1.00  0.00     0.049 A 
ATOM     36  N   UNL A   1      41.489  29.771  33.623  1.00  0.00    -0.248 NA
ATOM     37  C   UNL A   1      42.287  28.179  32.112  1.00  0.00     0.031 C 
ATOM     38  C   UNL A   1      38.142  30.692  30.800  1.00  0.00     0.029 A 
ATOM     39  N   UNL A   1      39.117  31.264  32.732  1.00  0.00    -0.354 N 
ATOM     40  C   UNL A   1      42.651  29.202  34.130  1.00  0.00     0.074 A 
ATOM     41  C   UNL A   1      43.088  28.210  33.170  1.00  0.00     0.031 C 
ATOM     42  C   UNL A   1      37.440  31.712  31.320  1.00  0.00     0.029 A 
ATOM     43  C   UNL A   1      38.010  32.070  32.616  1.00  0.00     0.049 A 
ATOM     44  H   UNL A   1      39.753  31.326  33.481  1.00  0.00     0.167 HD
ATOM     45  C   UNL A   1      43.290  29.482  35.290  1.00  0.00     0.031 A 
ATOM     46  C   UNL A   1      37.485  32.965  33.475  1.00  0.00     0.031 A 
ATOM     47  C   UNL A   1      42.840  30.462  36.243  1.00  0.00     0.049 A 
ATOM     48  C   UNL A   1      38.153  33.183  34.804  1.00  0.00     0.074 A 
ATOM     49  C   UNL A   1      43.428  30.834  37.439  1.00  0.00     0.029 A 
ATOM     50  N   UNL A   1      41.684  31.217  36.114  1.00  0.00    -0.354 N 
ATOM     51  N   UNL A   1      39.255  32.642  35.268  1.00  0.00    -0.248 NA
ATOM     52  C   UNL A   1      37.500  34.116  35.731  1.00  0.00     0.031 C 
ATOM     53  C   UNL A   1      42.597  31.774  38.060  1.00  0.00     0.029 A 
ATOM     54  C   UNL A   1      41.518  32.025  37.227  1.00  0.00     0.049 A 
ATOM     55  H   UNL A   1      41.071  31.185  35.345  1.00  0.00     0.167 HD
ATOM     56  C   UNL A   1      39.430  33.174  36.540  1.00  0.00     0.074 A 
ATOM     57  C   UNL A   1      38.332  34.093  36.764  1.00  0.00     0.031 C 
ATOM     58  C   UNL A   1      40.410  32.921  37.441  1.00  0.00     0.031 A 
BRANCH  45  59
ATOM     59  C   UNL A   1      44.522  28.680  35.615  1.00  0.00    -0.014 A 
ATOM     60  C   UNL A   1      44.448  27.508  36.389  1.00  0.00     0.010 A 
ATOM     61  C   UNL A   1      45.769  29.092  35.111  1.00  0.00     0.010 A 
ATOM     62  C   UNL A   1      45.606  26.786  36.687  1.00  0.00     0.020 A 
ATOM     63  C   UNL A   1      46.926  28.359  35.389  1.00  0.00     0.020 A 
ATOM     64  C   UNL A   1      46.839  27.220  36.191  1.00  0.00     0.054 A 
BRANCH  64  65
ATOM     65  S   UNL A   1      48.327  26.261  36.587  1.00  0.00     0.124 S 
ATOM     66  O   UNL A   1      49.357  27.297  36.603  1.00  0.00    -0.237 OA
ATOM     67  O   UNL A   1      48.000  25.682  37.888  1.00  0.00    -0.237 OA
ATOM     68  O   UNL A   1      48.425  25.301  35.490  1.00  0.00    -0.744 OA
ENDBRANCH  64  65
ENDBRANCH  45  59
BRANCH  46  69
ATOM     69  C   UNL A   1      36.229  33.679  33.121  1.00  0.00    -0.014 A 
ATOM     70  C   UNL A   1      34.978  33.125  33.440  1.00  0.00     0.010 A 
ATOM     71  C   UNL A   1      36.280  34.935  32.487  1.00  0.00     0.010 A 
ATOM     72  C   UNL A   1      33.800  33.814  33.130  1.00  0.00     0.020 A 
ATOM     73  C   UNL A   1      35.108  35.638  32.199  1.00  0.00     0.020 A 
ATOM     74  C   UNL A   1      33.873  35.068  32.516  1.00  0.00     0.054 A 
BRANCH  74  75
ATOM     75  S   UNL A   1      32.336  35.976  32.189  1.00  0.00     0.124 S 
ATOM     76  O   UNL A   1      31.322  35.011  32.602  1.00  0.00    -0.237 OA
ATOM     77  O   UNL A   1      32.475  37.153  33.042  1.00  0.00    -0.237 OA
ATOM     78  O   UNL A   1      32.399  36.246  30.754  1.00  0.00    -0.744 OA
ENDBRANCH  74  75
ENDBRANCH  46  69
BRANCH  58  79
ATOM     79  C   UNL A   1      40.342  33.646  38.758  1.00  0.00    -0.014 A 
ATOM     80  C   UNL A   1      40.974  34.889  38.928  1.00  0.00     0.010 A 
ATOM     81  C   UNL A   1      39.580  33.111  39.812  1.00  0.00     0.010 A 
ATOM     82  C   UNL A   1      40.856  35.580  40.136  1.00  0.00     0.020 A 
ATOM     83  C   UNL A   1      39.441  33.810  41.014  1.00  0.00     0.020 A 
ATOM     84  C   UNL A   1      40.088  35.038  41.170  1.00  0.00     0.054 A 
BRANCH  84  85
ATOM     85  S   UNL A   1      39.894  35.987  42.705  1.00  0.00     0.124 S 
ATOM     86  O   UNL A   1      40.210  37.344  42.266  1.00  0.00    -0.237 OA
ATOM     87  O   UNL A   1      38.496  35.749  43.055  1.00  0.00    -0.237 OA
ATOM     88  O   UNL A   1      40.868  35.384  43.611  1.00  0.00    -0.744 OA
ENDBRANCH  84  85
ENDBRANCH  58  79
ENDBRANCH  32  33
ENDBRANCH  25  27
ENDBRANCH  24  25
ENDBRANCH   1  24
TORSDOF 16
ENDMDL
