MODEL 1
REMARK VINA RESULT:     -10.6      0.000      0.000
REMARK SMILES CC(C)(C)c1cc2c(cc1Cl)C=C(C(=O)OCCOC(=O)c1ccc(-c3c4nc(c(-c5ccc(S(=O)(=O)[O-])cc5)c5ccc([nH]5)c(-c5ccc(S(=O)(=O)[O-])cc5)c5nc(c(-c6ccc(S(=O)(=O)[O-])cc6)c6ccc3[nH]6)C=C5)C=C4)cc1)[C@@H](C(F)(F)F)O2
REMARK SMILES IDX 18 1 17 2 16 3 14 4 15 5 13 6 5 7 6 8 10 9 7 10 9 11 11 12
REMARK SMILES IDX 8 13 87 14 12 15 82 16 2 17 1 18 3 19 4 20 83 21 84 22 85 23
REMARK SMILES IDX 86 24 19 25 20 26 21 27 22 28 23 29 81 30 24 31 80 32 25 33
REMARK SMILES IDX 26 34 27 35 74 36 28 37 79 38 73 39 75 40 29 41 78 42 72 43
REMARK SMILES IDX 71 44 30 46 60 47 41 48 59 49 42 50 45 51 58 52 76 53 43 54
REMARK SMILES IDX 44 55 57 57 77 58 46 59 31 60 32 61 40 62 33 63 39 64 34 65
REMARK SMILES IDX 35 66 36 67 37 68 38 69 61 70 62 71 70 72 63 73 69 74 64 75
REMARK SMILES IDX 65 76 66 77 67 78 68 79 47 80 48 81 56 82 49 83 55 84 50 85
REMARK SMILES IDX 51 86 52 87 53 88 54 89
REMARK H PARENT 75 45 45 56
REMARK Flexibility Score: inf
ROOT
ATOM      1  C   UNL A   1      33.232  32.756  27.711  1.00  0.00     0.275 C 
ENDROOT
BRANCH   1   2
ATOM      2  C   UNL A   1      33.303  34.175  28.280  1.00  0.00     0.275 C 
BRANCH   2   3
ATOM      3  O   UNL A   1      33.086  34.188  29.710  1.00  0.00    -0.459 OA
BRANCH   3   4
ATOM      4  C   UNL A   1      33.598  35.257  30.362  1.00  0.00     0.338 C 
ATOM      5  O   UNL A   1      33.224  36.416  30.261  1.00  0.00    -0.246 OA
BRANCH   4   6
ATOM      6  C   UNL A   1      34.679  34.850  31.277  1.00  0.00     0.087 C 
ATOM      7  C   UNL A   1      37.817  32.046  34.113  1.00  0.00    -0.020 A 
ATOM      8  C   UNL A   1      37.399  33.411  34.101  1.00  0.00     0.053 A 
ATOM      9  C   UNL A   1      37.276  31.221  33.104  1.00  0.00     0.045 A 
ATOM     10  C   UNL A   1      36.528  33.930  33.139  1.00  0.00     0.128 A 
ATOM     11  C   UNL A   1      36.429  31.752  32.124  1.00  0.00     0.032 A 
ATOM     12  Cl  UNL A   1      37.491  29.513  32.980  1.00  0.00    -0.084 Cl
ATOM     13  C   UNL A   1      36.052  33.093  32.150  1.00  0.00     0.019 A 
ATOM     14  O   UNL A   1      36.190  35.252  33.233  1.00  0.00    -0.475 OA
ATOM     15  C   UNL A   1      35.108  33.588  31.180  1.00  0.00     0.027 C 
ATOM     16  C   UNL A   1      35.137  35.778  32.363  1.00  0.00     0.316 C 
BRANCH   7  17
ATOM     17  C   UNL A   1      38.745  31.569  35.259  1.00  0.00    -0.012 C 
ATOM     18  C   UNL A   1      38.082  30.694  36.350  1.00  0.00     0.016 C 
ATOM     19  C   UNL A   1      39.332  32.825  35.934  1.00  0.00     0.016 C 
ATOM     20  C   UNL A   1      39.914  30.702  34.721  1.00  0.00     0.016 C 
ENDBRANCH   7  17
BRANCH  16  21
ATOM     21  C   UNL A   1      33.954  36.235  33.234  1.00  0.00     0.430 C 
ATOM     22  F   UNL A   1      32.871  35.441  33.050  1.00  0.00    -0.167 F 
ATOM     23  F   UNL A   1      34.255  36.171  34.554  1.00  0.00    -0.167 F 
ATOM     24  F   UNL A   1      33.577  37.504  32.965  1.00  0.00    -0.167 F 
ENDBRANCH  16  21
ENDBRANCH   4   6
ENDBRANCH   3   4
ENDBRANCH   2   3
ENDBRANCH   1   2
BRANCH   1  25
ATOM     25  O   UNL A   1      34.384  31.990  28.102  1.00  0.00    -0.458 OA
BRANCH  25  26
ATOM     26  C   UNL A   1      34.280  30.657  27.901  1.00  0.00     0.338 C 
ATOM     27  O   UNL A   1      33.294  30.039  27.540  1.00  0.00    -0.246 OA
BRANCH  26  28
ATOM     28  C   UNL A   1      35.596  30.022  28.061  1.00  0.00     0.060 A 
ATOM     29  C   UNL A   1      36.610  30.193  27.127  1.00  0.00     0.016 A 
ATOM     30  C   UNL A   1      35.873  29.411  29.276  1.00  0.00     0.016 A 
ATOM     31  C   UNL A   1      37.900  29.742  27.437  1.00  0.00     0.010 A 
ATOM     32  C   UNL A   1      37.185  29.153  29.655  1.00  0.00     0.010 A 
ATOM     33  C   UNL A   1      38.224  29.268  28.728  1.00  0.00    -0.014 A 
BRANCH  33  34
ATOM     34  C   UNL A   1      39.623  28.891  29.103  1.00  0.00     0.031 A 
ATOM     35  C   UNL A   1      40.480  29.799  29.967  1.00  0.00     0.074 A 
ATOM     36  C   UNL A   1      40.148  27.733  28.645  1.00  0.00     0.049 A 
ATOM     37  N   UNL A   1      41.691  29.591  30.422  1.00  0.00    -0.248 NA
ATOM     38  C   UNL A   1      39.938  31.119  30.335  1.00  0.00     0.031 C 
ATOM     39  C   UNL A   1      39.488  26.816  27.712  1.00  0.00     0.029 A 
ATOM     40  N   UNL A   1      41.342  27.106  28.924  1.00  0.00    -0.354 N 
ATOM     41  C   UNL A   1      42.050  30.753  31.100  1.00  0.00     0.074 A 
ATOM     42  C   UNL A   1      40.975  31.697  30.922  1.00  0.00     0.031 C 
ATOM     43  C   UNL A   1      40.228  25.706  27.581  1.00  0.00     0.029 A 
ATOM     44  C   UNL A   1      41.447  25.849  28.371  1.00  0.00     0.049 A 
ATOM     45  H   UNL A   1      42.052  27.518  29.467  1.00  0.00     0.167 HD
ATOM     46  C   UNL A   1      43.146  30.999  31.856  1.00  0.00     0.031 A 
ATOM     47  C   UNL A   1      42.398  24.900  28.499  1.00  0.00     0.031 A 
ATOM     48  C   UNL A   1      44.182  30.032  32.096  1.00  0.00     0.049 A 
ATOM     49  C   UNL A   1      43.578  25.165  29.393  1.00  0.00     0.074 A 
ATOM     50  C   UNL A   1      45.283  30.148  32.926  1.00  0.00     0.029 A 
ATOM     51  N   UNL A   1      44.238  28.769  31.529  1.00  0.00    -0.354 N 
ATOM     52  N   UNL A   1      43.842  26.234  30.106  1.00  0.00    -0.248 NA
ATOM     53  C   UNL A   1      44.582  24.098  29.513  1.00  0.00     0.031 C 
ATOM     54  C   UNL A   1      46.037  28.980  32.812  1.00  0.00     0.029 A 
ATOM     55  C   UNL A   1      45.368  28.105  31.972  1.00  0.00     0.049 A 
ATOM     56  H   UNL A   1      43.572  28.399  30.904  1.00  0.00     0.167 HD
ATOM     57  C   UNL A   1      45.034  25.964  30.768  1.00  0.00     0.074 A 
ATOM     58  C   UNL A   1      45.425  24.621  30.395  1.00  0.00     0.031 C 
ATOM     59  C   UNL A   1      45.745  26.764  31.598  1.00  0.00     0.031 A 
BRANCH  46  60
ATOM     60  C   UNL A   1      43.264  32.335  32.551  1.00  0.00    -0.014 A 
ATOM     61  C   UNL A   1      42.654  32.538  33.803  1.00  0.00     0.010 A 
ATOM     62  C   UNL A   1      43.859  33.433  31.900  1.00  0.00     0.010 A 
ATOM     63  C   UNL A   1      42.596  33.816  34.368  1.00  0.00     0.020 A 
ATOM     64  C   UNL A   1      43.836  34.705  32.478  1.00  0.00     0.020 A 
ATOM     65  C   UNL A   1      43.178  34.893  33.695  1.00  0.00     0.054 A 
BRANCH  65  66
ATOM     66  S   UNL A   1      43.040  36.555  34.411  1.00  0.00     0.124 S 
ATOM     67  O   UNL A   1      43.239  37.410  33.245  1.00  0.00    -0.237 OA
ATOM     68  O   UNL A   1      41.690  36.550  34.969  1.00  0.00    -0.237 OA
ATOM     69  O   UNL A   1      44.113  36.590  35.403  1.00  0.00    -0.744 OA
ENDBRANCH  65  66
ENDBRANCH  46  60
BRANCH  47  70
ATOM     70  C   UNL A   1      42.212  23.584  27.820  1.00  0.00    -0.014 A 
ATOM     71  C   UNL A   1      41.441  22.569  28.418  1.00  0.00     0.010 A 
ATOM     72  C   UNL A   1      42.884  23.304  26.615  1.00  0.00     0.010 A 
ATOM     73  C   UNL A   1      41.396  21.287  27.862  1.00  0.00     0.020 A 
ATOM     74  C   UNL A   1      42.813  22.032  26.036  1.00  0.00     0.020 A 
ATOM     75  C   UNL A   1      42.096  21.023  26.682  1.00  0.00     0.054 A 
BRANCH  75  76
ATOM     76  S   UNL A   1      42.076  19.335  26.016  1.00  0.00     0.124 S 
ATOM     77  O   UNL A   1      42.946  19.463  24.850  1.00  0.00    -0.237 OA
ATOM     78  O   UNL A   1      42.616  18.548  27.120  1.00  0.00    -0.237 OA
ATOM     79  O   UNL A   1      40.664  19.101  25.719  1.00  0.00    -0.744 OA
ENDBRANCH  75  76
ENDBRANCH  47  70
BRANCH  59  80
ATOM     80  C   UNL A   1      47.034  26.238  32.172  1.00  0.00    -0.014 A 
ATOM     81  C   UNL A   1      48.225  26.341  31.427  1.00  0.00     0.010 A 
ATOM     82  C   UNL A   1      47.037  25.505  33.372  1.00  0.00     0.010 A 
ATOM     83  C   UNL A   1      49.383  25.684  31.849  1.00  0.00     0.020 A 
ATOM     84  C   UNL A   1      48.203  24.875  33.813  1.00  0.00     0.020 A 
ATOM     85  C   UNL A   1      49.361  24.944  33.034  1.00  0.00     0.054 A 
BRANCH  85  86
ATOM     86  S   UNL A   1      50.860  24.058  33.539  1.00  0.00     0.124 S 
ATOM     87  O   UNL A   1      50.861  22.914  32.632  1.00  0.00    -0.237 OA
ATOM     88  O   UNL A   1      51.910  25.047  33.307  1.00  0.00    -0.237 OA
ATOM     89  O   UNL A   1      50.614  23.741  34.943  1.00  0.00    -0.744 OA
ENDBRANCH  85  86
ENDBRANCH  59  80
ENDBRANCH  33  34
ENDBRANCH  26  28
ENDBRANCH  25  26
ENDBRANCH   1  25
TORSDOF 16
ENDMDL
MODEL 2
REMARK VINA RESULT:     -10.6      4.158      6.783
REMARK SMILES CC(C)(C)c1cc2c(cc1Cl)C=C(C(=O)OCCOC(=O)c1ccc(-c3c4nc(c(-c5ccc(S(=O)(=O)[O-])cc5)c5ccc([nH]5)c(-c5ccc(S(=O)(=O)[O-])cc5)c5nc(c(-c6ccc(S(=O)(=O)[O-])cc6)c6ccc3[nH]6)C=C5)C=C4)cc1)[C@@H](C(F)(F)F)O2
REMARK SMILES IDX 18 1 17 2 16 3 14 4 15 5 13 6 5 7 6 8 10 9 7 10 9 11 11 12
REMARK SMILES IDX 8 13 87 14 12 15 82 16 2 17 1 18 3 19 4 20 83 21 84 22 85 23
REMARK SMILES IDX 86 24 19 25 20 26 21 27 22 28 23 29 81 30 24 31 80 32 25 33
REMARK SMILES IDX 26 34 27 35 74 36 28 37 79 38 73 39 75 40 29 41 78 42 72 43
REMARK SMILES IDX 71 44 30 46 60 47 41 48 59 49 42 50 45 51 58 52 76 53 43 54
REMARK SMILES IDX 44 55 57 57 77 58 46 59 31 60 32 61 40 62 33 63 39 64 34 65
REMARK SMILES IDX 35 66 36 67 37 68 38 69 61 70 62 71 70 72 63 73 69 74 64 75
REMARK SMILES IDX 65 76 66 77 67 78 68 79 47 80 48 81 56 82 49 83 55 84 50 85
REMARK SMILES IDX 51 86 52 87 53 88 54 89
REMARK H PARENT 75 45 45 56
REMARK Flexibility Score: inf
ROOT
ATOM      1  C   UNL A   1      32.215  30.543  26.864  1.00  0.00     0.275 C 
ENDROOT
BRANCH   1   2
ATOM      2  C   UNL A   1      31.711  30.117  25.483  1.00  0.00     0.275 C 
BRANCH   2   3
ATOM      3  O   UNL A   1      31.137  28.791  25.508  1.00  0.00    -0.459 OA
BRANCH   3   4
ATOM      4  C   UNL A   1      30.950  28.218  24.296  1.00  0.00     0.338 C 
ATOM      5  O   UNL A   1      30.141  28.563  23.449  1.00  0.00    -0.246 OA
BRANCH   4   6
ATOM      6  C   UNL A   1      31.896  27.108  24.085  1.00  0.00     0.087 C 
ATOM      7  C   UNL A   1      35.144  23.297  24.909  1.00  0.00    -0.020 A 
ATOM      8  C   UNL A   1      34.869  24.186  23.827  1.00  0.00     0.053 A 
ATOM      9  C   UNL A   1      34.338  23.448  26.058  1.00  0.00     0.045 A 
ATOM     10  C   UNL A   1      33.849  25.140  23.868  1.00  0.00     0.128 A 
ATOM     11  C   UNL A   1      33.297  24.384  26.083  1.00  0.00     0.032 A 
ATOM     12  Cl  UNL A   1      34.555  22.614  27.554  1.00  0.00    -0.084 Cl
ATOM     13  C   UNL A   1      33.063  25.228  25.001  1.00  0.00     0.019 A 
ATOM     14  O   UNL A   1      33.684  25.945  22.774  1.00  0.00    -0.475 OA
ATOM     15  C   UNL A   1      32.042  26.241  25.092  1.00  0.00     0.027 C 
ATOM     16  C   UNL A   1      32.758  27.075  22.858  1.00  0.00     0.316 C 
BRANCH   7  17
ATOM     17  C   UNL A   1      36.334  22.314  24.772  1.00  0.00    -0.012 C 
ATOM     18  C   UNL A   1      37.497  22.512  25.774  1.00  0.00     0.016 C 
ATOM     19  C   UNL A   1      36.895  22.460  23.343  1.00  0.00     0.016 C 
ATOM     20  C   UNL A   1      35.886  20.843  24.981  1.00  0.00     0.016 C 
ENDBRANCH   7  17
BRANCH  16  21
ATOM     21  C   UNL A   1      33.553  28.383  22.708  1.00  0.00     0.430 C 
ATOM     22  F   UNL A   1      34.234  28.679  23.842  1.00  0.00    -0.167 F 
ATOM     23  F   UNL A   1      34.478  28.291  21.721  1.00  0.00    -0.167 F 
ATOM     24  F   UNL A   1      32.760  29.438  22.424  1.00  0.00    -0.167 F 
ENDBRANCH  16  21
ENDBRANCH   4   6
ENDBRANCH   3   4
ENDBRANCH   2   3
ENDBRANCH   1   2
BRANCH   1  25
ATOM     25  O   UNL A   1      33.649  30.464  26.931  1.00  0.00    -0.458 OA
BRANCH  25  26
ATOM     26  C   UNL A   1      34.242  31.443  27.652  1.00  0.00     0.338 C 
ATOM     27  O   UNL A   1      33.733  32.471  28.061  1.00  0.00    -0.246 OA
BRANCH  26  28
ATOM     28  C   UNL A   1      35.612  31.044  28.005  1.00  0.00     0.060 A 
ATOM     29  C   UNL A   1      36.623  31.979  28.188  1.00  0.00     0.016 A 
ATOM     30  C   UNL A   1      35.827  29.718  28.354  1.00  0.00     0.016 A 
ATOM     31  C   UNL A   1      37.846  31.557  28.727  1.00  0.00     0.010 A 
ATOM     32  C   UNL A   1      36.960  29.350  29.071  1.00  0.00     0.010 A 
ATOM     33  C   UNL A   1      38.016  30.249  29.233  1.00  0.00    -0.014 A 
BRANCH  33  34
ATOM     34  C   UNL A   1      39.279  29.824  29.913  1.00  0.00     0.031 A 
ATOM     35  C   UNL A   1      39.715  30.444  31.228  1.00  0.00     0.074 A 
ATOM     36  C   UNL A   1      40.066  28.887  29.338  1.00  0.00     0.049 A 
ATOM     37  N   UNL A   1      40.754  30.148  31.969  1.00  0.00    -0.248 NA
ATOM     38  C   UNL A   1      38.918  31.563  31.764  1.00  0.00     0.031 C 
ATOM     39  C   UNL A   1      39.838  28.286  28.020  1.00  0.00     0.029 A 
ATOM     40  N   UNL A   1      41.196  28.247  29.794  1.00  0.00    -0.354 N 
ATOM     41  C   UNL A   1      40.740  31.051  33.029  1.00  0.00     0.074 A 
ATOM     42  C   UNL A   1      39.650  31.964  32.793  1.00  0.00     0.031 C 
ATOM     43  C   UNL A   1      40.724  27.301  27.822  1.00  0.00     0.029 A 
ATOM     44  C   UNL A   1      41.626  27.231  28.968  1.00  0.00     0.049 A 
ATOM     45  H   UNL A   1      41.653  28.493  30.629  1.00  0.00     0.167 HD
ATOM     46  C   UNL A   1      41.521  31.086  34.134  1.00  0.00     0.031 A 
ATOM     47  C   UNL A   1      42.614  26.325  29.118  1.00  0.00     0.031 A 
ATOM     48  C   UNL A   1      42.559  30.129  34.408  1.00  0.00     0.049 A 
ATOM     49  C   UNL A   1      43.432  26.338  30.380  1.00  0.00     0.074 A 
ATOM     50  C   UNL A   1      43.340  30.019  35.544  1.00  0.00     0.029 A 
ATOM     51  N   UNL A   1      42.947  29.111  33.552  1.00  0.00    -0.354 N 
ATOM     52  N   UNL A   1      43.329  27.138  31.415  1.00  0.00    -0.248 NA
ATOM     53  C   UNL A   1      44.488  25.324  30.506  1.00  0.00     0.031 C 
ATOM     54  C   UNL A   1      44.243  28.973  35.350  1.00  0.00     0.029 A 
ATOM     55  C   UNL A   1      43.974  28.382  34.125  1.00  0.00     0.049 A 
ATOM     56  H   UNL A   1      42.550  28.933  32.668  1.00  0.00     0.167 HD
ATOM     57  C   UNL A   1      44.298  26.717  32.318  1.00  0.00     0.074 A 
ATOM     58  C   UNL A   1      44.956  25.573  31.723  1.00  0.00     0.031 C 
ATOM     59  C   UNL A   1      44.619  27.241  33.526  1.00  0.00     0.031 A 
BRANCH  46  60
ATOM     60  C   UNL A   1      41.250  32.140  35.182  1.00  0.00    -0.014 A 
ATOM     61  C   UNL A   1      40.247  31.936  36.148  1.00  0.00     0.010 A 
ATOM     62  C   UNL A   1      41.892  33.392  35.123  1.00  0.00     0.010 A 
ATOM     63  C   UNL A   1      39.860  32.973  37.002  1.00  0.00     0.020 A 
ATOM     64  C   UNL A   1      41.534  34.420  35.999  1.00  0.00     0.020 A 
ATOM     65  C   UNL A   1      40.498  34.213  36.914  1.00  0.00     0.054 A 
BRANCH  65  66
ATOM     66  S   UNL A   1      39.943  35.567  37.986  1.00  0.00     0.124 S 
ATOM     67  O   UNL A   1      41.065  35.710  38.908  1.00  0.00    -0.237 OA
ATOM     68  O   UNL A   1      39.757  36.666  37.041  1.00  0.00    -0.237 OA
ATOM     69  O   UNL A   1      38.709  35.052  38.577  1.00  0.00    -0.744 OA
ENDBRANCH  65  66
ENDBRANCH  46  60
BRANCH  47  70
ATOM     70  C   UNL A   1      42.814  25.282  28.069  1.00  0.00    -0.014 A 
ATOM     71  C   UNL A   1      42.191  24.024  28.178  1.00  0.00     0.010 A 
ATOM     72  C   UNL A   1      43.702  25.508  27.001  1.00  0.00     0.010 A 
ATOM     73  C   UNL A   1      42.502  22.996  27.284  1.00  0.00     0.020 A 
ATOM     74  C   UNL A   1      43.989  24.492  26.082  1.00  0.00     0.020 A 
ATOM     75  C   UNL A   1      43.411  23.233  26.249  1.00  0.00     0.054 A 
BRANCH  75  76
ATOM     76  S   UNL A   1      43.846  21.864  25.140  1.00  0.00     0.124 S 
ATOM     77  O   UNL A   1      42.829  20.871  25.476  1.00  0.00    -0.237 OA
ATOM     78  O   UNL A   1      43.722  22.470  23.818  1.00  0.00    -0.237 OA
ATOM     79  O   UNL A   1      45.210  21.520  25.539  1.00  0.00    -0.744 OA
ENDBRANCH  75  76
ENDBRANCH  47  70
BRANCH  59  80
ATOM     80  C   UNL A   1      45.740  26.607  34.307  1.00  0.00    -0.014 A 
ATOM     81  C   UNL A   1      45.447  25.647  35.296  1.00  0.00     0.010 A 
ATOM     82  C   UNL A   1      47.059  27.073  34.173  1.00  0.00     0.010 A 
ATOM     83  C   UNL A   1      46.444  25.200  36.165  1.00  0.00     0.020 A 
ATOM     84  C   UNL A   1      48.066  26.601  35.019  1.00  0.00     0.020 A 
ATOM     85  C   UNL A   1      47.746  25.690  36.029  1.00  0.00     0.054 A 
BRANCH  85  86
ATOM     86  S   UNL A   1      49.016  25.133  37.197  1.00  0.00     0.124 S 
ATOM     87  O   UNL A   1      50.058  24.635  36.304  1.00  0.00    -0.237 OA
ATOM     88  O   UNL A   1      49.342  26.358  37.924  1.00  0.00    -0.237 OA
ATOM     89  O   UNL A   1      48.330  24.113  37.987  1.00  0.00    -0.744 OA
ENDBRANCH  85  86
ENDBRANCH  59  80
ENDBRANCH  33  34
ENDBRANCH  26  28
ENDBRANCH  25  26
ENDBRANCH   1  25
TORSDOF 16
ENDMDL
MODEL 3
REMARK VINA RESULT:     -10.6      5.356     11.336
REMARK SMILES CC(C)(C)c1cc2c(cc1Cl)C=C(C(=O)OCCOC(=O)c1ccc(-c3c4nc(c(-c5ccc(S(=O)(=O)[O-])cc5)c5ccc([nH]5)c(-c5ccc(S(=O)(=O)[O-])cc5)c5nc(c(-c6ccc(S(=O)(=O)[O-])cc6)c6ccc3[nH]6)C=C5)C=C4)cc1)[C@@H](C(F)(F)F)O2
REMARK SMILES IDX 18 1 17 2 16 3 14 4 15 5 13 6 5 7 6 8 10 9 7 10 9 11 11 12
REMARK SMILES IDX 8 13 87 14 12 15 82 16 2 17 1 18 3 19 4 20 83 21 84 22 85 23
REMARK SMILES IDX 86 24 19 25 20 26 21 27 22 28 23 29 81 30 24 31 80 32 25 33
REMARK SMILES IDX 26 34 27 35 74 36 28 37 79 38 73 39 75 40 29 41 78 42 72 43
REMARK SMILES IDX 71 44 30 46 60 47 41 48 59 49 42 50 45 51 58 52 76 53 43 54
REMARK SMILES IDX 44 55 57 57 77 58 46 59 31 60 32 61 40 62 33 63 39 64 34 65
REMARK SMILES IDX 35 66 36 67 37 68 38 69 61 70 62 71 70 72 63 73 69 74 64 75
REMARK SMILES IDX 65 76 66 77 67 78 68 79 47 80 48 81 56 82 49 83 55 84 50 85
REMARK SMILES IDX 51 86 52 87 53 88 54 89
REMARK H PARENT 75 45 45 56
REMARK Flexibility Score: inf
ROOT
ATOM      1  C   UNL A   1      37.426  21.090  24.851  1.00  0.00     0.275 C 
ENDROOT
BRANCH   1   2
ATOM      2  C   UNL A   1      35.965  20.688  25.068  1.00  0.00     0.275 C 
BRANCH   2   3
ATOM      3  O   UNL A   1      35.077  21.403  24.178  1.00  0.00    -0.459 OA
BRANCH   3   4
ATOM      4  C   UNL A   1      33.763  21.337  24.497  1.00  0.00     0.338 C 
ATOM      5  O   UNL A   1      33.055  20.342  24.448  1.00  0.00    -0.246 OA
BRANCH   4   6
ATOM      6  C   UNL A   1      33.267  22.643  24.965  1.00  0.00     0.087 C 
ATOM      7  C   UNL A   1      32.724  27.637  25.684  1.00  0.00    -0.020 A 
ATOM      8  C   UNL A   1      32.339  26.457  26.390  1.00  0.00     0.053 A 
ATOM      9  C   UNL A   1      33.414  27.437  24.469  1.00  0.00     0.045 A 
ATOM     10  C   UNL A   1      32.594  25.169  25.912  1.00  0.00     0.128 A 
ATOM     11  C   UNL A   1      33.640  26.145  23.979  1.00  0.00     0.032 A 
ATOM     12  Cl  UNL A   1      34.123  28.677  23.500  1.00  0.00    -0.084 Cl
ATOM     13  C   UNL A   1      33.241  25.023  24.701  1.00  0.00     0.019 A 
ATOM     14  O   UNL A   1      32.186  24.113  26.680  1.00  0.00    -0.475 OA
ATOM     15  C   UNL A   1      33.567  23.706  24.213  1.00  0.00     0.027 C 
ATOM     16  C   UNL A   1      32.606  22.761  26.305  1.00  0.00     0.316 C 
BRANCH   7  17
ATOM     17  C   UNL A   1      32.436  29.013  26.335  1.00  0.00    -0.012 C 
ATOM     18  C   UNL A   1      33.675  29.833  26.767  1.00  0.00     0.016 C 
ATOM     19  C   UNL A   1      31.561  28.765  27.579  1.00  0.00     0.016 C 
ATOM     20  C   UNL A   1      31.667  29.951  25.366  1.00  0.00     0.016 C 
ENDBRANCH   7  17
BRANCH  16  21
ATOM     21  C   UNL A   1      33.505  22.194  27.417  1.00  0.00     0.430 C 
ATOM     22  F   UNL A   1      33.579  20.842  27.348  1.00  0.00    -0.167 F 
ATOM     23  F   UNL A   1      34.776  22.652  27.311  1.00  0.00    -0.167 F 
ATOM     24  F   UNL A   1      33.060  22.513  28.652  1.00  0.00    -0.167 F 
ENDBRANCH  16  21
ENDBRANCH   4   6
ENDBRANCH   3   4
ENDBRANCH   2   3
ENDBRANCH   1   2
BRANCH   1  25
ATOM     25  O   UNL A   1      37.872  21.975  25.894  1.00  0.00    -0.458 OA
BRANCH  25  26
ATOM     26  C   UNL A   1      39.145  21.779  26.304  1.00  0.00     0.338 C 
ATOM     27  O   UNL A   1      39.852  20.812  26.084  1.00  0.00    -0.246 OA
BRANCH  26  28
ATOM     28  C   UNL A   1      39.644  22.984  26.982  1.00  0.00     0.060 A 
ATOM     29  C   UNL A   1      40.705  22.936  27.877  1.00  0.00     0.016 A 
ATOM     30  C   UNL A   1      39.160  24.212  26.551  1.00  0.00     0.016 A 
ATOM     31  C   UNL A   1      41.269  24.138  28.326  1.00  0.00     0.010 A 
ATOM     32  C   UNL A   1      39.850  25.384  26.839  1.00  0.00     0.010 A 
ATOM     33  C   UNL A   1      40.891  25.381  27.770  1.00  0.00    -0.014 A 
BRANCH  33  34
ATOM     34  C   UNL A   1      41.566  26.658  28.160  1.00  0.00     0.031 A 
ATOM     35  C   UNL A   1      43.007  26.939  27.773  1.00  0.00     0.074 A 
ATOM     36  C   UNL A   1      40.894  27.572  28.895  1.00  0.00     0.049 A 
ATOM     37  N   UNL A   1      43.717  28.019  27.989  1.00  0.00    -0.248 NA
ATOM     38  C   UNL A   1      43.764  25.870  27.097  1.00  0.00     0.031 C 
ATOM     39  C   UNL A   1      39.546  27.392  29.440  1.00  0.00     0.029 A 
ATOM     40  N   UNL A   1      41.232  28.849  29.283  1.00  0.00    -0.354 N 
ATOM     41  C   UNL A   1      44.992  27.744  27.500  1.00  0.00     0.074 A 
ATOM     42  C   UNL A   1      44.990  26.371  27.061  1.00  0.00     0.031 C 
ATOM     43  C   UNL A   1      39.133  28.541  29.993  1.00  0.00     0.029 A 
ATOM     44  C   UNL A   1      40.203  29.528  29.900  1.00  0.00     0.049 A 
ATOM     45  H   UNL A   1      42.123  29.238  29.135  1.00  0.00     0.167 HD
ATOM     46  C   UNL A   1      46.055  28.571  27.369  1.00  0.00     0.031 A 
ATOM     47  C   UNL A   1      40.113  30.807  30.322  1.00  0.00     0.031 A 
ATOM     48  C   UNL A   1      46.033  29.961  27.736  1.00  0.00     0.049 A 
ATOM     49  C   UNL A   1      41.281  31.730  30.111  1.00  0.00     0.074 A 
ATOM     50  C   UNL A   1      47.025  30.908  27.551  1.00  0.00     0.029 A 
ATOM     51  N   UNL A   1      44.968  30.607  28.340  1.00  0.00    -0.354 N 
ATOM     52  N   UNL A   1      42.439  31.472  29.550  1.00  0.00    -0.248 NA
ATOM     53  C   UNL A   1      41.132  33.117  30.573  1.00  0.00     0.031 C 
ATOM     54  C   UNL A   1      46.583  32.112  28.101  1.00  0.00     0.029 A 
ATOM     55  C   UNL A   1      45.286  31.936  28.558  1.00  0.00     0.049 A 
ATOM     56  H   UNL A   1      44.111  30.184  28.579  1.00  0.00     0.167 HD
ATOM     57  C   UNL A   1      43.151  32.665  29.583  1.00  0.00     0.074 A 
ATOM     58  C   UNL A   1      42.283  33.654  30.189  1.00  0.00     0.031 C 
ATOM     59  C   UNL A   1      44.413  32.914  29.159  1.00  0.00     0.031 A 
BRANCH  46  60
ATOM     60  C   UNL A   1      47.317  28.037  26.734  1.00  0.00    -0.014 A 
ATOM     61  C   UNL A   1      48.493  27.909  27.497  1.00  0.00     0.010 A 
ATOM     62  C   UNL A   1      47.378  27.795  25.348  1.00  0.00     0.010 A 
ATOM     63  C   UNL A   1      49.710  27.595  26.883  1.00  0.00     0.020 A 
ATOM     64  C   UNL A   1      48.584  27.445  24.736  1.00  0.00     0.020 A 
ATOM     65  C   UNL A   1      49.748  27.377  25.503  1.00  0.00     0.054 A 
BRANCH  65  66
ATOM     66  S   UNL A   1      51.344  27.032  24.712  1.00  0.00     0.124 S 
ATOM     67  O   UNL A   1      51.704  25.742  25.291  1.00  0.00    -0.237 OA
ATOM     68  O   UNL A   1      50.998  27.013  23.292  1.00  0.00    -0.237 OA
ATOM     69  O   UNL A   1      52.181  28.158  25.123  1.00  0.00    -0.744 OA
ENDBRANCH  65  66
ENDBRANCH  46  60
BRANCH  47  70
ATOM     70  C   UNL A   1      38.829  31.293  30.908  1.00  0.00    -0.014 A 
ATOM     71  C   UNL A   1      37.851  31.898  30.094  1.00  0.00     0.010 A 
ATOM     72  C   UNL A   1      38.615  31.237  32.297  1.00  0.00     0.010 A 
ATOM     73  C   UNL A   1      36.722  32.494  30.663  1.00  0.00     0.020 A 
ATOM     74  C   UNL A   1      37.468  31.801  32.867  1.00  0.00     0.020 A 
ATOM     75  C   UNL A   1      36.545  32.455  32.049  1.00  0.00     0.054 A 
BRANCH  75  76
ATOM     76  S   UNL A   1      35.105  33.292  32.768  1.00  0.00     0.124 S 
ATOM     77  O   UNL A   1      35.348  34.682  32.394  1.00  0.00    -0.237 OA
ATOM     78  O   UNL A   1      33.986  32.645  32.090  1.00  0.00    -0.237 OA
ATOM     79  O   UNL A   1      35.217  33.000  34.196  1.00  0.00    -0.744 OA
ENDBRANCH  75  76
ENDBRANCH  47  70
BRANCH  59  80
ATOM     80  C   UNL A   1      44.968  34.303  29.332  1.00  0.00    -0.014 A 
ATOM     81  C   UNL A   1      45.562  34.671  30.555  1.00  0.00     0.010 A 
ATOM     82  C   UNL A   1      44.761  35.284  28.347  1.00  0.00     0.010 A 
ATOM     83  C   UNL A   1      45.897  36.003  30.807  1.00  0.00     0.020 A 
ATOM     84  C   UNL A   1      45.127  36.611  28.583  1.00  0.00     0.020 A 
ATOM     85  C   UNL A   1      45.666  36.968  29.822  1.00  0.00     0.054 A 
BRANCH  85  86
ATOM     86  S   UNL A   1      46.063  38.699  30.186  1.00  0.00     0.124 S 
ATOM     87  O   UNL A   1      47.208  38.942  29.314  1.00  0.00    -0.237 OA
ATOM     88  O   UNL A   1      44.833  39.395  29.818  1.00  0.00    -0.237 OA
ATOM     89  O   UNL A   1      46.359  38.689  31.617  1.00  0.00    -0.744 OA
ENDBRANCH  85  86
ENDBRANCH  59  80
ENDBRANCH  33  34
ENDBRANCH  26  28
ENDBRANCH  25  26
ENDBRANCH   1  25
TORSDOF 16
ENDMDL
