MODEL 1
REMARK VINA RESULT:     -12.1      0.000      0.000
REMARK SMILES CC(C)Nc1ncc(C(=O)N2CCC[C@H](c3cccc(C(=O)OCCOC(=O)c4ccc(-c5c6nc(c(-c7ccc(S(=O)(=O)[O-])cc7)c7ccc([nH]7)c(-c7ccc(S(=O)(=O)[O-])cc7)c7nc(c(-c8ccc(S(=O)(=O)[O-])cc8)c8ccc5[nH]8)C=C7)C=C6)cc4)c3)C2)cn1
REMARK SMILES IDX 24 1 23 2 21 3 22 4 20 5 16 6 17 7 89 8 18 9 19 10 15 11
REMARK SMILES IDX 11 12 12 13 90 14 13 15 14 16 9 17 10 18 8 19 5 20 6 21
REMARK SMILES IDX 92 22 7 23 91 24 4 25 2 27 1 28 3 29 25 30 26 31 27 32 28 33
REMARK SMILES IDX 29 34 30 35 88 36 31 37 87 38 32 39 33 40 34 41 81 42 35 43
REMARK SMILES IDX 86 44 80 45 82 46 36 47 85 48 79 49 78 50 37 52 67 53 48 54
REMARK SMILES IDX 66 55 49 56 52 57 65 58 83 59 50 60 51 61 64 63 84 64 53 65
REMARK SMILES IDX 38 66 39 67 47 68 40 69 46 70 41 71 42 72 43 73 44 74 45 75
REMARK SMILES IDX 68 76 69 77 77 78 70 79 76 80 71 81 72 82 73 83 74 84 75 85
REMARK SMILES IDX 54 86 55 87 63 88 56 89 62 90 57 91 58 92 59 93 60 94 61 95
REMARK H PARENT 4 26 82 51 52 62
REMARK Flexibility Score: inf
ROOT
ATOM      1  C   UNL A   1      33.847  32.029  27.875  1.00  0.00     0.275 C 
ENDROOT
BRANCH   1   2
ATOM      2  O   UNL A   1      33.834  30.821  27.087  1.00  0.00    -0.458 OA
BRANCH   2   3
ATOM      3  C   UNL A   1      32.615  30.409  26.653  1.00  0.00     0.338 C 
ATOM      4  O   UNL A   1      31.634  31.112  26.477  1.00  0.00    -0.246 OA
BRANCH   3   5
ATOM      5  C   UNL A   1      32.658  28.972  26.284  1.00  0.00     0.060 A 
ATOM      6  C   UNL A   1      31.604  26.927  25.489  1.00  0.00    -0.042 A 
ATOM      7  C   UNL A   1      32.815  26.254  25.711  1.00  0.00     0.004 A 
ATOM      8  C   UNL A   1      31.512  28.271  25.902  1.00  0.00     0.019 A 
ATOM      9  C   UNL A   1      33.962  26.950  26.077  1.00  0.00     0.001 A 
ATOM     10  C   UNL A   1      33.895  28.321  26.278  1.00  0.00     0.016 A 
BRANCH   6  11
ATOM     11  C   UNL A   1      30.452  26.288  24.708  1.00  0.00     0.039 C 
ATOM     12  N   UNL A   1      31.743  25.004  22.969  1.00  0.00    -0.338 N 
ATOM     13  C   UNL A   1      31.458  25.988  21.928  1.00  0.00     0.120 C 
ATOM     14  C   UNL A   1      30.760  24.901  24.067  1.00  0.00     0.128 C 
ATOM     15  C   UNL A   1      31.094  27.353  22.491  1.00  0.00     0.022 C 
ATOM     16  C   UNL A   1      29.998  27.223  23.554  1.00  0.00     0.012 C 
BRANCH  12  17
ATOM     17  C   UNL A   1      32.956  24.320  22.903  1.00  0.00     0.257 C 
ATOM     18  O   UNL A   1      33.894  24.687  22.200  1.00  0.00    -0.269 OA
BRANCH  17  19
ATOM     19  C   UNL A   1      33.111  23.038  23.603  1.00  0.00     0.076 A 
ATOM     20  C   UNL A   1      33.650  20.570  24.625  1.00  0.00     0.222 A 
ATOM     21  N   UNL A   1      32.651  20.683  23.735  1.00  0.00    -0.221 NA
ATOM     22  N   UNL A   1      34.391  21.605  25.046  1.00  0.00    -0.221 NA
ATOM     23  C   UNL A   1      32.405  21.916  23.242  1.00  0.00     0.130 A 
ATOM     24  C   UNL A   1      34.125  22.817  24.504  1.00  0.00     0.130 A 
BRANCH  20  25
ATOM     25  N   UNL A   1      33.888  19.301  25.067  1.00  0.00    -0.352 N 
ATOM     26  H   UNL A   1      34.529  19.171  25.804  1.00  0.00     0.163 HD
BRANCH  25  27
ATOM     27  C   UNL A   1      33.242  18.138  24.501  1.00  0.00     0.076 C 
ATOM     28  C   UNL A   1      34.308  17.323  23.767  1.00  0.00     0.030 C 
ATOM     29  C   UNL A   1      32.604  17.309  25.610  1.00  0.00     0.030 C 
ENDBRANCH  25  27
ENDBRANCH  20  25
ENDBRANCH  17  19
ENDBRANCH  12  17
ENDBRANCH   6  11
ENDBRANCH   3   5
ENDBRANCH   2   3
ENDBRANCH   1   2
BRANCH   1  30
ATOM     30  C   UNL A   1      34.948  31.972  28.934  1.00  0.00     0.275 C 
BRANCH  30  31
ATOM     31  O   UNL A   1      35.559  30.670  28.949  1.00  0.00    -0.458 OA
BRANCH  31  32
ATOM     32  C   UNL A   1      36.330  30.397  30.027  1.00  0.00     0.338 C 
ATOM     33  O   UNL A   1      36.044  30.546  31.202  1.00  0.00    -0.246 OA
BRANCH  32  34
ATOM     34  C   UNL A   1      37.596  29.793  29.584  1.00  0.00     0.060 A 
ATOM     35  C   UNL A   1      38.434  29.259  30.555  1.00  0.00     0.016 A 
ATOM     36  C   UNL A   1      38.030  29.882  28.267  1.00  0.00     0.016 A 
ATOM     37  C   UNL A   1      39.749  28.921  30.254  1.00  0.00     0.010 A 
ATOM     38  C   UNL A   1      39.315  29.427  27.937  1.00  0.00     0.010 A 
ATOM     39  C   UNL A   1      40.208  28.980  28.933  1.00  0.00    -0.014 A 
BRANCH  39  40
ATOM     40  C   UNL A   1      41.620  28.619  28.605  1.00  0.00     0.031 A 
ATOM     41  C   UNL A   1      42.707  29.665  28.679  1.00  0.00     0.074 A 
ATOM     42  C   UNL A   1      41.947  27.356  28.261  1.00  0.00     0.049 A 
ATOM     43  N   UNL A   1      43.951  29.598  28.275  1.00  0.00    -0.248 NA
ATOM     44  C   UNL A   1      42.341  30.960  29.273  1.00  0.00     0.031 C 
ATOM     45  C   UNL A   1      41.025  26.218  28.213  1.00  0.00     0.029 A 
ATOM     46  N   UNL A   1      43.156  26.811  27.896  1.00  0.00    -0.354 N 
ATOM     47  C   UNL A   1      44.496  30.857  28.507  1.00  0.00     0.074 A 
ATOM     48  C   UNL A   1      43.442  31.670  29.076  1.00  0.00     0.031 C 
ATOM     49  C   UNL A   1      41.707  25.108  27.896  1.00  0.00     0.029 A 
ATOM     50  C   UNL A   1      43.092  25.466  27.613  1.00  0.00     0.049 A 
ATOM     51  H   UNL A   1      43.989  27.333  27.843  1.00  0.00     0.167 HD
ATOM     52  C   UNL A   1      45.755  31.298  28.268  1.00  0.00     0.031 A 
ATOM     53  C   UNL A   1      44.023  24.616  27.136  1.00  0.00     0.031 A 
ATOM     54  C   UNL A   1      46.810  30.477  27.730  1.00  0.00     0.049 A 
ATOM     55  C   UNL A   1      45.393  25.140  26.810  1.00  0.00     0.074 A 
ATOM     56  C   UNL A   1      48.120  30.829  27.452  1.00  0.00     0.029 A 
ATOM     57  N   UNL A   1      46.679  29.137  27.398  1.00  0.00    -0.354 N 
ATOM     58  N   UNL A   1      45.872  26.350  26.973  1.00  0.00    -0.248 NA
ATOM     59  C   UNL A   1      46.341  24.187  26.218  1.00  0.00     0.031 C 
ATOM     60  C   UNL A   1      48.766  29.715  26.906  1.00  0.00     0.029 A 
ATOM     61  C   UNL A   1      47.878  28.652  26.899  1.00  0.00     0.049 A 
ATOM     62  H   UNL A   1      45.856  28.608  27.502  1.00  0.00     0.167 HD
ATOM     63  C   UNL A   1      47.185  26.300  26.520  1.00  0.00     0.074 A 
ATOM     64  C   UNL A   1      47.428  24.937  26.092  1.00  0.00     0.031 C 
ATOM     65  C   UNL A   1      48.105  27.295  26.467  1.00  0.00     0.031 A 
BRANCH  52  66
ATOM     66  C   UNL A   1      46.040  32.757  28.534  1.00  0.00    -0.014 A 
ATOM     67  C   UNL A   1      46.509  33.205  29.782  1.00  0.00     0.010 A 
ATOM     68  C   UNL A   1      45.825  33.699  27.510  1.00  0.00     0.010 A 
ATOM     69  C   UNL A   1      46.688  34.571  30.022  1.00  0.00     0.020 A 
ATOM     70  C   UNL A   1      46.036  35.062  27.735  1.00  0.00     0.020 A 
ATOM     71  C   UNL A   1      46.439  35.492  29.000  1.00  0.00     0.054 A 
BRANCH  71  72
ATOM     72  S   UNL A   1      46.653  37.261  29.344  1.00  0.00     0.124 S 
ATOM     73  O   UNL A   1      47.881  37.266  30.134  1.00  0.00    -0.237 OA
ATOM     74  O   UNL A   1      46.766  37.838  28.007  1.00  0.00    -0.237 OA
ATOM     75  O   UNL A   1      45.441  37.622  30.075  1.00  0.00    -0.744 OA
ENDBRANCH  71  72
ENDBRANCH  52  66
BRANCH  53  76
ATOM     76  C   UNL A   1      43.671  23.188  26.906  1.00  0.00    -0.014 A 
ATOM     77  C   UNL A   1      43.125  22.413  27.944  1.00  0.00     0.010 A 
ATOM     78  C   UNL A   1      43.837  22.606  25.635  1.00  0.00     0.010 A 
ATOM     79  C   UNL A   1      42.748  21.086  27.714  1.00  0.00     0.020 A 
ATOM     80  C   UNL A   1      43.434  21.290  25.394  1.00  0.00     0.020 A 
ATOM     81  C   UNL A   1      42.895  20.536  26.438  1.00  0.00     0.054 A 
BRANCH  81  82
ATOM     82  S   UNL A   1      42.320  18.840  26.143  1.00  0.00     0.124 S 
ATOM     83  O   UNL A   1      40.939  19.056  25.726  1.00  0.00    -0.237 OA
ATOM     84  O   UNL A   1      43.232  18.375  25.101  1.00  0.00    -0.237 OA
ATOM     85  O   UNL A   1      42.489  18.191  27.442  1.00  0.00    -0.744 OA
ENDBRANCH  81  82
ENDBRANCH  53  76
BRANCH  65  86
ATOM     86  C   UNL A   1      49.476  26.938  25.956  1.00  0.00    -0.014 A 
ATOM     87  C   UNL A   1      50.413  26.281  26.773  1.00  0.00     0.010 A 
ATOM     88  C   UNL A   1      49.813  27.226  24.621  1.00  0.00     0.010 A 
ATOM     89  C   UNL A   1      51.674  25.946  26.272  1.00  0.00     0.020 A 
ATOM     90  C   UNL A   1      51.063  26.868  24.109  1.00  0.00     0.020 A 
ATOM     91  C   UNL A   1      51.992  26.242  24.942  1.00  0.00     0.054 A 
BRANCH  91  92
ATOM     92  S   UNL A   1      53.619  25.758  24.303  1.00  0.00     0.124 S 
ATOM     93  O   UNL A   1      53.756  24.398  24.818  1.00  0.00    -0.237 OA
ATOM     94  O   UNL A   1      53.441  25.868  22.857  1.00  0.00    -0.237 OA
ATOM     95  O   UNL A   1      54.528  26.741  24.889  1.00  0.00    -0.744 OA
ENDBRANCH  91  92
ENDBRANCH  65  86
ENDBRANCH  39  40
ENDBRANCH  32  34
ENDBRANCH  31  32
ENDBRANCH  30  31
ENDBRANCH   1  30
TORSDOF 19
ENDMDL
MODEL 2
REMARK VINA RESULT:     -11.8      2.094      8.614
REMARK SMILES CC(C)Nc1ncc(C(=O)N2CCC[C@H](c3cccc(C(=O)OCCOC(=O)c4ccc(-c5c6nc(c(-c7ccc(S(=O)(=O)[O-])cc7)c7ccc([nH]7)c(-c7ccc(S(=O)(=O)[O-])cc7)c7nc(c(-c8ccc(S(=O)(=O)[O-])cc8)c8ccc5[nH]8)C=C7)C=C6)cc4)c3)C2)cn1
REMARK SMILES IDX 24 1 23 2 21 3 22 4 20 5 16 6 17 7 89 8 18 9 19 10 15 11
REMARK SMILES IDX 11 12 12 13 90 14 13 15 14 16 9 17 10 18 8 19 5 20 6 21
REMARK SMILES IDX 92 22 7 23 91 24 4 25 2 27 1 28 3 29 25 30 26 31 27 32 28 33
REMARK SMILES IDX 29 34 30 35 88 36 31 37 87 38 32 39 33 40 34 41 81 42 35 43
REMARK SMILES IDX 86 44 80 45 82 46 36 47 85 48 79 49 78 50 37 52 67 53 48 54
REMARK SMILES IDX 66 55 49 56 52 57 65 58 83 59 50 60 51 61 64 63 84 64 53 65
REMARK SMILES IDX 38 66 39 67 47 68 40 69 46 70 41 71 42 72 43 73 44 74 45 75
REMARK SMILES IDX 68 76 69 77 77 78 70 79 76 80 71 81 72 82 73 83 74 84 75 85
REMARK SMILES IDX 54 86 55 87 63 88 56 89 62 90 57 91 58 92 59 93 60 94 61 95
REMARK H PARENT 4 26 82 51 52 62
REMARK Flexibility Score: inf
ROOT
ATOM      1  C   UNL A   1      39.498  21.195  26.186  1.00  0.00     0.275 C 
ENDROOT
BRANCH   1   2
ATOM      2  O   UNL A   1      38.332  21.695  25.499  1.00  0.00    -0.458 OA
BRANCH   2   3
ATOM      3  C   UNL A   1      37.928  22.943  25.847  1.00  0.00     0.338 C 
ATOM      4  O   UNL A   1      38.504  23.705  26.606  1.00  0.00    -0.246 OA
BRANCH   3   5
ATOM      5  C   UNL A   1      36.727  23.332  25.067  1.00  0.00     0.060 A 
ATOM      6  C   UNL A   1      34.732  24.686  24.729  1.00  0.00    -0.042 A 
ATOM      7  C   UNL A   1      34.446  23.922  23.587  1.00  0.00     0.004 A 
ATOM      8  C   UNL A   1      35.822  24.290  25.529  1.00  0.00     0.019 A 
ATOM      9  C   UNL A   1      35.350  22.978  23.114  1.00  0.00     0.001 A 
ATOM     10  C   UNL A   1      36.528  22.750  23.812  1.00  0.00     0.016 A 
BRANCH   6  11
ATOM     11  C   UNL A   1      33.985  25.985  25.045  1.00  0.00     0.039 C 
ATOM     12  N   UNL A   1      31.739  25.063  25.711  1.00  0.00    -0.338 N 
ATOM     13  C   UNL A   1      31.133  25.422  24.431  1.00  0.00     0.120 C 
ATOM     14  C   UNL A   1      32.889  25.880  26.148  1.00  0.00     0.128 C 
ATOM     15  C   UNL A   1      32.158  25.595  23.321  1.00  0.00     0.022 C 
ATOM     16  C   UNL A   1      33.286  26.530  23.770  1.00  0.00     0.012 C 
BRANCH  12  17
ATOM     17  C   UNL A   1      31.259  23.929  26.363  1.00  0.00     0.257 C 
ATOM     18  O   UNL A   1      30.363  23.969  27.203  1.00  0.00    -0.269 OA
BRANCH  17  19
ATOM     19  C   UNL A   1      31.909  22.630  26.145  1.00  0.00     0.076 A 
ATOM     20  C   UNL A   1      33.368  20.413  25.525  1.00  0.00     0.222 A 
ATOM     21  N   UNL A   1      32.353  20.751  24.714  1.00  0.00    -0.221 NA
ATOM     22  N   UNL A   1      33.698  21.100  26.629  1.00  0.00    -0.221 NA
ATOM     23  C   UNL A   1      31.647  21.855  25.043  1.00  0.00     0.130 A 
ATOM     24  C   UNL A   1      32.979  22.214  26.903  1.00  0.00     0.130 A 
BRANCH  20  25
ATOM     25  N   UNL A   1      34.078  19.315  25.135  1.00  0.00    -0.352 N 
ATOM     26  H   UNL A   1      35.058  19.328  25.233  1.00  0.00     0.163 HD
BRANCH  25  27
ATOM     27  C   UNL A   1      33.455  18.133  24.584  1.00  0.00     0.076 C 
ATOM     28  C   UNL A   1      34.552  17.283  23.941  1.00  0.00     0.030 C 
ATOM     29  C   UNL A   1      32.755  17.353  25.691  1.00  0.00     0.030 C 
ENDBRANCH  25  27
ENDBRANCH  20  25
ENDBRANCH  17  19
ENDBRANCH  12  17
ENDBRANCH   6  11
ENDBRANCH   3   5
ENDBRANCH   2   3
ENDBRANCH   1   2
BRANCH   1  30
ATOM     30  C   UNL A   1      39.756  19.733  25.822  1.00  0.00     0.275 C 
BRANCH  30  31
ATOM     31  O   UNL A   1      41.127  19.552  25.427  1.00  0.00    -0.458 OA
BRANCH  31  32
ATOM     32  C   UNL A   1      42.022  19.475  26.439  1.00  0.00     0.338 C 
ATOM     33  O   UNL A   1      42.306  18.496  27.106  1.00  0.00    -0.246 OA
BRANCH  32  34
ATOM     34  C   UNL A   1      42.705  20.769  26.590  1.00  0.00     0.060 A 
ATOM     35  C   UNL A   1      42.800  21.307  27.867  1.00  0.00     0.016 A 
ATOM     36  C   UNL A   1      43.107  21.518  25.491  1.00  0.00     0.016 A 
ATOM     37  C   UNL A   1      43.182  22.631  28.056  1.00  0.00     0.010 A 
ATOM     38  C   UNL A   1      43.608  22.814  25.691  1.00  0.00     0.010 A 
ATOM     39  C   UNL A   1      43.612  23.404  26.972  1.00  0.00    -0.014 A 
BRANCH  39  40
ATOM     40  C   UNL A   1      44.020  24.826  27.170  1.00  0.00     0.031 A 
ATOM     41  C   UNL A   1      45.445  25.250  26.907  1.00  0.00     0.074 A 
ATOM     42  C   UNL A   1      43.122  25.754  27.565  1.00  0.00     0.049 A 
ATOM     43  N   UNL A   1      46.036  26.387  27.179  1.00  0.00    -0.248 NA
ATOM     44  C   UNL A   1      46.324  24.260  26.266  1.00  0.00     0.031 C 
ATOM     45  C   UNL A   1      41.694  25.517  27.791  1.00  0.00     0.029 A 
ATOM     46  N   UNL A   1      43.277  27.093  27.836  1.00  0.00    -0.354 N 
ATOM     47  C   UNL A   1      47.366  26.226  26.802  1.00  0.00     0.074 A 
ATOM     48  C   UNL A   1      47.495  24.877  26.293  1.00  0.00     0.031 C 
ATOM     49  C   UNL A   1      41.098  26.675  28.111  1.00  0.00     0.029 A 
ATOM     50  C   UNL A   1      42.112  27.717  28.218  1.00  0.00     0.049 A 
ATOM     51  H   UNL A   1      44.140  27.562  27.762  1.00  0.00     0.167 HD
ATOM     52  C   UNL A   1      48.386  27.116  26.873  1.00  0.00     0.031 A 
ATOM     53  C   UNL A   1      41.881  28.972  28.651  1.00  0.00     0.031 A 
ATOM     54  C   UNL A   1      48.246  28.468  27.350  1.00  0.00     0.049 A 
ATOM     55  C   UNL A   1      43.035  29.923  28.790  1.00  0.00     0.074 A 
ATOM     56  C   UNL A   1      49.218  29.448  27.460  1.00  0.00     0.029 A 
ATOM     57  N   UNL A   1      47.058  29.034  27.788  1.00  0.00    -0.354 N 
ATOM     58  N   UNL A   1      44.298  29.732  28.491  1.00  0.00    -0.248 NA
ATOM     59  C   UNL A   1      42.737  31.251  29.342  1.00  0.00     0.031 C 
ATOM     60  C   UNL A   1      48.627  30.591  28.012  1.00  0.00     0.029 A 
ATOM     61  C   UNL A   1      47.275  30.344  28.188  1.00  0.00     0.049 A 
ATOM     62  H   UNL A   1      46.189  28.575  27.810  1.00  0.00     0.167 HD
ATOM     63  C   UNL A   1      44.943  30.924  28.803  1.00  0.00     0.074 A 
ATOM     64  C   UNL A   1      43.928  31.832  29.298  1.00  0.00     0.031 C 
ATOM     65  C   UNL A   1      46.258  31.236  28.687  1.00  0.00     0.031 A 
BRANCH  52  66
ATOM     66  C   UNL A   1      49.759  26.629  26.475  1.00  0.00    -0.014 A 
ATOM     67  C   UNL A   1      50.243  26.767  25.162  1.00  0.00     0.010 A 
ATOM     68  C   UNL A   1      50.577  26.012  27.441  1.00  0.00     0.010 A 
ATOM     69  C   UNL A   1      51.487  26.235  24.807  1.00  0.00     0.020 A 
ATOM     70  C   UNL A   1      51.835  25.510  27.098  1.00  0.00     0.020 A 
ATOM     71  C   UNL A   1      52.270  25.599  25.775  1.00  0.00     0.054 A 
BRANCH  71  72
ATOM     72  S   UNL A   1      53.868  24.893  25.284  1.00  0.00     0.124 S 
ATOM     73  O   UNL A   1      54.188  25.678  24.094  1.00  0.00    -0.237 OA
ATOM     74  O   UNL A   1      54.708  25.152  26.450  1.00  0.00    -0.237 OA
ATOM     75  O   UNL A   1      53.565  23.486  25.038  1.00  0.00    -0.744 OA
ENDBRANCH  71  72
ENDBRANCH  52  66
BRANCH  53  76
ATOM     76  C   UNL A   1      40.497  29.384  29.017  1.00  0.00    -0.014 A 
ATOM     77  C   UNL A   1      40.133  29.538  30.366  1.00  0.00     0.010 A 
ATOM     78  C   UNL A   1      39.547  29.667  28.017  1.00  0.00     0.010 A 
ATOM     79  C   UNL A   1      38.849  29.974  30.707  1.00  0.00     0.020 A 
ATOM     80  C   UNL A   1      38.272  30.130  28.353  1.00  0.00     0.020 A 
ATOM     81  C   UNL A   1      37.929  30.276  29.699  1.00  0.00     0.054 A 
BRANCH  81  82
ATOM     82  S   UNL A   1      36.297  30.919  30.165  1.00  0.00     0.124 S 
ATOM     83  O   UNL A   1      35.540  30.748  28.930  1.00  0.00    -0.237 OA
ATOM     84  O   UNL A   1      35.917  30.042  31.269  1.00  0.00    -0.237 OA
ATOM     85  O   UNL A   1      36.572  32.303  30.546  1.00  0.00    -0.744 OA
ENDBRANCH  81  82
ENDBRANCH  53  76
BRANCH  65  86
ATOM     86  C   UNL A   1      46.671  32.632  29.072  1.00  0.00    -0.014 A 
ATOM     87  C   UNL A   1      46.641  33.685  28.142  1.00  0.00     0.010 A 
ATOM     88  C   UNL A   1      47.051  32.900  30.400  1.00  0.00     0.010 A 
ATOM     89  C   UNL A   1      47.015  34.976  28.526  1.00  0.00     0.020 A 
ATOM     90  C   UNL A   1      47.399  34.194  30.794  1.00  0.00     0.020 A 
ATOM     91  C   UNL A   1      47.391  35.223  29.850  1.00  0.00     0.054 A 
BRANCH  91  92
ATOM     92  S   UNL A   1      47.830  36.915  30.334  1.00  0.00     0.124 S 
ATOM     93  O   UNL A   1      48.879  36.686  31.324  1.00  0.00    -0.237 OA
ATOM     94  O   UNL A   1      48.272  37.505  29.073  1.00  0.00    -0.237 OA
ATOM     95  O   UNL A   1      46.581  37.459  30.864  1.00  0.00    -0.744 OA
ENDBRANCH  91  92
ENDBRANCH  65  86
ENDBRANCH  39  40
ENDBRANCH  32  34
ENDBRANCH  31  32
ENDBRANCH  30  31
ENDBRANCH   1  30
TORSDOF 19
ENDMDL
MODEL 3
REMARK VINA RESULT:     -11.7      2.208      8.019
REMARK SMILES CC(C)Nc1ncc(C(=O)N2CCC[C@H](c3cccc(C(=O)OCCOC(=O)c4ccc(-c5c6nc(c(-c7ccc(S(=O)(=O)[O-])cc7)c7ccc([nH]7)c(-c7ccc(S(=O)(=O)[O-])cc7)c7nc(c(-c8ccc(S(=O)(=O)[O-])cc8)c8ccc5[nH]8)C=C7)C=C6)cc4)c3)C2)cn1
REMARK SMILES IDX 24 1 23 2 21 3 22 4 20 5 16 6 17 7 89 8 18 9 19 10 15 11
REMARK SMILES IDX 11 12 12 13 90 14 13 15 14 16 9 17 10 18 8 19 5 20 6 21
REMARK SMILES IDX 92 22 7 23 91 24 4 25 2 27 1 28 3 29 25 30 26 31 27 32 28 33
REMARK SMILES IDX 29 34 30 35 88 36 31 37 87 38 32 39 33 40 34 41 81 42 35 43
REMARK SMILES IDX 86 44 80 45 82 46 36 47 85 48 79 49 78 50 37 52 67 53 48 54
REMARK SMILES IDX 66 55 49 56 52 57 65 58 83 59 50 60 51 61 64 63 84 64 53 65
REMARK SMILES IDX 38 66 39 67 47 68 40 69 46 70 41 71 42 72 43 73 44 74 45 75
REMARK SMILES IDX 68 76 69 77 77 78 70 79 76 80 71 81 72 82 73 83 74 84 75 85
REMARK SMILES IDX 54 86 55 87 63 88 56 89 62 90 57 91 58 92 59 93 60 94 61 95
REMARK H PARENT 4 26 82 51 52 62
REMARK Flexibility Score: inf
ROOT
ATOM      1  C   UNL A   1      39.441  20.922  26.268  1.00  0.00     0.275 C 
ENDROOT
BRANCH   1   2
ATOM      2  O   UNL A   1      38.324  21.461  25.531  1.00  0.00    -0.458 OA
BRANCH   2   3
ATOM      3  C   UNL A   1      38.037  22.767  25.761  1.00  0.00     0.338 C 
ATOM      4  O   UNL A   1      38.699  23.548  26.425  1.00  0.00    -0.246 OA
BRANCH   3   5
ATOM      5  C   UNL A   1      36.846  23.179  24.976  1.00  0.00     0.060 A 
ATOM      6  C   UNL A   1      34.807  24.478  24.690  1.00  0.00    -0.042 A 
ATOM      7  C   UNL A   1      34.592  23.813  23.474  1.00  0.00     0.004 A 
ATOM      8  C   UNL A   1      35.886  24.053  25.491  1.00  0.00     0.019 A 
ATOM      9  C   UNL A   1      35.551  22.953  22.951  1.00  0.00     0.001 A 
ATOM     10  C   UNL A   1      36.714  22.708  23.667  1.00  0.00     0.016 A 
BRANCH   6  11
ATOM     11  C   UNL A   1      33.995  25.711  25.096  1.00  0.00     0.039 C 
ATOM     12  N   UNL A   1      31.825  24.622  25.764  1.00  0.00    -0.338 N 
ATOM     13  C   UNL A   1      31.165  25.013  24.521  1.00  0.00     0.120 C 
ATOM     14  C   UNL A   1      32.938  25.481  26.218  1.00  0.00     0.128 C 
ATOM     15  C   UNL A   1      32.147  25.306  23.399  1.00  0.00     0.022 C 
ATOM     16  C   UNL A   1      33.231  26.281  23.871  1.00  0.00     0.012 C 
BRANCH  12  17
ATOM     17  C   UNL A   1      31.430  23.427  26.364  1.00  0.00     0.257 C 
ATOM     18  O   UNL A   1      30.590  23.374  27.259  1.00  0.00    -0.269 OA
BRANCH  17  19
ATOM     19  C   UNL A   1      32.111  22.174  26.015  1.00  0.00     0.076 A 
ATOM     20  C   UNL A   1      33.597  20.064  25.141  1.00  0.00     0.222 A 
ATOM     21  N   UNL A   1      32.497  20.395  24.446  1.00  0.00    -0.221 NA
ATOM     22  N   UNL A   1      34.001  20.707  26.246  1.00  0.00    -0.221 NA
ATOM     23  C   UNL A   1      31.779  21.446  24.900  1.00  0.00     0.130 A 
ATOM     24  C   UNL A   1      33.264  21.771  26.647  1.00  0.00     0.130 A 
BRANCH  20  25
ATOM     25  N   UNL A   1      34.313  19.022  24.626  1.00  0.00    -0.352 N 
ATOM     26  H   UNL A   1      35.214  19.200  24.270  1.00  0.00     0.163 HD
BRANCH  25  27
ATOM     27  C   UNL A   1      33.808  17.669  24.582  1.00  0.00     0.076 C 
ATOM     28  C   UNL A   1      33.511  17.329  23.120  1.00  0.00     0.030 C 
ATOM     29  C   UNL A   1      34.846  16.709  25.153  1.00  0.00     0.030 C 
ENDBRANCH  25  27
ENDBRANCH  20  25
ENDBRANCH  17  19
ENDBRANCH  12  17
ENDBRANCH   6  11
ENDBRANCH   3   5
ENDBRANCH   2   3
ENDBRANCH   1   2
BRANCH   1  30
ATOM     30  C   UNL A   1      39.806  19.528  25.756  1.00  0.00     0.275 C 
BRANCH  30  31
ATOM     31  O   UNL A   1      41.192  19.486  25.372  1.00  0.00    -0.458 OA
BRANCH  31  32
ATOM     32  C   UNL A   1      42.082  19.538  26.390  1.00  0.00     0.338 C 
ATOM     33  O   UNL A   1      42.629  18.602  26.947  1.00  0.00    -0.246 OA
BRANCH  32  34
ATOM     34  C   UNL A   1      42.385  20.942  26.705  1.00  0.00     0.060 A 
ATOM     35  C   UNL A   1      42.621  21.808  25.645  1.00  0.00     0.016 A 
ATOM     36  C   UNL A   1      42.590  21.373  28.010  1.00  0.00     0.016 A 
ATOM     37  C   UNL A   1      43.174  23.066  25.861  1.00  0.00     0.010 A 
ATOM     38  C   UNL A   1      43.033  22.685  28.237  1.00  0.00     0.010 A 
ATOM     39  C   UNL A   1      43.372  23.535  27.165  1.00  0.00    -0.014 A 
BRANCH  39  40
ATOM     40  C   UNL A   1      43.967  24.884  27.402  1.00  0.00     0.031 A 
ATOM     41  C   UNL A   1      43.105  26.016  27.908  1.00  0.00     0.074 A 
ATOM     42  C   UNL A   1      45.281  25.106  27.188  1.00  0.00     0.049 A 
ATOM     43  N   UNL A   1      43.387  27.290  28.015  1.00  0.00    -0.248 NA
ATOM     44  C   UNL A   1      41.741  25.668  28.339  1.00  0.00     0.031 C 
ATOM     45  C   UNL A   1      46.259  24.100  26.766  1.00  0.00     0.029 A 
ATOM     46  N   UNL A   1      46.027  26.255  27.308  1.00  0.00    -0.354 N 
ATOM     47  C   UNL A   1      42.220  27.903  28.463  1.00  0.00     0.074 A 
ATOM     48  C   UNL A   1      41.225  26.860  28.596  1.00  0.00     0.031 C 
ATOM     49  C   UNL A   1      47.477  24.659  26.717  1.00  0.00     0.029 A 
ATOM     50  C   UNL A   1      47.357  26.085  26.997  1.00  0.00     0.049 A 
ATOM     51  H   UNL A   1      45.647  27.118  27.590  1.00  0.00     0.167 HD
ATOM     52  C   UNL A   1      41.996  29.212  28.737  1.00  0.00     0.031 A 
ATOM     53  C   UNL A   1      48.364  26.975  26.902  1.00  0.00     0.031 A 
ATOM     54  C   UNL A   1      42.998  30.241  28.633  1.00  0.00     0.049 A 
ATOM     55  C   UNL A   1      48.081  28.430  27.139  1.00  0.00     0.074 A 
ATOM     56  C   UNL A   1      42.872  31.596  28.890  1.00  0.00     0.029 A 
ATOM     57  N   UNL A   1      44.315  30.030  28.252  1.00  0.00    -0.354 N 
ATOM     58  N   UNL A   1      46.956  29.001  27.498  1.00  0.00    -0.248 NA
ATOM     59  C   UNL A   1      49.198  29.363  26.943  1.00  0.00     0.031 C 
ATOM     60  C   UNL A   1      44.099  32.210  28.615  1.00  0.00     0.029 A 
ATOM     61  C   UNL A   1      45.007  31.231  28.246  1.00  0.00     0.049 A 
ATOM     62  H   UNL A   1      44.702  29.155  28.020  1.00  0.00     0.167 HD
ATOM     63  C   UNL A   1      47.235  30.360  27.586  1.00  0.00     0.074 A 
ATOM     64  C   UNL A   1      48.637  30.522  27.260  1.00  0.00     0.031 C 
ATOM     65  C   UNL A   1      46.402  31.380  27.911  1.00  0.00     0.031 A 
BRANCH  52  66
ATOM     66  C   UNL A   1      40.590  29.608  29.119  1.00  0.00    -0.014 A 
ATOM     67  C   UNL A   1      39.566  29.720  28.162  1.00  0.00     0.010 A 
ATOM     68  C   UNL A   1      40.295  29.882  30.468  1.00  0.00     0.010 A 
ATOM     69  C   UNL A   1      38.293  30.165  28.536  1.00  0.00     0.020 A 
ATOM     70  C   UNL A   1      39.015  30.293  30.851  1.00  0.00     0.020 A 
ATOM     71  C   UNL A   1      38.030  30.460  29.877  1.00  0.00     0.054 A 
BRANCH  71  72
ATOM     72  S   UNL A   1      36.380  31.063  30.333  1.00  0.00     0.124 S 
ATOM     73  O   UNL A   1      36.651  32.462  30.656  1.00  0.00    -0.237 OA
ATOM     74  O   UNL A   1      35.608  30.841  29.113  1.00  0.00    -0.237 OA
ATOM     75  O   UNL A   1      36.004  30.224  31.466  1.00  0.00    -0.744 OA
ENDBRANCH  71  72
ENDBRANCH  52  66
BRANCH  53  76
ATOM     76  C   UNL A   1      49.728  26.508  26.527  1.00  0.00    -0.014 A 
ATOM     77  C   UNL A   1      50.623  26.060  27.514  1.00  0.00     0.010 A 
ATOM     78  C   UNL A   1      50.125  26.467  25.176  1.00  0.00     0.010 A 
ATOM     79  C   UNL A   1      51.885  25.574  27.157  1.00  0.00     0.020 A 
ATOM     80  C   UNL A   1      51.373  25.955  24.814  1.00  0.00     0.020 A 
ATOM     81  C   UNL A   1      52.249  25.516  25.809  1.00  0.00     0.054 A 
BRANCH  81  82
ATOM     82  S   UNL A   1      53.858  24.804  25.365  1.00  0.00     0.124 S 
ATOM     83  O   UNL A   1      54.276  25.662  24.262  1.00  0.00    -0.237 OA
ATOM     84  O   UNL A   1      54.619  24.948  26.603  1.00  0.00    -0.237 OA
ATOM     85  O   UNL A   1      53.534  23.427  25.000  1.00  0.00    -0.744 OA
ENDBRANCH  81  82
ENDBRANCH  53  76
BRANCH  65  86
ATOM     86  C   UNL A   1      46.995  32.763  27.963  1.00  0.00    -0.014 A 
ATOM     87  C   UNL A   1      46.986  33.606  26.838  1.00  0.00     0.010 A 
ATOM     88  C   UNL A   1      47.531  33.241  29.173  1.00  0.00     0.010 A 
ATOM     89  C   UNL A   1      47.529  34.891  26.914  1.00  0.00     0.020 A 
ATOM     90  C   UNL A   1      48.050  34.535  29.261  1.00  0.00     0.020 A 
ATOM     91  C   UNL A   1      48.058  35.349  28.126  1.00  0.00     0.054 A 
BRANCH  91  92
ATOM     92  S   UNL A   1      48.718  37.036  28.211  1.00  0.00     0.124 S 
ATOM     93  O   UNL A   1      49.616  36.954  29.360  1.00  0.00    -0.237 OA
ATOM     94  O   UNL A   1      49.369  37.191  26.913  1.00  0.00    -0.237 OA
ATOM     95  O   UNL A   1      47.529  37.864  28.407  1.00  0.00    -0.744 OA
ENDBRANCH  91  92
ENDBRANCH  65  86
ENDBRANCH  39  40
ENDBRANCH  32  34
ENDBRANCH  31  32
ENDBRANCH  30  31
ENDBRANCH   1  30
TORSDOF 19
ENDMDL
