MODEL 1
REMARK VINA RESULT:     -10.6      0.000      0.000
REMARK SMILES Cc1nsc(N(C)C(=O)[C@@H](C)CCC[C@H](C)[NH3+])c1C(=O)OCCOC(=O)c1ccc(-c2c3nc(c(-c4ccc(S(=O)(=O)[O-])cc4)c4ccc([nH]4)c(-c4ccc(S(=O)(=O)[O-])cc4)c4nc(c(-c5ccc(S(=O)(=O)[O-])cc5)c5ccc2[nH]5)C=C4)C=C3)cc1
REMARK SMILES IDX 19 1 20 2 18 3 1 4 2 5 3 6 4 7 5 8 6 9 7 10 8 11 9 12 10 13
REMARK SMILES IDX 11 14 12 15 13 16 14 17 15 18 16 19 17 20 21 24 22 25 23 26
REMARK SMILES IDX 24 27 25 28 26 29 27 30 28 31 86 32 29 33 85 34 30 35 31 36
REMARK SMILES IDX 32 37 79 38 33 39 84 40 78 41 80 42 34 43 83 44 77 45 76 46
REMARK SMILES IDX 35 48 65 49 46 50 64 51 47 52 50 53 63 54 81 55 48 56 49 57
REMARK SMILES IDX 62 59 82 60 51 61 36 62 37 63 45 64 38 65 44 66 39 67 40 68
REMARK SMILES IDX 41 69 42 70 43 71 66 72 67 73 75 74 68 75 74 76 69 77 70 78
REMARK SMILES IDX 71 79 72 80 73 81 52 82 53 83 61 84 54 85 60 86 55 87 56 88
REMARK SMILES IDX 57 89 58 90 59 91
REMARK H PARENT 17 21 17 22 17 23 80 47 50 58
REMARK Flexibility Score: inf
ROOT
ATOM      1  C   UNL A   1      35.911  22.076  24.451  1.00  0.00     0.343 C 
ATOM      2  O   UNL A   1      36.452  22.383  23.391  1.00  0.00    -0.246 OA
ENDROOT
BRANCH   1   3
ATOM      3  C   UNL A   1      34.497  21.784  24.590  1.00  0.00     0.117 A 
ATOM      4  C   UNL A   1      34.836  19.173  24.766  1.00  0.00     0.069 C 
ATOM      5  C   UNL A   1      34.019  20.424  24.777  1.00  0.00     0.068 A 
ATOM      6  N   UNL A   1      32.714  20.284  24.991  1.00  0.00    -0.195 NA
ATOM      7  S   UNL A   1      32.000  21.749  24.852  1.00  0.00    -0.017 S 
ATOM      8  C   UNL A   1      33.424  22.682  24.537  1.00  0.00     0.133 A 
BRANCH   8   9
ATOM      9  N   UNL A   1      33.234  24.080  24.265  1.00  0.00    -0.305 N 
ATOM     10  C   UNL A   1      33.115  25.048  25.363  1.00  0.00     0.154 C 
BRANCH   9  11
ATOM     11  C   UNL A   1      32.962  24.476  22.949  1.00  0.00     0.230 C 
ATOM     12  O   UNL A   1      33.734  24.275  22.008  1.00  0.00    -0.274 OA
BRANCH  11  13
ATOM     13  C   UNL A   1      31.657  25.210  22.567  1.00  0.00     0.076 C 
ATOM     14  C   UNL A   1      30.426  24.880  23.408  1.00  0.00     0.018 C 
BRANCH  13  15
ATOM     15  C   UNL A   1      31.852  26.713  22.305  1.00  0.00     0.013 C 
BRANCH  15  16
ATOM     16  C   UNL A   1      30.650  27.590  22.708  1.00  0.00     0.007 C 
BRANCH  16  17
ATOM     17  C   UNL A   1      30.874  29.106  22.591  1.00  0.00     0.064 C 
BRANCH  17  18
ATOM     18  C   UNL A   1      29.580  29.935  22.707  1.00  0.00     0.177 C 
ATOM     19  C   UNL A   1      28.317  29.079  22.574  1.00  0.00     0.075 C 
BRANCH  18  20
ATOM     20  N   UNL A   1      29.575  31.008  21.706  1.00  0.00    -0.355 N 
ATOM     21  H   UNL A   1      29.074  30.694  20.876  1.00  0.00     0.344 HD
ATOM     22  H   UNL A   1      30.536  31.243  21.455  1.00  0.00     0.344 HD
ATOM     23  H   UNL A   1      29.113  31.831  22.092  1.00  0.00     0.344 HD
ENDBRANCH  18  20
ENDBRANCH  17  18
ENDBRANCH  16  17
ENDBRANCH  15  16
ENDBRANCH  13  15
ENDBRANCH  11  13
ENDBRANCH   9  11
ENDBRANCH   8   9
ENDBRANCH   1   3
BRANCH   1  24
ATOM     24  O   UNL A   1      36.526  22.079  25.665  1.00  0.00    -0.458 OA
BRANCH  24  25
ATOM     25  C   UNL A   1      37.763  22.786  25.773  1.00  0.00     0.275 C 
BRANCH  25  26
ATOM     26  C   UNL A   1      38.845  21.763  26.083  1.00  0.00     0.275 C 
BRANCH  26  27
ATOM     27  O   UNL A   1      39.827  22.311  26.959  1.00  0.00    -0.458 OA
BRANCH  27  28
ATOM     28  C   UNL A   1      41.001  22.709  26.415  1.00  0.00     0.338 C 
ATOM     29  O   UNL A   1      41.789  22.044  25.768  1.00  0.00    -0.246 OA
BRANCH  28  30
ATOM     30  C   UNL A   1      41.272  24.074  26.911  1.00  0.00     0.060 A 
ATOM     31  C   UNL A   1      42.146  24.251  27.989  1.00  0.00     0.016 A 
ATOM     32  C   UNL A   1      40.512  25.145  26.413  1.00  0.00     0.016 A 
ATOM     33  C   UNL A   1      42.166  25.479  28.635  1.00  0.00     0.010 A 
ATOM     34  C   UNL A   1      40.513  26.352  27.069  1.00  0.00     0.010 A 
ATOM     35  C   UNL A   1      41.300  26.495  28.204  1.00  0.00    -0.014 A 
BRANCH  35  36
ATOM     36  C   UNL A   1      41.305  27.780  28.876  1.00  0.00     0.031 A 
ATOM     37  C   UNL A   1      42.348  28.707  28.374  1.00  0.00     0.074 A 
ATOM     38  C   UNL A   1      40.365  28.158  29.765  1.00  0.00     0.049 A 
ATOM     39  N   UNL A   1      43.417  29.069  28.997  1.00  0.00    -0.248 NA
ATOM     40  C   UNL A   1      42.287  29.165  26.977  1.00  0.00     0.031 C 
ATOM     41  C   UNL A   1      39.131  27.465  30.151  1.00  0.00     0.029 A 
ATOM     42  N   UNL A   1      40.284  29.323  30.461  1.00  0.00    -0.354 N 
ATOM     43  C   UNL A   1      44.061  29.977  28.166  1.00  0.00     0.074 A 
ATOM     44  C   UNL A   1      43.409  29.883  26.883  1.00  0.00     0.031 C 
ATOM     45  C   UNL A   1      38.331  28.318  30.837  1.00  0.00     0.029 A 
ATOM     46  C   UNL A   1      39.057  29.555  31.072  1.00  0.00     0.049 A 
ATOM     47  H   UNL A   1      41.036  29.954  30.528  1.00  0.00     0.167 HD
ATOM     48  C   UNL A   1      44.941  30.884  28.670  1.00  0.00     0.031 A 
ATOM     49  C   UNL A   1      38.670  30.693  31.707  1.00  0.00     0.031 A 
ATOM     50  C   UNL A   1      45.314  30.561  30.024  1.00  0.00     0.049 A 
ATOM     51  C   UNL A   1      39.910  31.398  32.115  1.00  0.00     0.074 A 
ATOM     52  C   UNL A   1      45.955  29.501  30.629  1.00  0.00     0.029 A 
ATOM     53  N   UNL A   1      44.639  31.222  31.025  1.00  0.00    -0.354 N 
ATOM     54  N   UNL A   1      40.742  30.913  32.995  1.00  0.00    -0.248 NA
ATOM     55  C   UNL A   1      40.470  32.387  31.208  1.00  0.00     0.031 C 
ATOM     56  C   UNL A   1      45.249  29.296  31.849  1.00  0.00     0.029 A 
ATOM     57  C   UNL A   1      44.273  30.292  31.962  1.00  0.00     0.049 A 
ATOM     58  H   UNL A   1      44.453  32.189  31.061  1.00  0.00     0.167 HD
ATOM     59  C   UNL A   1      42.001  31.180  32.475  1.00  0.00     0.074 A 
ATOM     60  C   UNL A   1      41.771  32.171  31.424  1.00  0.00     0.031 C 
ATOM     61  C   UNL A   1      43.066  30.372  32.756  1.00  0.00     0.031 A 
BRANCH  48  62
ATOM     62  C   UNL A   1      45.158  32.262  28.104  1.00  0.00    -0.014 A 
ATOM     63  C   UNL A   1      46.477  32.754  28.024  1.00  0.00     0.010 A 
ATOM     64  C   UNL A   1      44.113  33.191  27.926  1.00  0.00     0.010 A 
ATOM     65  C   UNL A   1      46.737  34.117  27.854  1.00  0.00     0.020 A 
ATOM     66  C   UNL A   1      44.362  34.550  27.716  1.00  0.00     0.020 A 
ATOM     67  C   UNL A   1      45.673  35.008  27.714  1.00  0.00     0.054 A 
BRANCH  67  68
ATOM     68  S   UNL A   1      46.025  36.779  27.592  1.00  0.00     0.124 S 
ATOM     69  O   UNL A   1      46.456  37.096  28.950  1.00  0.00    -0.237 OA
ATOM     70  O   UNL A   1      47.069  36.815  26.571  1.00  0.00    -0.237 OA
ATOM     71  O   UNL A   1      44.744  37.355  27.189  1.00  0.00    -0.744 OA
ENDBRANCH  67  68
ENDBRANCH  48  62
BRANCH  49  72
ATOM     72  C   UNL A   1      37.345  31.368  31.669  1.00  0.00    -0.014 A 
ATOM     73  C   UNL A   1      36.522  31.435  32.811  1.00  0.00     0.010 A 
ATOM     74  C   UNL A   1      37.028  32.216  30.588  1.00  0.00     0.010 A 
ATOM     75  C   UNL A   1      35.464  32.360  32.894  1.00  0.00     0.020 A 
ATOM     76  C   UNL A   1      35.976  33.140  30.663  1.00  0.00     0.020 A 
ATOM     77  C   UNL A   1      35.212  33.225  31.825  1.00  0.00     0.054 A 
BRANCH  77  78
ATOM     78  S   UNL A   1      33.970  34.543  32.006  1.00  0.00     0.124 S 
ATOM     79  O   UNL A   1      33.098  34.009  33.048  1.00  0.00    -0.237 OA
ATOM     80  O   UNL A   1      34.781  35.695  32.389  1.00  0.00    -0.237 OA
ATOM     81  O   UNL A   1      33.367  34.631  30.677  1.00  0.00    -0.744 OA
ENDBRANCH  77  78
ENDBRANCH  49  72
BRANCH  61  82
ATOM     82  C   UNL A   1      42.913  29.336  33.849  1.00  0.00    -0.014 A 
ATOM     83  C   UNL A   1      43.271  29.547  35.197  1.00  0.00     0.010 A 
ATOM     84  C   UNL A   1      42.242  28.148  33.515  1.00  0.00     0.010 A 
ATOM     85  C   UNL A   1      42.991  28.576  36.174  1.00  0.00     0.020 A 
ATOM     86  C   UNL A   1      41.944  27.187  34.484  1.00  0.00     0.020 A 
ATOM     87  C   UNL A   1      42.330  27.399  35.807  1.00  0.00     0.054 A 
BRANCH  87  88
ATOM     88  S   UNL A   1      41.947  26.152  37.069  1.00  0.00     0.124 S 
ATOM     89  O   UNL A   1      40.565  26.469  37.420  1.00  0.00    -0.237 OA
ATOM     90  O   UNL A   1      42.142  24.893  36.352  1.00  0.00    -0.237 OA
ATOM     91  O   UNL A   1      42.927  26.411  38.123  1.00  0.00    -0.744 OA
ENDBRANCH  87  88
ENDBRANCH  61  82
ENDBRANCH  35  36
ENDBRANCH  28  30
ENDBRANCH  27  28
ENDBRANCH  26  27
ENDBRANCH  25  26
ENDBRANCH  24  25
ENDBRANCH   1  24
TORSDOF 22
ENDMDL
MODEL 2
REMARK VINA RESULT:     -10.3      2.987      9.746
REMARK SMILES Cc1nsc(N(C)C(=O)[C@@H](C)CCC[C@H](C)[NH3+])c1C(=O)OCCOC(=O)c1ccc(-c2c3nc(c(-c4ccc(S(=O)(=O)[O-])cc4)c4ccc([nH]4)c(-c4ccc(S(=O)(=O)[O-])cc4)c4nc(c(-c5ccc(S(=O)(=O)[O-])cc5)c5ccc2[nH]5)C=C4)C=C3)cc1
REMARK SMILES IDX 19 1 20 2 18 3 1 4 2 5 3 6 4 7 5 8 6 9 7 10 8 11 9 12 10 13
REMARK SMILES IDX 11 14 12 15 13 16 14 17 15 18 16 19 17 20 21 24 22 25 23 26
REMARK SMILES IDX 24 27 25 28 26 29 27 30 28 31 86 32 29 33 85 34 30 35 31 36
REMARK SMILES IDX 32 37 79 38 33 39 84 40 78 41 80 42 34 43 83 44 77 45 76 46
REMARK SMILES IDX 35 48 65 49 46 50 64 51 47 52 50 53 63 54 81 55 48 56 49 57
REMARK SMILES IDX 62 59 82 60 51 61 36 62 37 63 45 64 38 65 44 66 39 67 40 68
REMARK SMILES IDX 41 69 42 70 43 71 66 72 67 73 75 74 68 75 74 76 69 77 70 78
REMARK SMILES IDX 71 79 72 80 73 81 52 82 53 83 61 84 54 85 60 86 55 87 56 88
REMARK SMILES IDX 57 89 58 90 59 91
REMARK H PARENT 17 21 17 22 17 23 80 47 50 58
REMARK Flexibility Score: inf
ROOT
ATOM      1  C   UNL A   1      31.537  29.676  24.825  1.00  0.00     0.343 C 
ATOM      2  O   UNL A   1      30.678  30.512  25.096  1.00  0.00    -0.246 OA
ENDROOT
BRANCH   1   3
ATOM      3  C   UNL A   1      31.297  28.490  24.026  1.00  0.00     0.117 A 
ATOM      4  C   UNL A   1      30.256  29.810  21.992  1.00  0.00     0.069 C 
ATOM      5  C   UNL A   1      30.734  28.578  22.688  1.00  0.00     0.068 A 
ATOM      6  N   UNL A   1      30.648  27.437  22.011  1.00  0.00    -0.195 NA
ATOM      7  S   UNL A   1      31.114  26.211  22.987  1.00  0.00    -0.017 S 
ATOM      8  C   UNL A   1      31.510  27.153  24.385  1.00  0.00     0.133 A 
BRANCH   8   9
ATOM      9  N   UNL A   1      31.911  26.430  25.559  1.00  0.00    -0.305 N 
ATOM     10  C   UNL A   1      31.161  26.562  26.815  1.00  0.00     0.154 C 
BRANCH   9  11
ATOM     11  C   UNL A   1      33.140  25.758  25.545  1.00  0.00     0.230 C 
ATOM     12  O   UNL A   1      34.226  26.333  25.430  1.00  0.00    -0.274 OA
BRANCH  11  13
ATOM     13  C   UNL A   1      33.235  24.220  25.669  1.00  0.00     0.076 C 
ATOM     14  C   UNL A   1      32.402  23.580  26.777  1.00  0.00     0.018 C 
BRANCH  13  15
ATOM     15  C   UNL A   1      33.150  23.489  24.318  1.00  0.00     0.013 C 
BRANCH  15  16
ATOM     16  C   UNL A   1      34.412  22.683  23.952  1.00  0.00     0.007 C 
BRANCH  16  17
ATOM     17  C   UNL A   1      35.641  22.949  24.835  1.00  0.00     0.064 C 
BRANCH  17  18
ATOM     18  C   UNL A   1      36.126  21.710  25.613  1.00  0.00     0.177 C 
ATOM     19  C   UNL A   1      37.350  21.051  24.970  1.00  0.00     0.075 C 
BRANCH  18  20
ATOM     20  N   UNL A   1      35.036  20.737  25.745  1.00  0.00    -0.355 N 
ATOM     21  H   UNL A   1      34.959  20.444  26.719  1.00  0.00     0.344 HD
ATOM     22  H   UNL A   1      35.232  19.925  25.159  1.00  0.00     0.344 HD
ATOM     23  H   UNL A   1      34.160  21.167  25.449  1.00  0.00     0.344 HD
ENDBRANCH  18  20
ENDBRANCH  17  18
ENDBRANCH  16  17
ENDBRANCH  15  16
ENDBRANCH  13  15
ENDBRANCH  11  13
ENDBRANCH   9  11
ENDBRANCH   8   9
ENDBRANCH   1   3
BRANCH   1  24
ATOM     24  O   UNL A   1      32.802  29.674  25.324  1.00  0.00    -0.458 OA
BRANCH  24  25
ATOM     25  C   UNL A   1      32.948  29.661  26.745  1.00  0.00     0.275 C 
BRANCH  25  26
ATOM     26  C   UNL A   1      33.244  31.086  27.185  1.00  0.00     0.275 C 
BRANCH  26  27
ATOM     27  O   UNL A   1      34.206  31.105  28.236  1.00  0.00    -0.458 OA
BRANCH  27  28
ATOM     28  C   UNL A   1      35.262  31.943  28.106  1.00  0.00     0.338 C 
ATOM     29  O   UNL A   1      35.290  33.033  27.564  1.00  0.00    -0.246 OA
BRANCH  28  30
ATOM     30  C   UNL A   1      36.459  31.215  28.575  1.00  0.00     0.060 A 
ATOM     31  C   UNL A   1      37.474  31.917  29.234  1.00  0.00     0.016 A 
ATOM     32  C   UNL A   1      36.637  29.875  28.192  1.00  0.00     0.016 A 
ATOM     33  C   UNL A   1      38.706  31.302  29.403  1.00  0.00     0.010 A 
ATOM     34  C   UNL A   1      37.866  29.277  28.336  1.00  0.00     0.010 A 
ATOM     35  C   UNL A   1      38.905  30.010  28.895  1.00  0.00    -0.014 A 
BRANCH  35  36
ATOM     36  C   UNL A   1      40.190  29.360  29.057  1.00  0.00     0.031 A 
ATOM     37  C   UNL A   1      40.567  29.139  30.474  1.00  0.00     0.074 A 
ATOM     38  C   UNL A   1      40.910  28.869  28.029  1.00  0.00     0.049 A 
ATOM     39  N   UNL A   1      41.489  29.758  31.129  1.00  0.00    -0.248 NA
ATOM     40  C   UNL A   1      39.740  28.249  31.304  1.00  0.00     0.031 C 
ATOM     41  C   UNL A   1      40.543  28.767  26.612  1.00  0.00     0.029 A 
ATOM     42  N   UNL A   1      42.126  28.262  28.066  1.00  0.00    -0.354 N 
ATOM     43  C   UNL A   1      41.515  29.186  32.395  1.00  0.00     0.074 A 
ATOM     44  C   UNL A   1      40.327  28.376  32.497  1.00  0.00     0.031 C 
ATOM     45  C   UNL A   1      41.416  27.947  25.978  1.00  0.00     0.029 A 
ATOM     46  C   UNL A   1      42.484  27.596  26.899  1.00  0.00     0.049 A 
ATOM     47  H   UNL A   1      42.709  28.291  28.859  1.00  0.00     0.167 HD
ATOM     48  C   UNL A   1      42.628  29.263  33.174  1.00  0.00     0.031 A 
ATOM     49  C   UNL A   1      43.572  26.802  26.721  1.00  0.00     0.031 A 
ATOM     50  C   UNL A   1      43.567  30.227  32.658  1.00  0.00     0.049 A 
ATOM     51  C   UNL A   1      44.566  27.200  27.748  1.00  0.00     0.074 A 
ATOM     52  C   UNL A   1      43.541  31.589  32.442  1.00  0.00     0.029 A 
ATOM     53  N   UNL A   1      44.597  29.736  31.889  1.00  0.00    -0.354 N 
ATOM     54  N   UNL A   1      45.136  28.373  27.764  1.00  0.00    -0.248 NA
ATOM     55  C   UNL A   1      44.564  26.491  29.018  1.00  0.00     0.031 C 
ATOM     56  C   UNL A   1      44.222  31.774  31.205  1.00  0.00     0.029 A 
ATOM     57  C   UNL A   1      44.697  30.531  30.777  1.00  0.00     0.049 A 
ATOM     58  H   UNL A   1      45.161  28.957  32.100  1.00  0.00     0.167 HD
ATOM     59  C   UNL A   1      45.151  28.740  29.102  1.00  0.00     0.074 A 
ATOM     60  C   UNL A   1      44.874  27.504  29.835  1.00  0.00     0.031 C 
ATOM     61  C   UNL A   1      45.112  30.054  29.475  1.00  0.00     0.031 A 
BRANCH  48  62
ATOM     62  C   UNL A   1      43.051  28.204  34.157  1.00  0.00    -0.014 A 
ATOM     63  C   UNL A   1      43.366  28.600  35.474  1.00  0.00     0.010 A 
ATOM     64  C   UNL A   1      43.429  26.904  33.768  1.00  0.00     0.010 A 
ATOM     65  C   UNL A   1      44.092  27.767  36.330  1.00  0.00     0.020 A 
ATOM     66  C   UNL A   1      44.120  26.048  34.630  1.00  0.00     0.020 A 
ATOM     67  C   UNL A   1      44.476  26.499  35.895  1.00  0.00     0.054 A 
BRANCH  67  68
ATOM     68  S   UNL A   1      45.497  25.473  36.980  1.00  0.00     0.124 S 
ATOM     69  O   UNL A   1      44.730  24.233  37.036  1.00  0.00    -0.237 OA
ATOM     70  O   UNL A   1      46.757  25.407  36.244  1.00  0.00    -0.237 OA
ATOM     71  O   UNL A   1      45.547  26.237  38.225  1.00  0.00    -0.744 OA
ENDBRANCH  67  68
ENDBRANCH  48  62
BRANCH  49  72
ATOM     72  C   UNL A   1      43.668  25.519  25.975  1.00  0.00    -0.014 A 
ATOM     73  C   UNL A   1      44.814  25.191  25.222  1.00  0.00     0.010 A 
ATOM     74  C   UNL A   1      42.756  24.481  26.257  1.00  0.00     0.010 A 
ATOM     75  C   UNL A   1      45.069  23.864  24.824  1.00  0.00     0.020 A 
ATOM     76  C   UNL A   1      43.003  23.158  25.862  1.00  0.00     0.020 A 
ATOM     77  C   UNL A   1      44.171  22.851  25.168  1.00  0.00     0.054 A 
BRANCH  77  78
ATOM     78  S   UNL A   1      44.594  21.115  24.818  1.00  0.00     0.124 S 
ATOM     79  O   UNL A   1      43.501  20.391  25.459  1.00  0.00    -0.237 OA
ATOM     80  O   UNL A   1      44.605  21.078  23.358  1.00  0.00    -0.237 OA
ATOM     81  O   UNL A   1      45.903  20.947  25.447  1.00  0.00    -0.744 OA
ENDBRANCH  77  78
ENDBRANCH  49  72
BRANCH  61  82
ATOM     82  C   UNL A   1      45.315  31.109  28.408  1.00  0.00    -0.014 A 
ATOM     83  C   UNL A   1      44.314  31.531  27.509  1.00  0.00     0.010 A 
ATOM     84  C   UNL A   1      46.538  31.801  28.418  1.00  0.00     0.010 A 
ATOM     85  C   UNL A   1      44.548  32.597  26.624  1.00  0.00     0.020 A 
ATOM     86  C   UNL A   1      46.771  32.873  27.554  1.00  0.00     0.020 A 
ATOM     87  C   UNL A   1      45.780  33.259  26.652  1.00  0.00     0.054 A 
BRANCH  87  88
ATOM     88  S   UNL A   1      46.079  34.650  25.525  1.00  0.00     0.124 S 
ATOM     89  O   UNL A   1      45.261  34.301  24.366  1.00  0.00    -0.237 OA
ATOM     90  O   UNL A   1      45.615  35.801  26.299  1.00  0.00    -0.237 OA
ATOM     91  O   UNL A   1      47.523  34.611  25.297  1.00  0.00    -0.744 OA
ENDBRANCH  87  88
ENDBRANCH  61  82
ENDBRANCH  35  36
ENDBRANCH  28  30
ENDBRANCH  27  28
ENDBRANCH  26  27
ENDBRANCH  25  26
ENDBRANCH  24  25
ENDBRANCH   1  24
TORSDOF 22
ENDMDL
MODEL 3
REMARK VINA RESULT:      -9.9      3.414      7.691
REMARK SMILES Cc1nsc(N(C)C(=O)[C@@H](C)CCC[C@H](C)[NH3+])c1C(=O)OCCOC(=O)c1ccc(-c2c3nc(c(-c4ccc(S(=O)(=O)[O-])cc4)c4ccc([nH]4)c(-c4ccc(S(=O)(=O)[O-])cc4)c4nc(c(-c5ccc(S(=O)(=O)[O-])cc5)c5ccc2[nH]5)C=C4)C=C3)cc1
REMARK SMILES IDX 19 1 20 2 18 3 1 4 2 5 3 6 4 7 5 8 6 9 7 10 8 11 9 12 10 13
REMARK SMILES IDX 11 14 12 15 13 16 14 17 15 18 16 19 17 20 21 24 22 25 23 26
REMARK SMILES IDX 24 27 25 28 26 29 27 30 28 31 86 32 29 33 85 34 30 35 31 36
REMARK SMILES IDX 32 37 79 38 33 39 84 40 78 41 80 42 34 43 83 44 77 45 76 46
REMARK SMILES IDX 35 48 65 49 46 50 64 51 47 52 50 53 63 54 81 55 48 56 49 57
REMARK SMILES IDX 62 59 82 60 51 61 36 62 37 63 45 64 38 65 44 66 39 67 40 68
REMARK SMILES IDX 41 69 42 70 43 71 66 72 67 73 75 74 68 75 74 76 69 77 70 78
REMARK SMILES IDX 71 79 72 80 73 81 52 82 53 83 61 84 54 85 60 86 55 87 56 88
REMARK SMILES IDX 57 89 58 90 59 91
REMARK H PARENT 17 21 17 22 17 23 80 47 50 58
REMARK Flexibility Score: inf
ROOT
ATOM      1  C   UNL A   1      35.307  21.003  25.541  1.00  0.00     0.343 C 
ATOM      2  O   UNL A   1      35.270  21.429  26.694  1.00  0.00    -0.246 OA
ENDROOT
BRANCH   1   3
ATOM      3  C   UNL A   1      34.226  21.142  24.585  1.00  0.00     0.117 A 
ATOM      4  C   UNL A   1      33.171  18.781  25.113  1.00  0.00     0.069 C 
ATOM      5  C   UNL A   1      33.215  20.108  24.429  1.00  0.00     0.068 A 
ATOM      6  N   UNL A   1      32.217  20.385  23.595  1.00  0.00    -0.195 NA
ATOM      7  S   UNL A   1      32.516  21.823  22.878  1.00  0.00    -0.017 S 
ATOM      8  C   UNL A   1      34.001  22.192  23.688  1.00  0.00     0.133 A 
BRANCH   8   9
ATOM      9  N   UNL A   1      34.677  23.393  23.282  1.00  0.00    -0.305 N 
ATOM     10  C   UNL A   1      36.117  23.559  23.517  1.00  0.00     0.154 C 
BRANCH   9  11
ATOM     11  C   UNL A   1      33.909  24.480  22.844  1.00  0.00     0.230 C 
ATOM     12  O   UNL A   1      33.631  24.680  21.659  1.00  0.00    -0.274 OA
BRANCH  11  13
ATOM     13  C   UNL A   1      33.344  25.533  23.825  1.00  0.00     0.076 C 
ATOM     14  C   UNL A   1      32.009  26.164  23.440  1.00  0.00     0.018 C 
BRANCH  13  15
ATOM     15  C   UNL A   1      33.436  25.109  25.301  1.00  0.00     0.013 C 
BRANCH  15  16
ATOM     16  C   UNL A   1      32.294  25.645  26.187  1.00  0.00     0.007 C 
BRANCH  16  17
ATOM     17  C   UNL A   1      31.501  24.577  26.957  1.00  0.00     0.064 C 
BRANCH  17  18
ATOM     18  C   UNL A   1      31.776  23.137  26.479  1.00  0.00     0.177 C 
ATOM     19  C   UNL A   1      30.494  22.382  26.115  1.00  0.00     0.075 C 
BRANCH  18  20
ATOM     20  N   UNL A   1      32.527  22.400  27.502  1.00  0.00    -0.355 N 
ATOM     21  H   UNL A   1      31.920  21.703  27.931  1.00  0.00     0.344 HD
ATOM     22  H   UNL A   1      32.857  23.050  28.215  1.00  0.00     0.344 HD
ATOM     23  H   UNL A   1      33.325  21.937  27.068  1.00  0.00     0.344 HD
ENDBRANCH  18  20
ENDBRANCH  17  18
ENDBRANCH  16  17
ENDBRANCH  15  16
ENDBRANCH  13  15
ENDBRANCH  11  13
ENDBRANCH   9  11
ENDBRANCH   8   9
ENDBRANCH   1   3
BRANCH   1  24
ATOM     24  O   UNL A   1      36.311  20.241  25.028  1.00  0.00    -0.458 OA
BRANCH  24  25
ATOM     25  C   UNL A   1      37.613  20.826  24.963  1.00  0.00     0.275 C 
BRANCH  25  26
ATOM     26  C   UNL A   1      38.616  19.748  25.344  1.00  0.00     0.275 C 
BRANCH  26  27
ATOM     27  O   UNL A   1      39.930  20.106  24.927  1.00  0.00    -0.458 OA
BRANCH  27  28
ATOM     28  C   UNL A   1      40.970  19.646  25.663  1.00  0.00     0.338 C 
ATOM     29  O   UNL A   1      41.348  18.495  25.786  1.00  0.00    -0.246 OA
BRANCH  28  30
ATOM     30  C   UNL A   1      41.470  20.779  26.469  1.00  0.00     0.060 A 
ATOM     31  C   UNL A   1      41.160  20.841  27.832  1.00  0.00     0.016 A 
ATOM     32  C   UNL A   1      42.089  21.859  25.818  1.00  0.00     0.016 A 
ATOM     33  C   UNL A   1      41.370  22.033  28.508  1.00  0.00     0.010 A 
ATOM     34  C   UNL A   1      42.272  23.048  26.483  1.00  0.00     0.010 A 
ATOM     35  C   UNL A   1      41.866  23.143  27.807  1.00  0.00    -0.014 A 
BRANCH  35  36
ATOM     36  C   UNL A   1      42.082  24.397  28.501  1.00  0.00     0.031 A 
ATOM     37  C   UNL A   1      41.006  25.392  28.273  1.00  0.00     0.074 A 
ATOM     38  C   UNL A   1      43.080  24.597  29.384  1.00  0.00     0.049 A 
ATOM     39  N   UNL A   1      41.094  26.472  27.573  1.00  0.00    -0.248 NA
ATOM     40  C   UNL A   1      39.643  25.091  28.737  1.00  0.00     0.031 C 
ATOM     41  C   UNL A   1      44.047  23.630  29.914  1.00  0.00     0.029 A 
ATOM     42  N   UNL A   1      43.383  25.730  30.071  1.00  0.00    -0.354 N 
ATOM     43  C   UNL A   1      39.865  27.108  27.686  1.00  0.00     0.074 A 
ATOM     44  C   UNL A   1      38.967  26.149  28.281  1.00  0.00     0.031 C 
ATOM     45  C   UNL A   1      44.675  24.165  30.989  1.00  0.00     0.029 A 
ATOM     46  C   UNL A   1      44.273  25.556  31.125  1.00  0.00     0.049 A 
ATOM     47  H   UNL A   1      43.001  26.608  29.840  1.00  0.00     0.167 HD
ATOM     48  C   UNL A   1      39.748  28.447  27.474  1.00  0.00     0.031 A 
ATOM     49  C   UNL A   1      44.632  26.488  32.046  1.00  0.00     0.031 A 
ATOM     50  C   UNL A   1      40.928  28.986  26.846  1.00  0.00     0.049 A 
ATOM     51  C   UNL A   1      44.368  27.815  31.436  1.00  0.00     0.074 A 
ATOM     52  C   UNL A   1      41.568  28.781  25.642  1.00  0.00     0.029 A 
ATOM     53  N   UNL A   1      41.852  29.579  27.676  1.00  0.00    -0.354 N 
ATOM     54  N   UNL A   1      45.018  28.256  30.395  1.00  0.00    -0.248 NA
ATOM     55  C   UNL A   1      43.075  28.437  31.672  1.00  0.00     0.031 C 
ATOM     56  C   UNL A   1      42.957  28.809  25.958  1.00  0.00     0.029 A 
ATOM     57  C   UNL A   1      43.090  29.112  27.316  1.00  0.00     0.049 A 
ATOM     58  H   UNL A   1      41.660  30.223  28.396  1.00  0.00     0.167 HD
ATOM     59  C   UNL A   1      44.050  28.859  29.604  1.00  0.00     0.074 A 
ATOM     60  C   UNL A   1      42.893  29.023  30.485  1.00  0.00     0.031 C 
ATOM     61  C   UNL A   1      44.183  28.914  28.245  1.00  0.00     0.031 A 
BRANCH  48  62
ATOM     62  C   UNL A   1      38.759  29.336  28.180  1.00  0.00    -0.014 A 
ATOM     63  C   UNL A   1      37.523  29.595  27.552  1.00  0.00     0.010 A 
ATOM     64  C   UNL A   1      39.107  30.150  29.277  1.00  0.00     0.010 A 
ATOM     65  C   UNL A   1      36.714  30.663  27.951  1.00  0.00     0.020 A 
ATOM     66  C   UNL A   1      38.287  31.195  29.709  1.00  0.00     0.020 A 
ATOM     67  C   UNL A   1      37.110  31.465  29.021  1.00  0.00     0.054 A 
BRANCH  67  68
ATOM     68  S   UNL A   1      36.100  32.900  29.460  1.00  0.00     0.124 S 
ATOM     69  O   UNL A   1      36.231  32.929  30.913  1.00  0.00    -0.237 OA
ATOM     70  O   UNL A   1      36.771  33.980  28.741  1.00  0.00    -0.237 OA
ATOM     71  O   UNL A   1      34.773  32.551  28.956  1.00  0.00    -0.744 OA
ENDBRANCH  67  68
ENDBRANCH  48  62
BRANCH  49  72
ATOM     72  C   UNL A   1      44.843  26.311  33.507  1.00  0.00    -0.014 A 
ATOM     73  C   UNL A   1      45.384  27.342  34.301  1.00  0.00     0.010 A 
ATOM     74  C   UNL A   1      44.223  25.234  34.173  1.00  0.00     0.010 A 
ATOM     75  C   UNL A   1      45.252  27.328  35.703  1.00  0.00     0.020 A 
ATOM     76  C   UNL A   1      44.088  25.213  35.569  1.00  0.00     0.020 A 
ATOM     77  C   UNL A   1      44.582  26.272  36.327  1.00  0.00     0.054 A 
BRANCH  77  78
ATOM     78  S   UNL A   1      44.248  26.348  38.115  1.00  0.00     0.124 S 
ATOM     79  O   UNL A   1      44.884  27.605  38.498  1.00  0.00    -0.237 OA
ATOM     80  O   UNL A   1      42.789  26.336  38.168  1.00  0.00    -0.237 OA
ATOM     81  O   UNL A   1      44.892  25.143  38.636  1.00  0.00    -0.744 OA
ENDBRANCH  77  78
ENDBRANCH  49  72
BRANCH  61  82
ATOM     82  C   UNL A   1      45.518  28.543  27.638  1.00  0.00    -0.014 A 
ATOM     83  C   UNL A   1      45.880  27.235  27.256  1.00  0.00     0.010 A 
ATOM     84  C   UNL A   1      46.388  29.598  27.311  1.00  0.00     0.010 A 
ATOM     85  C   UNL A   1      47.095  26.991  26.594  1.00  0.00     0.020 A 
ATOM     86  C   UNL A   1      47.588  29.365  26.637  1.00  0.00     0.020 A 
ATOM     87  C   UNL A   1      47.943  28.061  26.291  1.00  0.00     0.054 A 
BRANCH  87  88
ATOM     88  S   UNL A   1      49.504  27.754  25.417  1.00  0.00     0.124 S 
ATOM     89  O   UNL A   1      49.075  27.660  24.024  1.00  0.00    -0.237 OA
ATOM     90  O   UNL A   1      50.302  28.931  25.753  1.00  0.00    -0.237 OA
ATOM     91  O   UNL A   1      49.989  26.503  25.999  1.00  0.00    -0.744 OA
ENDBRANCH  87  88
ENDBRANCH  61  82
ENDBRANCH  35  36
ENDBRANCH  28  30
ENDBRANCH  27  28
ENDBRANCH  26  27
ENDBRANCH  25  26
ENDBRANCH  24  25
ENDBRANCH   1  24
TORSDOF 22
ENDMDL
