MODEL 1
REMARK VINA RESULT:     -11.0      0.000      0.000
REMARK SMILES CC1(C)NC(=O)N(CCC(=O)N2CCC[C@H]2C(=O)OCCOC(=O)c2ccc(-c3c4nc(c(-c5ccc(S(=O)(=O)[O-])cc5)c5ccc([nH]5)c(-c5ccc(S(=O)(=O)[O-])cc5)c5nc(c(-c6ccc(S(=O)(=O)[O-])cc6)c6ccc3[nH]6)C=C5)C=C4)cc2)C1=O
REMARK SMILES IDX 20 1 19 2 17 3 18 4 16 5 12 6 13 7 14 8 15 9 10 10 11 11
REMARK SMILES IDX 9 12 8 13 7 14 1 15 2 16 3 17 4 18 85 19 5 20 86 22 6 23
REMARK SMILES IDX 21 24 22 25 23 26 24 27 25 28 26 29 84 30 27 31 83 32 28 33
REMARK SMILES IDX 29 34 30 35 77 36 31 37 82 38 76 39 78 40 32 41 81 42 75 43
REMARK SMILES IDX 74 44 33 46 63 47 44 48 62 49 45 50 48 51 61 52 79 53 46 54
REMARK SMILES IDX 47 55 60 57 80 58 49 59 34 60 35 61 43 62 36 63 42 64 37 65
REMARK SMILES IDX 38 66 39 67 40 68 41 69 64 70 65 71 73 72 66 73 72 74 67 75
REMARK SMILES IDX 68 76 69 77 70 78 71 79 50 80 51 81 59 82 52 83 58 84 53 85
REMARK SMILES IDX 54 86 55 87 56 88 57 89
REMARK H PARENT 4 21 78 45 48 56
REMARK Flexibility Score: inf
ROOT
ATOM      1  C   UNL A   1      32.757  29.609  25.700  1.00  0.00     0.274 C 
ENDROOT
BRANCH   1   2
ATOM      2  O   UNL A   1      31.556  28.814  25.882  1.00  0.00    -0.461 OA
BRANCH   2   3
ATOM      3  C   UNL A   1      31.667  27.750  26.734  1.00  0.00     0.328 C 
ATOM      4  O   UNL A   1      31.359  27.792  27.922  1.00  0.00    -0.250 OA
BRANCH   3   5
ATOM      5  C   UNL A   1      31.951  26.421  25.987  1.00  0.00     0.195 C 
ATOM      6  N   UNL A   1      31.599  26.251  24.579  1.00  0.00    -0.329 N 
ATOM      7  C   UNL A   1      32.809  26.046  23.800  1.00  0.00     0.120 C 
ATOM      8  C   UNL A   1      33.677  25.248  24.754  1.00  0.00     0.024 C 
ATOM      9  C   UNL A   1      33.402  25.921  26.097  1.00  0.00     0.039 C 
BRANCH   6  10
ATOM     10  C   UNL A   1      30.378  25.849  24.078  1.00  0.00     0.225 C 
ATOM     11  O   UNL A   1      30.271  24.822  23.403  1.00  0.00    -0.275 OA
BRANCH  10  12
ATOM     12  C   UNL A   1      29.143  26.679  24.361  1.00  0.00     0.122 C 
BRANCH  12  13
ATOM     13  C   UNL A   1      28.502  27.308  23.126  1.00  0.00     0.140 C 
BRANCH  13  14
ATOM     14  N   UNL A   1      28.833  28.701  22.782  1.00  0.00    -0.262 N 
ATOM     15  C   UNL A   1      29.106  31.958  23.796  1.00  0.00     0.045 C 
ATOM     16  C   UNL A   1      28.865  31.078  22.578  1.00  0.00     0.115 C 
ATOM     17  C   UNL A   1      28.121  31.841  21.486  1.00  0.00     0.045 C 
ATOM     18  N   UNL A   1      30.059  30.437  22.103  1.00  0.00    -0.324 N 
ATOM     19  C   UNL A   1      28.088  29.828  22.979  1.00  0.00     0.255 C 
ATOM     20  C   UNL A   1      30.028  29.066  22.238  1.00  0.00     0.325 C 
ATOM     21  H   UNL A   1      30.822  30.927  21.720  1.00  0.00     0.166 HD
ATOM     22  O   UNL A   1      26.928  29.879  23.362  1.00  0.00    -0.272 OA
ATOM     23  O   UNL A   1      30.934  28.334  21.888  1.00  0.00    -0.248 OA
ENDBRANCH  13  14
ENDBRANCH  12  13
ENDBRANCH  10  12
ENDBRANCH   6  10
ENDBRANCH   3   5
ENDBRANCH   2   3
ENDBRANCH   1   2
BRANCH   1  24
ATOM     24  C   UNL A   1      32.780  30.845  26.636  1.00  0.00     0.275 C 
BRANCH  24  25
ATOM     25  O   UNL A   1      33.242  30.548  27.982  1.00  0.00    -0.458 OA
BRANCH  25  26
ATOM     26  C   UNL A   1      34.349  31.225  28.403  1.00  0.00     0.338 C 
ATOM     27  O   UNL A   1      34.348  32.392  28.768  1.00  0.00    -0.246 OA
BRANCH  26  28
ATOM     28  C   UNL A   1      35.585  30.370  28.482  1.00  0.00     0.060 A 
ATOM     29  C   UNL A   1      36.060  29.851  29.678  1.00  0.00     0.016 A 
ATOM     30  C   UNL A   1      36.389  30.189  27.355  1.00  0.00     0.016 A 
ATOM     31  C   UNL A   1      37.397  29.428  29.809  1.00  0.00     0.010 A 
ATOM     32  C   UNL A   1      37.672  29.602  27.460  1.00  0.00     0.010 A 
ATOM     33  C   UNL A   1      38.254  29.305  28.707  1.00  0.00    -0.014 A 
BRANCH  33  34
ATOM     34  C   UNL A   1      39.729  28.957  28.835  1.00  0.00     0.031 A 
ATOM     35  C   UNL A   1      40.723  30.001  29.344  1.00  0.00     0.074 A 
ATOM     36  C   UNL A   1      40.243  27.734  28.549  1.00  0.00     0.049 A 
ATOM     37  N   UNL A   1      42.028  30.048  29.211  1.00  0.00    -0.248 NA
ATOM     38  C   UNL A   1      40.170  31.152  30.079  1.00  0.00     0.031 C 
ATOM     39  C   UNL A   1      39.493  26.545  28.143  1.00  0.00     0.029 A 
ATOM     40  N   UNL A   1      41.552  27.285  28.568  1.00  0.00    -0.354 N 
ATOM     41  C   UNL A   1      42.429  31.280  29.731  1.00  0.00     0.074 A 
ATOM     42  C   UNL A   1      41.232  31.937  30.207  1.00  0.00     0.031 C 
ATOM     43  C   UNL A   1      40.327  25.501  28.031  1.00  0.00     0.029 A 
ATOM     44  C   UNL A   1      41.696  25.966  28.192  1.00  0.00     0.049 A 
ATOM     45  H   UNL A   1      42.311  27.856  28.826  1.00  0.00     0.167 HD
ATOM     46  C   UNL A   1      43.672  31.823  29.795  1.00  0.00     0.031 A 
ATOM     47  C   UNL A   1      42.786  25.217  27.917  1.00  0.00     0.031 A 
ATOM     48  C   UNL A   1      44.886  31.133  29.440  1.00  0.00     0.049 A 
ATOM     49  C   UNL A   1      44.153  25.841  27.951  1.00  0.00     0.074 A 
ATOM     50  C   UNL A   1      46.190  31.604  29.490  1.00  0.00     0.029 A 
ATOM     51  N   UNL A   1      44.959  29.819  29.012  1.00  0.00    -0.354 N 
ATOM     52  N   UNL A   1      44.497  27.057  28.300  1.00  0.00    -0.248 NA
ATOM     53  C   UNL A   1      45.278  24.998  27.516  1.00  0.00     0.031 C 
ATOM     54  C   UNL A   1      47.045  30.587  29.048  1.00  0.00     0.029 A 
ATOM     55  C   UNL A   1      46.279  29.468  28.779  1.00  0.00     0.049 A 
ATOM     56  H   UNL A   1      44.186  29.222  28.892  1.00  0.00     0.167 HD
ATOM     57  C   UNL A   1      45.878  27.117  28.138  1.00  0.00     0.074 A 
ATOM     58  C   UNL A   1      46.309  25.812  27.688  1.00  0.00     0.031 C 
ATOM     59  C   UNL A   1      46.711  28.169  28.335  1.00  0.00     0.031 A 
BRANCH  46  60
ATOM     60  C   UNL A   1      43.795  33.273  30.204  1.00  0.00    -0.014 A 
ATOM     61  C   UNL A   1      44.069  33.667  31.524  1.00  0.00     0.010 A 
ATOM     62  C   UNL A   1      43.703  34.263  29.205  1.00  0.00     0.010 A 
ATOM     63  C   UNL A   1      44.211  35.024  31.843  1.00  0.00     0.020 A 
ATOM     64  C   UNL A   1      43.873  35.615  29.512  1.00  0.00     0.020 A 
ATOM     65  C   UNL A   1      44.109  35.990  30.835  1.00  0.00     0.054 A 
BRANCH  65  66
ATOM     66  S   UNL A   1      44.323  37.740  31.267  1.00  0.00     0.124 S 
ATOM     67  O   UNL A   1      43.743  38.409  30.105  1.00  0.00    -0.237 OA
ATOM     68  O   UNL A   1      43.562  37.861  32.506  1.00  0.00    -0.237 OA
ATOM     69  O   UNL A   1      45.769  37.888  31.410  1.00  0.00    -0.744 OA
ENDBRANCH  65  66
ENDBRANCH  46  60
BRANCH  47  70
ATOM     70  C   UNL A   1      42.630  23.801  27.465  1.00  0.00    -0.014 A 
ATOM     71  C   UNL A   1      42.427  23.495  26.108  1.00  0.00     0.010 A 
ATOM     72  C   UNL A   1      42.657  22.749  28.402  1.00  0.00     0.010 A 
ATOM     73  C   UNL A   1      42.240  22.169  25.700  1.00  0.00     0.020 A 
ATOM     74  C   UNL A   1      42.512  21.422  27.993  1.00  0.00     0.020 A 
ATOM     75  C   UNL A   1      42.289  21.141  26.645  1.00  0.00     0.054 A 
BRANCH  75  76
ATOM     76  S   UNL A   1      42.100  19.423  26.093  1.00  0.00     0.124 S 
ATOM     77  O   UNL A   1      40.677  19.361  25.774  1.00  0.00    -0.237 OA
ATOM     78  O   UNL A   1      43.009  19.352  24.952  1.00  0.00    -0.237 OA
ATOM     79  O   UNL A   1      42.517  18.645  27.258  1.00  0.00    -0.744 OA
ENDBRANCH  75  76
ENDBRANCH  47  70
BRANCH  59  80
ATOM     80  C   UNL A   1      48.182  27.934  28.116  1.00  0.00    -0.014 A 
ATOM     81  C   UNL A   1      48.744  27.973  26.827  1.00  0.00     0.010 A 
ATOM     82  C   UNL A   1      49.015  27.671  29.218  1.00  0.00     0.010 A 
ATOM     83  C   UNL A   1      50.104  27.707  26.640  1.00  0.00     0.020 A 
ATOM     84  C   UNL A   1      50.381  27.431  29.039  1.00  0.00     0.020 A 
ATOM     85  C   UNL A   1      50.912  27.430  27.747  1.00  0.00     0.054 A 
BRANCH  85  86
ATOM     86  S   UNL A   1      52.675  27.091  27.483  1.00  0.00     0.124 S 
ATOM     87  O   UNL A   1      53.298  28.313  27.985  1.00  0.00    -0.237 OA
ATOM     88  O   UNL A   1      52.898  25.895  28.293  1.00  0.00    -0.237 OA
ATOM     89  O   UNL A   1      52.776  26.886  26.040  1.00  0.00    -0.744 OA
ENDBRANCH  85  86
ENDBRANCH  59  80
ENDBRANCH  33  34
ENDBRANCH  26  28
ENDBRANCH  25  26
ENDBRANCH  24  25
ENDBRANCH   1  24
TORSDOF 18
ENDMDL
MODEL 2
REMARK VINA RESULT:     -10.7      1.694      3.814
REMARK SMILES CC1(C)NC(=O)N(CCC(=O)N2CCC[C@H]2C(=O)OCCOC(=O)c2ccc(-c3c4nc(c(-c5ccc(S(=O)(=O)[O-])cc5)c5ccc([nH]5)c(-c5ccc(S(=O)(=O)[O-])cc5)c5nc(c(-c6ccc(S(=O)(=O)[O-])cc6)c6ccc3[nH]6)C=C5)C=C4)cc2)C1=O
REMARK SMILES IDX 20 1 19 2 17 3 18 4 16 5 12 6 13 7 14 8 15 9 10 10 11 11
REMARK SMILES IDX 9 12 8 13 7 14 1 15 2 16 3 17 4 18 85 19 5 20 86 22 6 23
REMARK SMILES IDX 21 24 22 25 23 26 24 27 25 28 26 29 84 30 27 31 83 32 28 33
REMARK SMILES IDX 29 34 30 35 77 36 31 37 82 38 76 39 78 40 32 41 81 42 75 43
REMARK SMILES IDX 74 44 33 46 63 47 44 48 62 49 45 50 48 51 61 52 79 53 46 54
REMARK SMILES IDX 47 55 60 57 80 58 49 59 34 60 35 61 43 62 36 63 42 64 37 65
REMARK SMILES IDX 38 66 39 67 40 68 41 69 64 70 65 71 73 72 66 73 72 74 67 75
REMARK SMILES IDX 68 76 69 77 70 78 71 79 50 80 51 81 59 82 52 83 58 84 53 85
REMARK SMILES IDX 54 86 55 87 56 88 57 89
REMARK H PARENT 4 21 78 45 48 56
REMARK Flexibility Score: inf
ROOT
ATOM      1  C   UNL A   1      32.087  30.037  25.950  1.00  0.00     0.274 C 
ENDROOT
BRANCH   1   2
ATOM      2  O   UNL A   1      32.182  29.676  24.547  1.00  0.00    -0.461 OA
BRANCH   2   3
ATOM      3  C   UNL A   1      31.235  28.800  24.091  1.00  0.00     0.328 C 
ATOM      4  O   UNL A   1      30.135  29.145  23.667  1.00  0.00    -0.250 OA
BRANCH   3   5
ATOM      5  C   UNL A   1      31.797  27.368  23.900  1.00  0.00     0.195 C 
ATOM      6  N   UNL A   1      31.125  26.206  24.476  1.00  0.00    -0.329 N 
ATOM      7  C   UNL A   1      30.668  25.333  23.407  1.00  0.00     0.120 C 
ATOM      8  C   UNL A   1      31.767  25.486  22.373  1.00  0.00     0.024 C 
ATOM      9  C   UNL A   1      32.081  26.979  22.439  1.00  0.00     0.039 C 
BRANCH   6  10
ATOM     10  C   UNL A   1      31.289  25.708  25.753  1.00  0.00     0.225 C 
ATOM     11  O   UNL A   1      30.346  25.662  26.547  1.00  0.00    -0.275 OA
BRANCH  10  12
ATOM     12  C   UNL A   1      32.650  25.207  26.191  1.00  0.00     0.122 C 
BRANCH  12  13
ATOM     13  C   UNL A   1      32.847  23.698  26.053  1.00  0.00     0.140 C 
BRANCH  13  14
ATOM     14  N   UNL A   1      34.215  23.163  25.960  1.00  0.00    -0.262 N 
ATOM     15  C   UNL A   1      37.583  23.775  25.992  1.00  0.00     0.045 C 
ATOM     16  C   UNL A   1      36.524  22.815  25.467  1.00  0.00     0.115 C 
ATOM     17  C   UNL A   1      37.019  22.070  24.231  1.00  0.00     0.045 C 
ATOM     18  N   UNL A   1      36.007  21.940  26.481  1.00  0.00    -0.324 N 
ATOM     19  C   UNL A   1      35.238  23.573  25.152  1.00  0.00     0.255 C 
ATOM     20  C   UNL A   1      34.676  22.162  26.761  1.00  0.00     0.325 C 
ATOM     21  H   UNL A   1      36.549  21.252  26.931  1.00  0.00     0.166 HD
ATOM     22  O   UNL A   1      35.169  24.388  24.244  1.00  0.00    -0.272 OA
ATOM     23  O   UNL A   1      34.044  21.522  27.581  1.00  0.00    -0.248 OA
ENDBRANCH  13  14
ENDBRANCH  12  13
ENDBRANCH  10  12
ENDBRANCH   6  10
ENDBRANCH   3   5
ENDBRANCH   2   3
ENDBRANCH   1   2
BRANCH   1  24
ATOM     24  C   UNL A   1      33.483  30.116  26.622  1.00  0.00     0.275 C 
BRANCH  24  25
ATOM     25  O   UNL A   1      33.446  30.630  27.982  1.00  0.00    -0.458 OA
BRANCH  25  26
ATOM     26  C   UNL A   1      34.570  31.271  28.415  1.00  0.00     0.338 C 
ATOM     27  O   UNL A   1      34.595  32.424  28.819  1.00  0.00    -0.246 OA
BRANCH  26  28
ATOM     28  C   UNL A   1      35.790  30.389  28.453  1.00  0.00     0.060 A 
ATOM     29  C   UNL A   1      36.192  29.719  29.600  1.00  0.00     0.016 A 
ATOM     30  C   UNL A   1      36.652  30.334  27.356  1.00  0.00     0.016 A 
ATOM     31  C   UNL A   1      37.515  29.258  29.748  1.00  0.00     0.010 A 
ATOM     32  C   UNL A   1      37.921  29.716  27.457  1.00  0.00     0.010 A 
ATOM     33  C   UNL A   1      38.430  29.257  28.687  1.00  0.00    -0.014 A 
BRANCH  33  34
ATOM     34  C   UNL A   1      39.891  28.869  28.849  1.00  0.00     0.031 A 
ATOM     35  C   UNL A   1      40.899  29.882  29.392  1.00  0.00     0.074 A 
ATOM     36  C   UNL A   1      40.380  27.634  28.566  1.00  0.00     0.049 A 
ATOM     37  N   UNL A   1      42.208  29.896  29.292  1.00  0.00    -0.248 NA
ATOM     38  C   UNL A   1      40.357  31.042  30.122  1.00  0.00     0.031 C 
ATOM     39  C   UNL A   1      39.610  26.469  28.131  1.00  0.00     0.029 A 
ATOM     40  N   UNL A   1      41.675  27.151  28.615  1.00  0.00    -0.354 N 
ATOM     41  C   UNL A   1      42.627  31.112  29.833  1.00  0.00     0.074 A 
ATOM     42  C   UNL A   1      41.436  31.797  30.283  1.00  0.00     0.031 C 
ATOM     43  C   UNL A   1      40.418  25.404  28.032  1.00  0.00     0.029 A 
ATOM     44  C   UNL A   1      41.795  25.831  28.232  1.00  0.00     0.049 A 
ATOM     45  H   UNL A   1      42.442  27.699  28.897  1.00  0.00     0.167 HD
ATOM     46  C   UNL A   1      43.882  31.622  29.933  1.00  0.00     0.031 A 
ATOM     47  C   UNL A   1      42.871  25.056  27.979  1.00  0.00     0.031 A 
ATOM     48  C   UNL A   1      45.087  30.903  29.603  1.00  0.00     0.049 A 
ATOM     49  C   UNL A   1      44.253  25.643  28.052  1.00  0.00     0.074 A 
ATOM     50  C   UNL A   1      46.401  31.338  29.689  1.00  0.00     0.029 A 
ATOM     51  N   UNL A   1      45.135  29.590  29.166  1.00  0.00    -0.354 N 
ATOM     52  N   UNL A   1      44.619  26.846  28.420  1.00  0.00    -0.248 NA
ATOM     53  C   UNL A   1      45.365  24.774  27.639  1.00  0.00     0.031 C 
ATOM     54  C   UNL A   1      47.240  30.303  29.261  1.00  0.00     0.029 A 
ATOM     55  C   UNL A   1      46.451  29.206  28.963  1.00  0.00     0.049 A 
ATOM     56  H   UNL A   1      44.350  29.014  29.021  1.00  0.00     0.167 HD
ATOM     57  C   UNL A   1      46.006  26.872  28.294  1.00  0.00     0.074 A 
ATOM     58  C   UNL A   1      46.413  25.558  27.844  1.00  0.00     0.031 C 
ATOM     59  C   UNL A   1      46.860  27.899  28.520  1.00  0.00     0.031 A 
BRANCH  46  60
ATOM     60  C   UNL A   1      44.033  33.065  30.356  1.00  0.00    -0.014 A 
ATOM     61  C   UNL A   1      44.229  33.445  31.694  1.00  0.00     0.010 A 
ATOM     62  C   UNL A   1      44.051  34.060  29.358  1.00  0.00     0.010 A 
ATOM     63  C   UNL A   1      44.401  34.795  32.029  1.00  0.00     0.020 A 
ATOM     64  C   UNL A   1      44.252  35.403  29.683  1.00  0.00     0.020 A 
ATOM     65  C   UNL A   1      44.408  35.766  31.021  1.00  0.00     0.054 A 
BRANCH  65  66
ATOM     66  S   UNL A   1      44.660  37.505  31.476  1.00  0.00     0.124 S 
ATOM     67  O   UNL A   1      44.260  37.509  32.881  1.00  0.00    -0.237 OA
ATOM     68  O   UNL A   1      46.085  37.699  31.228  1.00  0.00    -0.237 OA
ATOM     69  O   UNL A   1      43.769  38.233  30.575  1.00  0.00    -0.744 OA
ENDBRANCH  65  66
ENDBRANCH  46  60
BRANCH  47  70
ATOM     70  C   UNL A   1      42.690  23.647  27.511  1.00  0.00    -0.014 A 
ATOM     71  C   UNL A   1      42.657  23.341  26.139  1.00  0.00     0.010 A 
ATOM     72  C   UNL A   1      42.520  22.606  28.444  1.00  0.00     0.010 A 
ATOM     73  C   UNL A   1      42.444  22.026  25.711  1.00  0.00     0.020 A 
ATOM     74  C   UNL A   1      42.348  21.286  28.021  1.00  0.00     0.020 A 
ATOM     75  C   UNL A   1      42.296  21.006  26.654  1.00  0.00     0.054 A 
BRANCH  75  76
ATOM     76  S   UNL A   1      42.077  19.298  26.084  1.00  0.00     0.124 S 
ATOM     77  O   UNL A   1      42.460  18.532  27.265  1.00  0.00    -0.237 OA
ATOM     78  O   UNL A   1      40.660  19.258  25.733  1.00  0.00    -0.237 OA
ATOM     79  O   UNL A   1      42.992  19.201  24.948  1.00  0.00    -0.744 OA
ENDBRANCH  75  76
ENDBRANCH  47  70
BRANCH  59  80
ATOM     80  C   UNL A   1      48.330  27.627  28.336  1.00  0.00    -0.014 A 
ATOM     81  C   UNL A   1      49.137  27.210  29.410  1.00  0.00     0.010 A 
ATOM     82  C   UNL A   1      48.912  27.788  27.066  1.00  0.00     0.010 A 
ATOM     83  C   UNL A   1      50.508  27.007  29.228  1.00  0.00     0.020 A 
ATOM     84  C   UNL A   1      50.277  27.559  26.873  1.00  0.00     0.020 A 
ATOM     85  C   UNL A   1      51.070  27.191  27.961  1.00  0.00     0.054 A 
BRANCH  85  86
ATOM     86  S   UNL A   1      52.851  26.918  27.745  1.00  0.00     0.124 S 
ATOM     87  O   UNL A   1      53.278  26.601  29.105  1.00  0.00    -0.237 OA
ATOM     88  O   UNL A   1      52.894  25.805  26.798  1.00  0.00    -0.237 OA
ATOM     89  O   UNL A   1      53.336  28.193  27.220  1.00  0.00    -0.744 OA
ENDBRANCH  85  86
ENDBRANCH  59  80
ENDBRANCH  33  34
ENDBRANCH  26  28
ENDBRANCH  25  26
ENDBRANCH  24  25
ENDBRANCH   1  24
TORSDOF 18
ENDMDL
MODEL 3
REMARK VINA RESULT:     -10.6      3.830     10.000
REMARK SMILES CC1(C)NC(=O)N(CCC(=O)N2CCC[C@H]2C(=O)OCCOC(=O)c2ccc(-c3c4nc(c(-c5ccc(S(=O)(=O)[O-])cc5)c5ccc([nH]5)c(-c5ccc(S(=O)(=O)[O-])cc5)c5nc(c(-c6ccc(S(=O)(=O)[O-])cc6)c6ccc3[nH]6)C=C5)C=C4)cc2)C1=O
REMARK SMILES IDX 20 1 19 2 17 3 18 4 16 5 12 6 13 7 14 8 15 9 10 10 11 11
REMARK SMILES IDX 9 12 8 13 7 14 1 15 2 16 3 17 4 18 85 19 5 20 86 22 6 23
REMARK SMILES IDX 21 24 22 25 23 26 24 27 25 28 26 29 84 30 27 31 83 32 28 33
REMARK SMILES IDX 29 34 30 35 77 36 31 37 82 38 76 39 78 40 32 41 81 42 75 43
REMARK SMILES IDX 74 44 33 46 63 47 44 48 62 49 45 50 48 51 61 52 79 53 46 54
REMARK SMILES IDX 47 55 60 57 80 58 49 59 34 60 35 61 43 62 36 63 42 64 37 65
REMARK SMILES IDX 38 66 39 67 40 68 41 69 64 70 65 71 73 72 66 73 72 74 67 75
REMARK SMILES IDX 68 76 69 77 70 78 71 79 50 80 51 81 59 82 52 83 58 84 53 85
REMARK SMILES IDX 54 86 55 87 56 88 57 89
REMARK H PARENT 4 21 78 45 48 56
REMARK Flexibility Score: inf
ROOT
ATOM      1  C   UNL A   1      36.749  33.260  33.240  1.00  0.00     0.274 C 
ENDROOT
BRANCH   1   2
ATOM      2  O   UNL A   1      36.118  33.176  31.936  1.00  0.00    -0.461 OA
BRANCH   2   3
ATOM      3  C   UNL A   1      34.778  33.449  31.902  1.00  0.00     0.328 C 
ATOM      4  O   UNL A   1      33.909  32.647  32.233  1.00  0.00    -0.250 OA
BRANCH   3   5
ATOM      5  C   UNL A   1      34.487  34.956  31.676  1.00  0.00     0.195 C 
ATOM      6  N   UNL A   1      33.288  35.400  30.969  1.00  0.00    -0.329 N 
ATOM      7  C   UNL A   1      32.450  36.169  31.875  1.00  0.00     0.120 C 
ATOM      8  C   UNL A   1      33.475  36.889  32.730  1.00  0.00     0.024 C 
ATOM      9  C   UNL A   1      34.539  35.817  32.951  1.00  0.00     0.039 C 
BRANCH   6  10
ATOM     10  C   UNL A   1      33.142  35.540  29.605  1.00  0.00     0.225 C 
ATOM     11  O   UNL A   1      33.046  36.655  29.083  1.00  0.00    -0.275 OA
BRANCH  10  12
ATOM     12  C   UNL A   1      33.098  34.307  28.725  1.00  0.00     0.122 C 
BRANCH  12  13
ATOM     13  C   UNL A   1      34.443  33.906  28.124  1.00  0.00     0.140 C 
BRANCH  13  14
ATOM     14  N   UNL A   1      34.808  32.481  28.079  1.00  0.00    -0.262 N 
ATOM     15  C   UNL A   1      36.043  29.744  29.723  1.00  0.00     0.045 C 
ATOM     16  C   UNL A   1      35.890  30.370  28.343  1.00  0.00     0.115 C 
ATOM     17  C   UNL A   1      36.939  29.833  27.375  1.00  0.00     0.045 C 
ATOM     18  N   UNL A   1      34.552  30.277  27.831  1.00  0.00    -0.324 N 
ATOM     19  C   UNL A   1      35.985  31.889  28.443  1.00  0.00     0.255 C 
ATOM     20  C   UNL A   1      33.939  31.504  27.694  1.00  0.00     0.325 C 
ATOM     21  H   UNL A   1      34.117  29.425  27.600  1.00  0.00     0.166 HD
ATOM     22  O   UNL A   1      37.021  32.458  28.753  1.00  0.00    -0.272 OA
ATOM     23  O   UNL A   1      32.808  31.649  27.268  1.00  0.00    -0.248 OA
ENDBRANCH  13  14
ENDBRANCH  12  13
ENDBRANCH  10  12
ENDBRANCH   6  10
ENDBRANCH   3   5
ENDBRANCH   2   3
ENDBRANCH   1   2
BRANCH   1  24
ATOM     24  C   UNL A   1      37.230  31.873  33.741  1.00  0.00     0.275 C 
BRANCH  24  25
ATOM     25  O   UNL A   1      36.792  30.768  32.904  1.00  0.00    -0.458 OA
BRANCH  25  26
ATOM     26  C   UNL A   1      37.608  29.675  32.871  1.00  0.00     0.338 C 
ATOM     27  O   UNL A   1      37.293  28.565  33.275  1.00  0.00    -0.246 OA
BRANCH  26  28
ATOM     28  C   UNL A   1      38.925  29.927  32.186  1.00  0.00     0.060 A 
ATOM     29  C   UNL A   1      39.025  30.630  30.994  1.00  0.00     0.016 A 
ATOM     30  C   UNL A   1      40.091  29.325  32.662  1.00  0.00     0.016 A 
ATOM     31  C   UNL A   1      40.157  30.502  30.166  1.00  0.00     0.010 A 
ATOM     32  C   UNL A   1      41.284  29.344  31.901  1.00  0.00     0.010 A 
ATOM     33  C   UNL A   1      41.319  29.840  30.584  1.00  0.00    -0.014 A 
BRANCH  33  34
ATOM     34  C   UNL A   1      42.509  29.593  29.670  1.00  0.00     0.031 A 
ATOM     35  C   UNL A   1      42.622  28.281  28.894  1.00  0.00     0.074 A 
ATOM     36  C   UNL A   1      43.501  30.496  29.462  1.00  0.00     0.049 A 
ATOM     37  N   UNL A   1      43.676  27.719  28.349  1.00  0.00    -0.248 NA
ATOM     38  C   UNL A   1      41.389  27.490  28.730  1.00  0.00     0.031 C 
ATOM     39  C   UNL A   1      43.574  31.853  30.006  1.00  0.00     0.029 A 
ATOM     40  N   UNL A   1      44.658  30.399  28.711  1.00  0.00    -0.354 N 
ATOM     41  C   UNL A   1      43.259  26.468  27.893  1.00  0.00     0.074 A 
ATOM     42  C   UNL A   1      41.850  26.363  28.201  1.00  0.00     0.031 C 
ATOM     43  C   UNL A   1      44.653  32.478  29.515  1.00  0.00     0.029 A 
ATOM     44  C   UNL A   1      45.449  31.528  28.752  1.00  0.00     0.049 A 
ATOM     45  H   UNL A   1      44.896  29.596  28.193  1.00  0.00     0.167 HD
ATOM     46  C   UNL A   1      43.981  25.488  27.289  1.00  0.00     0.031 A 
ATOM     47  C   UNL A   1      46.702  31.773  28.314  1.00  0.00     0.031 A 
ATOM     48  C   UNL A   1      45.351  25.623  26.865  1.00  0.00     0.049 A 
ATOM     49  C   UNL A   1      47.505  30.668  27.685  1.00  0.00     0.074 A 
ATOM     50  C   UNL A   1      46.153  24.686  26.231  1.00  0.00     0.029 A 
ATOM     51  N   UNL A   1      46.112  26.773  26.988  1.00  0.00    -0.354 N 
ATOM     52  N   UNL A   1      47.142  29.442  27.401  1.00  0.00    -0.248 NA
ATOM     53  C   UNL A   1      48.905  30.974  27.351  1.00  0.00     0.031 C 
ATOM     54  C   UNL A   1      47.413  25.256  26.013  1.00  0.00     0.029 A 
ATOM     55  C   UNL A   1      47.376  26.565  26.459  1.00  0.00     0.049 A 
ATOM     56  H   UNL A   1      45.801  27.615  27.392  1.00  0.00     0.167 HD
ATOM     57  C   UNL A   1      48.264  28.836  26.844  1.00  0.00     0.074 A 
ATOM     58  C   UNL A   1      49.309  29.836  26.805  1.00  0.00     0.031 C 
ATOM     59  C   UNL A   1      48.415  27.559  26.414  1.00  0.00     0.031 A 
BRANCH  46  60
ATOM     60  C   UNL A   1      43.331  24.136  27.104  1.00  0.00    -0.014 A 
ATOM     61  C   UNL A   1      42.811  23.708  25.870  1.00  0.00     0.010 A 
ATOM     62  C   UNL A   1      43.312  23.244  28.195  1.00  0.00     0.010 A 
ATOM     63  C   UNL A   1      42.252  22.430  25.742  1.00  0.00     0.020 A 
ATOM     64  C   UNL A   1      42.782  21.958  28.064  1.00  0.00     0.020 A 
ATOM     65  C   UNL A   1      42.239  21.564  26.842  1.00  0.00     0.054 A 
BRANCH  65  66
ATOM     66  S   UNL A   1      41.534  19.902  26.645  1.00  0.00     0.124 S 
ATOM     67  O   UNL A   1      42.138  19.186  27.766  1.00  0.00    -0.237 OA
ATOM     68  O   UNL A   1      40.099  20.146  26.756  1.00  0.00    -0.237 OA
ATOM     69  O   UNL A   1      41.992  19.485  25.322  1.00  0.00    -0.744 OA
ENDBRANCH  65  66
ENDBRANCH  46  60
BRANCH  47  70
ATOM     70  C   UNL A   1      47.339  33.103  28.558  1.00  0.00    -0.014 A 
ATOM     71  C   UNL A   1      48.081  33.344  29.728  1.00  0.00     0.010 A 
ATOM     72  C   UNL A   1      47.178  34.148  27.629  1.00  0.00     0.010 A 
ATOM     73  C   UNL A   1      48.638  34.605  29.968  1.00  0.00     0.020 A 
ATOM     74  C   UNL A   1      47.766  35.396  27.845  1.00  0.00     0.020 A 
ATOM     75  C   UNL A   1      48.480  35.622  29.022  1.00  0.00     0.054 A 
BRANCH  75  76
ATOM     76  S   UNL A   1      49.254  37.236  29.321  1.00  0.00     0.124 S 
ATOM     77  O   UNL A   1      49.826  37.544  28.015  1.00  0.00    -0.237 OA
ATOM     78  O   UNL A   1      48.121  38.062  29.729  1.00  0.00    -0.237 OA
ATOM     79  O   UNL A   1      50.221  36.956  30.381  1.00  0.00    -0.744 OA
ENDBRANCH  75  76
ENDBRANCH  47  70
BRANCH  59  80
ATOM     80  C   UNL A   1      49.746  27.186  25.815  1.00  0.00    -0.014 A 
ATOM     81  C   UNL A   1      50.755  26.588  26.590  1.00  0.00     0.010 A 
ATOM     82  C   UNL A   1      49.987  27.437  24.452  1.00  0.00     0.010 A 
ATOM     83  C   UNL A   1      51.999  26.291  26.025  1.00  0.00     0.020 A 
ATOM     84  C   UNL A   1      51.220  27.117  23.876  1.00  0.00     0.020 A 
ATOM     85  C   UNL A   1      52.226  26.565  24.673  1.00  0.00     0.054 A 
BRANCH  85  86
ATOM     86  S   UNL A   1      53.845  26.169  23.957  1.00  0.00     0.124 S 
ATOM     87  O   UNL A   1      54.640  27.333  24.341  1.00  0.00    -0.237 OA
ATOM     88  O   UNL A   1      54.197  24.919  24.628  1.00  0.00    -0.237 OA
ATOM     89  O   UNL A   1      53.571  26.045  22.527  1.00  0.00    -0.744 OA
ENDBRANCH  85  86
ENDBRANCH  59  80
ENDBRANCH  33  34
ENDBRANCH  26  28
ENDBRANCH  25  26
ENDBRANCH  24  25
ENDBRANCH   1  24
TORSDOF 18
ENDMDL
