MODEL 1
REMARK VINA RESULT:      -8.7      0.000      0.000
REMARK SMILES CCCC[C@H](NS(=O)(=O)c1cccc(Br)c1)C(=O)OCCOC(=O)c1ccc(-c2c3nc(c(-c4ccc(S(=O)(=O)[O-])cc4)c4ccc([nH]4)c(-c4ccc(S(=O)(=O)[O-])cc4)c4nc(c(-c5ccc(S(=O)(=O)[O-])cc5)c5ccc2[nH]5)C=C4)C=C3)cc1
REMARK SMILES IDX 20 1 19 2 17 3 18 4 5 5 4 6 3 7 2 8 1 9 6 10 7 12 8 13 9 14
REMARK SMILES IDX 10 15 11 16 16 17 12 18 14 19 13 20 15 21 21 22 22 23 23 24
REMARK SMILES IDX 24 25 25 26 26 27 84 28 27 29 83 30 28 31 29 32 30 33 77 34
REMARK SMILES IDX 31 35 82 36 76 37 78 38 32 39 81 40 75 41 74 42 33 44 63 45
REMARK SMILES IDX 44 46 62 47 45 48 48 49 61 50 79 51 46 52 47 53 60 55 80 56
REMARK SMILES IDX 49 57 34 58 35 59 43 60 36 61 42 62 37 63 38 64 39 65 40 66
REMARK SMILES IDX 41 67 64 68 65 69 73 70 66 71 72 72 67 73 68 74 69 75 70 76
REMARK SMILES IDX 71 77 50 78 51 79 59 80 52 81 58 82 53 83 54 84 55 85 56 86
REMARK SMILES IDX 57 87
REMARK H PARENT 6 11 78 43 48 54
REMARK Flexibility Score: inf
ROOT
ATOM      1  C   UNL A   1      42.256  22.677  25.793  1.00  0.00     0.274 C 
ENDROOT
BRANCH   1   2
ATOM      2  O   UNL A   1      41.438  23.538  26.626  1.00  0.00    -0.461 OA
BRANCH   2   3
ATOM      3  C   UNL A   1      40.210  23.059  26.961  1.00  0.00     0.324 C 
ATOM      4  O   UNL A   1      39.991  21.876  27.209  1.00  0.00    -0.250 OA
BRANCH   3   5
ATOM      5  C   UNL A   1      39.090  24.100  26.941  1.00  0.00     0.179 C 
BRANCH   5   6
ATOM      6  C   UNL A   1      39.395  25.167  28.002  1.00  0.00     0.032 C 
BRANCH   6   7
ATOM      7  C   UNL A   1      39.374  26.633  27.563  1.00  0.00     0.002 C 
BRANCH   7   8
ATOM      8  C   UNL A   1      40.516  27.114  26.669  1.00  0.00    -0.003 C 
ATOM      9  C   UNL A   1      40.625  28.626  26.542  1.00  0.00     0.004 C 
ENDBRANCH   7   8
ENDBRANCH   6   7
ENDBRANCH   5   6
BRANCH   5  10
ATOM     10  N   UNL A   1      37.700  23.636  26.995  1.00  0.00    -0.197 NA
ATOM     11  H   UNL A   1      37.203  24.300  27.589  1.00  0.00     0.142 HD
BRANCH  10  12
ATOM     12  S   UNL A   1      36.753  23.443  25.622  1.00  0.00     0.241 S 
ATOM     13  O   UNL A   1      35.451  23.963  25.981  1.00  0.00    -0.207 OA
ATOM     14  O   UNL A   1      37.487  23.950  24.486  1.00  0.00    -0.207 OA
BRANCH  12  15
ATOM     15  C   UNL A   1      36.606  21.669  25.444  1.00  0.00     0.083 A 
ATOM     16  C   UNL A   1      37.734  20.915  25.187  1.00  0.00     0.022 A 
ATOM     17  C   UNL A   1      35.313  21.085  25.443  1.00  0.00     0.037 A 
ATOM     18  C   UNL A   1      37.564  19.586  24.865  1.00  0.00     0.003 A 
ATOM     19  C   UNL A   1      34.919  19.719  24.868  1.00  0.00     0.019 A 
ATOM     20  C   UNL A   1      36.268  19.031  24.682  1.00  0.00     0.016 A 
ATOM     21  Br  UNL A   1      32.491  18.902  24.059  1.00  0.00    -0.051 Br
ENDBRANCH  12  15
ENDBRANCH  10  12
ENDBRANCH   5  10
ENDBRANCH   3   5
ENDBRANCH   2   3
ENDBRANCH   1   2
BRANCH   1  22
ATOM     22  C   UNL A   1      43.405  23.463  25.161  1.00  0.00     0.275 C 
BRANCH  22  23
ATOM     23  O   UNL A   1      44.132  24.148  26.189  1.00  0.00    -0.458 OA
BRANCH  23  24
ATOM     24  C   UNL A   1      44.001  25.483  26.104  1.00  0.00     0.338 C 
ATOM     25  O   UNL A   1      43.862  26.164  25.101  1.00  0.00    -0.246 OA
BRANCH  24  26
ATOM     26  C   UNL A   1      43.929  26.058  27.434  1.00  0.00     0.060 A 
ATOM     27  C   UNL A   1      42.981  25.194  28.708  1.00  0.00     0.016 A 
ATOM     28  C   UNL A   1      44.259  27.822  27.585  1.00  0.00     0.016 A 
ATOM     29  C   UNL A   1      42.203  26.141  30.058  1.00  0.00     0.010 A 
ATOM     30  C   UNL A   1      43.520  28.757  28.973  1.00  0.00     0.010 A 
ATOM     31  C   UNL A   1      42.448  27.921  30.168  1.00  0.00    -0.014 A 
BRANCH  31  32
ATOM     32  C   UNL A   1      41.984  28.665  31.357  1.00  0.00     0.031 A 
ATOM     33  C   UNL A   1      40.786  29.555  31.229  1.00  0.00     0.074 A 
ATOM     34  C   UNL A   1      42.715  28.611  32.489  1.00  0.00     0.049 A 
ATOM     35  N   UNL A   1      40.354  30.494  32.025  1.00  0.00    -0.248 NA
ATOM     36  C   UNL A   1      39.973  29.391  30.016  1.00  0.00     0.031 C 
ATOM     37  C   UNL A   1      43.898  27.775  32.724  1.00  0.00     0.029 A 
ATOM     38  N   UNL A   1      42.592  29.309  33.663  1.00  0.00    -0.354 N 
ATOM     39  C   UNL A   1      39.249  31.049  31.384  1.00  0.00     0.074 A 
ATOM     40  C   UNL A   1      39.120  30.397  30.106  1.00  0.00     0.031 C 
ATOM     41  C   UNL A   1      44.385  27.999  33.947  1.00  0.00     0.029 A 
ATOM     42  C   UNL A   1      43.604  29.052  34.561  1.00  0.00     0.049 A 
ATOM     43  H   UNL A   1      41.852  29.932  33.846  1.00  0.00     0.167 HD
ATOM     44  C   UNL A   1      38.400  31.994  31.846  1.00  0.00     0.031 A 
ATOM     45  C   UNL A   1      43.903  29.632  35.735  1.00  0.00     0.031 A 
ATOM     46  C   UNL A   1      38.550  32.585  33.148  1.00  0.00     0.049 A 
ATOM     47  C   UNL A   1      42.985  30.712  36.208  1.00  0.00     0.074 A 
ATOM     48  C   UNL A   1      37.754  33.524  33.770  1.00  0.00     0.029 A 
ATOM     49  N   UNL A   1      39.577  32.270  34.031  1.00  0.00    -0.354 N 
ATOM     50  N   UNL A   1      41.938  31.219  35.600  1.00  0.00    -0.248 NA
ATOM     51  C   UNL A   1      43.263  31.279  37.529  1.00  0.00     0.031 C 
ATOM     52  C   UNL A   1      38.338  33.829  35.004  1.00  0.00     0.029 A 
ATOM     53  C   UNL A   1      39.452  33.020  35.184  1.00  0.00     0.049 A 
ATOM     54  H   UNL A   1      40.288  31.612  33.861  1.00  0.00     0.167 HD
ATOM     55  C   UNL A   1      41.403  32.143  36.481  1.00  0.00     0.074 A 
ATOM     56  C   UNL A   1      42.239  32.109  37.669  1.00  0.00     0.031 C 
ATOM     57  C   UNL A   1      40.322  32.946  36.332  1.00  0.00     0.031 A 
BRANCH  44  58
ATOM     58  C   UNL A   1      37.273  32.439  30.948  1.00  0.00    -0.014 A 
ATOM     59  C   UNL A   1      37.427  33.503  30.037  1.00  0.00     0.010 A 
ATOM     60  C   UNL A   1      36.036  31.771  31.001  1.00  0.00     0.010 A 
ATOM     61  C   UNL A   1      36.359  33.916  29.235  1.00  0.00     0.020 A 
ATOM     62  C   UNL A   1      34.975  32.157  30.175  1.00  0.00     0.020 A 
ATOM     63  C   UNL A   1      35.139  33.237  29.306  1.00  0.00     0.054 A 
BRANCH  63  64
ATOM     64  S   UNL A   1      33.784  33.770  28.225  1.00  0.00     0.124 S 
ATOM     65  O   UNL A   1      32.880  34.422  29.170  1.00  0.00    -0.237 OA
ATOM     66  O   UNL A   1      34.458  34.661  27.285  1.00  0.00    -0.237 OA
ATOM     67  O   UNL A   1      33.286  32.523  27.649  1.00  0.00    -0.744 OA
ENDBRANCH  63  64
ENDBRANCH  44  58
BRANCH  45  68
ATOM     68  C   UNL A   1      45.091  29.178  36.510  1.00  0.00    -0.014 A 
ATOM     69  C   UNL A   1      46.319  29.848  36.390  1.00  0.00     0.010 A 
ATOM     70  C   UNL A   1      44.984  28.117  37.432  1.00  0.00     0.010 A 
ATOM     71  C   UNL A   1      47.422  29.454  37.155  1.00  0.00     0.020 A 
ATOM     72  C   UNL A   1      46.075  27.742  38.224  1.00  0.00     0.020 A 
ATOM     73  C   UNL A   1      47.292  28.406  38.069  1.00  0.00     0.054 A 
BRANCH  73  74
ATOM     74  S   UNL A   1      48.731  27.939  39.070  1.00  0.00     0.124 S 
ATOM     75  O   UNL A   1      48.112  27.564  40.337  1.00  0.00    -0.237 OA
ATOM     76  O   UNL A   1      49.309  26.842  38.298  1.00  0.00    -0.237 OA
ATOM     77  O   UNL A   1      49.537  29.157  39.105  1.00  0.00    -0.744 OA
ENDBRANCH  73  74
ENDBRANCH  45  68
BRANCH  57  78
ATOM     78  C   UNL A   1      39.976  33.815  37.502  1.00  0.00    -0.014 A 
ATOM     79  C   UNL A   1      39.155  33.341  38.539  1.00  0.00     0.010 A 
ATOM     80  C   UNL A   1      40.523  35.109  37.579  1.00  0.00     0.010 A 
ATOM     81  C   UNL A   1      38.855  34.166  39.621  1.00  0.00     0.020 A 
ATOM     82  C   UNL A   1      40.259  35.919  38.680  1.00  0.00     0.020 A 
ATOM     83  C   UNL A   1      39.414  35.446  39.687  1.00  0.00     0.054 A 
BRANCH  83  84
ATOM     84  S   UNL A   1      39.050  36.473  41.130  1.00  0.00     0.124 S 
ATOM     85  O   UNL A   1      37.963  35.730  41.763  1.00  0.00    -0.237 OA
ATOM     86  O   UNL A   1      40.320  36.467  41.851  1.00  0.00    -0.237 OA
ATOM     87  O   UNL A   1      38.671  37.761  40.554  1.00  0.00    -0.744 OA
ENDBRANCH  83  84
ENDBRANCH  57  78
ENDBRANCH  31  32
ENDBRANCH  24  26
ENDBRANCH  23  24
ENDBRANCH  22  23
ENDBRANCH   1  22
TORSDOF 20
ENDMDL
MODEL 2
REMARK VINA RESULT:      -8.6      3.957      9.574
REMARK SMILES CCCC[C@H](NS(=O)(=O)c1cccc(Br)c1)C(=O)OCCOC(=O)c1ccc(-c2c3nc(c(-c4ccc(S(=O)(=O)[O-])cc4)c4ccc([nH]4)c(-c4ccc(S(=O)(=O)[O-])cc4)c4nc(c(-c5ccc(S(=O)(=O)[O-])cc5)c5ccc2[nH]5)C=C4)C=C3)cc1
REMARK SMILES IDX 20 1 19 2 17 3 18 4 5 5 4 6 3 7 2 8 1 9 6 10 7 12 8 13 9 14
REMARK SMILES IDX 10 15 11 16 16 17 12 18 14 19 13 20 15 21 21 22 22 23 23 24
REMARK SMILES IDX 24 25 25 26 26 27 84 28 27 29 83 30 28 31 29 32 30 33 77 34
REMARK SMILES IDX 31 35 82 36 76 37 78 38 32 39 81 40 75 41 74 42 33 44 63 45
REMARK SMILES IDX 44 46 62 47 45 48 48 49 61 50 79 51 46 52 47 53 60 55 80 56
REMARK SMILES IDX 49 57 34 58 35 59 43 60 36 61 42 62 37 63 38 64 39 65 40 66
REMARK SMILES IDX 41 67 64 68 65 69 73 70 66 71 72 72 67 73 68 74 69 75 70 76
REMARK SMILES IDX 71 77 50 78 51 79 59 80 52 81 58 82 53 83 54 84 55 85 56 86
REMARK SMILES IDX 57 87
REMARK H PARENT 6 11 78 43 48 54
REMARK Flexibility Score: inf
ROOT
ATOM      1  C   UNL A   1      32.914  30.140  27.184  1.00  0.00     0.274 C 
ENDROOT
BRANCH   1   2
ATOM      2  O   UNL A   1      31.946  29.383  26.413  1.00  0.00    -0.461 OA
BRANCH   2   3
ATOM      3  C   UNL A   1      31.715  28.107  26.827  1.00  0.00     0.324 C 
ATOM      4  O   UNL A   1      31.335  27.823  27.960  1.00  0.00    -0.250 OA
BRANCH   3   5
ATOM      5  C   UNL A   1      32.030  27.031  25.788  1.00  0.00     0.179 C 
BRANCH   5   6
ATOM      6  C   UNL A   1      33.357  26.359  26.167  1.00  0.00     0.032 C 
BRANCH   6   7
ATOM      7  C   UNL A   1      34.164  25.697  25.047  1.00  0.00     0.002 C 
BRANCH   7   8
ATOM      8  C   UNL A   1      34.327  24.179  25.104  1.00  0.00    -0.003 C 
ATOM      9  C   UNL A   1      33.203  23.449  25.823  1.00  0.00     0.004 C 
ENDBRANCH   7   8
ENDBRANCH   6   7
ENDBRANCH   5   6
BRANCH   5  10
ATOM     10  N   UNL A   1      31.968  27.389  24.366  1.00  0.00    -0.197 NA
ATOM     11  H   UNL A   1      32.913  27.265  24.003  1.00  0.00     0.142 HD
BRANCH  10  12
ATOM     12  S   UNL A   1      30.947  26.619  23.279  1.00  0.00     0.241 S 
ATOM     13  O   UNL A   1      31.532  26.851  21.976  1.00  0.00    -0.207 OA
ATOM     14  O   UNL A   1      30.684  25.284  23.767  1.00  0.00    -0.207 OA
BRANCH  12  15
ATOM     15  C   UNL A   1      29.427  27.556  23.375  1.00  0.00     0.083 A 
ATOM     16  C   UNL A   1      28.264  26.928  23.774  1.00  0.00     0.022 A 
ATOM     17  C   UNL A   1      29.419  28.899  22.915  1.00  0.00     0.037 A 
ATOM     18  C   UNL A   1      27.080  27.622  23.653  1.00  0.00     0.003 A 
ATOM     19  C   UNL A   1      28.197  29.717  22.480  1.00  0.00     0.019 A 
ATOM     20  C   UNL A   1      27.032  28.897  23.026  1.00  0.00     0.016 A 
ATOM     21  Br  UNL A   1      28.131  31.855  20.855  1.00  0.00    -0.051 Br
ENDBRANCH  12  15
ENDBRANCH  10  12
ENDBRANCH   5  10
ENDBRANCH   3   5
ENDBRANCH   2   3
ENDBRANCH   1   2
BRANCH   1  22
ATOM     22  C   UNL A   1      32.543  31.622  27.218  1.00  0.00     0.275 C 
BRANCH  22  23
ATOM     23  O   UNL A   1      33.733  32.405  27.379  1.00  0.00    -0.458 OA
BRANCH  23  24
ATOM     24  C   UNL A   1      33.542  33.463  28.186  1.00  0.00     0.338 C 
ATOM     25  O   UNL A   1      32.580  34.211  28.232  1.00  0.00    -0.246 OA
BRANCH  24  26
ATOM     26  C   UNL A   1      34.633  33.560  29.137  1.00  0.00     0.060 A 
ATOM     27  C   UNL A   1      36.147  34.418  28.646  1.00  0.00     0.016 A 
ATOM     28  C   UNL A   1      34.664  32.356  30.476  1.00  0.00     0.016 A 
ATOM     29  C   UNL A   1      37.743  33.935  29.384  1.00  0.00     0.010 A 
ATOM     30  C   UNL A   1      36.263  31.915  31.250  1.00  0.00     0.010 A 
ATOM     31  C   UNL A   1      37.800  32.665  30.658  1.00  0.00    -0.014 A 
BRANCH  31  32
ATOM     32  C   UNL A   1      39.054  32.403  31.393  1.00  0.00     0.031 A 
ATOM     33  C   UNL A   1      39.967  31.321  30.901  1.00  0.00     0.074 A 
ATOM     34  C   UNL A   1      39.287  33.063  32.546  1.00  0.00     0.049 A 
ATOM     35  N   UNL A   1      40.962  30.730  31.503  1.00  0.00    -0.248 NA
ATOM     36  C   UNL A   1      39.704  30.805  29.551  1.00  0.00     0.031 C 
ATOM     37  C   UNL A   1      38.465  34.137  33.116  1.00  0.00     0.029 A 
ATOM     38  N   UNL A   1      40.278  32.903  33.480  1.00  0.00    -0.354 N 
ATOM     39  C   UNL A   1      41.408  29.753  30.616  1.00  0.00     0.074 A 
ATOM     40  C   UNL A   1      40.534  29.779  29.471  1.00  0.00     0.031 C 
ATOM     41  C   UNL A   1      38.978  34.539  34.283  1.00  0.00     0.029 A 
ATOM     42  C   UNL A   1      40.118  33.702  34.590  1.00  0.00     0.049 A 
ATOM     43  H   UNL A   1      41.031  32.278  33.367  1.00  0.00     0.167 HD
ATOM     44  C   UNL A   1      42.478  28.936  30.739  1.00  0.00     0.031 A 
ATOM     45  C   UNL A   1      40.788  33.731  35.753  1.00  0.00     0.031 A 
ATOM     46  C   UNL A   1      43.343  28.978  31.887  1.00  0.00     0.049 A 
ATOM     47  C   UNL A   1      41.936  32.785  35.896  1.00  0.00     0.074 A 
ATOM     48  C   UNL A   1      44.482  28.242  32.140  1.00  0.00     0.029 A 
ATOM     49  N   UNL A   1      43.154  29.826  32.973  1.00  0.00    -0.354 N 
ATOM     50  N   UNL A   1      42.355  31.875  35.047  1.00  0.00    -0.248 NA
ATOM     51  C   UNL A   1      42.718  32.881  37.130  1.00  0.00     0.031 C 
ATOM     52  C   UNL A   1      44.945  28.597  33.411  1.00  0.00     0.029 A 
ATOM     53  C   UNL A   1      44.141  29.611  33.915  1.00  0.00     0.049 A 
ATOM     54  H   UNL A   1      42.425  30.481  33.058  1.00  0.00     0.167 HD
ATOM     55  C   UNL A   1      43.479  31.312  35.626  1.00  0.00     0.074 A 
ATOM     56  C   UNL A   1      43.678  31.998  36.891  1.00  0.00     0.031 C 
ATOM     57  C   UNL A   1      44.281  30.322  35.161  1.00  0.00     0.031 A 
BRANCH  44  58
ATOM     58  C   UNL A   1      42.748  27.947  29.634  1.00  0.00    -0.014 A 
ATOM     59  C   UNL A   1      42.111  26.690  29.591  1.00  0.00     0.010 A 
ATOM     60  C   UNL A   1      43.647  28.282  28.605  1.00  0.00     0.010 A 
ATOM     61  C   UNL A   1      42.400  25.778  28.571  1.00  0.00     0.020 A 
ATOM     62  C   UNL A   1      43.913  27.387  27.562  1.00  0.00     0.020 A 
ATOM     63  C   UNL A   1      43.297  26.134  27.560  1.00  0.00     0.054 A 
BRANCH  63  64
ATOM     64  S   UNL A   1      43.623  24.946  26.229  1.00  0.00     0.124 S 
ATOM     65  O   UNL A   1      42.273  24.517  25.869  1.00  0.00    -0.237 OA
ATOM     66  O   UNL A   1      44.306  25.766  25.232  1.00  0.00    -0.237 OA
ATOM     67  O   UNL A   1      44.450  23.926  26.866  1.00  0.00    -0.744 OA
ENDBRANCH  63  64
ENDBRANCH  44  58
BRANCH  45  68
ATOM     68  C   UNL A   1      40.389  34.689  36.821  1.00  0.00    -0.014 A 
ATOM     69  C   UNL A   1      39.409  34.338  37.765  1.00  0.00     0.010 A 
ATOM     70  C   UNL A   1      41.039  35.934  36.948  1.00  0.00     0.010 A 
ATOM     71  C   UNL A   1      39.069  35.218  38.797  1.00  0.00     0.020 A 
ATOM     72  C   UNL A   1      40.726  36.802  38.000  1.00  0.00     0.020 A 
ATOM     73  C   UNL A   1      39.731  36.443  38.910  1.00  0.00     0.054 A 
BRANCH  73  74
ATOM     74  S   UNL A   1      39.291  37.549  40.279  1.00  0.00     0.124 S 
ATOM     75  O   UNL A   1      40.557  38.225  40.544  1.00  0.00    -0.237 OA
ATOM     76  O   UNL A   1      38.242  38.378  39.689  1.00  0.00    -0.237 OA
ATOM     77  O   UNL A   1      38.839  36.638  41.328  1.00  0.00    -0.744 OA
ENDBRANCH  73  74
ENDBRANCH  45  68
BRANCH  57  78
ATOM     78  C   UNL A   1      45.456  29.965  36.018  1.00  0.00    -0.014 A 
ATOM     79  C   UNL A   1      45.367  28.949  36.984  1.00  0.00     0.010 A 
ATOM     80  C   UNL A   1      46.678  30.631  35.814  1.00  0.00     0.010 A 
ATOM     81  C   UNL A   1      46.478  28.630  37.762  1.00  0.00     0.020 A 
ATOM     82  C   UNL A   1      47.801  30.284  36.561  1.00  0.00     0.020 A 
ATOM     83  C   UNL A   1      47.688  29.296  37.541  1.00  0.00     0.054 A 
BRANCH  83  84
ATOM     84  S   UNL A   1      49.126  28.822  38.530  1.00  0.00     0.124 S 
ATOM     85  O   UNL A   1      50.068  29.895  38.227  1.00  0.00    -0.237 OA
ATOM     86  O   UNL A   1      48.588  28.821  39.889  1.00  0.00    -0.237 OA
ATOM     87  O   UNL A   1      49.489  27.507  38.008  1.00  0.00    -0.744 OA
ENDBRANCH  83  84
ENDBRANCH  57  78
ENDBRANCH  31  32
ENDBRANCH  24  26
ENDBRANCH  23  24
ENDBRANCH  22  23
ENDBRANCH   1  22
TORSDOF 20
ENDMDL
MODEL 3
REMARK VINA RESULT:      -8.6      3.758     10.200
REMARK SMILES CCCC[C@H](NS(=O)(=O)c1cccc(Br)c1)C(=O)OCCOC(=O)c1ccc(-c2c3nc(c(-c4ccc(S(=O)(=O)[O-])cc4)c4ccc([nH]4)c(-c4ccc(S(=O)(=O)[O-])cc4)c4nc(c(-c5ccc(S(=O)(=O)[O-])cc5)c5ccc2[nH]5)C=C4)C=C3)cc1
REMARK SMILES IDX 20 1 19 2 17 3 18 4 5 5 4 6 3 7 2 8 1 9 6 10 7 12 8 13 9 14
REMARK SMILES IDX 10 15 11 16 16 17 12 18 14 19 13 20 15 21 21 22 22 23 23 24
REMARK SMILES IDX 24 25 25 26 26 27 84 28 27 29 83 30 28 31 29 32 30 33 77 34
REMARK SMILES IDX 31 35 82 36 76 37 78 38 32 39 81 40 75 41 74 42 33 44 63 45
REMARK SMILES IDX 44 46 62 47 45 48 48 49 61 50 79 51 46 52 47 53 60 55 80 56
REMARK SMILES IDX 49 57 34 58 35 59 43 60 36 61 42 62 37 63 38 64 39 65 40 66
REMARK SMILES IDX 41 67 64 68 65 69 73 70 66 71 72 72 67 73 68 74 69 75 70 76
REMARK SMILES IDX 71 77 50 78 51 79 59 80 52 81 58 82 53 83 54 84 55 85 56 86
REMARK SMILES IDX 57 87
REMARK H PARENT 6 11 78 43 48 54
REMARK Flexibility Score: inf
ROOT
ATOM      1  C   UNL A   1      33.555  29.232  26.381  1.00  0.00     0.274 C 
ENDROOT
BRANCH   1   2
ATOM      2  O   UNL A   1      33.226  27.993  27.060  1.00  0.00    -0.461 OA
BRANCH   2   3
ATOM      3  C   UNL A   1      31.909  27.652  27.083  1.00  0.00     0.324 C 
ATOM      4  O   UNL A   1      31.118  28.068  27.926  1.00  0.00    -0.250 OA
BRANCH   3   5
ATOM      5  C   UNL A   1      31.491  26.645  26.012  1.00  0.00     0.179 C 
BRANCH   5   6
ATOM      6  C   UNL A   1      30.794  27.404  24.873  1.00  0.00     0.032 C 
BRANCH   6   7
ATOM      7  C   UNL A   1      31.422  27.329  23.480  1.00  0.00     0.002 C 
BRANCH   7   8
ATOM      8  C   UNL A   1      32.927  27.572  23.375  1.00  0.00    -0.003 C 
ATOM      9  C   UNL A   1      33.583  26.948  22.152  1.00  0.00     0.004 C 
ENDBRANCH   7   8
ENDBRANCH   6   7
ENDBRANCH   5   6
BRANCH   5  10
ATOM     10  N   UNL A   1      30.749  25.449  26.424  1.00  0.00    -0.197 NA
ATOM     11  H   UNL A   1      29.939  25.391  25.807  1.00  0.00     0.142 HD
BRANCH  10  12
ATOM     12  S   UNL A   1      31.433  23.916  26.436  1.00  0.00     0.241 S 
ATOM     13  O   UNL A   1      32.007  23.764  27.757  1.00  0.00    -0.207 OA
ATOM     14  O   UNL A   1      30.463  22.979  25.917  1.00  0.00    -0.207 OA
BRANCH  12  15
ATOM     15  C   UNL A   1      32.778  24.032  25.264  1.00  0.00     0.083 A 
ATOM     16  C   UNL A   1      32.566  23.676  23.947  1.00  0.00     0.022 A 
ATOM     17  C   UNL A   1      34.074  24.368  25.736  1.00  0.00     0.037 A 
ATOM     18  C   UNL A   1      33.661  23.592  23.114  1.00  0.00     0.003 A 
ATOM     19  C   UNL A   1      35.411  24.089  25.040  1.00  0.00     0.019 A 
ATOM     20  C   UNL A   1      34.982  23.747  23.615  1.00  0.00     0.016 A 
ATOM     21  Br  UNL A   1      37.848  23.895  26.152  1.00  0.00    -0.051 Br
ENDBRANCH  12  15
ENDBRANCH  10  12
ENDBRANCH   5  10
ENDBRANCH   3   5
ENDBRANCH   2   3
ENDBRANCH   1   2
BRANCH   1  22
ATOM     22  C   UNL A   1      33.531  30.409  27.355  1.00  0.00     0.275 C 
BRANCH  22  23
ATOM     23  O   UNL A   1      34.876  30.806  27.652  1.00  0.00    -0.458 OA
BRANCH  23  24
ATOM     24  C   UNL A   1      34.931  31.739  28.618  1.00  0.00     0.338 C 
ATOM     25  O   UNL A   1      34.129  32.628  28.854  1.00  0.00    -0.246 OA
BRANCH  24  26
ATOM     26  C   UNL A   1      36.073  31.491  29.478  1.00  0.00     0.060 A 
ATOM     27  C   UNL A   1      37.657  32.263  29.072  1.00  0.00     0.016 A 
ATOM     28  C   UNL A   1      36.019  30.016  30.509  1.00  0.00     0.016 A 
ATOM     29  C   UNL A   1      39.214  31.446  29.555  1.00  0.00     0.010 A 
ATOM     30  C   UNL A   1      37.585  29.231  31.037  1.00  0.00     0.010 A 
ATOM     31  C   UNL A   1      39.174  29.919  30.507  1.00  0.00    -0.014 A 
BRANCH  31  32
ATOM     32  C   UNL A   1      40.420  29.355  31.065  1.00  0.00     0.031 A 
ATOM     33  C   UNL A   1      40.982  29.949  32.320  1.00  0.00     0.074 A 
ATOM     34  C   UNL A   1      41.075  28.402  30.370  1.00  0.00     0.049 A 
ATOM     35  N   UNL A   1      42.169  29.818  32.847  1.00  0.00    -0.248 NA
ATOM     36  C   UNL A   1      40.096  30.843  33.077  1.00  0.00     0.031 C 
ATOM     37  C   UNL A   1      40.615  27.752  29.137  1.00  0.00     0.029 A 
ATOM     38  N   UNL A   1      42.302  27.829  30.584  1.00  0.00    -0.354 N 
ATOM     39  C   UNL A   1      42.173  30.646  33.967  1.00  0.00     0.074 A 
ATOM     40  C   UNL A   1      40.904  31.327  34.005  1.00  0.00     0.031 C 
ATOM     41  C   UNL A   1      41.531  26.878  28.709  1.00  0.00     0.029 A 
ATOM     42  C   UNL A   1      42.680  26.958  29.586  1.00  0.00     0.049 A 
ATOM     43  H   UNL A   1      42.858  28.021  31.373  1.00  0.00     0.167 HD
ATOM     44  C   UNL A   1      43.142  30.788  34.899  1.00  0.00     0.031 A 
ATOM     45  C   UNL A   1      43.844  26.324  29.371  1.00  0.00     0.031 A 
ATOM     46  C   UNL A   1      44.375  30.053  34.836  1.00  0.00     0.049 A 
ATOM     47  C   UNL A   1      44.925  26.533  30.381  1.00  0.00     0.074 A 
ATOM     48  C   UNL A   1      45.435  30.061  35.721  1.00  0.00     0.029 A 
ATOM     49  N   UNL A   1      44.699  29.161  33.820  1.00  0.00    -0.354 N 
ATOM     50  N   UNL A   1      44.913  27.307  31.442  1.00  0.00    -0.248 NA
ATOM     51  C   UNL A   1      46.160  25.770  30.191  1.00  0.00     0.031 C 
ATOM     52  C   UNL A   1      46.429  29.226  35.203  1.00  0.00     0.029 A 
ATOM     53  C   UNL A   1      45.957  28.634  34.039  1.00  0.00     0.049 A 
ATOM     54  H   UNL A   1      44.119  28.939  33.057  1.00  0.00     0.167 HD
ATOM     55  C   UNL A   1      46.127  27.097  32.072  1.00  0.00     0.074 A 
ATOM     56  C   UNL A   1      46.838  26.111  31.277  1.00  0.00     0.031 C 
ATOM     57  C   UNL A   1      46.615  27.660  33.205  1.00  0.00     0.031 A 
BRANCH  44  58
ATOM     58  C   UNL A   1      42.908  31.765  36.025  1.00  0.00    -0.014 A 
ATOM     59  C   UNL A   1      42.309  31.369  37.237  1.00  0.00     0.010 A 
ATOM     60  C   UNL A   1      43.310  33.105  35.877  1.00  0.00     0.010 A 
ATOM     61  C   UNL A   1      42.076  32.298  38.255  1.00  0.00     0.020 A 
ATOM     62  C   UNL A   1      43.112  34.031  36.907  1.00  0.00     0.020 A 
ATOM     63  C   UNL A   1      42.483  33.624  38.085  1.00  0.00     0.054 A 
BRANCH  63  64
ATOM     64  S   UNL A   1      42.205  34.799  39.438  1.00  0.00     0.124 S 
ATOM     65  O   UNL A   1      43.570  35.177  39.798  1.00  0.00    -0.237 OA
ATOM     66  O   UNL A   1      41.415  35.845  38.794  1.00  0.00    -0.237 OA
ATOM     67  O   UNL A   1      41.493  34.013  40.442  1.00  0.00    -0.744 OA
ENDBRANCH  63  64
ENDBRANCH  44  58
BRANCH  45  68
ATOM     68  C   UNL A   1      44.005  25.445  28.179  1.00  0.00    -0.014 A 
ATOM     69  C   UNL A   1      44.630  25.926  27.017  1.00  0.00     0.010 A 
ATOM     70  C   UNL A   1      43.602  24.095  28.223  1.00  0.00     0.010 A 
ATOM     71  C   UNL A   1      44.827  25.087  25.915  1.00  0.00     0.020 A 
ATOM     72  C   UNL A   1      43.828  23.242  27.136  1.00  0.00     0.020 A 
ATOM     73  C   UNL A   1      44.427  23.750  25.983  1.00  0.00     0.054 A 
BRANCH  73  74
ATOM     74  S   UNL A   1      44.725  22.678  24.551  1.00  0.00     0.124 S 
ATOM     75  O   UNL A   1      45.721  23.439  23.803  1.00  0.00    -0.237 OA
ATOM     76  O   UNL A   1      45.207  21.447  25.174  1.00  0.00    -0.237 OA
ATOM     77  O   UNL A   1      43.413  22.573  23.917  1.00  0.00    -0.744 OA
ENDBRANCH  73  74
ENDBRANCH  45  68
BRANCH  57  78
ATOM     78  C   UNL A   1      47.963  27.183  33.653  1.00  0.00    -0.014 A 
ATOM     79  C   UNL A   1      48.093  26.062  34.490  1.00  0.00     0.010 A 
ATOM     80  C   UNL A   1      49.112  27.846  33.188  1.00  0.00     0.010 A 
ATOM     81  C   UNL A   1      49.358  25.633  34.885  1.00  0.00     0.020 A 
ATOM     82  C   UNL A   1      50.379  27.393  33.548  1.00  0.00     0.020 A 
ATOM     83  C   UNL A   1      50.492  26.298  34.407  1.00  0.00     0.054 A 
BRANCH  83  84
ATOM     84  S   UNL A   1      52.122  25.685  34.895  1.00  0.00     0.124 S 
ATOM     85  O   UNL A   1      53.013  26.578  34.161  1.00  0.00    -0.237 OA
ATOM     86  O   UNL A   1      52.105  25.864  36.345  1.00  0.00    -0.237 OA
ATOM     87  O   UNL A   1      52.121  24.296  34.443  1.00  0.00    -0.744 OA
ENDBRANCH  83  84
ENDBRANCH  57  78
ENDBRANCH  31  32
ENDBRANCH  24  26
ENDBRANCH  23  24
ENDBRANCH  22  23
ENDBRANCH   1  22
TORSDOF 20
ENDMDL
