MODEL 1
REMARK VINA RESULT:     -12.8      0.000      0.000
REMARK SMILES Cc1cccc(NS(=O)(=O)c2ccc(Br)c(C(=O)OCCOC(=O)c3ccc(-c4c5nc(c(-c6ccc(S(=O)(=O)[O-])cc6)c6ccc([nH]6)c(-c6ccc(S(=O)(=O)[O-])cc6)c6nc(c(-c7ccc(S(=O)(=O)[O-])cc7)c7ccc4[nH]7)C=C6)C=C5)cc3)c2)c1
REMARK SMILES IDX 20 1 19 2 17 3 18 4 16 5 11 6 12 7 85 8 13 9 14 10 15 11
REMARK SMILES IDX 8 12 9 13 10 14 7 15 6 17 1 18 2 19 3 20 86 21 4 22 5 23
REMARK SMILES IDX 21 24 22 25 23 26 24 27 25 28 26 29 84 30 27 31 83 32 28 33
REMARK SMILES IDX 29 34 30 35 77 36 31 37 82 38 76 39 78 40 32 41 81 42 75 43
REMARK SMILES IDX 74 44 33 46 63 47 44 48 62 49 45 50 48 51 61 52 79 53 46 54
REMARK SMILES IDX 47 55 60 57 80 58 49 59 34 60 35 61 43 62 36 63 42 64 37 65
REMARK SMILES IDX 38 66 39 67 40 68 41 69 64 70 65 71 73 72 66 73 72 74 67 75
REMARK SMILES IDX 68 76 69 77 70 78 71 79 50 80 51 81 59 82 52 83 58 84 53 85
REMARK SMILES IDX 54 86 55 87 56 88 57 89
REMARK H PARENT 7 16 78 45 48 56
REMARK Flexibility Score: inf
ROOT
ATOM      1  C   UNL A   1      33.164  28.495  26.699  1.00  0.00     0.275 C 
ENDROOT
BRANCH   1   2
ATOM      2  O   UNL A   1      33.174  28.125  25.308  1.00  0.00    -0.458 OA
BRANCH   2   3
ATOM      3  C   UNL A   1      31.979  27.725  24.829  1.00  0.00     0.339 C 
ATOM      4  O   UNL A   1      31.064  28.454  24.477  1.00  0.00    -0.246 OA
BRANCH   3   5
ATOM      5  C   UNL A   1      31.960  26.278  24.566  1.00  0.00     0.075 A 
ATOM      6  C   UNL A   1      31.148  24.055  25.106  1.00  0.00     0.088 A 
ATOM      7  C   UNL A   1      31.134  23.766  23.744  1.00  0.00     0.023 A 
ATOM      8  C   UNL A   1      31.477  25.355  25.512  1.00  0.00     0.039 A 
ATOM      9  C   UNL A   1      31.739  24.632  22.832  1.00  0.00     0.018 A 
ATOM     10  C   UNL A   1      32.197  25.873  23.252  1.00  0.00     0.032 A 
ATOM     11  Br  UNL A   1      33.121  26.953  21.992  1.00  0.00    -0.050 Br
BRANCH   6  12
ATOM     12  S   UNL A   1      30.944  22.778  26.353  1.00  0.00     0.261 S 
ATOM     13  O   UNL A   1      30.446  21.599  25.671  1.00  0.00    -0.201 OA
ATOM     14  O   UNL A   1      30.238  23.382  27.457  1.00  0.00    -0.201 OA
BRANCH  12  15
ATOM     15  N   UNL A   1      32.456  22.298  26.912  1.00  0.00    -0.280 N 
ATOM     16  H   UNL A   1      32.538  22.149  27.882  1.00  0.00     0.180 HD
BRANCH  15  17
ATOM     17  C   UNL A   1      33.630  22.083  26.136  1.00  0.00     0.049 A 
ATOM     18  C   UNL A   1      37.028  23.808  25.959  1.00  0.00     0.044 C 
ATOM     19  C   UNL A   1      35.942  22.781  25.827  1.00  0.00    -0.049 A 
ATOM     20  C   UNL A   1      36.250  21.489  25.388  1.00  0.00     0.003 A 
ATOM     21  C   UNL A   1      34.626  23.065  26.219  1.00  0.00     0.030 A 
ATOM     22  C   UNL A   1      35.232  20.559  25.180  1.00  0.00     0.002 A 
ATOM     23  C   UNL A   1      33.909  20.882  25.487  1.00  0.00     0.027 A 
ENDBRANCH  15  17
ENDBRANCH  12  15
ENDBRANCH   6  12
ENDBRANCH   3   5
ENDBRANCH   2   3
ENDBRANCH   1   2
BRANCH   1  24
ATOM     24  C   UNL A   1      34.081  29.686  27.093  1.00  0.00     0.275 C 
BRANCH  24  25
ATOM     25  O   UNL A   1      35.379  29.408  27.664  1.00  0.00    -0.458 OA
BRANCH  25  26
ATOM     26  C   UNL A   1      36.232  30.460  27.857  1.00  0.00     0.338 C 
ATOM     27  O   UNL A   1      35.890  31.630  27.864  1.00  0.00    -0.246 OA
BRANCH  26  28
ATOM     28  C   UNL A   1      37.467  29.925  28.500  1.00  0.00     0.060 A 
ATOM     29  C   UNL A   1      37.419  29.155  29.677  1.00  0.00     0.016 A 
ATOM     30  C   UNL A   1      38.555  29.824  27.644  1.00  0.00     0.016 A 
ATOM     31  C   UNL A   1      38.415  28.212  29.919  1.00  0.00     0.010 A 
ATOM     32  C   UNL A   1      39.289  28.683  27.691  1.00  0.00     0.010 A 
ATOM     33  C   UNL A   1      39.318  27.969  28.888  1.00  0.00    -0.014 A 
BRANCH  33  34
ATOM     34  C   UNL A   1      40.608  27.321  29.005  1.00  0.00     0.031 A 
ATOM     35  C   UNL A   1      40.783  25.935  28.580  1.00  0.00     0.074 A 
ATOM     36  C   UNL A   1      41.576  28.244  29.244  1.00  0.00     0.049 A 
ATOM     37  N   UNL A   1      41.658  25.152  29.093  1.00  0.00    -0.248 NA
ATOM     38  C   UNL A   1      39.973  25.282  27.549  1.00  0.00     0.031 C 
ATOM     39  C   UNL A   1      43.016  28.257  29.098  1.00  0.00     0.029 A 
ATOM     40  N   UNL A   1      41.321  29.512  29.769  1.00  0.00    -0.354 N 
ATOM     41  C   UNL A   1      41.815  24.113  28.202  1.00  0.00     0.074 A 
ATOM     42  C   UNL A   1      40.623  24.117  27.389  1.00  0.00     0.031 C 
ATOM     43  C   UNL A   1      43.501  29.306  29.806  1.00  0.00     0.029 A 
ATOM     44  C   UNL A   1      42.392  29.955  30.512  1.00  0.00     0.049 A 
ATOM     45  H   UNL A   1      40.489  30.019  29.627  1.00  0.00     0.167 HD
ATOM     46  C   UNL A   1      43.046  23.541  28.085  1.00  0.00     0.031 A 
ATOM     47  C   UNL A   1      42.135  29.979  31.857  1.00  0.00     0.031 A 
ATOM     48  C   UNL A   1      44.017  24.290  28.895  1.00  0.00     0.049 A 
ATOM     49  C   UNL A   1      42.700  28.724  32.509  1.00  0.00     0.074 A 
ATOM     50  C   UNL A   1      44.979  25.238  28.589  1.00  0.00     0.029 A 
ATOM     51  N   UNL A   1      43.787  24.413  30.252  1.00  0.00    -0.354 N 
ATOM     52  N   UNL A   1      43.241  27.740  31.841  1.00  0.00    -0.248 NA
ATOM     53  C   UNL A   1      42.707  28.469  33.945  1.00  0.00     0.031 C 
ATOM     54  C   UNL A   1      45.297  25.948  29.791  1.00  0.00     0.029 A 
ATOM     55  C   UNL A   1      44.528  25.432  30.818  1.00  0.00     0.049 A 
ATOM     56  H   UNL A   1      43.166  23.841  30.758  1.00  0.00     0.167 HD
ATOM     57  C   UNL A   1      43.694  26.776  32.682  1.00  0.00     0.074 A 
ATOM     58  C   UNL A   1      43.304  27.263  33.998  1.00  0.00     0.031 C 
ATOM     59  C   UNL A   1      44.364  25.666  32.246  1.00  0.00     0.031 A 
BRANCH  46  60
ATOM     60  C   UNL A   1      43.460  22.505  27.068  1.00  0.00    -0.014 A 
ATOM     61  C   UNL A   1      44.738  22.612  26.480  1.00  0.00     0.010 A 
ATOM     62  C   UNL A   1      42.695  21.382  26.695  1.00  0.00     0.010 A 
ATOM     63  C   UNL A   1      45.220  21.684  25.550  1.00  0.00     0.020 A 
ATOM     64  C   UNL A   1      43.162  20.446  25.749  1.00  0.00     0.020 A 
ATOM     65  C   UNL A   1      44.426  20.604  25.184  1.00  0.00     0.054 A 
BRANCH  65  66
ATOM     66  S   UNL A   1      45.095  19.408  23.995  1.00  0.00     0.124 S 
ATOM     67  O   UNL A   1      46.531  19.668  24.066  1.00  0.00    -0.237 OA
ATOM     68  O   UNL A   1      44.659  18.132  24.554  1.00  0.00    -0.237 OA
ATOM     69  O   UNL A   1      44.462  19.783  22.732  1.00  0.00    -0.744 OA
ENDBRANCH  65  66
ENDBRANCH  46  60
BRANCH  47  70
ATOM     70  C   UNL A   1      40.811  30.669  32.171  1.00  0.00    -0.014 A 
ATOM     71  C   UNL A   1      39.812  29.888  32.817  1.00  0.00     0.010 A 
ATOM     72  C   UNL A   1      40.626  32.064  32.177  1.00  0.00     0.010 A 
ATOM     73  C   UNL A   1      38.763  30.469  33.546  1.00  0.00     0.020 A 
ATOM     74  C   UNL A   1      39.545  32.655  32.879  1.00  0.00     0.020 A 
ATOM     75  C   UNL A   1      38.646  31.855  33.594  1.00  0.00     0.054 A 
BRANCH  75  76
ATOM     76  S   UNL A   1      37.453  32.580  34.772  1.00  0.00     0.124 S 
ATOM     77  O   UNL A   1      36.183  32.415  34.073  1.00  0.00    -0.237 OA
ATOM     78  O   UNL A   1      37.633  31.734  35.953  1.00  0.00    -0.237 OA
ATOM     79  O   UNL A   1      37.921  33.953  34.920  1.00  0.00    -0.744 OA
ENDBRANCH  75  76
ENDBRANCH  47  70
BRANCH  59  80
ATOM     80  C   UNL A   1      44.914  24.636  33.185  1.00  0.00    -0.014 A 
ATOM     81  C   UNL A   1      46.221  24.710  33.679  1.00  0.00     0.010 A 
ATOM     82  C   UNL A   1      44.152  23.492  33.513  1.00  0.00     0.010 A 
ATOM     83  C   UNL A   1      46.698  23.747  34.570  1.00  0.00     0.020 A 
ATOM     84  C   UNL A   1      44.627  22.510  34.371  1.00  0.00     0.020 A 
ATOM     85  C   UNL A   1      45.887  22.666  34.926  1.00  0.00     0.054 A 
BRANCH  85  86
ATOM     86  S   UNL A   1      46.503  21.454  36.107  1.00  0.00     0.124 S 
ATOM     87  O   UNL A   1      46.205  20.187  35.444  1.00  0.00    -0.237 OA
ATOM     88  O   UNL A   1      47.919  21.807  36.182  1.00  0.00    -0.237 OA
ATOM     89  O   UNL A   1      45.728  21.719  37.316  1.00  0.00    -0.744 OA
ENDBRANCH  85  86
ENDBRANCH  59  80
ENDBRANCH  33  34
ENDBRANCH  26  28
ENDBRANCH  25  26
ENDBRANCH  24  25
ENDBRANCH   1  24
TORSDOF 17
ENDMDL
MODEL 2
REMARK VINA RESULT:     -12.6      4.338     10.978
REMARK SMILES Cc1cccc(NS(=O)(=O)c2ccc(Br)c(C(=O)OCCOC(=O)c3ccc(-c4c5nc(c(-c6ccc(S(=O)(=O)[O-])cc6)c6ccc([nH]6)c(-c6ccc(S(=O)(=O)[O-])cc6)c6nc(c(-c7ccc(S(=O)(=O)[O-])cc7)c7ccc4[nH]7)C=C6)C=C5)cc3)c2)c1
REMARK SMILES IDX 20 1 19 2 17 3 18 4 16 5 11 6 12 7 85 8 13 9 14 10 15 11
REMARK SMILES IDX 8 12 9 13 10 14 7 15 6 17 1 18 2 19 3 20 86 21 4 22 5 23
REMARK SMILES IDX 21 24 22 25 23 26 24 27 25 28 26 29 84 30 27 31 83 32 28 33
REMARK SMILES IDX 29 34 30 35 77 36 31 37 82 38 76 39 78 40 32 41 81 42 75 43
REMARK SMILES IDX 74 44 33 46 63 47 44 48 62 49 45 50 48 51 61 52 79 53 46 54
REMARK SMILES IDX 47 55 60 57 80 58 49 59 34 60 35 61 43 62 36 63 42 64 37 65
REMARK SMILES IDX 38 66 39 67 40 68 41 69 64 70 65 71 73 72 66 73 72 74 67 75
REMARK SMILES IDX 68 76 69 77 70 78 71 79 50 80 51 81 59 82 52 83 58 84 53 85
REMARK SMILES IDX 54 86 55 87 56 88 57 89
REMARK H PARENT 7 16 78 45 48 56
REMARK Flexibility Score: inf
ROOT
ATOM      1  C   UNL A   1      36.813  23.314  24.412  1.00  0.00     0.275 C 
ENDROOT
BRANCH   1   2
ATOM      2  O   UNL A   1      35.639  24.147  24.427  1.00  0.00    -0.458 OA
BRANCH   2   3
ATOM      3  C   UNL A   1      34.598  23.655  23.725  1.00  0.00     0.339 C 
ATOM      4  O   UNL A   1      34.638  23.227  22.582  1.00  0.00    -0.246 OA
BRANCH   3   5
ATOM      5  C   UNL A   1      33.407  23.487  24.572  1.00  0.00     0.075 A 
ATOM      6  C   UNL A   1      31.175  24.188  25.223  1.00  0.00     0.088 A 
ATOM      7  C   UNL A   1      30.847  22.848  25.411  1.00  0.00     0.023 A 
ATOM      8  C   UNL A   1      32.441  24.501  24.709  1.00  0.00     0.039 A 
ATOM      9  C   UNL A   1      31.840  21.869  25.404  1.00  0.00     0.018 A 
ATOM     10  C   UNL A   1      33.137  22.197  25.030  1.00  0.00     0.032 A 
ATOM     11  Br  UNL A   1      34.468  20.850  25.162  1.00  0.00    -0.050 Br
BRANCH   6  12
ATOM     12  S   UNL A   1      30.111  25.520  25.789  1.00  0.00     0.261 S 
ATOM     13  O   UNL A   1      30.958  26.682  25.982  1.00  0.00    -0.201 OA
ATOM     14  O   UNL A   1      29.295  24.980  26.850  1.00  0.00    -0.201 OA
BRANCH  12  15
ATOM     15  N   UNL A   1      29.086  25.984  24.540  1.00  0.00    -0.280 N 
ATOM     16  H   UNL A   1      28.228  25.506  24.475  1.00  0.00     0.180 HD
BRANCH  15  17
ATOM     17  C   UNL A   1      29.324  26.994  23.565  1.00  0.00     0.049 A 
ATOM     18  C   UNL A   1      27.577  30.268  22.679  1.00  0.00     0.044 C 
ATOM     19  C   UNL A   1      28.619  29.195  22.797  1.00  0.00    -0.049 A 
ATOM     20  C   UNL A   1      29.926  29.437  22.362  1.00  0.00     0.003 A 
ATOM     21  C   UNL A   1      28.330  27.971  23.418  1.00  0.00     0.030 A 
ATOM     22  C   UNL A   1      30.874  28.415  22.388  1.00  0.00     0.002 A 
ATOM     23  C   UNL A   1      30.550  27.168  22.926  1.00  0.00     0.027 A 
ENDBRANCH  15  17
ENDBRANCH  12  15
ENDBRANCH   6  12
ENDBRANCH   3   5
ENDBRANCH   2   3
ENDBRANCH   1   2
BRANCH   1  24
ATOM     24  C   UNL A   1      37.554  23.160  25.769  1.00  0.00     0.275 C 
BRANCH  24  25
ATOM     25  O   UNL A   1      38.289  24.288  26.295  1.00  0.00    -0.458 OA
BRANCH  25  26
ATOM     26  C   UNL A   1      39.303  24.037  27.178  1.00  0.00     0.338 C 
ATOM     27  O   UNL A   1      39.896  22.975  27.259  1.00  0.00    -0.246 OA
BRANCH  26  28
ATOM     28  C   UNL A   1      39.836  25.352  27.638  1.00  0.00     0.060 A 
ATOM     29  C   UNL A   1      40.284  26.331  26.732  1.00  0.00     0.016 A 
ATOM     30  C   UNL A   1      39.423  25.717  28.912  1.00  0.00     0.016 A 
ATOM     31  C   UNL A   1      40.207  27.677  27.084  1.00  0.00     0.010 A 
ATOM     32  C   UNL A   1      39.008  26.997  29.097  1.00  0.00     0.010 A 
ATOM     33  C   UNL A   1      39.526  27.983  28.259  1.00  0.00    -0.014 A 
BRANCH  33  34
ATOM     34  C   UNL A   1      39.604  29.223  29.003  1.00  0.00     0.031 A 
ATOM     35  C   UNL A   1      38.562  30.237  28.868  1.00  0.00     0.074 A 
ATOM     36  C   UNL A   1      40.543  29.125  29.980  1.00  0.00     0.049 A 
ATOM     37  N   UNL A   1      38.777  31.488  29.038  1.00  0.00    -0.248 NA
ATOM     38  C   UNL A   1      37.173  29.945  28.500  1.00  0.00     0.031 C 
ATOM     39  C   UNL A   1      40.805  29.851  31.204  1.00  0.00     0.029 A 
ATOM     40  N   UNL A   1      41.581  28.192  29.962  1.00  0.00    -0.354 N 
ATOM     41  C   UNL A   1      37.543  32.067  29.239  1.00  0.00     0.074 A 
ATOM     42  C   UNL A   1      36.585  31.138  28.690  1.00  0.00     0.031 C 
ATOM     43  C   UNL A   1      42.063  29.552  31.610  1.00  0.00     0.029 A 
ATOM     44  C   UNL A   1      42.693  28.689  30.606  1.00  0.00     0.049 A 
ATOM     45  H   UNL A   1      41.526  27.302  29.546  1.00  0.00     0.167 HD
ATOM     46  C   UNL A   1      37.459  33.138  30.078  1.00  0.00     0.031 A 
ATOM     47  C   UNL A   1      43.718  28.987  29.747  1.00  0.00     0.031 A 
ATOM     48  C   UNL A   1      38.763  33.369  30.715  1.00  0.00     0.049 A 
ATOM     49  C   UNL A   1      43.710  30.478  29.438  1.00  0.00     0.074 A 
ATOM     50  C   UNL A   1      39.277  33.063  31.965  1.00  0.00     0.029 A 
ATOM     51  N   UNL A   1      39.858  33.609  29.907  1.00  0.00    -0.354 N 
ATOM     52  N   UNL A   1      42.784  31.301  29.854  1.00  0.00    -0.248 NA
ATOM     53  C   UNL A   1      44.725  31.165  28.647  1.00  0.00     0.031 C 
ATOM     54  C   UNL A   1      40.706  33.100  31.875  1.00  0.00     0.029 A 
ATOM     55  C   UNL A   1      41.052  33.424  30.576  1.00  0.00     0.049 A 
ATOM     56  H   UNL A   1      39.795  33.880  28.963  1.00  0.00     0.167 HD
ATOM     57  C   UNL A   1      43.056  32.572  29.464  1.00  0.00     0.074 A 
ATOM     58  C   UNL A   1      44.272  32.433  28.676  1.00  0.00     0.031 C 
ATOM     59  C   UNL A   1      42.281  33.640  29.824  1.00  0.00     0.031 A 
BRANCH  46  60
ATOM     60  C   UNL A   1      36.192  33.812  30.546  1.00  0.00    -0.014 A 
ATOM     61  C   UNL A   1      36.146  34.317  31.863  1.00  0.00     0.010 A 
ATOM     62  C   UNL A   1      35.055  34.046  29.748  1.00  0.00     0.010 A 
ATOM     63  C   UNL A   1      35.026  34.983  32.375  1.00  0.00     0.020 A 
ATOM     64  C   UNL A   1      33.914  34.703  30.255  1.00  0.00     0.020 A 
ATOM     65  C   UNL A   1      33.910  35.169  31.569  1.00  0.00     0.054 A 
BRANCH  65  66
ATOM     66  S   UNL A   1      32.489  36.059  32.260  1.00  0.00     0.124 S 
ATOM     67  O   UNL A   1      32.008  36.821  31.109  1.00  0.00    -0.237 OA
ATOM     68  O   UNL A   1      31.620  34.972  32.700  1.00  0.00    -0.237 OA
ATOM     69  O   UNL A   1      33.071  36.864  33.332  1.00  0.00    -0.744 OA
ENDBRANCH  65  66
ENDBRANCH  46  60
BRANCH  47  70
ATOM     70  C   UNL A   1      43.999  27.843  28.778  1.00  0.00    -0.014 A 
ATOM     71  C   UNL A   1      43.631  28.041  27.418  1.00  0.00     0.010 A 
ATOM     72  C   UNL A   1      44.873  26.772  29.048  1.00  0.00     0.010 A 
ATOM     73  C   UNL A   1      44.208  27.305  26.371  1.00  0.00     0.020 A 
ATOM     74  C   UNL A   1      45.427  26.000  27.997  1.00  0.00     0.020 A 
ATOM     75  C   UNL A   1      45.124  26.300  26.664  1.00  0.00     0.054 A 
BRANCH  75  76
ATOM     76  S   UNL A   1      46.062  25.559  25.283  1.00  0.00     0.124 S 
ATOM     77  O   UNL A   1      47.110  24.819  25.976  1.00  0.00    -0.237 OA
ATOM     78  O   UNL A   1      45.044  24.737  24.625  1.00  0.00    -0.237 OA
ATOM     79  O   UNL A   1      46.504  26.719  24.518  1.00  0.00    -0.744 OA
ENDBRANCH  75  76
ENDBRANCH  47  70
BRANCH  59  80
ATOM     80  C   UNL A   1      42.621  35.048  29.440  1.00  0.00    -0.014 A 
ATOM     81  C   UNL A   1      42.120  35.638  28.275  1.00  0.00     0.010 A 
ATOM     82  C   UNL A   1      43.555  35.787  30.200  1.00  0.00     0.010 A 
ATOM     83  C   UNL A   1      42.436  36.959  27.956  1.00  0.00     0.020 A 
ATOM     84  C   UNL A   1      43.906  37.090  29.874  1.00  0.00     0.020 A 
ATOM     85  C   UNL A   1      43.311  37.682  28.772  1.00  0.00     0.054 A 
BRANCH  85  86
ATOM     86  S   UNL A   1      43.678  39.398  28.368  1.00  0.00     0.124 S 
ATOM     87  O   UNL A   1      42.704  40.129  29.174  1.00  0.00    -0.237 OA
ATOM     88  O   UNL A   1      45.068  39.514  28.802  1.00  0.00    -0.237 OA
ATOM     89  O   UNL A   1      43.466  39.469  26.924  1.00  0.00    -0.744 OA
ENDBRANCH  85  86
ENDBRANCH  59  80
ENDBRANCH  33  34
ENDBRANCH  26  28
ENDBRANCH  25  26
ENDBRANCH  24  25
ENDBRANCH   1  24
TORSDOF 17
ENDMDL
MODEL 3
REMARK VINA RESULT:     -12.5      3.589      5.190
REMARK SMILES Cc1cccc(NS(=O)(=O)c2ccc(Br)c(C(=O)OCCOC(=O)c3ccc(-c4c5nc(c(-c6ccc(S(=O)(=O)[O-])cc6)c6ccc([nH]6)c(-c6ccc(S(=O)(=O)[O-])cc6)c6nc(c(-c7ccc(S(=O)(=O)[O-])cc7)c7ccc4[nH]7)C=C6)C=C5)cc3)c2)c1
REMARK SMILES IDX 20 1 19 2 17 3 18 4 16 5 11 6 12 7 85 8 13 9 14 10 15 11
REMARK SMILES IDX 8 12 9 13 10 14 7 15 6 17 1 18 2 19 3 20 86 21 4 22 5 23
REMARK SMILES IDX 21 24 22 25 23 26 24 27 25 28 26 29 84 30 27 31 83 32 28 33
REMARK SMILES IDX 29 34 30 35 77 36 31 37 82 38 76 39 78 40 32 41 81 42 75 43
REMARK SMILES IDX 74 44 33 46 63 47 44 48 62 49 45 50 48 51 61 52 79 53 46 54
REMARK SMILES IDX 47 55 60 57 80 58 49 59 34 60 35 61 43 62 36 63 42 64 37 65
REMARK SMILES IDX 38 66 39 67 40 68 41 69 64 70 65 71 73 72 66 73 72 74 67 75
REMARK SMILES IDX 68 76 69 77 70 78 71 79 50 80 51 81 59 82 52 83 58 84 53 85
REMARK SMILES IDX 54 86 55 87 56 88 57 89
REMARK H PARENT 7 16 78 45 48 56
REMARK Flexibility Score: inf
ROOT
ATOM      1  C   UNL A   1      31.383  28.118  27.168  1.00  0.00     0.275 C 
ENDROOT
BRANCH   1   2
ATOM      2  O   UNL A   1      32.347  27.095  26.860  1.00  0.00    -0.458 OA
BRANCH   2   3
ATOM      3  C   UNL A   1      31.925  26.182  25.963  1.00  0.00     0.339 C 
ATOM      4  O   UNL A   1      30.838  26.170  25.406  1.00  0.00    -0.246 OA
BRANCH   3   5
ATOM      5  C   UNL A   1      33.015  25.286  25.550  1.00  0.00     0.075 A 
ATOM      6  C   UNL A   1      34.020  23.075  25.517  1.00  0.00     0.088 A 
ATOM      7  C   UNL A   1      34.444  23.325  24.215  1.00  0.00     0.023 A 
ATOM      8  C   UNL A   1      33.218  24.031  26.155  1.00  0.00     0.039 A 
ATOM      9  C   UNL A   1      34.358  24.610  23.678  1.00  0.00     0.018 A 
ATOM     10  C   UNL A   1      33.682  25.608  24.368  1.00  0.00     0.032 A 
ATOM     11  Br  UNL A   1      33.707  27.363  23.645  1.00  0.00    -0.050 Br
BRANCH   6  12
ATOM     12  S   UNL A   1      34.618  21.669  26.461  1.00  0.00     0.261 S 
ATOM     13  O   UNL A   1      34.293  21.927  27.851  1.00  0.00    -0.201 OA
ATOM     14  O   UNL A   1      35.970  21.417  26.023  1.00  0.00    -0.201 OA
BRANCH  12  15
ATOM     15  N   UNL A   1      33.696  20.313  26.087  1.00  0.00    -0.280 N 
ATOM     16  H   UNL A   1      33.253  19.862  26.842  1.00  0.00     0.180 HD
BRANCH  15  17
ATOM     17  C   UNL A   1      33.487  19.747  24.799  1.00  0.00     0.049 A 
ATOM     18  C   UNL A   1      34.328  16.371  23.232  1.00  0.00     0.044 C 
ATOM     19  C   UNL A   1      33.688  17.704  23.488  1.00  0.00    -0.049 A 
ATOM     20  C   UNL A   1      32.584  18.108  22.730  1.00  0.00     0.003 A 
ATOM     21  C   UNL A   1      34.123  18.525  24.538  1.00  0.00     0.030 A 
ATOM     22  C   UNL A   1      32.042  19.380  22.905  1.00  0.00     0.002 A 
ATOM     23  C   UNL A   1      32.543  20.230  23.895  1.00  0.00     0.027 A 
ENDBRANCH  15  17
ENDBRANCH  12  15
ENDBRANCH   6  12
ENDBRANCH   3   5
ENDBRANCH   2   3
ENDBRANCH   1   2
BRANCH   1  24
ATOM     24  C   UNL A   1      31.815  29.577  26.850  1.00  0.00     0.275 C 
BRANCH  24  25
ATOM     25  O   UNL A   1      32.796  30.215  27.698  1.00  0.00    -0.458 OA
BRANCH  25  26
ATOM     26  C   UNL A   1      33.156  31.501  27.405  1.00  0.00     0.338 C 
ATOM     27  O   UNL A   1      32.393  32.451  27.430  1.00  0.00    -0.246 OA
BRANCH  26  28
ATOM     28  C   UNL A   1      34.641  31.593  27.529  1.00  0.00     0.060 A 
ATOM     29  C   UNL A   1      35.300  32.828  27.672  1.00  0.00     0.016 A 
ATOM     30  C   UNL A   1      35.247  30.423  27.967  1.00  0.00     0.016 A 
ATOM     31  C   UNL A   1      36.514  32.881  28.353  1.00  0.00     0.010 A 
ATOM     32  C   UNL A   1      36.202  30.531  28.926  1.00  0.00     0.010 A 
ATOM     33  C   UNL A   1      36.923  31.722  29.005  1.00  0.00    -0.014 A 
BRANCH  33  34
ATOM     34  C   UNL A   1      38.261  31.419  29.470  1.00  0.00     0.031 A 
ATOM     35  C   UNL A   1      38.987  30.268  28.941  1.00  0.00     0.074 A 
ATOM     36  C   UNL A   1      38.767  32.475  30.159  1.00  0.00     0.049 A 
ATOM     37  N   UNL A   1      39.879  29.637  29.610  1.00  0.00    -0.248 NA
ATOM     38  C   UNL A   1      38.764  29.695  27.611  1.00  0.00     0.031 C 
ATOM     39  C   UNL A   1      40.104  32.892  30.525  1.00  0.00     0.029 A 
ATOM     40  N   UNL A   1      37.978  33.471  30.736  1.00  0.00    -0.354 N 
ATOM     41  C   UNL A   1      40.612  28.918  28.691  1.00  0.00     0.074 A 
ATOM     42  C   UNL A   1      39.771  28.810  27.524  1.00  0.00     0.031 C 
ATOM     43  C   UNL A   1      40.000  33.830  31.499  1.00  0.00     0.029 A 
ATOM     44  C   UNL A   1      38.588  33.984  31.859  1.00  0.00     0.049 A 
ATOM     45  H   UNL A   1      37.106  33.765  30.387  1.00  0.00     0.167 HD
ATOM     46  C   UNL A   1      41.940  28.727  28.930  1.00  0.00     0.031 A 
ATOM     47  C   UNL A   1      37.959  33.618  33.021  1.00  0.00     0.031 A 
ATOM     48  C   UNL A   1      42.341  29.484  30.124  1.00  0.00     0.049 A 
ATOM     49  C   UNL A   1      38.684  32.433  33.643  1.00  0.00     0.074 A 
ATOM     50  C   UNL A   1      42.993  30.693  30.309  1.00  0.00     0.029 A 
ATOM     51  N   UNL A   1      41.702  29.216  31.320  1.00  0.00    -0.354 N 
ATOM     52  N   UNL A   1      39.681  31.810  33.074  1.00  0.00    -0.248 NA
ATOM     53  C   UNL A   1      38.357  31.852  34.941  1.00  0.00     0.031 C 
ATOM     54  C   UNL A   1      42.704  31.152  31.634  1.00  0.00     0.029 A 
ATOM     55  C   UNL A   1      41.879  30.225  32.245  1.00  0.00     0.049 A 
ATOM     56  H   UNL A   1      41.180  28.400  31.491  1.00  0.00     0.167 HD
ATOM     57  C   UNL A   1      40.157  30.823  33.874  1.00  0.00     0.074 A 
ATOM     58  C   UNL A   1      39.268  30.863  35.027  1.00  0.00     0.031 C 
ATOM     59  C   UNL A   1      41.243  30.060  33.545  1.00  0.00     0.031 A 
BRANCH  46  60
ATOM     60  C   UNL A   1      42.940  28.107  27.984  1.00  0.00    -0.014 A 
ATOM     61  C   UNL A   1      43.736  27.039  28.452  1.00  0.00     0.010 A 
ATOM     62  C   UNL A   1      43.107  28.463  26.631  1.00  0.00     0.010 A 
ATOM     63  C   UNL A   1      44.669  26.383  27.640  1.00  0.00     0.020 A 
ATOM     64  C   UNL A   1      44.053  27.820  25.805  1.00  0.00     0.020 A 
ATOM     65  C   UNL A   1      44.827  26.780  26.318  1.00  0.00     0.054 A 
BRANCH  65  66
ATOM     66  S   UNL A   1      46.027  25.889  25.290  1.00  0.00     0.124 S 
ATOM     67  O   UNL A   1      47.025  25.467  26.271  1.00  0.00    -0.237 OA
ATOM     68  O   UNL A   1      45.218  24.819  24.716  1.00  0.00    -0.237 OA
ATOM     69  O   UNL A   1      46.487  26.900  24.339  1.00  0.00    -0.744 OA
ENDBRANCH  65  66
ENDBRANCH  46  60
BRANCH  47  70
ATOM     70  C   UNL A   1      36.453  33.848  32.949  1.00  0.00    -0.014 A 
ATOM     71  C   UNL A   1      35.910  34.850  33.801  1.00  0.00     0.010 A 
ATOM     72  C   UNL A   1      35.632  33.397  31.899  1.00  0.00     0.010 A 
ATOM     73  C   UNL A   1      34.676  35.467  33.539  1.00  0.00     0.020 A 
ATOM     74  C   UNL A   1      34.367  33.989  31.654  1.00  0.00     0.020 A 
ATOM     75  C   UNL A   1      33.918  35.049  32.450  1.00  0.00     0.054 A 
BRANCH  75  76
ATOM     76  S   UNL A   1      32.467  36.052  31.973  1.00  0.00     0.124 S 
ATOM     77  O   UNL A   1      31.353  35.186  32.341  1.00  0.00    -0.237 OA
ATOM     78  O   UNL A   1      32.633  37.247  32.802  1.00  0.00    -0.237 OA
ATOM     79  O   UNL A   1      32.662  36.262  30.543  1.00  0.00    -0.744 OA
ENDBRANCH  75  76
ENDBRANCH  47  70
BRANCH  59  80
ATOM     80  C   UNL A   1      41.799  29.013  34.461  1.00  0.00    -0.014 A 
ATOM     81  C   UNL A   1      41.483  27.658  34.313  1.00  0.00     0.010 A 
ATOM     82  C   UNL A   1      42.579  29.385  35.578  1.00  0.00     0.010 A 
ATOM     83  C   UNL A   1      42.035  26.703  35.168  1.00  0.00     0.020 A 
ATOM     84  C   UNL A   1      43.106  28.449  36.457  1.00  0.00     0.020 A 
ATOM     85  C   UNL A   1      42.861  27.106  36.221  1.00  0.00     0.054 A 
BRANCH  85  86
ATOM     86  S   UNL A   1      43.595  25.858  37.292  1.00  0.00     0.124 S 
ATOM     87  O   UNL A   1      42.635  24.760  37.202  1.00  0.00    -0.237 OA
ATOM     88  O   UNL A   1      44.880  25.625  36.638  1.00  0.00    -0.237 OA
ATOM     89  O   UNL A   1      43.667  26.514  38.595  1.00  0.00    -0.744 OA
ENDBRANCH  85  86
ENDBRANCH  59  80
ENDBRANCH  33  34
ENDBRANCH  26  28
ENDBRANCH  25  26
ENDBRANCH  24  25
ENDBRANCH   1  24
TORSDOF 17
ENDMDL
