MODEL 1
REMARK VINA RESULT:     -13.4      0.000      0.000
REMARK SMILES Cc1cccc(CNC(=O)N[C@@H](CC2=c3ccccc3=NC2)C(=O)OCCOC(=O)c2ccc(-c3c4nc(c(-c5ccc(S(=O)(=O)[O-])cc5)c5ccc([nH]5)c(-c5ccc(S(=O)(=O)[O-])cc5)c5nc(c(-c6ccc(S(=O)(=O)[O-])cc6)c6ccc3[nH]6)C=C5)C=C4)cc2)c1
REMARK SMILES IDX 26 1 25 2 23 3 24 4 12 5 11 6 8 7 9 8 10 10 7 12 6 13 1 14
REMARK SMILES IDX 2 15 3 16 91 17 4 18 5 19 13 20 14 21 15 22 22 23 16 24
REMARK SMILES IDX 20 25 21 26 17 27 19 28 18 29 27 30 28 31 29 32 30 33 31 34
REMARK SMILES IDX 32 35 90 36 33 37 89 38 34 39 35 40 36 41 83 42 37 43 88 44
REMARK SMILES IDX 82 45 84 46 38 47 87 48 81 49 80 50 39 52 69 53 50 54 68 55
REMARK SMILES IDX 51 56 54 57 67 58 85 59 52 60 53 61 66 63 86 64 55 65 40 66
REMARK SMILES IDX 41 67 49 68 42 69 48 70 43 71 44 72 45 73 46 74 47 75 70 76
REMARK SMILES IDX 71 77 79 78 72 79 78 80 73 81 74 82 75 83 76 84 77 85 56 86
REMARK SMILES IDX 57 87 65 88 58 89 64 90 59 91 60 92 61 93 62 94 63 95
REMARK H PARENT 8 9 11 11 84 51 54 62
REMARK Flexibility Score: inf
ROOT
ATOM      1  C   UNL A   1      39.023  23.756  26.836  1.00  0.00     0.274 C 
ENDROOT
BRANCH   1   2
ATOM      2  O   UNL A   1      38.292  24.089  25.635  1.00  0.00    -0.461 OA
BRANCH   2   3
ATOM      3  C   UNL A   1      37.072  23.330  25.385  1.00  0.00     0.329 C 
ATOM      4  O   UNL A   1      37.361  22.162  25.763  1.00  0.00    -0.250 OA
BRANCH   3   5
ATOM      5  C   UNL A   1      35.172  24.216  24.711  1.00  0.00     0.198 C 
BRANCH   5   6
ATOM      6  N   UNL A   1      34.408  24.115  23.217  1.00  0.00    -0.324 N 
ATOM      7  N   UNL A   1      32.995  22.216  22.814  1.00  0.00    -0.334 N 
ATOM      8  C   UNL A   1      33.674  23.301  22.463  1.00  0.00     0.315 C 
ATOM      9  H   UNL A   1      32.632  21.772  22.014  1.00  0.00     0.165 HD
ATOM     10  O   UNL A   1      33.616  23.600  21.262  1.00  0.00    -0.249 OA
ATOM     11  H   UNL A   1      34.559  24.953  22.725  1.00  0.00     0.166 HD
BRANCH   7  12
ATOM     12  C   UNL A   1      32.618  21.477  24.009  1.00  0.00     0.153 C 
BRANCH  12  13
ATOM     13  C   UNL A   1      33.491  20.267  24.313  1.00  0.00    -0.028 A 
ATOM     14  C   UNL A   1      33.493  16.508  23.523  1.00  0.00     0.044 C 
ATOM     15  C   UNL A   1      33.898  17.856  24.043  1.00  0.00    -0.051 A 
ATOM     16  C   UNL A   1      35.190  18.026  24.548  1.00  0.00     0.003 A 
ATOM     17  C   UNL A   1      33.059  18.980  23.925  1.00  0.00     0.009 A 
ATOM     18  C   UNL A   1      35.622  19.281  24.966  1.00  0.00     0.001 A 
ATOM     19  C   UNL A   1      34.779  20.390  24.859  1.00  0.00     0.005 A 
ENDBRANCH  12  13
ENDBRANCH   7  12
ENDBRANCH   5   6
BRANCH   5  20
ATOM     20  C   UNL A   1      33.570  24.478  25.520  1.00  0.00     0.070 C 
BRANCH  20  21
ATOM     21  C   UNL A   1      32.660  25.707  25.574  1.00  0.00    -0.037 C 
ATOM     22  C   UNL A   1      32.328  26.686  24.727  1.00  0.00     0.001 A 
ATOM     23  C   UNL A   1      31.762  25.829  26.788  1.00  0.00     0.174 C 
ATOM     24  C   UNL A   1      32.812  27.251  23.509  1.00  0.00     0.010 A 
ATOM     25  C   UNL A   1      30.926  26.932  25.142  1.00  0.00     0.065 A 
ATOM     26  N   UNL A   1      30.564  26.551  26.326  1.00  0.00    -0.280 NA
ATOM     27  C   UNL A   1      31.935  27.749  22.619  1.00  0.00     0.001 A 
ATOM     28  C   UNL A   1      30.007  27.433  24.092  1.00  0.00     0.028 A 
ATOM     29  C   UNL A   1      30.509  27.735  22.884  1.00  0.00     0.002 A 
ENDBRANCH  20  21
ENDBRANCH   5  20
ENDBRANCH   3   5
ENDBRANCH   2   3
ENDBRANCH   1   2
BRANCH   1  30
ATOM     30  C   UNL A   1      39.572  25.051  27.447  1.00  0.00     0.275 C 
BRANCH  30  31
ATOM     31  O   UNL A   1      40.951  25.355  27.104  1.00  0.00    -0.458 OA
BRANCH  31  32
ATOM     32  C   UNL A   1      41.250  26.290  26.167  1.00  0.00     0.338 C 
ATOM     33  O   UNL A   1      41.369  26.084  24.970  1.00  0.00    -0.246 OA
BRANCH  32  34
ATOM     34  C   UNL A   1      41.318  27.642  26.724  1.00  0.00     0.060 A 
ATOM     35  C   UNL A   1      42.821  28.318  27.453  1.00  0.00     0.016 A 
ATOM     36  C   UNL A   1      39.740  28.311  27.208  1.00  0.00     0.016 A 
ATOM     37  C   UNL A   1      42.733  29.521  28.823  1.00  0.00     0.010 A 
ATOM     38  C   UNL A   1      39.641  29.484  28.578  1.00  0.00     0.010 A 
ATOM     39  C   UNL A   1      41.130  30.054  29.402  1.00  0.00    -0.014 A 
BRANCH  39  40
ATOM     40  C   UNL A   1      40.754  30.358  30.792  1.00  0.00     0.031 A 
ATOM     41  C   UNL A   1      39.818  31.479  31.018  1.00  0.00     0.074 A 
ATOM     42  C   UNL A   1      40.807  29.332  31.678  1.00  0.00     0.049 A 
ATOM     43  N   UNL A   1      38.729  31.382  31.700  1.00  0.00    -0.248 NA
ATOM     44  C   UNL A   1      40.015  32.796  30.401  1.00  0.00     0.031 C 
ATOM     45  C   UNL A   1      40.017  29.132  32.891  1.00  0.00     0.029 A 
ATOM     46  N   UNL A   1      41.676  28.257  31.720  1.00  0.00    -0.354 N 
ATOM     47  C   UNL A   1      38.148  32.621  31.727  1.00  0.00     0.074 A 
ATOM     48  C   UNL A   1      38.922  33.448  30.817  1.00  0.00     0.031 C 
ATOM     49  C   UNL A   1      40.638  28.234  33.675  1.00  0.00     0.029 A 
ATOM     50  C   UNL A   1      41.904  27.902  33.044  1.00  0.00     0.049 A 
ATOM     51  H   UNL A   1      42.070  27.811  30.936  1.00  0.00     0.167 HD
ATOM     52  C   UNL A   1      37.590  33.105  32.866  1.00  0.00     0.031 A 
ATOM     53  C   UNL A   1      43.133  28.131  33.592  1.00  0.00     0.031 A 
ATOM     54  C   UNL A   1      38.179  32.512  34.051  1.00  0.00     0.049 A 
ATOM     55  C   UNL A   1      43.110  29.357  34.481  1.00  0.00     0.074 A 
ATOM     56  C   UNL A   1      37.874  31.433  34.857  1.00  0.00     0.029 A 
ATOM     57  N   UNL A   1      39.482  32.888  34.371  1.00  0.00    -0.354 N 
ATOM     58  N   UNL A   1      42.125  30.219  34.495  1.00  0.00    -0.248 NA
ATOM     59  C   UNL A   1      44.137  29.691  35.460  1.00  0.00     0.031 C 
ATOM     60  C   UNL A   1      39.058  31.087  35.576  1.00  0.00     0.029 A 
ATOM     61  C   UNL A   1      40.062  31.987  35.244  1.00  0.00     0.049 A 
ATOM     62  H   UNL A   1      39.930  33.691  34.021  1.00  0.00     0.167 HD
ATOM     63  C   UNL A   1      42.330  31.162  35.456  1.00  0.00     0.074 A 
ATOM     64  C   UNL A   1      43.611  30.790  36.035  1.00  0.00     0.031 C 
ATOM     65  C   UNL A   1      41.441  32.173  35.702  1.00  0.00     0.031 A 
BRANCH  52  66
ATOM     66  C   UNL A   1      36.273  33.824  32.747  1.00  0.00    -0.014 A 
ATOM     67  C   UNL A   1      35.504  33.691  31.578  1.00  0.00     0.010 A 
ATOM     68  C   UNL A   1      35.806  34.738  33.721  1.00  0.00     0.010 A 
ATOM     69  C   UNL A   1      34.339  34.451  31.376  1.00  0.00     0.020 A 
ATOM     70  C   UNL A   1      34.636  35.489  33.538  1.00  0.00     0.020 A 
ATOM     71  C   UNL A   1      33.916  35.351  32.356  1.00  0.00     0.054 A 
BRANCH  71  72
ATOM     72  S   UNL A   1      32.435  36.354  32.053  1.00  0.00     0.124 S 
ATOM     73  O   UNL A   1      31.366  35.495  32.559  1.00  0.00    -0.237 OA
ATOM     74  O   UNL A   1      32.699  37.557  32.838  1.00  0.00    -0.237 OA
ATOM     75  O   UNL A   1      32.435  36.552  30.604  1.00  0.00    -0.744 OA
ENDBRANCH  71  72
ENDBRANCH  52  66
BRANCH  53  76
ATOM     76  C   UNL A   1      44.243  27.513  32.798  1.00  0.00    -0.014 A 
ATOM     77  C   UNL A   1      44.356  26.115  32.971  1.00  0.00     0.010 A 
ATOM     78  C   UNL A   1      44.717  28.066  31.590  1.00  0.00     0.010 A 
ATOM     79  C   UNL A   1      44.694  25.279  31.904  1.00  0.00     0.020 A 
ATOM     80  C   UNL A   1      45.061  27.220  30.507  1.00  0.00     0.020 A 
ATOM     81  C   UNL A   1      44.975  25.830  30.657  1.00  0.00     0.054 A 
BRANCH  81  82
ATOM     82  S   UNL A   1      44.949  24.696  29.222  1.00  0.00     0.124 S 
ATOM     83  O   UNL A   1      43.882  25.263  28.403  1.00  0.00    -0.237 OA
ATOM     84  O   UNL A   1      46.298  24.832  28.672  1.00  0.00    -0.237 OA
ATOM     85  O   UNL A   1      44.661  23.396  29.807  1.00  0.00    -0.744 OA
ENDBRANCH  81  82
ENDBRANCH  53  76
BRANCH  65  86
ATOM     86  C   UNL A   1      41.794  33.415  36.485  1.00  0.00    -0.014 A 
ATOM     87  C   UNL A   1      43.033  34.064  36.363  1.00  0.00     0.010 A 
ATOM     88  C   UNL A   1      40.816  34.049  37.285  1.00  0.00     0.010 A 
ATOM     89  C   UNL A   1      43.329  35.219  37.092  1.00  0.00     0.020 A 
ATOM     90  C   UNL A   1      41.077  35.241  37.967  1.00  0.00     0.020 A 
ATOM     91  C   UNL A   1      42.352  35.794  37.900  1.00  0.00     0.054 A 
BRANCH  91  92
ATOM     92  S   UNL A   1      42.755  37.291  38.830  1.00  0.00     0.124 S 
ATOM     93  O   UNL A   1      41.435  37.735  39.265  1.00  0.00    -0.237 OA
ATOM     94  O   UNL A   1      43.627  36.789  39.889  1.00  0.00    -0.237 OA
ATOM     95  O   UNL A   1      43.414  38.141  37.841  1.00  0.00    -0.744 OA
ENDBRANCH  91  92
ENDBRANCH  65  86
ENDBRANCH  39  40
ENDBRANCH  32  34
ENDBRANCH  31  32
ENDBRANCH  30  31
ENDBRANCH   1  30
TORSDOF 19
ENDMDL
MODEL 2
REMARK VINA RESULT:     -13.3      2.578      5.040
REMARK SMILES Cc1cccc(CNC(=O)N[C@@H](CC2=c3ccccc3=NC2)C(=O)OCCOC(=O)c2ccc(-c3c4nc(c(-c5ccc(S(=O)(=O)[O-])cc5)c5ccc([nH]5)c(-c5ccc(S(=O)(=O)[O-])cc5)c5nc(c(-c6ccc(S(=O)(=O)[O-])cc6)c6ccc3[nH]6)C=C5)C=C4)cc2)c1
REMARK SMILES IDX 26 1 25 2 23 3 24 4 12 5 11 6 8 7 9 8 10 10 7 12 6 13 1 14
REMARK SMILES IDX 2 15 3 16 91 17 4 18 5 19 13 20 14 21 15 22 22 23 16 24
REMARK SMILES IDX 20 25 21 26 17 27 19 28 18 29 27 30 28 31 29 32 30 33 31 34
REMARK SMILES IDX 32 35 90 36 33 37 89 38 34 39 35 40 36 41 83 42 37 43 88 44
REMARK SMILES IDX 82 45 84 46 38 47 87 48 81 49 80 50 39 52 69 53 50 54 68 55
REMARK SMILES IDX 51 56 54 57 67 58 85 59 52 60 53 61 66 63 86 64 55 65 40 66
REMARK SMILES IDX 41 67 49 68 42 69 48 70 43 71 44 72 45 73 46 74 47 75 70 76
REMARK SMILES IDX 71 77 79 78 72 79 78 80 73 81 74 82 75 83 76 84 77 85 56 86
REMARK SMILES IDX 57 87 65 88 58 89 64 90 59 91 60 92 61 93 62 94 63 95
REMARK H PARENT 8 9 11 11 84 51 54 62
REMARK Flexibility Score: inf
ROOT
ATOM      1  C   UNL A   1      39.215  22.888  26.593  1.00  0.00     0.274 C 
ENDROOT
BRANCH   1   2
ATOM      2  O   UNL A   1      37.806  23.004  26.290  1.00  0.00    -0.461 OA
BRANCH   2   3
ATOM      3  C   UNL A   1      37.203  21.892  25.566  1.00  0.00     0.329 C 
ATOM      4  O   UNL A   1      38.182  21.337  24.996  1.00  0.00    -0.250 OA
BRANCH   3   5
ATOM      5  C   UNL A   1      35.085  21.311  25.718  1.00  0.00     0.198 C 
BRANCH   5   6
ATOM      6  N   UNL A   1      33.840  22.005  26.609  1.00  0.00    -0.324 N 
ATOM      7  N   UNL A   1      33.505  24.373  26.396  1.00  0.00    -0.334 N 
ATOM      8  C   UNL A   1      33.317  23.181  26.947  1.00  0.00     0.315 C 
ATOM      9  H   UNL A   1      33.056  25.067  26.931  1.00  0.00     0.165 HD
ATOM     10  O   UNL A   1      32.544  23.158  27.915  1.00  0.00    -0.249 OA
ATOM     11  H   UNL A   1      33.313  21.290  27.031  1.00  0.00     0.166 HD
BRANCH   7  12
ATOM     12  C   UNL A   1      34.164  24.978  25.248  1.00  0.00     0.153 C 
BRANCH  12  13
ATOM     13  C   UNL A   1      33.237  25.335  24.094  1.00  0.00    -0.028 A 
ATOM     14  C   UNL A   1      30.060  27.426  23.562  1.00  0.00     0.044 C 
ATOM     15  C   UNL A   1      31.250  26.550  23.303  1.00  0.00    -0.051 A 
ATOM     16  C   UNL A   1      31.640  26.312  21.982  1.00  0.00     0.003 A 
ATOM     17  C   UNL A   1      32.055  26.064  24.350  1.00  0.00     0.009 A 
ATOM     18  C   UNL A   1      32.785  25.568  21.711  1.00  0.00     0.001 A 
ATOM     19  C   UNL A   1      33.571  25.075  22.756  1.00  0.00     0.005 A 
ENDBRANCH  12  13
ENDBRANCH   7  12
ENDBRANCH   5   6
BRANCH   5  20
ATOM     20  C   UNL A   1      33.882  20.680  24.515  1.00  0.00     0.070 C 
BRANCH  20  21
ATOM     21  C   UNL A   1      33.655  19.271  23.964  1.00  0.00    -0.037 C 
ATOM     22  C   UNL A   1      34.203  18.068  24.166  1.00  0.00     0.001 A 
ATOM     23  C   UNL A   1      32.432  19.076  23.092  1.00  0.00     0.174 C 
ATOM     24  C   UNL A   1      35.390  17.520  24.738  1.00  0.00     0.010 A 
ATOM     25  C   UNL A   1      33.017  17.201  23.968  1.00  0.00     0.065 A 
ATOM     26  N   UNL A   1      32.017  17.678  23.296  1.00  0.00    -0.280 NA
ATOM     27  C   UNL A   1      35.334  16.323  25.350  1.00  0.00     0.001 A 
ATOM     28  C   UNL A   1      33.006  15.920  24.715  1.00  0.00     0.028 A 
ATOM     29  C   UNL A   1      34.094  15.575  25.423  1.00  0.00     0.002 A 
ENDBRANCH  20  21
ENDBRANCH   5  20
ENDBRANCH   3   5
ENDBRANCH   2   3
ENDBRANCH   1   2
BRANCH   1  30
ATOM     30  C   UNL A   1      39.661  24.158  27.329  1.00  0.00     0.275 C 
BRANCH  30  31
ATOM     31  O   UNL A   1      39.839  25.326  26.485  1.00  0.00    -0.458 OA
BRANCH  31  32
ATOM     32  C   UNL A   1      40.306  26.494  26.995  1.00  0.00     0.338 C 
ATOM     33  O   UNL A   1      40.636  27.472  26.344  1.00  0.00    -0.246 OA
BRANCH  32  34
ATOM     34  C   UNL A   1      40.282  26.517  28.459  1.00  0.00     0.060 A 
ATOM     35  C   UNL A   1      38.750  26.535  29.406  1.00  0.00     0.016 A 
ATOM     36  C   UNL A   1      41.771  27.154  29.200  1.00  0.00     0.016 A 
ATOM     37  C   UNL A   1      38.662  27.384  31.019  1.00  0.00     0.010 A 
ATOM     38  C   UNL A   1      41.690  28.016  30.786  1.00  0.00     0.010 A 
ATOM     39  C   UNL A   1      40.134  28.159  31.668  1.00  0.00    -0.014 A 
BRANCH  39  40
ATOM     40  C   UNL A   1      40.201  29.410  32.442  1.00  0.00     0.031 A 
ATOM     41  C   UNL A   1      39.332  30.526  32.013  1.00  0.00     0.074 A 
ATOM     42  C   UNL A   1      40.577  29.306  33.740  1.00  0.00     0.049 A 
ATOM     43  N   UNL A   1      38.518  31.147  32.796  1.00  0.00    -0.248 NA
ATOM     44  C   UNL A   1      39.264  30.969  30.616  1.00  0.00     0.031 C 
ATOM     45  C   UNL A   1      40.218  30.166  34.866  1.00  0.00     0.029 A 
ATOM     46  N   UNL A   1      41.464  28.421  34.326  1.00  0.00    -0.354 N 
ATOM     47  C   UNL A   1      37.919  32.137  32.066  1.00  0.00     0.074 A 
ATOM     48  C   UNL A   1      38.328  31.924  30.687  1.00  0.00     0.031 C 
ATOM     49  C   UNL A   1      41.095  29.968  35.866  1.00  0.00     0.029 A 
ATOM     50  C   UNL A   1      42.113  29.052  35.381  1.00  0.00     0.049 A 
ATOM     51  H   UNL A   1      41.612  27.490  34.042  1.00  0.00     0.167 HD
ATOM     52  C   UNL A   1      37.724  33.373  32.592  1.00  0.00     0.031 A 
ATOM     53  C   UNL A   1      43.439  29.349  35.264  1.00  0.00     0.031 A 
ATOM     54  C   UNL A   1      38.683  33.671  33.639  1.00  0.00     0.049 A 
ATOM     55  C   UNL A   1      43.641  30.819  34.961  1.00  0.00     0.074 A 
ATOM     56  C   UNL A   1      38.697  33.545  35.014  1.00  0.00     0.029 A 
ATOM     57  N   UNL A   1      40.001  33.897  33.249  1.00  0.00    -0.354 N 
ATOM     58  N   UNL A   1      42.670  31.619  34.594  1.00  0.00    -0.248 NA
ATOM     59  C   UNL A   1      44.907  31.529  35.096  1.00  0.00     0.031 C 
ATOM     60  C   UNL A   1      40.062  33.573  35.433  1.00  0.00     0.029 A 
ATOM     61  C   UNL A   1      40.867  33.767  34.319  1.00  0.00     0.049 A 
ATOM     62  H   UNL A   1      40.279  34.122  32.332  1.00  0.00     0.167 HD
ATOM     63  C   UNL A   1      43.123  32.899  34.485  1.00  0.00     0.074 A 
ATOM     64  C   UNL A   1      44.537  32.792  34.807  1.00  0.00     0.031 C 
ATOM     65  C   UNL A   1      42.310  33.943  34.137  1.00  0.00     0.031 A 
BRANCH  52  66
ATOM     66  C   UNL A   1      36.405  34.046  32.326  1.00  0.00    -0.014 A 
ATOM     67  C   UNL A   1      35.730  33.813  31.114  1.00  0.00     0.010 A 
ATOM     68  C   UNL A   1      35.845  35.012  33.195  1.00  0.00     0.010 A 
ATOM     69  C   UNL A   1      34.567  34.526  30.774  1.00  0.00     0.020 A 
ATOM     70  C   UNL A   1      34.676  35.717  32.873  1.00  0.00     0.020 A 
ATOM     71  C   UNL A   1      34.051  35.478  31.654  1.00  0.00     0.054 A 
BRANCH  71  72
ATOM     72  S   UNL A   1      32.576  36.417  31.172  1.00  0.00     0.124 S 
ATOM     73  O   UNL A   1      33.049  37.798  31.234  1.00  0.00    -0.237 OA
ATOM     74  O   UNL A   1      32.300  35.907  29.830  1.00  0.00    -0.237 OA
ATOM     75  O   UNL A   1      31.584  36.058  32.183  1.00  0.00    -0.744 OA
ENDBRANCH  71  72
ENDBRANCH  52  66
BRANCH  53  76
ATOM     76  C   UNL A   1      44.272  28.152  34.919  1.00  0.00    -0.014 A 
ATOM     77  C   UNL A   1      44.417  27.234  35.983  1.00  0.00     0.010 A 
ATOM     78  C   UNL A   1      44.387  27.655  33.603  1.00  0.00     0.010 A 
ATOM     79  C   UNL A   1      44.429  25.856  35.754  1.00  0.00     0.020 A 
ATOM     80  C   UNL A   1      44.399  26.259  33.369  1.00  0.00     0.020 A 
ATOM     81  C   UNL A   1      44.347  25.372  34.451  1.00  0.00     0.054 A 
BRANCH  81  82
ATOM     82  S   UNL A   1      43.903  23.609  34.246  1.00  0.00     0.124 S 
ATOM     83  O   UNL A   1      42.543  23.573  34.776  1.00  0.00    -0.237 OA
ATOM     84  O   UNL A   1      44.015  23.409  32.801  1.00  0.00    -0.237 OA
ATOM     85  O   UNL A   1      44.899  22.901  35.035  1.00  0.00    -0.744 OA
ENDBRANCH  81  82
ENDBRANCH  53  76
BRANCH  65  86
ATOM     86  C   UNL A   1      42.833  35.277  33.659  1.00  0.00    -0.014 A 
ATOM     87  C   UNL A   1      43.418  35.456  32.396  1.00  0.00     0.010 A 
ATOM     88  C   UNL A   1      42.627  36.438  34.439  1.00  0.00     0.010 A 
ATOM     89  C   UNL A   1      43.884  36.705  31.976  1.00  0.00     0.020 A 
ATOM     90  C   UNL A   1      43.028  37.704  34.002  1.00  0.00     0.020 A 
ATOM     91  C   UNL A   1      43.697  37.820  32.788  1.00  0.00     0.054 A 
BRANCH  91  92
ATOM     92  S   UNL A   1      44.303  39.427  32.222  1.00  0.00     0.124 S 
ATOM     93  O   UNL A   1      43.891  39.422  30.822  1.00  0.00    -0.237 OA
ATOM     94  O   UNL A   1      43.587  40.365  33.083  1.00  0.00    -0.237 OA
ATOM     95  O   UNL A   1      45.743  39.351  32.457  1.00  0.00    -0.744 OA
ENDBRANCH  91  92
ENDBRANCH  65  86
ENDBRANCH  39  40
ENDBRANCH  32  34
ENDBRANCH  31  32
ENDBRANCH  30  31
ENDBRANCH   1  30
TORSDOF 19
ENDMDL
MODEL 3
REMARK VINA RESULT:     -13.3      4.703     10.936
REMARK SMILES Cc1cccc(CNC(=O)N[C@@H](CC2=c3ccccc3=NC2)C(=O)OCCOC(=O)c2ccc(-c3c4nc(c(-c5ccc(S(=O)(=O)[O-])cc5)c5ccc([nH]5)c(-c5ccc(S(=O)(=O)[O-])cc5)c5nc(c(-c6ccc(S(=O)(=O)[O-])cc6)c6ccc3[nH]6)C=C5)C=C4)cc2)c1
REMARK SMILES IDX 26 1 25 2 23 3 24 4 12 5 11 6 8 7 9 8 10 10 7 12 6 13 1 14
REMARK SMILES IDX 2 15 3 16 91 17 4 18 5 19 13 20 14 21 15 22 22 23 16 24
REMARK SMILES IDX 20 25 21 26 17 27 19 28 18 29 27 30 28 31 29 32 30 33 31 34
REMARK SMILES IDX 32 35 90 36 33 37 89 38 34 39 35 40 36 41 83 42 37 43 88 44
REMARK SMILES IDX 82 45 84 46 38 47 87 48 81 49 80 50 39 52 69 53 50 54 68 55
REMARK SMILES IDX 51 56 54 57 67 58 85 59 52 60 53 61 66 63 86 64 55 65 40 66
REMARK SMILES IDX 41 67 49 68 42 69 48 70 43 71 44 72 45 73 46 74 47 75 70 76
REMARK SMILES IDX 71 77 79 78 72 79 78 80 73 81 74 82 75 83 76 84 77 85 56 86
REMARK SMILES IDX 57 87 65 88 58 89 64 90 59 91 60 92 61 93 62 94 63 95
REMARK H PARENT 8 9 11 11 84 51 54 62
REMARK Flexibility Score: inf
ROOT
ATOM      1  C   UNL A   1      36.489  30.636  27.936  1.00  0.00     0.274 C 
ENDROOT
BRANCH   1   2
ATOM      2  O   UNL A   1      35.100  30.278  28.112  1.00  0.00    -0.461 OA
BRANCH   2   3
ATOM      3  C   UNL A   1      34.589  29.212  27.258  1.00  0.00     0.329 C 
ATOM      4  O   UNL A   1      35.629  28.611  26.872  1.00  0.00    -0.250 OA
BRANCH   3   5
ATOM      5  C   UNL A   1      32.454  28.750  26.987  1.00  0.00     0.198 C 
BRANCH   5   6
ATOM      6  N   UNL A   1      31.365  29.326  25.844  1.00  0.00    -0.324 N 
ATOM      7  N   UNL A   1      32.074  29.365  23.550  1.00  0.00    -0.334 N 
ATOM      8  C   UNL A   1      31.265  29.660  24.560  1.00  0.00     0.315 C 
ATOM      9  H   UNL A   1      31.786  29.838  22.737  1.00  0.00     0.165 HD
ATOM     10  O   UNL A   1      30.276  30.346  24.266  1.00  0.00    -0.249 OA
ATOM     11  H   UNL A   1      30.493  29.468  26.277  1.00  0.00     0.166 HD
BRANCH   7  12
ATOM     12  C   UNL A   1      33.253  28.560  23.267  1.00  0.00     0.153 C 
BRANCH  12  13
ATOM     13  C   UNL A   1      32.961  27.121  22.865  1.00  0.00    -0.028 A 
ATOM     14  C   UNL A   1      34.728  23.716  23.063  1.00  0.00     0.044 C 
ATOM     15  C   UNL A   1      33.698  24.775  22.798  1.00  0.00    -0.051 A 
ATOM     16  C   UNL A   1      32.401  24.385  22.452  1.00  0.00     0.003 A 
ATOM     17  C   UNL A   1      33.968  26.140  23.007  1.00  0.00     0.009 A 
ATOM     18  C   UNL A   1      31.405  25.340  22.276  1.00  0.00     0.001 A 
ATOM     19  C   UNL A   1      31.683  26.696  22.470  1.00  0.00     0.005 A 
ENDBRANCH  12  13
ENDBRANCH   7  12
ENDBRANCH   5   6
BRANCH   5  20
ATOM     20  C   UNL A   1      31.484  27.226  27.154  1.00  0.00     0.070 C 
BRANCH  20  21
ATOM     21  C   UNL A   1      31.473  25.944  26.317  1.00  0.00    -0.037 C 
ATOM     22  C   UNL A   1      32.309  24.917  26.134  1.00  0.00     0.001 A 
ATOM     23  C   UNL A   1      30.171  25.605  25.621  1.00  0.00     0.174 C 
ATOM     24  C   UNL A   1      33.681  24.606  26.369  1.00  0.00     0.010 A 
ATOM     25  C   UNL A   1      31.336  23.820  25.914  1.00  0.00     0.065 A 
ATOM     26  N   UNL A   1      30.136  24.134  25.539  1.00  0.00    -0.280 NA
ATOM     27  C   UNL A   1      34.027  23.342  26.672  1.00  0.00     0.001 A 
ATOM     28  C   UNL A   1      31.772  22.463  26.319  1.00  0.00     0.028 A 
ATOM     29  C   UNL A   1      33.032  22.289  26.748  1.00  0.00     0.002 A 
ENDBRANCH  20  21
ENDBRANCH   5  20
ENDBRANCH   3   5
ENDBRANCH   2   3
ENDBRANCH   1   2
BRANCH   1  30
ATOM     30  C   UNL A   1      37.166  30.653  29.312  1.00  0.00     0.275 C 
BRANCH  30  31
ATOM     31  O   UNL A   1      36.780  29.569  30.199  1.00  0.00    -0.458 OA
BRANCH  31  32
ATOM     32  C   UNL A   1      37.229  29.518  31.478  1.00  0.00     0.338 C 
ATOM     33  O   UNL A   1      36.633  29.934  32.458  1.00  0.00    -0.246 OA
BRANCH  32  34
ATOM     34  C   UNL A   1      38.500  28.800  31.599  1.00  0.00     0.060 A 
ATOM     35  C   UNL A   1      39.958  29.527  32.369  1.00  0.00     0.016 A 
ATOM     36  C   UNL A   1      38.705  27.480  30.421  1.00  0.00     0.016 A 
ATOM     37  C   UNL A   1      41.633  29.076  31.804  1.00  0.00     0.010 A 
ATOM     38  C   UNL A   1      40.358  27.042  29.838  1.00  0.00     0.010 A 
ATOM     39  C   UNL A   1      41.808  27.865  30.502  1.00  0.00    -0.014 A 
BRANCH  39  40
ATOM     40  C   UNL A   1      42.822  27.862  29.435  1.00  0.00     0.031 A 
ATOM     41  C   UNL A   1      43.394  26.558  29.038  1.00  0.00     0.074 A 
ATOM     42  C   UNL A   1      42.768  28.878  28.538  1.00  0.00     0.049 A 
ATOM     43  N   UNL A   1      43.425  26.125  27.825  1.00  0.00    -0.248 NA
ATOM     44  C   UNL A   1      43.904  25.599  30.024  1.00  0.00     0.031 C 
ATOM     45  C   UNL A   1      43.192  28.885  27.140  1.00  0.00     0.029 A 
ATOM     46  N   UNL A   1      42.385  30.194  28.729  1.00  0.00    -0.354 N 
ATOM     47  C   UNL A   1      44.059  24.912  27.837  1.00  0.00     0.074 A 
ATOM     48  C   UNL A   1      44.245  24.569  29.238  1.00  0.00     0.031 C 
ATOM     49  C   UNL A   1      43.345  30.158  26.734  1.00  0.00     0.029 A 
ATOM     50  C   UNL A   1      43.127  31.014  27.887  1.00  0.00     0.049 A 
ATOM     51  H   UNL A   1      41.696  30.501  29.360  1.00  0.00     0.167 HD
ATOM     52  C   UNL A   1      44.959  24.585  26.875  1.00  0.00     0.031 A 
ATOM     53  C   UNL A   1      44.060  31.850  28.426  1.00  0.00     0.031 A 
ATOM     54  C   UNL A   1      45.572  25.761  26.286  1.00  0.00     0.049 A 
ATOM     55  C   UNL A   1      45.457  31.295  28.239  1.00  0.00     0.074 A 
ATOM     56  C   UNL A   1      45.308  26.550  25.184  1.00  0.00     0.029 A 
ATOM     57  N   UNL A   1      46.472  26.472  27.075  1.00  0.00    -0.354 N 
ATOM     58  N   UNL A   1      45.700  30.065  27.861  1.00  0.00    -0.248 NA
ATOM     59  C   UNL A   1      46.685  32.066  28.394  1.00  0.00     0.031 C 
ATOM     60  C   UNL A   1      45.967  27.801  25.386  1.00  0.00     0.029 A 
ATOM     61  C   UNL A   1      46.669  27.748  26.582  1.00  0.00     0.049 A 
ATOM     62  H   UNL A   1      46.912  26.112  27.879  1.00  0.00     0.167 HD
ATOM     63  C   UNL A   1      47.037  29.875  27.683  1.00  0.00     0.074 A 
ATOM     64  C   UNL A   1      47.615  31.162  28.034  1.00  0.00     0.031 C 
ATOM     65  C   UNL A   1      47.565  28.683  27.267  1.00  0.00     0.031 A 
BRANCH  52  66
ATOM     66  C   UNL A   1      44.906  23.190  26.315  1.00  0.00    -0.014 A 
ATOM     67  C   UNL A   1      46.006  22.676  25.605  1.00  0.00     0.010 A 
ATOM     68  C   UNL A   1      43.743  22.386  26.363  1.00  0.00     0.010 A 
ATOM     69  C   UNL A   1      45.941  21.432  24.953  1.00  0.00     0.020 A 
ATOM     70  C   UNL A   1      43.673  21.135  25.731  1.00  0.00     0.020 A 
ATOM     71  C   UNL A   1      44.772  20.672  25.016  1.00  0.00     0.054 A 
BRANCH  71  72
ATOM     72  S   UNL A   1      44.699  19.092  24.128  1.00  0.00     0.124 S 
ATOM     73  O   UNL A   1      43.609  18.399  24.812  1.00  0.00    -0.237 OA
ATOM     74  O   UNL A   1      44.415  19.511  22.757  1.00  0.00    -0.237 OA
ATOM     75  O   UNL A   1      46.025  18.511  24.333  1.00  0.00    -0.744 OA
ENDBRANCH  71  72
ENDBRANCH  52  66
BRANCH  53  76
ATOM     76  C   UNL A   1      43.493  32.745  29.486  1.00  0.00    -0.014 A 
ATOM     77  C   UNL A   1      42.761  33.839  28.973  1.00  0.00     0.010 A 
ATOM     78  C   UNL A   1      43.168  32.285  30.779  1.00  0.00     0.010 A 
ATOM     79  C   UNL A   1      41.603  34.296  29.608  1.00  0.00     0.020 A 
ATOM     80  C   UNL A   1      41.996  32.748  31.425  1.00  0.00     0.020 A 
ATOM     81  C   UNL A   1      41.185  33.700  30.795  1.00  0.00     0.054 A 
BRANCH  81  82
ATOM     82  S   UNL A   1      39.459  34.010  31.318  1.00  0.00     0.124 S 
ATOM     83  O   UNL A   1      39.643  34.640  32.621  1.00  0.00    -0.237 OA
ATOM     84  O   UNL A   1      38.951  34.889  30.264  1.00  0.00    -0.237 OA
ATOM     85  O   UNL A   1      38.857  32.686  31.345  1.00  0.00    -0.744 OA
ENDBRANCH  81  82
ENDBRANCH  53  76
BRANCH  65  86
ATOM     86  C   UNL A   1      49.026  28.332  27.407  1.00  0.00    -0.014 A 
ATOM     87  C   UNL A   1      50.017  28.834  26.548  1.00  0.00     0.010 A 
ATOM     88  C   UNL A   1      49.468  27.571  28.515  1.00  0.00     0.010 A 
ATOM     89  C   UNL A   1      51.363  28.500  26.708  1.00  0.00     0.020 A 
ATOM     90  C   UNL A   1      50.820  27.284  28.724  1.00  0.00     0.020 A 
ATOM     91  C   UNL A   1      51.756  27.716  27.790  1.00  0.00     0.054 A 
BRANCH  91  92
ATOM     92  S   UNL A   1      53.505  27.300  27.981  1.00  0.00     0.124 S 
ATOM     93  O   UNL A   1      53.463  25.842  28.001  1.00  0.00    -0.237 OA
ATOM     94  O   UNL A   1      54.111  27.893  26.790  1.00  0.00    -0.237 OA
ATOM     95  O   UNL A   1      53.873  27.940  29.242  1.00  0.00    -0.744 OA
ENDBRANCH  91  92
ENDBRANCH  65  86
ENDBRANCH  39  40
ENDBRANCH  32  34
ENDBRANCH  31  32
ENDBRANCH  30  31
ENDBRANCH   1  30
TORSDOF 19
ENDMDL
