MODEL 1
REMARK VINA RESULT:     -10.1      0.000      0.000
REMARK SMILES CC(C)(C)n1ccnc(N(CC(=O)OCCOC(=O)c2ccc(-c3c4nc(c(-c5ccc(S(=O)(=O)[O-])cc5)c5ccc([nH]5)c(-c5ccc(S(=O)(=O)[O-])cc5)c5nc(c(-c6ccc(S(=O)(=O)[O-])cc6)c6ccc3[nH]6)C=C5)C=C4)cc2)CC(F)(F)F)c1=O
REMARK SMILES IDX 15 1 14 2 12 3 13 4 11 5 10 6 9 7 5 8 6 9 85 10 7 11 86 12
REMARK SMILES IDX 8 13 2 14 1 15 3 16 4 17 80 18 81 19 82 20 83 21 84 22 16 23
REMARK SMILES IDX 17 24 18 25 19 26 20 27 21 28 79 29 22 30 78 31 23 32 24 33
REMARK SMILES IDX 25 34 72 35 26 36 77 37 71 38 73 39 27 40 76 41 70 42 69 43
REMARK SMILES IDX 28 45 58 46 39 47 57 48 40 49 43 50 56 51 74 52 41 53 42 54
REMARK SMILES IDX 55 56 75 57 44 58 29 59 30 60 38 61 31 62 37 63 32 64 33 65
REMARK SMILES IDX 34 66 35 67 36 68 59 69 60 70 68 71 61 72 67 73 62 74 63 75
REMARK SMILES IDX 64 76 65 77 66 78 45 79 46 80 54 81 47 82 53 83 48 84 49 85
REMARK SMILES IDX 50 86 51 87 52 88
REMARK H PARENT 73 44 43 55
REMARK Flexibility Score: inf
ROOT
ATOM      1  C   UNL A   1      32.091  29.842  25.585  1.00  0.00     0.274 C 
ENDROOT
BRANCH   1   2
ATOM      2  O   UNL A   1      31.244  28.887  24.917  1.00  0.00    -0.461 OA
BRANCH   2   3
ATOM      3  C   UNL A   1      31.570  28.592  23.633  1.00  0.00     0.325 C 
ATOM      4  O   UNL A   1      31.167  29.214  22.655  1.00  0.00    -0.250 OA
BRANCH   3   5
ATOM      5  C   UNL A   1      32.524  27.412  23.497  1.00  0.00     0.241 C 
BRANCH   5   6
ATOM      6  N   UNL A   1      31.948  26.068  23.719  1.00  0.00    -0.332 N 
BRANCH   6   7
ATOM      7  C   UNL A   1      32.787  24.948  23.617  1.00  0.00     0.196 A 
ATOM      8  N   UNL A   1      34.534  23.410  24.595  1.00  0.00    -0.306 N 
ATOM      9  C   UNL A   1      34.272  22.638  23.475  1.00  0.00     0.110 A 
ATOM     10  C   UNL A   1      33.891  24.653  24.695  1.00  0.00     0.294 A 
ATOM     11  C   UNL A   1      33.415  23.031  22.531  1.00  0.00     0.131 A 
ATOM     12  O   UNL A   1      34.133  25.518  25.528  1.00  0.00    -0.265 OA
ATOM     13  N   UNL A   1      32.646  24.152  22.585  1.00  0.00    -0.233 NA
BRANCH   8  14
ATOM     14  C   UNL A   1      35.364  22.842  25.714  1.00  0.00     0.039 C 
ATOM     15  C   UNL A   1      34.525  22.903  27.008  1.00  0.00     0.034 C 
ATOM     16  C   UNL A   1      36.686  23.599  25.987  1.00  0.00     0.034 C 
ATOM     17  C   UNL A   1      35.775  21.375  25.442  1.00  0.00     0.034 C 
ENDBRANCH   8  14
ENDBRANCH   6   7
BRANCH   6  18
ATOM     18  C   UNL A   1      30.569  26.010  24.278  1.00  0.00     0.234 C 
BRANCH  18  19
ATOM     19  C   UNL A   1      30.442  25.529  25.740  1.00  0.00     0.405 C 
ATOM     20  F   UNL A   1      29.192  25.656  26.242  1.00  0.00    -0.169 F 
ATOM     21  F   UNL A   1      30.783  24.223  25.847  1.00  0.00    -0.169 F 
ATOM     22  F   UNL A   1      31.254  26.222  26.572  1.00  0.00    -0.169 F 
ENDBRANCH  18  19
ENDBRANCH   6  18
ENDBRANCH   5   6
ENDBRANCH   3   5
ENDBRANCH   2   3
ENDBRANCH   1   2
BRANCH   1  23
ATOM     23  C   UNL A   1      32.355  29.424  27.032  1.00  0.00     0.275 C 
BRANCH  23  24
ATOM     24  O   UNL A   1      33.770  29.323  27.273  1.00  0.00    -0.458 OA
BRANCH  24  25
ATOM     25  C   UNL A   1      34.362  30.416  27.802  1.00  0.00     0.338 C 
ATOM     26  O   UNL A   1      33.868  31.508  28.020  1.00  0.00    -0.246 OA
BRANCH  25  27
ATOM     27  C   UNL A   1      35.744  30.082  28.168  1.00  0.00     0.060 A 
ATOM     28  C   UNL A   1      36.015  29.556  29.429  1.00  0.00     0.016 A 
ATOM     29  C   UNL A   1      36.755  30.210  27.214  1.00  0.00     0.016 A 
ATOM     30  C   UNL A   1      37.325  29.195  29.746  1.00  0.00     0.010 A 
ATOM     31  C   UNL A   1      38.053  29.802  27.515  1.00  0.00     0.010 A 
ATOM     32  C   UNL A   1      38.351  29.312  28.792  1.00  0.00    -0.014 A 
BRANCH  32  33
ATOM     33  C   UNL A   1      39.736  28.913  29.135  1.00  0.00     0.031 A 
ATOM     34  C   UNL A   1      40.606  29.820  29.959  1.00  0.00     0.074 A 
ATOM     35  C   UNL A   1      40.202  27.722  28.715  1.00  0.00     0.049 A 
ATOM     36  N   UNL A   1      41.790  29.583  30.460  1.00  0.00    -0.248 NA
ATOM     37  C   UNL A   1      40.086  31.166  30.254  1.00  0.00     0.031 C 
ATOM     38  C   UNL A   1      39.461  26.781  27.872  1.00  0.00     0.029 A 
ATOM     39  N   UNL A   1      41.394  27.086  28.957  1.00  0.00    -0.354 N 
ATOM     40  C   UNL A   1      42.147  30.736  31.148  1.00  0.00     0.074 A 
ATOM     41  C   UNL A   1      41.084  31.696  30.947  1.00  0.00     0.031 C 
ATOM     42  C   UNL A   1      40.193  25.668  27.710  1.00  0.00     0.029 A 
ATOM     43  C   UNL A   1      41.462  25.822  28.420  1.00  0.00     0.049 A 
ATOM     44  H   UNL A   1      42.130  27.497  29.467  1.00  0.00     0.167 HD
ATOM     45  C   UNL A   1      43.245  30.959  31.905  1.00  0.00     0.031 A 
ATOM     46  C   UNL A   1      42.422  24.880  28.509  1.00  0.00     0.031 A 
ATOM     47  C   UNL A   1      44.300  30.000  32.093  1.00  0.00     0.049 A 
ATOM     48  C   UNL A   1      43.644  25.157  29.339  1.00  0.00     0.074 A 
ATOM     49  C   UNL A   1      45.438  30.120  32.870  1.00  0.00     0.029 A 
ATOM     50  N   UNL A   1      44.347  28.747  31.500  1.00  0.00    -0.354 N 
ATOM     51  N   UNL A   1      43.932  26.226  30.040  1.00  0.00    -0.248 NA
ATOM     52  C   UNL A   1      44.664  24.101  29.402  1.00  0.00     0.031 C 
ATOM     53  C   UNL A   1      46.200  28.960  32.707  1.00  0.00     0.029 A 
ATOM     54  C   UNL A   1      45.508  28.093  31.873  1.00  0.00     0.049 A 
ATOM     55  H   UNL A   1      43.658  28.377  30.902  1.00  0.00     0.167 HD
ATOM     56  C   UNL A   1      45.161  25.970  30.637  1.00  0.00     0.074 A 
ATOM     57  C   UNL A   1      45.555  24.638  30.227  1.00  0.00     0.031 C 
ATOM     58  C   UNL A   1      45.893  26.770  31.450  1.00  0.00     0.031 A 
BRANCH  45  59
ATOM     59  C   UNL A   1      43.357  32.281  32.615  1.00  0.00    -0.014 A 
ATOM     60  C   UNL A   1      44.001  33.367  31.996  1.00  0.00     0.010 A 
ATOM     61  C   UNL A   1      42.907  32.417  33.942  1.00  0.00     0.010 A 
ATOM     62  C   UNL A   1      44.210  34.559  32.695  1.00  0.00     0.020 A 
ATOM     63  C   UNL A   1      43.093  33.616  34.636  1.00  0.00     0.020 A 
ATOM     64  C   UNL A   1      43.762  34.673  34.015  1.00  0.00     0.054 A 
BRANCH  64  65
ATOM     65  S   UNL A   1      44.044  36.225  34.911  1.00  0.00     0.124 S 
ATOM     66  O   UNL A   1      44.750  37.029  33.920  1.00  0.00    -0.237 OA
ATOM     67  O   UNL A   1      42.688  36.662  35.231  1.00  0.00    -0.237 OA
ATOM     68  O   UNL A   1      44.841  35.811  36.064  1.00  0.00    -0.744 OA
ENDBRANCH  64  65
ENDBRANCH  45  59
BRANCH  46  69
ATOM     69  C   UNL A   1      42.209  23.570  27.840  1.00  0.00    -0.014 A 
ATOM     70  C   UNL A   1      41.628  22.497  28.542  1.00  0.00     0.010 A 
ATOM     71  C   UNL A   1      42.684  23.356  26.535  1.00  0.00     0.010 A 
ATOM     72  C   UNL A   1      41.575  21.223  27.972  1.00  0.00     0.020 A 
ATOM     73  C   UNL A   1      42.611  22.086  25.951  1.00  0.00     0.020 A 
ATOM     74  C   UNL A   1      42.085  21.022  26.687  1.00  0.00     0.054 A 
BRANCH  74  75
ATOM     75  S   UNL A   1      42.068  19.347  25.989  1.00  0.00     0.124 S 
ATOM     76  O   UNL A   1      40.644  19.145  25.732  1.00  0.00    -0.237 OA
ATOM     77  O   UNL A   1      42.907  19.483  24.802  1.00  0.00    -0.237 OA
ATOM     78  O   UNL A   1      42.634  18.527  27.057  1.00  0.00    -0.744 OA
ENDBRANCH  74  75
ENDBRANCH  46  69
BRANCH  58  79
ATOM     79  C   UNL A   1      47.215  26.256  31.951  1.00  0.00    -0.014 A 
ATOM     80  C   UNL A   1      48.348  26.310  31.115  1.00  0.00     0.010 A 
ATOM     81  C   UNL A   1      47.297  25.577  33.178  1.00  0.00     0.010 A 
ATOM     82  C   UNL A   1      49.527  25.657  31.480  1.00  0.00     0.020 A 
ATOM     83  C   UNL A   1      48.483  24.941  33.557  1.00  0.00     0.020 A 
ATOM     84  C   UNL A   1      49.581  24.962  32.692  1.00  0.00     0.054 A 
BRANCH  84  85
ATOM     85  S   UNL A   1      51.101  24.070  33.124  1.00  0.00     0.124 S 
ATOM     86  O   UNL A   1      51.130  23.011  32.120  1.00  0.00    -0.237 OA
ATOM     87  O   UNL A   1      52.129  25.098  32.985  1.00  0.00    -0.237 OA
ATOM     88  O   UNL A   1      50.858  23.626  34.494  1.00  0.00    -0.744 OA
ENDBRANCH  84  85
ENDBRANCH  58  79
ENDBRANCH  32  33
ENDBRANCH  25  27
ENDBRANCH  24  25
ENDBRANCH  23  24
ENDBRANCH   1  23
TORSDOF 19
ENDMDL
MODEL 2
REMARK VINA RESULT:      -9.9      1.510      2.106
REMARK SMILES CC(C)(C)n1ccnc(N(CC(=O)OCCOC(=O)c2ccc(-c3c4nc(c(-c5ccc(S(=O)(=O)[O-])cc5)c5ccc([nH]5)c(-c5ccc(S(=O)(=O)[O-])cc5)c5nc(c(-c6ccc(S(=O)(=O)[O-])cc6)c6ccc3[nH]6)C=C5)C=C4)cc2)CC(F)(F)F)c1=O
REMARK SMILES IDX 15 1 14 2 12 3 13 4 11 5 10 6 9 7 5 8 6 9 85 10 7 11 86 12
REMARK SMILES IDX 8 13 2 14 1 15 3 16 4 17 80 18 81 19 82 20 83 21 84 22 16 23
REMARK SMILES IDX 17 24 18 25 19 26 20 27 21 28 79 29 22 30 78 31 23 32 24 33
REMARK SMILES IDX 25 34 72 35 26 36 77 37 71 38 73 39 27 40 76 41 70 42 69 43
REMARK SMILES IDX 28 45 58 46 39 47 57 48 40 49 43 50 56 51 74 52 41 53 42 54
REMARK SMILES IDX 55 56 75 57 44 58 29 59 30 60 38 61 31 62 37 63 32 64 33 65
REMARK SMILES IDX 34 66 35 67 36 68 59 69 60 70 68 71 61 72 67 73 62 74 63 75
REMARK SMILES IDX 64 76 65 77 66 78 45 79 46 80 54 81 47 82 53 83 48 84 49 85
REMARK SMILES IDX 50 86 51 87 52 88
REMARK H PARENT 73 44 43 55
REMARK Flexibility Score: inf
ROOT
ATOM      1  C   UNL A   1      32.872  28.690  25.246  1.00  0.00     0.274 C 
ENDROOT
BRANCH   1   2
ATOM      2  O   UNL A   1      33.209  27.355  25.666  1.00  0.00    -0.461 OA
BRANCH   2   3
ATOM      3  C   UNL A   1      32.173  26.490  25.804  1.00  0.00     0.325 C 
ATOM      4  O   UNL A   1      30.989  26.813  25.759  1.00  0.00    -0.250 OA
BRANCH   3   5
ATOM      5  C   UNL A   1      32.602  25.041  25.996  1.00  0.00     0.241 C 
BRANCH   5   6
ATOM      6  N   UNL A   1      32.912  24.275  24.769  1.00  0.00    -0.332 N 
BRANCH   6   7
ATOM      7  C   UNL A   1      33.705  23.123  24.873  1.00  0.00     0.196 A 
ATOM      8  N   UNL A   1      33.946  20.610  24.878  1.00  0.00    -0.306 N 
ATOM      9  C   UNL A   1      35.304  20.885  24.879  1.00  0.00     0.110 A 
ATOM     10  C   UNL A   1      33.060  21.693  24.974  1.00  0.00     0.294 A 
ATOM     11  C   UNL A   1      35.771  22.134  24.935  1.00  0.00     0.131 A 
ATOM     12  O   UNL A   1      31.850  21.615  25.148  1.00  0.00    -0.265 OA
ATOM     13  N   UNL A   1      35.007  23.260  24.905  1.00  0.00    -0.233 NA
BRANCH   8  14
ATOM     14  C   UNL A   1      33.471  19.203  24.629  1.00  0.00     0.039 C 
ATOM     15  C   UNL A   1      32.584  19.216  23.366  1.00  0.00     0.034 C 
ATOM     16  C   UNL A   1      32.630  18.593  25.776  1.00  0.00     0.034 C 
ATOM     17  C   UNL A   1      34.651  18.225  24.414  1.00  0.00     0.034 C 
ENDBRANCH   8  14
ENDBRANCH   6   7
BRANCH   6  18
ATOM     18  C   UNL A   1      32.156  24.640  23.539  1.00  0.00     0.234 C 
BRANCH  18  19
ATOM     19  C   UNL A   1      32.922  25.469  22.484  1.00  0.00     0.405 C 
ATOM     20  F   UNL A   1      32.731  25.037  21.216  1.00  0.00    -0.169 F 
ATOM     21  F   UNL A   1      32.541  26.768  22.524  1.00  0.00    -0.169 F 
ATOM     22  F   UNL A   1      34.259  25.440  22.694  1.00  0.00    -0.169 F 
ENDBRANCH  18  19
ENDBRANCH   6  18
ENDBRANCH   5   6
ENDBRANCH   3   5
ENDBRANCH   2   3
ENDBRANCH   1   2
BRANCH   1  23
ATOM     23  C   UNL A   1      32.806  29.642  26.441  1.00  0.00     0.275 C 
BRANCH  23  24
ATOM     24  O   UNL A   1      33.870  29.359  27.366  1.00  0.00    -0.458 OA
BRANCH  24  25
ATOM     25  C   UNL A   1      34.455  30.431  27.945  1.00  0.00     0.338 C 
ATOM     26  O   UNL A   1      33.948  31.500  28.233  1.00  0.00    -0.246 OA
BRANCH  25  27
ATOM     27  C   UNL A   1      35.848  30.099  28.267  1.00  0.00     0.060 A 
ATOM     28  C   UNL A   1      36.159  29.564  29.515  1.00  0.00     0.016 A 
ATOM     29  C   UNL A   1      36.831  30.240  27.285  1.00  0.00     0.016 A 
ATOM     30  C   UNL A   1      37.479  29.205  29.790  1.00  0.00     0.010 A 
ATOM     31  C   UNL A   1      38.139  29.836  27.544  1.00  0.00     0.010 A 
ATOM     32  C   UNL A   1      38.476  29.336  28.807  1.00  0.00    -0.014 A 
BRANCH  32  33
ATOM     33  C   UNL A   1      39.873  28.940  29.105  1.00  0.00     0.031 A 
ATOM     34  C   UNL A   1      40.770  29.855  29.889  1.00  0.00     0.074 A 
ATOM     35  C   UNL A   1      40.323  27.744  28.682  1.00  0.00     0.049 A 
ATOM     36  N   UNL A   1      41.972  29.622  30.351  1.00  0.00    -0.248 NA
ATOM     37  C   UNL A   1      40.261  31.203  30.189  1.00  0.00     0.031 C 
ATOM     38  C   UNL A   1      39.554  26.795  27.874  1.00  0.00     0.029 A 
ATOM     39  N   UNL A   1      41.523  27.111  28.888  1.00  0.00    -0.354 N 
ATOM     40  C   UNL A   1      42.352  30.782  31.015  1.00  0.00     0.074 A 
ATOM     41  C   UNL A   1      41.283  31.741  30.842  1.00  0.00     0.031 C 
ATOM     42  C   UNL A   1      40.280  25.681  27.699  1.00  0.00     0.029 A 
ATOM     43  C   UNL A   1      41.573  25.842  28.362  1.00  0.00     0.049 A 
ATOM     44  H   UNL A   1      42.277  27.526  29.368  1.00  0.00     0.167 HD
ATOM     45  C   UNL A   1      43.476  31.013  31.731  1.00  0.00     0.031 A 
ATOM     46  C   UNL A   1      42.536  24.901  28.427  1.00  0.00     0.031 A 
ATOM     47  C   UNL A   1      44.536  30.056  31.892  1.00  0.00     0.049 A 
ATOM     48  C   UNL A   1      43.786  25.185  29.211  1.00  0.00     0.074 A 
ATOM     49  C   UNL A   1      45.701  30.183  32.627  1.00  0.00     0.029 A 
ATOM     50  N   UNL A   1      44.563  28.797  31.310  1.00  0.00    -0.354 N 
ATOM     51  N   UNL A   1      44.098  26.262  29.891  1.00  0.00    -0.248 NA
ATOM     52  C   UNL A   1      44.808  24.130  29.248  1.00  0.00     0.031 C 
ATOM     53  C   UNL A   1      46.457  29.022  32.449  1.00  0.00     0.029 A 
ATOM     54  C   UNL A   1      45.737  28.147  31.649  1.00  0.00     0.049 A 
ATOM     55  H   UNL A   1      43.854  28.421  30.740  1.00  0.00     0.167 HD
ATOM     56  C   UNL A   1      45.347  26.011  30.447  1.00  0.00     0.074 A 
ATOM     57  C   UNL A   1      45.727  24.675  30.037  1.00  0.00     0.031 C 
ATOM     58  C   UNL A   1      46.107  26.819  31.225  1.00  0.00     0.031 A 
BRANCH  45  59
ATOM     59  C   UNL A   1      43.612  32.342  32.424  1.00  0.00    -0.014 A 
ATOM     60  C   UNL A   1      44.300  33.399  31.801  1.00  0.00     0.010 A 
ATOM     61  C   UNL A   1      43.140  32.512  33.738  1.00  0.00     0.010 A 
ATOM     62  C   UNL A   1      44.529  34.595  32.487  1.00  0.00     0.020 A 
ATOM     63  C   UNL A   1      43.348  33.715  34.418  1.00  0.00     0.020 A 
ATOM     64  C   UNL A   1      44.059  34.742  33.795  1.00  0.00     0.054 A 
BRANCH  64  65
ATOM     65  S   UNL A   1      44.369  36.299  34.674  1.00  0.00     0.124 S 
ATOM     66  O   UNL A   1      43.582  36.128  35.890  1.00  0.00    -0.237 OA
ATOM     67  O   UNL A   1      45.818  36.285  34.852  1.00  0.00    -0.237 OA
ATOM     68  O   UNL A   1      43.876  37.316  33.747  1.00  0.00    -0.744 OA
ENDBRANCH  64  65
ENDBRANCH  45  59
BRANCH  46  69
ATOM     69  C   UNL A   1      42.300  23.584  27.778  1.00  0.00    -0.014 A 
ATOM     70  C   UNL A   1      41.678  22.540  28.490  1.00  0.00     0.010 A 
ATOM     71  C   UNL A   1      42.792  23.332  26.486  1.00  0.00     0.010 A 
ATOM     72  C   UNL A   1      41.601  21.257  27.943  1.00  0.00     0.020 A 
ATOM     73  C   UNL A   1      42.695  22.054  25.926  1.00  0.00     0.020 A 
ATOM     74  C   UNL A   1      42.128  21.018  26.671  1.00  0.00     0.054 A 
BRANCH  74  75
ATOM     75  S   UNL A   1      42.078  19.331  26.006  1.00  0.00     0.124 S 
ATOM     76  O   UNL A   1      42.641  18.558  27.110  1.00  0.00    -0.237 OA
ATOM     77  O   UNL A   1      40.654  19.125  25.756  1.00  0.00    -0.237 OA
ATOM     78  O   UNL A   1      42.911  19.412  24.808  1.00  0.00    -0.744 OA
ENDBRANCH  74  75
ENDBRANCH  46  69
BRANCH  58  79
ATOM     79  C   UNL A   1      47.446  26.310  31.685  1.00  0.00    -0.014 A 
ATOM     80  C   UNL A   1      48.563  26.415  30.834  1.00  0.00     0.010 A 
ATOM     81  C   UNL A   1      47.560  25.587  32.885  1.00  0.00     0.010 A 
ATOM     82  C   UNL A   1      49.759  25.769  31.154  1.00  0.00     0.020 A 
ATOM     83  C   UNL A   1      48.763  24.959  33.220  1.00  0.00     0.020 A 
ATOM     84  C   UNL A   1      49.845  25.031  32.338  1.00  0.00     0.054 A 
BRANCH  84  85
ATOM     85  S   UNL A   1      51.387  24.150  32.712  1.00  0.00     0.124 S 
ATOM     86  O   UNL A   1      51.158  22.853  32.084  1.00  0.00    -0.237 OA
ATOM     87  O   UNL A   1      52.400  24.988  32.074  1.00  0.00    -0.237 OA
ATOM     88  O   UNL A   1      51.428  24.140  34.172  1.00  0.00    -0.744 OA
ENDBRANCH  84  85
ENDBRANCH  58  79
ENDBRANCH  32  33
ENDBRANCH  25  27
ENDBRANCH  24  25
ENDBRANCH  23  24
ENDBRANCH   1  23
TORSDOF 19
ENDMDL
MODEL 3
REMARK VINA RESULT:      -9.8      3.568      4.761
REMARK SMILES CC(C)(C)n1ccnc(N(CC(=O)OCCOC(=O)c2ccc(-c3c4nc(c(-c5ccc(S(=O)(=O)[O-])cc5)c5ccc([nH]5)c(-c5ccc(S(=O)(=O)[O-])cc5)c5nc(c(-c6ccc(S(=O)(=O)[O-])cc6)c6ccc3[nH]6)C=C5)C=C4)cc2)CC(F)(F)F)c1=O
REMARK SMILES IDX 15 1 14 2 12 3 13 4 11 5 10 6 9 7 5 8 6 9 85 10 7 11 86 12
REMARK SMILES IDX 8 13 2 14 1 15 3 16 4 17 80 18 81 19 82 20 83 21 84 22 16 23
REMARK SMILES IDX 17 24 18 25 19 26 20 27 21 28 79 29 22 30 78 31 23 32 24 33
REMARK SMILES IDX 25 34 72 35 26 36 77 37 71 38 73 39 27 40 76 41 70 42 69 43
REMARK SMILES IDX 28 45 58 46 39 47 57 48 40 49 43 50 56 51 74 52 41 53 42 54
REMARK SMILES IDX 55 56 75 57 44 58 29 59 30 60 38 61 31 62 37 63 32 64 33 65
REMARK SMILES IDX 34 66 35 67 36 68 59 69 60 70 68 71 61 72 67 73 62 74 63 75
REMARK SMILES IDX 64 76 65 77 66 78 45 79 46 80 54 81 47 82 53 83 48 84 49 85
REMARK SMILES IDX 50 86 51 87 52 88
REMARK H PARENT 73 44 43 55
REMARK Flexibility Score: inf
ROOT
ATOM      1  C   UNL A   1      32.665  31.058  27.187  1.00  0.00     0.274 C 
ENDROOT
BRANCH   1   2
ATOM      2  O   UNL A   1      31.585  30.153  26.884  1.00  0.00    -0.461 OA
BRANCH   2   3
ATOM      3  C   UNL A   1      31.831  28.835  27.093  1.00  0.00     0.325 C 
ATOM      4  O   UNL A   1      31.431  28.200  28.065  1.00  0.00    -0.250 OA
BRANCH   3   5
ATOM      5  C   UNL A   1      32.644  28.178  25.985  1.00  0.00     0.241 C 
BRANCH   5   6
ATOM      6  N   UNL A   1      31.964  27.121  25.205  1.00  0.00    -0.332 N 
BRANCH   6   7
ATOM      7  C   UNL A   1      32.155  25.781  25.572  1.00  0.00     0.196 A 
ATOM      8  N   UNL A   1      33.584  23.701  25.642  1.00  0.00    -0.306 N 
ATOM      9  C   UNL A   1      32.588  23.220  26.476  1.00  0.00     0.110 A 
ATOM     10  C   UNL A   1      33.394  24.961  25.058  1.00  0.00     0.294 A 
ATOM     11  C   UNL A   1      31.494  23.933  26.753  1.00  0.00     0.131 A 
ATOM     12  O   UNL A   1      34.091  25.456  24.180  1.00  0.00    -0.265 OA
ATOM     13  N   UNL A   1      31.265  25.210  26.345  1.00  0.00    -0.233 NA
BRANCH   8  14
ATOM     14  C   UNL A   1      34.876  22.939  25.508  1.00  0.00     0.039 C 
ATOM     15  C   UNL A   1      34.960  22.394  24.067  1.00  0.00     0.034 C 
ATOM     16  C   UNL A   1      35.016  21.732  26.467  1.00  0.00     0.034 C 
ATOM     17  C   UNL A   1      36.106  23.836  25.787  1.00  0.00     0.034 C 
ENDBRANCH   8  14
ENDBRANCH   6   7
BRANCH   6  18
ATOM     18  C   UNL A   1      30.926  27.564  24.234  1.00  0.00     0.234 C 
BRANCH  18  19
ATOM     19  C   UNL A   1      31.417  27.895  22.808  1.00  0.00     0.405 C 
ATOM     20  F   UNL A   1      32.707  27.549  22.588  1.00  0.00    -0.169 F 
ATOM     21  F   UNL A   1      30.669  27.251  21.880  1.00  0.00    -0.169 F 
ATOM     22  F   UNL A   1      31.331  29.219  22.539  1.00  0.00    -0.169 F 
ENDBRANCH  18  19
ENDBRANCH   6  18
ENDBRANCH   5   6
ENDBRANCH   3   5
ENDBRANCH   2   3
ENDBRANCH   1   2
BRANCH   1  23
ATOM     23  C   UNL A   1      32.156  32.493  27.323  1.00  0.00     0.275 C 
BRANCH  23  24
ATOM     24  O   UNL A   1      33.261  33.411  27.399  1.00  0.00    -0.458 OA
BRANCH  24  25
ATOM     25  C   UNL A   1      33.368  34.118  28.546  1.00  0.00     0.338 C 
ATOM     26  O   UNL A   1      32.605  34.961  28.983  1.00  0.00    -0.246 OA
BRANCH  25  27
ATOM     27  C   UNL A   1      34.557  33.666  29.277  1.00  0.00     0.060 A 
ATOM     28  C   UNL A   1      34.435  32.670  30.244  1.00  0.00     0.016 A 
ATOM     29  C   UNL A   1      35.810  34.176  28.931  1.00  0.00     0.016 A 
ATOM     30  C   UNL A   1      35.580  32.213  30.896  1.00  0.00     0.010 A 
ATOM     31  C   UNL A   1      36.958  33.683  29.547  1.00  0.00     0.010 A 
ATOM     32  C   UNL A   1      36.849  32.713  30.551  1.00  0.00    -0.014 A 
BRANCH  32  33
ATOM     33  C   UNL A   1      38.060  32.211  31.241  1.00  0.00     0.031 A 
ATOM     34  C   UNL A   1      38.467  32.779  32.571  1.00  0.00     0.074 A 
ATOM     35  C   UNL A   1      38.783  31.228  30.672  1.00  0.00     0.049 A 
ATOM     36  N   UNL A   1      39.417  32.377  33.375  1.00  0.00    -0.248 NA
ATOM     37  C   UNL A   1      37.719  33.949  33.060  1.00  0.00     0.031 C 
ATOM     38  C   UNL A   1      38.507  30.634  29.362  1.00  0.00     0.029 A 
ATOM     39  N   UNL A   1      39.879  30.540  31.126  1.00  0.00    -0.354 N 
ATOM     40  C   UNL A   1      39.366  33.227  34.473  1.00  0.00     0.074 A 
ATOM     41  C   UNL A   1      38.337  34.206  34.206  1.00  0.00     0.031 C 
ATOM     42  C   UNL A   1      39.376  29.636  29.142  1.00  0.00     0.029 A 
ATOM     43  C   UNL A   1      40.283  29.531  30.283  1.00  0.00     0.049 A 
ATOM     44  H   UNL A   1      40.333  30.747  31.976  1.00  0.00     0.167 HD
ATOM     45  C   UNL A   1      40.091  33.173  35.614  1.00  0.00     0.031 A 
ATOM     46  C   UNL A   1      41.256  28.607  30.421  1.00  0.00     0.031 A 
ATOM     47  C   UNL A   1      41.117  32.198  35.868  1.00  0.00     0.049 A 
ATOM     48  C   UNL A   1      42.063  28.577  31.689  1.00  0.00     0.074 A 
ATOM     49  C   UNL A   1      41.884  32.040  37.008  1.00  0.00     0.029 A 
ATOM     50  N   UNL A   1      41.521  31.219  34.972  1.00  0.00    -0.354 N 
ATOM     51  N   UNL A   1      41.954  29.344  32.747  1.00  0.00    -0.248 NA
ATOM     52  C   UNL A   1      43.113  27.555  31.790  1.00  0.00     0.031 C 
ATOM     53  C   UNL A   1      42.787  30.998  36.784  1.00  0.00     0.029 A 
ATOM     54  C   UNL A   1      42.544  30.469  35.524  1.00  0.00     0.049 A 
ATOM     55  H   UNL A   1      41.138  31.079  34.077  1.00  0.00     0.167 HD
ATOM     56  C   UNL A   1      42.914  28.892  33.644  1.00  0.00     0.074 A 
ATOM     57  C   UNL A   1      43.584  27.774  33.012  1.00  0.00     0.031 C 
ATOM     58  C   UNL A   1      43.210  29.364  34.879  1.00  0.00     0.031 A 
BRANCH  45  59
ATOM     59  C   UNL A   1      39.785  34.175  36.694  1.00  0.00    -0.014 A 
ATOM     60  C   UNL A   1      40.402  35.439  36.684  1.00  0.00     0.010 A 
ATOM     61  C   UNL A   1      38.956  33.826  37.776  1.00  0.00     0.010 A 
ATOM     62  C   UNL A   1      40.212  36.328  37.745  1.00  0.00     0.020 A 
ATOM     63  C   UNL A   1      38.745  34.722  38.827  1.00  0.00     0.020 A 
ATOM     64  C   UNL A   1      39.391  35.961  38.815  1.00  0.00     0.054 A 
BRANCH  64  65
ATOM     65  S   UNL A   1      39.156  37.124  40.187  1.00  0.00     0.124 S 
ATOM     66  O   UNL A   1      40.528  37.374  40.617  1.00  0.00    -0.237 OA
ATOM     67  O   UNL A   1      38.481  38.249  39.544  1.00  0.00    -0.237 OA
ATOM     68  O   UNL A   1      38.330  36.374  41.131  1.00  0.00    -0.744 OA
ENDBRANCH  64  65
ENDBRANCH  45  59
BRANCH  46  69
ATOM     69  C   UNL A   1      41.452  27.602  29.343  1.00  0.00    -0.014 A 
ATOM     70  C   UNL A   1      40.571  26.512  29.218  1.00  0.00     0.010 A 
ATOM     71  C   UNL A   1      42.579  27.671  28.508  1.00  0.00     0.010 A 
ATOM     72  C   UNL A   1      40.843  25.482  28.314  1.00  0.00     0.020 A 
ATOM     73  C   UNL A   1      42.843  26.653  27.584  1.00  0.00     0.020 A 
ATOM     74  C   UNL A   1      41.988  25.550  27.516  1.00  0.00     0.054 A 
BRANCH  74  75
ATOM     75  S   UNL A   1      42.360  24.172  26.396  1.00  0.00     0.124 S 
ATOM     76  O   UNL A   1      41.123  23.396  26.458  1.00  0.00    -0.237 OA
ATOM     77  O   UNL A   1      42.615  24.848  25.127  1.00  0.00    -0.237 OA
ATOM     78  O   UNL A   1      43.527  23.541  27.007  1.00  0.00    -0.744 OA
ENDBRANCH  74  75
ENDBRANCH  46  69
BRANCH  58  79
ATOM     79  C   UNL A   1      44.320  28.701  35.647  1.00  0.00    -0.014 A 
ATOM     80  C   UNL A   1      45.654  29.095  35.426  1.00  0.00     0.010 A 
ATOM     81  C   UNL A   1      44.058  27.586  36.461  1.00  0.00     0.010 A 
ATOM     82  C   UNL A   1      46.708  28.358  35.971  1.00  0.00     0.020 A 
ATOM     83  C   UNL A   1      45.110  26.860  37.026  1.00  0.00     0.020 A 
ATOM     84  C   UNL A   1      46.428  27.235  36.754  1.00  0.00     0.054 A 
BRANCH  84  85
ATOM     85  S   UNL A   1      47.809  26.254  37.406  1.00  0.00     0.124 S 
ATOM     86  O   UNL A   1      48.910  26.661  36.538  1.00  0.00    -0.237 OA
ATOM     87  O   UNL A   1      47.900  26.707  38.792  1.00  0.00    -0.237 OA
ATOM     88  O   UNL A   1      47.357  24.876  37.239  1.00  0.00    -0.744 OA
ENDBRANCH  84  85
ENDBRANCH  58  79
ENDBRANCH  32  33
ENDBRANCH  25  27
ENDBRANCH  24  25
ENDBRANCH  23  24
ENDBRANCH   1  23
TORSDOF 19
ENDMDL
