MODEL 1
REMARK VINA RESULT:     -10.2      0.000      0.000
REMARK SMILES COc1cc(C(=O)OCCOC(=O)c2ccc(-c3c4nc(c(-c5ccc(S(=O)(=O)[O-])cc5)c5ccc([nH]5)c(-c5ccc(S(=O)(=O)[O-])cc5)c5nc(c(-c6ccc(S(=O)(=O)[O-])cc6)c6ccc3[nH]6)C=C5)C=C4)cc2)cc(-c2cccc(N)c2)c1
REMARK SMILES IDX 10 1 9 2 8 3 6 4 7 5 5 6 3 7 4 8 83 9 75 10 74 11 2 12 1 13
REMARK SMILES IDX 76 14 77 15 82 16 78 17 80 18 79 19 81 20 11 23 12 24 13 25
REMARK SMILES IDX 14 26 15 27 73 28 16 29 72 30 17 31 18 32 19 33 66 34 20 35
REMARK SMILES IDX 71 36 65 37 67 38 21 39 70 40 64 41 63 42 22 44 52 45 33 46
REMARK SMILES IDX 51 47 34 48 37 49 50 50 68 51 35 52 36 53 49 55 69 56 38 57
REMARK SMILES IDX 23 58 24 59 32 60 25 61 31 62 26 63 27 64 28 65 29 66 30 67
REMARK SMILES IDX 53 68 54 69 62 70 55 71 61 72 56 73 57 74 58 75 59 76 60 77
REMARK SMILES IDX 39 78 40 79 48 80 41 81 47 82 42 83 43 84 44 85 45 86 46 87
REMARK H PARENT 81 21 81 22 67 43 37 54
REMARK Flexibility Score: inf
ROOT
ATOM      1  C   UNL A   1      32.639  28.968  26.747  1.00  0.00     0.275 C 
ENDROOT
BRANCH   1   2
ATOM      2  C   UNL A   1      32.354  27.719  25.913  1.00  0.00     0.275 C 
BRANCH   2   3
ATOM      3  O   UNL A   1      32.502  26.543  26.733  1.00  0.00    -0.458 OA
BRANCH   3   4
ATOM      4  C   UNL A   1      31.955  25.402  26.243  1.00  0.00     0.338 C 
ATOM      5  O   UNL A   1      30.835  24.975  26.469  1.00  0.00    -0.246 OA
BRANCH   4   6
ATOM      6  C   UNL A   1      32.878  24.793  25.258  1.00  0.00     0.064 A 
ATOM      7  C   UNL A   1      33.407  24.420  22.923  1.00  0.00     0.120 A 
ATOM      8  C   UNL A   1      32.511  24.823  23.911  1.00  0.00     0.062 A 
ATOM      9  C   UNL A   1      34.643  23.886  23.291  1.00  0.00     0.055 A 
ATOM     10  C   UNL A   1      34.996  23.760  24.650  1.00  0.00    -0.014 A 
ATOM     11  C   UNL A   1      34.111  24.253  25.626  1.00  0.00     0.024 A 
BRANCH   7  12
ATOM     12  O   UNL A   1      32.983  24.682  21.651  1.00  0.00    -0.497 OA
ATOM     13  C   UNL A   1      32.344  25.929  21.421  1.00  0.00     0.278 C 
ENDBRANCH   7  12
BRANCH  10  14
ATOM     14  C   UNL A   1      36.244  23.102  25.062  1.00  0.00    -0.016 A 
ATOM     15  C   UNL A   1      37.204  23.826  25.788  1.00  0.00     0.009 A 
ATOM     16  C   UNL A   1      36.518  21.759  24.753  1.00  0.00     0.034 A 
ATOM     17  C   UNL A   1      38.394  23.229  26.195  1.00  0.00     0.003 A 
ATOM     18  C   UNL A   1      37.728  21.158  25.126  1.00  0.00     0.032 A 
ATOM     19  C   UNL A   1      38.648  21.897  25.872  1.00  0.00     0.025 A 
BRANCH  18  20
ATOM     20  N   UNL A   1      37.961  19.817  24.863  1.00  0.00    -0.399 N 
ATOM     21  H   UNL A   1      38.423  19.259  25.530  1.00  0.00     0.156 HD
ATOM     22  H   UNL A   1      37.665  19.423  24.012  1.00  0.00     0.156 HD
ENDBRANCH  18  20
ENDBRANCH  10  14
ENDBRANCH   4   6
ENDBRANCH   3   4
ENDBRANCH   2   3
ENDBRANCH   1   2
BRANCH   1  23
ATOM     23  O   UNL A   1      34.043  29.017  27.057  1.00  0.00    -0.458 OA
BRANCH  23  24
ATOM     24  C   UNL A   1      34.479  30.142  27.669  1.00  0.00     0.338 C 
ATOM     25  O   UNL A   1      33.856  31.167  27.877  1.00  0.00    -0.246 OA
BRANCH  24  26
ATOM     26  C   UNL A   1      35.861  29.916  28.122  1.00  0.00     0.060 A 
ATOM     27  C   UNL A   1      36.895  30.139  27.217  1.00  0.00     0.016 A 
ATOM     28  C   UNL A   1      36.136  29.410  29.390  1.00  0.00     0.016 A 
ATOM     29  C   UNL A   1      38.213  29.850  27.560  1.00  0.00     0.010 A 
ATOM     30  C   UNL A   1      37.465  29.146  29.750  1.00  0.00     0.010 A 
ATOM     31  C   UNL A   1      38.514  29.342  28.830  1.00  0.00    -0.014 A 
BRANCH  31  32
ATOM     32  C   UNL A   1      39.910  28.926  29.143  1.00  0.00     0.031 A 
ATOM     33  C   UNL A   1      40.791  29.821  29.975  1.00  0.00     0.074 A 
ATOM     34  C   UNL A   1      40.374  27.724  28.751  1.00  0.00     0.049 A 
ATOM     35  N   UNL A   1      42.037  29.652  30.342  1.00  0.00    -0.248 NA
ATOM     36  C   UNL A   1      40.188  31.073  30.458  1.00  0.00     0.031 C 
ATOM     37  C   UNL A   1      39.613  26.727  27.995  1.00  0.00     0.029 A 
ATOM     38  N   UNL A   1      41.592  27.123  28.961  1.00  0.00    -0.354 N 
ATOM     39  C   UNL A   1      42.378  30.788  31.068  1.00  0.00     0.074 A 
ATOM     40  C   UNL A   1      41.211  31.647  31.073  1.00  0.00     0.031 C 
ATOM     41  C   UNL A   1      40.362  25.621  27.853  1.00  0.00     0.029 A 
ATOM     42  C   UNL A   1      41.673  25.848  28.455  1.00  0.00     0.049 A 
ATOM     43  H   UNL A   1      42.337  27.566  29.430  1.00  0.00     0.167 HD
ATOM     44  C   UNL A   1      43.549  31.092  31.680  1.00  0.00     0.031 A 
ATOM     45  C   UNL A   1      42.688  24.960  28.470  1.00  0.00     0.031 A 
ATOM     46  C   UNL A   1      44.708  30.239  31.692  1.00  0.00     0.049 A 
ATOM     47  C   UNL A   1      43.995  25.336  29.113  1.00  0.00     0.074 A 
ATOM     48  C   UNL A   1      45.945  30.469  32.271  1.00  0.00     0.029 A 
ATOM     49  N   UNL A   1      44.772  28.985  31.105  1.00  0.00    -0.354 N 
ATOM     50  N   UNL A   1      44.315  26.438  29.747  1.00  0.00    -0.248 NA
ATOM     51  C   UNL A   1      45.077  24.347  29.034  1.00  0.00     0.031 C 
ATOM     52  C   UNL A   1      46.767  29.367  32.005  1.00  0.00     0.029 A 
ATOM     53  C   UNL A   1      46.028  28.432  31.300  1.00  0.00     0.049 A 
ATOM     54  H   UNL A   1      44.034  28.550  30.620  1.00  0.00     0.167 HD
ATOM     55  C   UNL A   1      45.633  26.269  30.157  1.00  0.00     0.074 A 
ATOM     56  C   UNL A   1      46.042  24.951  29.714  1.00  0.00     0.031 C 
ATOM     57  C   UNL A   1      46.432  27.127  30.840  1.00  0.00     0.031 A 
BRANCH  44  58
ATOM     58  C   UNL A   1      43.635  32.442  32.343  1.00  0.00    -0.014 A 
ATOM     59  C   UNL A   1      44.087  33.576  31.644  1.00  0.00     0.010 A 
ATOM     60  C   UNL A   1      43.283  32.568  33.700  1.00  0.00     0.010 A 
ATOM     61  C   UNL A   1      44.252  34.794  32.307  1.00  0.00     0.020 A 
ATOM     62  C   UNL A   1      43.421  33.792  34.359  1.00  0.00     0.020 A 
ATOM     63  C   UNL A   1      43.933  34.891  33.666  1.00  0.00     0.054 A 
BRANCH  63  64
ATOM     64  S   UNL A   1      44.189  36.471  34.518  1.00  0.00     0.124 S 
ATOM     65  O   UNL A   1      44.848  37.265  33.485  1.00  0.00    -0.237 OA
ATOM     66  O   UNL A   1      42.829  36.885  34.855  1.00  0.00    -0.237 OA
ATOM     67  O   UNL A   1      45.027  36.115  35.661  1.00  0.00    -0.744 OA
ENDBRANCH  63  64
ENDBRANCH  44  58
BRANCH  45  68
ATOM     68  C   UNL A   1      42.502  23.616  27.859  1.00  0.00    -0.014 A 
ATOM     69  C   UNL A   1      42.951  23.363  26.551  1.00  0.00     0.010 A 
ATOM     70  C   UNL A   1      41.896  22.576  28.587  1.00  0.00     0.010 A 
ATOM     71  C   UNL A   1      42.801  22.094  25.983  1.00  0.00     0.020 A 
ATOM     72  C   UNL A   1      41.766  21.300  28.032  1.00  0.00     0.020 A 
ATOM     73  C   UNL A   1      42.214  21.069  26.730  1.00  0.00     0.054 A 
BRANCH  73  74
ATOM     74  S   UNL A   1      42.102  19.408  26.005  1.00  0.00     0.124 S 
ATOM     75  O   UNL A   1      42.938  19.539  24.817  1.00  0.00    -0.237 OA
ATOM     76  O   UNL A   1      42.639  18.562  27.068  1.00  0.00    -0.237 OA
ATOM     77  O   UNL A   1      40.673  19.244  25.752  1.00  0.00    -0.744 OA
ENDBRANCH  73  74
ENDBRANCH  45  68
BRANCH  57  78
ATOM     78  C   UNL A   1      47.822  26.651  31.169  1.00  0.00    -0.014 A 
ATOM     79  C   UNL A   1      48.091  25.954  32.360  1.00  0.00     0.010 A 
ATOM     80  C   UNL A   1      48.874  26.903  30.270  1.00  0.00     0.010 A 
ATOM     81  C   UNL A   1      49.396  25.560  32.669  1.00  0.00     0.020 A 
ATOM     82  C   UNL A   1      50.176  26.491  30.565  1.00  0.00     0.020 A 
ATOM     83  C   UNL A   1      50.433  25.841  31.774  1.00  0.00     0.054 A 
BRANCH  83  84
ATOM     84  S   UNL A   1      52.121  25.321  32.191  1.00  0.00     0.124 S 
ATOM     85  O   UNL A   1      52.876  25.787  31.031  1.00  0.00    -0.237 OA
ATOM     86  O   UNL A   1      52.382  26.035  33.439  1.00  0.00    -0.237 OA
ATOM     87  O   UNL A   1      52.010  23.870  32.323  1.00  0.00    -0.744 OA
ENDBRANCH  83  84
ENDBRANCH  57  78
ENDBRANCH  31  32
ENDBRANCH  24  26
ENDBRANCH  23  24
ENDBRANCH   1  23
TORSDOF 17
ENDMDL
MODEL 2
REMARK VINA RESULT:     -10.0      2.836      8.244
REMARK SMILES COc1cc(C(=O)OCCOC(=O)c2ccc(-c3c4nc(c(-c5ccc(S(=O)(=O)[O-])cc5)c5ccc([nH]5)c(-c5ccc(S(=O)(=O)[O-])cc5)c5nc(c(-c6ccc(S(=O)(=O)[O-])cc6)c6ccc3[nH]6)C=C5)C=C4)cc2)cc(-c2cccc(N)c2)c1
REMARK SMILES IDX 10 1 9 2 8 3 6 4 7 5 5 6 3 7 4 8 83 9 75 10 74 11 2 12 1 13
REMARK SMILES IDX 76 14 77 15 82 16 78 17 80 18 79 19 81 20 11 23 12 24 13 25
REMARK SMILES IDX 14 26 15 27 73 28 16 29 72 30 17 31 18 32 19 33 66 34 20 35
REMARK SMILES IDX 71 36 65 37 67 38 21 39 70 40 64 41 63 42 22 44 52 45 33 46
REMARK SMILES IDX 51 47 34 48 37 49 50 50 68 51 35 52 36 53 49 55 69 56 38 57
REMARK SMILES IDX 23 58 24 59 32 60 25 61 31 62 26 63 27 64 28 65 29 66 30 67
REMARK SMILES IDX 53 68 54 69 62 70 55 71 61 72 56 73 57 74 58 75 59 76 60 77
REMARK SMILES IDX 39 78 40 79 48 80 41 81 47 82 42 83 43 84 44 85 45 86 46 87
REMARK H PARENT 81 21 81 22 67 43 37 54
REMARK Flexibility Score: inf
ROOT
ATOM      1  C   UNL A   1      36.788  21.875  25.816  1.00  0.00     0.275 C 
ENDROOT
BRANCH   1   2
ATOM      2  C   UNL A   1      35.467  22.312  26.448  1.00  0.00     0.275 C 
BRANCH   2   3
ATOM      3  O   UNL A   1      35.116  23.629  25.981  1.00  0.00    -0.458 OA
BRANCH   3   4
ATOM      4  C   UNL A   1      34.099  23.692  25.085  1.00  0.00     0.338 C 
ATOM      5  O   UNL A   1      33.317  22.799  24.806  1.00  0.00    -0.246 OA
BRANCH   4   6
ATOM      6  C   UNL A   1      33.976  25.076  24.571  1.00  0.00     0.064 A 
ATOM      7  C   UNL A   1      33.648  26.511  22.647  1.00  0.00     0.120 A 
ATOM      8  C   UNL A   1      33.931  25.259  23.188  1.00  0.00     0.062 A 
ATOM      9  C   UNL A   1      33.511  27.612  23.494  1.00  0.00     0.055 A 
ATOM     10  C   UNL A   1      33.647  27.466  24.890  1.00  0.00    -0.014 A 
ATOM     11  C   UNL A   1      33.846  26.177  25.418  1.00  0.00     0.024 A 
BRANCH   7  12
ATOM     12  O   UNL A   1      33.449  26.500  21.295  1.00  0.00    -0.497 OA
ATOM     13  C   UNL A   1      32.698  25.422  20.757  1.00  0.00     0.278 C 
ENDBRANCH   7  12
BRANCH  10  14
ATOM     14  C   UNL A   1      33.615  28.627  25.791  1.00  0.00    -0.016 A 
ATOM     15  C   UNL A   1      34.653  28.815  26.719  1.00  0.00     0.009 A 
ATOM     16  C   UNL A   1      32.571  29.567  25.762  1.00  0.00     0.034 A 
ATOM     17  C   UNL A   1      34.652  29.908  27.583  1.00  0.00     0.003 A 
ATOM     18  C   UNL A   1      32.541  30.650  26.651  1.00  0.00     0.032 A 
ATOM     19  C   UNL A   1      33.603  30.824  27.540  1.00  0.00     0.025 A 
BRANCH  18  20
ATOM     20  N   UNL A   1      31.534  31.600  26.574  1.00  0.00    -0.399 N 
ATOM     21  H   UNL A   1      30.940  31.623  25.789  1.00  0.00     0.156 HD
ATOM     22  H   UNL A   1      31.412  32.249  27.303  1.00  0.00     0.156 HD
ENDBRANCH  18  20
ENDBRANCH  10  14
ENDBRANCH   4   6
ENDBRANCH   3   4
ENDBRANCH   2   3
ENDBRANCH   1   2
BRANCH   1  23
ATOM     23  O   UNL A   1      37.621  23.032  25.622  1.00  0.00    -0.458 OA
BRANCH  23  24
ATOM     24  C   UNL A   1      38.890  22.936  26.082  1.00  0.00     0.338 C 
ATOM     25  O   UNL A   1      39.676  22.019  25.919  1.00  0.00    -0.246 OA
BRANCH  24  26
ATOM     26  C   UNL A   1      39.221  24.182  26.792  1.00  0.00     0.060 A 
ATOM     27  C   UNL A   1      40.066  25.092  26.163  1.00  0.00     0.016 A 
ATOM     28  C   UNL A   1      38.778  24.417  28.092  1.00  0.00     0.016 A 
ATOM     29  C   UNL A   1      40.489  26.242  26.826  1.00  0.00     0.010 A 
ATOM     30  C   UNL A   1      39.179  25.588  28.751  1.00  0.00     0.010 A 
ATOM     31  C   UNL A   1      40.056  26.501  28.133  1.00  0.00    -0.014 A 
BRANCH  31  32
ATOM     32  C   UNL A   1      40.608  27.670  28.871  1.00  0.00     0.031 A 
ATOM     33  C   UNL A   1      39.744  28.879  29.115  1.00  0.00     0.074 A 
ATOM     34  C   UNL A   1      41.852  27.631  29.389  1.00  0.00     0.049 A 
ATOM     35  N   UNL A   1      40.041  30.004  29.718  1.00  0.00    -0.248 NA
ATOM     36  C   UNL A   1      38.363  28.814  28.613  1.00  0.00     0.031 C 
ATOM     37  C   UNL A   1      42.777  26.502  29.288  1.00  0.00     0.029 A 
ATOM     38  N   UNL A   1      42.540  28.560  30.132  1.00  0.00    -0.354 N 
ATOM     39  C   UNL A   1      38.898  30.792  29.639  1.00  0.00     0.074 A 
ATOM     40  C   UNL A   1      37.908  30.022  28.912  1.00  0.00     0.031 C 
ATOM     41  C   UNL A   1      43.889  26.784  29.988  1.00  0.00     0.029 A 
ATOM     42  C   UNL A   1      43.780  28.132  30.541  1.00  0.00     0.049 A 
ATOM     43  H   UNL A   1      42.178  29.450  30.351  1.00  0.00     0.167 HD
ATOM     44  C   UNL A   1      38.682  32.039  30.126  1.00  0.00     0.031 A 
ATOM     45  C   UNL A   1      44.726  28.751  31.274  1.00  0.00     0.031 A 
ATOM     46  C   UNL A   1      39.653  32.805  30.862  1.00  0.00     0.049 A 
ATOM     47  C   UNL A   1      44.485  30.153  31.765  1.00  0.00     0.074 A 
ATOM     48  C   UNL A   1      39.532  34.083  31.381  1.00  0.00     0.029 A 
ATOM     49  N   UNL A   1      40.925  32.361  31.192  1.00  0.00    -0.354 N 
ATOM     50  N   UNL A   1      43.417  30.902  31.632  1.00  0.00    -0.248 NA
ATOM     51  C   UNL A   1      45.585  30.792  32.500  1.00  0.00     0.031 C 
ATOM     52  C   UNL A   1      40.744  34.424  31.996  1.00  0.00     0.029 A 
ATOM     53  C   UNL A   1      41.602  33.342  31.900  1.00  0.00     0.049 A 
ATOM     54  H   UNL A   1      41.293  31.479  30.957  1.00  0.00     0.167 HD
ATOM     55  C   UNL A   1      43.711  32.097  32.280  1.00  0.00     0.074 A 
ATOM     56  C   UNL A   1      45.049  31.962  32.820  1.00  0.00     0.031 C 
ATOM     57  C   UNL A   1      42.940  33.205  32.418  1.00  0.00     0.031 A 
BRANCH  44  58
ATOM     58  C   UNL A   1      37.346  32.662  29.823  1.00  0.00    -0.014 A 
ATOM     59  C   UNL A   1      37.091  33.288  28.588  1.00  0.00     0.010 A 
ATOM     60  C   UNL A   1      36.337  32.645  30.803  1.00  0.00     0.010 A 
ATOM     61  C   UNL A   1      35.878  33.946  28.368  1.00  0.00     0.020 A 
ATOM     62  C   UNL A   1      35.112  33.278  30.575  1.00  0.00     0.020 A 
ATOM     63  C   UNL A   1      34.902  33.950  29.369  1.00  0.00     0.054 A 
BRANCH  63  64
ATOM     64  S   UNL A   1      33.348  34.840  29.078  1.00  0.00     0.124 S 
ATOM     65  O   UNL A   1      32.694  33.986  28.091  1.00  0.00    -0.237 OA
ATOM     66  O   UNL A   1      32.729  34.858  30.401  1.00  0.00    -0.237 OA
ATOM     67  O   UNL A   1      33.786  36.144  28.583  1.00  0.00    -0.744 OA
ENDBRANCH  63  64
ENDBRANCH  44  58
BRANCH  45  68
ATOM     68  C   UNL A   1      45.994  28.042  31.597  1.00  0.00    -0.014 A 
ATOM     69  C   UNL A   1      47.106  28.154  30.745  1.00  0.00     0.010 A 
ATOM     70  C   UNL A   1      46.102  27.268  32.767  1.00  0.00     0.010 A 
ATOM     71  C   UNL A   1      48.306  27.508  31.059  1.00  0.00     0.020 A 
ATOM     72  C   UNL A   1      47.306  26.641  33.096  1.00  0.00     0.020 A 
ATOM     73  C   UNL A   1      48.400  26.760  32.236  1.00  0.00     0.054 A 
BRANCH  73  74
ATOM     74  S   UNL A   1      49.990  25.997  32.667  1.00  0.00     0.124 S 
ATOM     75  O   UNL A   1      50.083  24.918  31.690  1.00  0.00    -0.237 OA
ATOM     76  O   UNL A   1      50.931  27.100  32.484  1.00  0.00    -0.237 OA
ATOM     77  O   UNL A   1      49.801  25.575  34.053  1.00  0.00    -0.744 OA
ENDBRANCH  73  74
ENDBRANCH  45  68
BRANCH  57  78
ATOM     78  C   UNL A   1      43.522  34.349  33.205  1.00  0.00    -0.014 A 
ATOM     79  C   UNL A   1      43.396  34.409  34.605  1.00  0.00     0.010 A 
ATOM     80  C   UNL A   1      44.209  35.376  32.534  1.00  0.00     0.010 A 
ATOM     81  C   UNL A   1      43.905  35.502  35.313  1.00  0.00     0.020 A 
ATOM     82  C   UNL A   1      44.738  36.458  33.241  1.00  0.00     0.020 A 
ATOM     83  C   UNL A   1      44.563  36.526  34.625  1.00  0.00     0.054 A 
BRANCH  83  84
ATOM     84  S   UNL A   1      45.217  37.936  35.562  1.00  0.00     0.124 S 
ATOM     85  O   UNL A   1      45.039  37.491  36.941  1.00  0.00    -0.237 OA
ATOM     86  O   UNL A   1      46.601  38.018  35.102  1.00  0.00    -0.237 OA
ATOM     87  O   UNL A   1      44.364  39.048  35.149  1.00  0.00    -0.744 OA
ENDBRANCH  83  84
ENDBRANCH  57  78
ENDBRANCH  31  32
ENDBRANCH  24  26
ENDBRANCH  23  24
ENDBRANCH   1  23
TORSDOF 17
ENDMDL
MODEL 3
REMARK VINA RESULT:     -10.0      4.729     10.542
REMARK SMILES COc1cc(C(=O)OCCOC(=O)c2ccc(-c3c4nc(c(-c5ccc(S(=O)(=O)[O-])cc5)c5ccc([nH]5)c(-c5ccc(S(=O)(=O)[O-])cc5)c5nc(c(-c6ccc(S(=O)(=O)[O-])cc6)c6ccc3[nH]6)C=C5)C=C4)cc2)cc(-c2cccc(N)c2)c1
REMARK SMILES IDX 10 1 9 2 8 3 6 4 7 5 5 6 3 7 4 8 83 9 75 10 74 11 2 12 1 13
REMARK SMILES IDX 76 14 77 15 82 16 78 17 80 18 79 19 81 20 11 23 12 24 13 25
REMARK SMILES IDX 14 26 15 27 73 28 16 29 72 30 17 31 18 32 19 33 66 34 20 35
REMARK SMILES IDX 71 36 65 37 67 38 21 39 70 40 64 41 63 42 22 44 52 45 33 46
REMARK SMILES IDX 51 47 34 48 37 49 50 50 68 51 35 52 36 53 49 55 69 56 38 57
REMARK SMILES IDX 23 58 24 59 32 60 25 61 31 62 26 63 27 64 28 65 29 66 30 67
REMARK SMILES IDX 53 68 54 69 62 70 55 71 61 72 56 73 57 74 58 75 59 76 60 77
REMARK SMILES IDX 39 78 40 79 48 80 41 81 47 82 42 83 43 84 44 85 45 86 46 87
REMARK H PARENT 81 21 81 22 67 43 37 54
REMARK Flexibility Score: inf
ROOT
ATOM      1  C   UNL A   1      38.130  24.411  26.022  1.00  0.00     0.275 C 
ENDROOT
BRANCH   1   2
ATOM      2  C   UNL A   1      37.629  22.970  26.094  1.00  0.00     0.275 C 
BRANCH   2   3
ATOM      3  O   UNL A   1      36.210  22.960  26.345  1.00  0.00    -0.458 OA
BRANCH   3   4
ATOM      4  C   UNL A   1      35.422  22.599  25.301  1.00  0.00     0.338 C 
ATOM      5  O   UNL A   1      35.185  21.463  24.926  1.00  0.00    -0.246 OA
BRANCH   4   6
ATOM      6  C   UNL A   1      34.760  23.799  24.741  1.00  0.00     0.064 A 
ATOM      7  C   UNL A   1      33.789  24.867  22.795  1.00  0.00     0.120 A 
ATOM      8  C   UNL A   1      34.553  23.849  23.361  1.00  0.00     0.062 A 
ATOM      9  C   UNL A   1      33.315  25.903  23.602  1.00  0.00     0.055 A 
ATOM     10  C   UNL A   1      33.593  25.921  24.985  1.00  0.00    -0.014 A 
ATOM     11  C   UNL A   1      34.292  24.837  25.547  1.00  0.00     0.024 A 
BRANCH   7  12
ATOM     12  O   UNL A   1      33.514  24.683  21.470  1.00  0.00    -0.497 OA
ATOM     13  C   UNL A   1      32.608  25.590  20.860  1.00  0.00     0.278 C 
ENDBRANCH   7  12
BRANCH  10  14
ATOM     14  C   UNL A   1      33.198  27.054  25.833  1.00  0.00    -0.016 A 
ATOM     15  C   UNL A   1      31.998  26.990  26.562  1.00  0.00     0.009 A 
ATOM     16  C   UNL A   1      33.982  28.215  25.943  1.00  0.00     0.034 A 
ATOM     17  C   UNL A   1      31.599  28.046  27.378  1.00  0.00     0.003 A 
ATOM     18  C   UNL A   1      33.572  29.299  26.732  1.00  0.00     0.032 A 
ATOM     19  C   UNL A   1      32.389  29.190  27.467  1.00  0.00     0.025 A 
BRANCH  18  20
ATOM     20  N   UNL A   1      34.382  30.414  26.875  1.00  0.00    -0.399 N 
ATOM     21  H   UNL A   1      34.907  30.742  26.110  1.00  0.00     0.156 HD
ATOM     22  H   UNL A   1      34.430  30.879  27.741  1.00  0.00     0.156 HD
ENDBRANCH  18  20
ENDBRANCH  10  14
ENDBRANCH   4   6
ENDBRANCH   3   4
ENDBRANCH   2   3
ENDBRANCH   1   2
BRANCH   1  23
ATOM     23  O   UNL A   1      39.073  24.636  27.086  1.00  0.00    -0.458 OA
BRANCH  23  24
ATOM     24  C   UNL A   1      39.909  25.687  26.928  1.00  0.00     0.338 C 
ATOM     25  O   UNL A   1      40.633  25.929  25.979  1.00  0.00    -0.246 OA
BRANCH  24  26
ATOM     26  C   UNL A   1      39.769  26.570  28.097  1.00  0.00     0.060 A 
ATOM     27  C   UNL A   1      40.428  27.796  28.079  1.00  0.00     0.016 A 
ATOM     28  C   UNL A   1      39.070  26.165  29.232  1.00  0.00     0.016 A 
ATOM     29  C   UNL A   1      40.409  28.628  29.196  1.00  0.00     0.010 A 
ATOM     30  C   UNL A   1      39.024  27.014  30.347  1.00  0.00     0.010 A 
ATOM     31  C   UNL A   1      39.712  28.244  30.348  1.00  0.00    -0.014 A 
BRANCH  31  32
ATOM     32  C   UNL A   1      39.797  29.086  31.573  1.00  0.00     0.031 A 
ATOM     33  C   UNL A   1      40.978  28.948  32.498  1.00  0.00     0.074 A 
ATOM     34  C   UNL A   1      38.864  30.023  31.830  1.00  0.00     0.049 A 
ATOM     35  N   UNL A   1      41.230  29.573  33.621  1.00  0.00    -0.248 NA
ATOM     36  C   UNL A   1      42.012  27.979  32.104  1.00  0.00     0.031 C 
ATOM     37  C   UNL A   1      37.700  30.313  30.991  1.00  0.00     0.029 A 
ATOM     38  N   UNL A   1      38.765  30.929  32.859  1.00  0.00    -0.354 N 
ATOM     39  C   UNL A   1      42.432  29.049  34.086  1.00  0.00     0.074 A 
ATOM     40  C   UNL A   1      42.848  28.042  33.131  1.00  0.00     0.031 C 
ATOM     41  C   UNL A   1      37.036  31.359  31.509  1.00  0.00     0.029 A 
ATOM     42  C   UNL A   1      37.692  31.779  32.745  1.00  0.00     0.049 A 
ATOM     43  H   UNL A   1      39.404  30.964  33.608  1.00  0.00     0.167 HD
ATOM     44  C   UNL A   1      43.132  29.373  35.202  1.00  0.00     0.031 A 
ATOM     45  C   UNL A   1      37.277  32.782  33.545  1.00  0.00     0.031 A 
ATOM     46  C   UNL A   1      42.735  30.382  36.149  1.00  0.00     0.049 A 
ATOM     47  C   UNL A   1      38.042  33.095  34.802  1.00  0.00     0.074 A 
ATOM     48  C   UNL A   1      43.371  30.769  37.316  1.00  0.00     0.029 A 
ATOM     49  N   UNL A   1      41.601  31.171  36.033  1.00  0.00    -0.354 N 
ATOM     50  N   UNL A   1      39.146  32.550  35.252  1.00  0.00    -0.248 NA
ATOM     51  C   UNL A   1      37.496  34.155  35.660  1.00  0.00     0.031 C 
ATOM     52  C   UNL A   1      42.602  31.771  37.924  1.00  0.00     0.029 A 
ATOM     53  C   UNL A   1      41.513  32.038  37.111  1.00  0.00     0.049 A 
ATOM     54  H   UNL A   1      40.953  31.123  35.294  1.00  0.00     0.167 HD
ATOM     55  C   UNL A   1      39.437  33.213  36.440  1.00  0.00     0.074 A 
ATOM     56  C   UNL A   1      38.402  34.209  36.627  1.00  0.00     0.031 C 
ATOM     57  C   UNL A   1      40.469  33.015  37.298  1.00  0.00     0.031 A 
BRANCH  44  58
ATOM     58  C   UNL A   1      44.382  28.578  35.472  1.00  0.00    -0.014 A 
ATOM     59  C   UNL A   1      45.649  29.047  35.082  1.00  0.00     0.010 A 
ATOM     60  C   UNL A   1      44.279  27.323  36.101  1.00  0.00     0.010 A 
ATOM     61  C   UNL A   1      46.782  28.247  35.255  1.00  0.00     0.020 A 
ATOM     62  C   UNL A   1      45.414  26.532  36.300  1.00  0.00     0.020 A 
ATOM     63  C   UNL A   1      46.654  26.987  35.848  1.00  0.00     0.054 A 
BRANCH  63  64
ATOM     64  S   UNL A   1      48.130  25.948  36.030  1.00  0.00     0.124 S 
ATOM     65  O   UNL A   1      47.556  24.606  36.008  1.00  0.00    -0.237 OA
ATOM     66  O   UNL A   1      48.929  26.308  34.860  1.00  0.00    -0.237 OA
ATOM     67  O   UNL A   1      48.691  26.367  37.313  1.00  0.00    -0.744 OA
ENDBRANCH  63  64
ENDBRANCH  44  58
BRANCH  45  68
ATOM     68  C   UNL A   1      36.073  33.575  33.173  1.00  0.00    -0.014 A 
ATOM     69  C   UNL A   1      34.786  33.089  33.463  1.00  0.00     0.010 A 
ATOM     70  C   UNL A   1      36.207  34.827  32.546  1.00  0.00     0.010 A 
ATOM     71  C   UNL A   1      33.655  33.842  33.137  1.00  0.00     0.020 A 
ATOM     72  C   UNL A   1      35.080  35.594  32.240  1.00  0.00     0.020 A 
ATOM     73  C   UNL A   1      33.809  35.093  32.533  1.00  0.00     0.054 A 
BRANCH  73  74
ATOM     74  S   UNL A   1      32.332  36.092  32.191  1.00  0.00     0.124 S 
ATOM     75  O   UNL A   1      32.568  37.272  33.016  1.00  0.00    -0.237 OA
ATOM     76  O   UNL A   1      32.417  36.300  30.747  1.00  0.00    -0.237 OA
ATOM     77  O   UNL A   1      31.233  35.233  32.624  1.00  0.00    -0.744 OA
ENDBRANCH  73  74
ENDBRANCH  45  68
BRANCH  57  78
ATOM     78  C   UNL A   1      40.539  33.914  38.503  1.00  0.00    -0.014 A 
ATOM     79  C   UNL A   1      41.258  35.122  38.471  1.00  0.00     0.010 A 
ATOM     80  C   UNL A   1      39.870  33.545  39.684  1.00  0.00     0.010 A 
ATOM     81  C   UNL A   1      41.347  35.921  39.615  1.00  0.00     0.020 A 
ATOM     82  C   UNL A   1      39.939  34.353  40.822  1.00  0.00     0.020 A 
ATOM     83  C   UNL A   1      40.696  35.526  40.787  1.00  0.00     0.054 A 
BRANCH  83  84
ATOM     84  S   UNL A   1      40.823  36.576  42.261  1.00  0.00     0.124 S 
ATOM     85  O   UNL A   1      39.422  36.888  42.531  1.00  0.00    -0.237 OA
ATOM     86  O   UNL A   1      41.469  35.697  43.233  1.00  0.00    -0.237 OA
ATOM     87  O   UNL A   1      41.638  37.702  41.811  1.00  0.00    -0.744 OA
ENDBRANCH  83  84
ENDBRANCH  57  78
ENDBRANCH  31  32
ENDBRANCH  24  26
ENDBRANCH  23  24
ENDBRANCH   1  23
TORSDOF 17
ENDMDL
