MODEL 1
REMARK VINA RESULT:     -11.5      0.000      0.000
REMARK SMILES O=C(Nc1ccccc1C(=O)OCCOC(=O)c1ccc(-c2c3nc(c(-c4ccc(S(=O)(=O)[O-])cc4)c4ccc([nH]4)c(-c4ccc(S(=O)(=O)[O-])cc4)c4nc(c(-c5ccc(S(=O)(=O)[O-])cc5)c5ccc2[nH]5)C=C4)C=C3)cc1)c1ccc(C[NH+]2CCOCC2)cc1
REMARK SMILES IDX 13 1 12 2 10 3 11 4 9 5 4 6 5 7 6 8 8 9 7 10 3 11 1 12 2 13
REMARK SMILES IDX 78 15 79 16 90 17 80 18 89 19 81 20 82 21 83 22 84 23 88 24
REMARK SMILES IDX 85 26 87 27 86 28 14 29 15 30 16 31 17 32 18 33 19 34 77 35
REMARK SMILES IDX 20 36 76 37 21 38 22 39 23 40 70 41 24 42 75 43 69 44 71 45
REMARK SMILES IDX 25 46 74 47 68 48 67 49 26 51 56 52 37 53 55 54 38 55 41 56
REMARK SMILES IDX 54 57 72 58 39 59 40 60 53 62 73 63 42 64 27 65 28 66 36 67
REMARK SMILES IDX 29 68 35 69 30 70 31 71 32 72 33 73 34 74 57 75 58 76 66 77
REMARK SMILES IDX 59 78 65 79 60 80 61 81 62 82 63 83 64 84 43 85 44 86 52 87
REMARK SMILES IDX 45 88 51 89 46 90 47 91 48 92 49 93 50 94
REMARK H PARENT 3 14 83 25 71 50 41 61
REMARK Flexibility Score: inf
ROOT
ATOM      1  C   UNL A   1      36.604  23.712  25.720  1.00  0.00     0.275 C 
ENDROOT
BRANCH   1   2
ATOM      2  O   UNL A   1      35.973  22.628  24.997  1.00  0.00    -0.458 OA
BRANCH   2   3
ATOM      3  C   UNL A   1      35.251  23.010  23.917  1.00  0.00     0.340 C 
ATOM      4  O   UNL A   1      35.722  23.369  22.850  1.00  0.00    -0.246 OA
BRANCH   3   5
ATOM      5  C   UNL A   1      33.789  22.979  24.106  1.00  0.00     0.083 A 
ATOM      6  C   UNL A   1      32.860  23.479  23.186  1.00  0.00     0.056 A 
ATOM      7  C   UNL A   1      31.494  23.432  23.524  1.00  0.00     0.027 A 
ATOM      8  C   UNL A   1      31.047  22.798  24.690  1.00  0.00     0.002 A 
ATOM      9  C   UNL A   1      33.323  22.355  25.280  1.00  0.00     0.018 A 
ATOM     10  C   UNL A   1      31.965  22.243  25.564  1.00  0.00     0.001 A 
BRANCH   6  11
ATOM     11  N   UNL A   1      33.150  24.045  21.927  1.00  0.00    -0.321 N 
ATOM     12  O   UNL A   1      32.923  25.471  20.195  1.00  0.00    -0.269 OA
ATOM     13  C   UNL A   1      32.927  25.305  21.414  1.00  0.00     0.255 C 
ATOM     14  H   UNL A   1      33.591  23.427  21.301  1.00  0.00     0.170 HD
BRANCH  13  15
ATOM     15  C   UNL A   1      32.823  26.496  22.296  1.00  0.00     0.040 A 
ATOM     16  C   UNL A   1      33.916  27.330  22.540  1.00  0.00     0.014 A 
ATOM     17  C   UNL A   1      31.579  26.825  22.843  1.00  0.00     0.014 A 
ATOM     18  C   UNL A   1      33.776  28.428  23.398  1.00  0.00     0.010 A 
ATOM     19  C   UNL A   1      31.463  27.880  23.758  1.00  0.00     0.010 A 
ATOM     20  C   UNL A   1      32.573  28.678  24.077  1.00  0.00     0.006 A 
BRANCH  20  21
ATOM     21  C   UNL A   1      32.440  29.831  25.056  1.00  0.00     0.299 C 
BRANCH  21  22
ATOM     22  N   UNL A   1      32.616  29.602  26.491  1.00  0.00    -0.327 N 
ATOM     23  C   UNL A   1      32.838  30.774  27.348  1.00  0.00     0.291 C 
ATOM     24  C   UNL A   1      33.502  28.501  26.886  1.00  0.00     0.291 C 
ATOM     25  H   UNL A   1      31.662  29.297  26.685  1.00  0.00     0.348 HD
ATOM     26  C   UNL A   1      34.317  31.134  27.582  1.00  0.00     0.221 C 
ATOM     27  C   UNL A   1      34.957  28.925  27.064  1.00  0.00     0.221 C 
ATOM     28  O   UNL A   1      35.072  29.997  28.006  1.00  0.00    -0.370 OA
ENDBRANCH  21  22
ENDBRANCH  20  21
ENDBRANCH  13  15
ENDBRANCH   6  11
ENDBRANCH   3   5
ENDBRANCH   2   3
ENDBRANCH   1   2
BRANCH   1  29
ATOM     29  C   UNL A   1      38.134  23.673  25.770  1.00  0.00     0.275 C 
BRANCH  29  30
ATOM     30  O   UNL A   1      38.655  24.361  26.922  1.00  0.00    -0.458 OA
BRANCH  30  31
ATOM     31  C   UNL A   1      39.787  25.059  26.680  1.00  0.00     0.338 C 
ATOM     32  O   UNL A   1      40.406  25.112  25.633  1.00  0.00    -0.246 OA
BRANCH  31  33
ATOM     33  C   UNL A   1      40.126  25.901  27.837  1.00  0.00     0.060 A 
ATOM     34  C   UNL A   1      39.237  25.868  28.904  1.00  0.00     0.016 A 
ATOM     35  C   UNL A   1      41.171  26.818  27.832  1.00  0.00     0.016 A 
ATOM     36  C   UNL A   1      39.307  26.788  29.934  1.00  0.00     0.010 A 
ATOM     37  C   UNL A   1      41.282  27.721  28.899  1.00  0.00     0.010 A 
ATOM     38  C   UNL A   1      40.324  27.735  29.934  1.00  0.00    -0.014 A 
BRANCH  38  39
ATOM     39  C   UNL A   1      40.282  28.818  30.943  1.00  0.00     0.031 A 
ATOM     40  C   UNL A   1      41.266  28.774  32.076  1.00  0.00     0.074 A 
ATOM     41  C   UNL A   1      39.447  29.865  30.804  1.00  0.00     0.049 A 
ATOM     42  N   UNL A   1      41.325  29.515  33.150  1.00  0.00    -0.248 NA
ATOM     43  C   UNL A   1      42.327  27.755  31.985  1.00  0.00     0.031 C 
ATOM     44  C   UNL A   1      38.546  30.087  29.671  1.00  0.00     0.029 A 
ATOM     45  N   UNL A   1      39.225  30.944  31.620  1.00  0.00    -0.354 N 
ATOM     46  C   UNL A   1      42.395  29.020  33.886  1.00  0.00     0.074 A 
ATOM     47  C   UNL A   1      42.954  27.915  33.141  1.00  0.00     0.031 C 
ATOM     48  C   UNL A   1      37.867  31.228  29.866  1.00  0.00     0.029 A 
ATOM     49  C   UNL A   1      38.227  31.776  31.168  1.00  0.00     0.049 A 
ATOM     50  H   UNL A   1      39.731  31.108  32.448  1.00  0.00     0.167 HD
ATOM     51  C   UNL A   1      42.858  29.449  35.082  1.00  0.00     0.031 A 
ATOM     52  C   UNL A   1      37.634  32.828  31.766  1.00  0.00     0.031 A 
ATOM     53  C   UNL A   1      42.291  30.558  35.801  1.00  0.00     0.049 A 
ATOM     54  C   UNL A   1      38.096  33.224  33.143  1.00  0.00     0.074 A 
ATOM     55  C   UNL A   1      42.656  31.064  37.035  1.00  0.00     0.029 A 
ATOM     56  N   UNL A   1      41.239  31.339  35.341  1.00  0.00    -0.354 N 
ATOM     57  N   UNL A   1      39.061  32.707  33.869  1.00  0.00    -0.248 NA
ATOM     58  C   UNL A   1      37.386  34.335  33.787  1.00  0.00     0.031 C 
ATOM     59  C   UNL A   1      41.787  32.115  37.345  1.00  0.00     0.029 A 
ATOM     60  C   UNL A   1      40.927  32.309  36.276  1.00  0.00     0.049 A 
ATOM     61  H   UNL A   1      40.783  31.219  34.477  1.00  0.00     0.167 HD
ATOM     62  C   UNL A   1      39.089  33.447  35.045  1.00  0.00     0.074 A 
ATOM     63  C   UNL A   1      38.056  34.457  34.925  1.00  0.00     0.031 C 
ATOM     64  C   UNL A   1      39.895  33.306  36.127  1.00  0.00     0.031 A 
BRANCH  51  65
ATOM     65  C   UNL A   1      43.981  28.667  35.711  1.00  0.00    -0.014 A 
ATOM     66  C   UNL A   1      43.744  27.502  36.460  1.00  0.00     0.010 A 
ATOM     67  C   UNL A   1      45.306  29.115  35.545  1.00  0.00     0.010 A 
ATOM     68  C   UNL A   1      44.804  26.824  37.069  1.00  0.00     0.020 A 
ATOM     69  C   UNL A   1      46.372  28.423  36.125  1.00  0.00     0.020 A 
ATOM     70  C   UNL A   1      46.111  27.292  36.900  1.00  0.00     0.054 A 
BRANCH  70  71
ATOM     71  S   UNL A   1      47.471  26.388  37.690  1.00  0.00     0.124 S 
ATOM     72  O   UNL A   1      48.527  27.398  37.722  1.00  0.00    -0.237 OA
ATOM     73  O   UNL A   1      46.905  26.031  38.988  1.00  0.00    -0.237 OA
ATOM     74  O   UNL A   1      47.712  25.263  36.789  1.00  0.00    -0.744 OA
ENDBRANCH  70  71
ENDBRANCH  51  65
BRANCH  52  75
ATOM     75  C   UNL A   1      36.502  33.531  31.097  1.00  0.00    -0.014 A 
ATOM     76  C   UNL A   1      36.552  33.843  29.728  1.00  0.00     0.010 A 
ATOM     77  C   UNL A   1      35.358  33.891  31.836  1.00  0.00     0.010 A 
ATOM     78  C   UNL A   1      35.490  34.517  29.115  1.00  0.00     0.020 A 
ATOM     79  C   UNL A   1      34.282  34.536  31.220  1.00  0.00     0.020 A 
ATOM     80  C   UNL A   1      34.360  34.857  29.865  1.00  0.00     0.054 A 
BRANCH  80  81
ATOM     81  S   UNL A   1      32.976  35.689  29.037  1.00  0.00     0.124 S 
ATOM     82  O   UNL A   1      32.473  34.642  28.155  1.00  0.00    -0.237 OA
ATOM     83  O   UNL A   1      32.106  36.045  30.156  1.00  0.00    -0.237 OA
ATOM     84  O   UNL A   1      33.609  36.822  28.365  1.00  0.00    -0.744 OA
ENDBRANCH  80  81
ENDBRANCH  52  75
BRANCH  64  85
ATOM     85  C   UNL A   1      39.724  34.295  37.248  1.00  0.00    -0.014 A 
ATOM     86  C   UNL A   1      38.927  34.001  38.368  1.00  0.00     0.010 A 
ATOM     87  C   UNL A   1      40.426  35.513  37.204  1.00  0.00     0.010 A 
ATOM     88  C   UNL A   1      38.813  34.923  39.412  1.00  0.00     0.020 A 
ATOM     89  C   UNL A   1      40.340  36.423  38.259  1.00  0.00     0.020 A 
ATOM     90  C   UNL A   1      39.522  36.127  39.351  1.00  0.00     0.054 A 
BRANCH  90  91
ATOM     91  S   UNL A   1      39.398  37.284  40.742  1.00  0.00     0.124 S 
ATOM     92  O   UNL A   1      38.463  38.281  40.226  1.00  0.00    -0.237 OA
ATOM     93  O   UNL A   1      38.884  36.439  41.816  1.00  0.00    -0.237 OA
ATOM     94  O   UNL A   1      40.770  37.753  40.927  1.00  0.00    -0.744 OA
ENDBRANCH  90  91
ENDBRANCH  64  85
ENDBRANCH  38  39
ENDBRANCH  31  33
ENDBRANCH  30  31
ENDBRANCH  29  30
ENDBRANCH   1  29
TORSDOF 18
ENDMDL
MODEL 2
REMARK VINA RESULT:     -11.4      6.842     12.144
REMARK SMILES O=C(Nc1ccccc1C(=O)OCCOC(=O)c1ccc(-c2c3nc(c(-c4ccc(S(=O)(=O)[O-])cc4)c4ccc([nH]4)c(-c4ccc(S(=O)(=O)[O-])cc4)c4nc(c(-c5ccc(S(=O)(=O)[O-])cc5)c5ccc2[nH]5)C=C4)C=C3)cc1)c1ccc(C[NH+]2CCOCC2)cc1
REMARK SMILES IDX 13 1 12 2 10 3 11 4 9 5 4 6 5 7 6 8 8 9 7 10 3 11 1 12 2 13
REMARK SMILES IDX 78 15 79 16 90 17 80 18 89 19 81 20 82 21 83 22 84 23 88 24
REMARK SMILES IDX 85 26 87 27 86 28 14 29 15 30 16 31 17 32 18 33 19 34 77 35
REMARK SMILES IDX 20 36 76 37 21 38 22 39 23 40 70 41 24 42 75 43 69 44 71 45
REMARK SMILES IDX 25 46 74 47 68 48 67 49 26 51 56 52 37 53 55 54 38 55 41 56
REMARK SMILES IDX 54 57 72 58 39 59 40 60 53 62 73 63 42 64 27 65 28 66 36 67
REMARK SMILES IDX 29 68 35 69 30 70 31 71 32 72 33 73 34 74 57 75 58 76 66 77
REMARK SMILES IDX 59 78 65 79 60 80 61 81 62 82 63 83 64 84 43 85 44 86 52 87
REMARK SMILES IDX 45 88 51 89 46 90 47 91 48 92 49 93 50 94
REMARK H PARENT 3 14 83 25 71 50 41 61
REMARK Flexibility Score: inf
ROOT
ATOM      1  C   UNL A   1      33.684  30.383  27.488  1.00  0.00     0.275 C 
ENDROOT
BRANCH   1   2
ATOM      2  O   UNL A   1      32.952  30.333  26.240  1.00  0.00    -0.458 OA
BRANCH   2   3
ATOM      3  C   UNL A   1      32.411  29.127  25.947  1.00  0.00     0.340 C 
ATOM      4  O   UNL A   1      31.743  28.453  26.715  1.00  0.00    -0.246 OA
BRANCH   3   5
ATOM      5  C   UNL A   1      32.691  28.636  24.586  1.00  0.00     0.083 A 
ATOM      6  C   UNL A   1      31.753  27.999  23.764  1.00  0.00     0.056 A 
ATOM      7  C   UNL A   1      32.177  27.533  22.504  1.00  0.00     0.027 A 
ATOM      8  C   UNL A   1      33.463  27.794  22.019  1.00  0.00     0.002 A 
ATOM      9  C   UNL A   1      33.986  28.880  24.086  1.00  0.00     0.018 A 
ATOM     10  C   UNL A   1      34.367  28.485  22.807  1.00  0.00     0.001 A 
BRANCH   6  11
ATOM     11  N   UNL A   1      30.397  27.763  24.069  1.00  0.00    -0.321 N 
ATOM     12  O   UNL A   1      28.429  26.661  24.045  1.00  0.00    -0.269 OA
ATOM     13  C   UNL A   1      29.656  26.601  24.118  1.00  0.00     0.255 C 
ATOM     14  H   UNL A   1      29.886  28.576  24.287  1.00  0.00     0.170 HD
BRANCH  13  15
ATOM     15  C   UNL A   1      30.291  25.285  24.390  1.00  0.00     0.040 A 
ATOM     16  C   UNL A   1      30.627  24.403  23.362  1.00  0.00     0.014 A 
ATOM     17  C   UNL A   1      30.618  24.954  25.708  1.00  0.00     0.014 A 
ATOM     18  C   UNL A   1      31.201  23.163  23.669  1.00  0.00     0.010 A 
ATOM     19  C   UNL A   1      31.124  23.684  26.015  1.00  0.00     0.010 A 
ATOM     20  C   UNL A   1      31.390  22.753  24.999  1.00  0.00     0.006 A 
BRANCH  20  21
ATOM     21  C   UNL A   1      31.954  21.384  25.333  1.00  0.00     0.299 C 
BRANCH  21  22
ATOM     22  N   UNL A   1      33.390  21.215  25.565  1.00  0.00    -0.327 N 
ATOM     23  C   UNL A   1      33.879  21.339  26.943  1.00  0.00     0.291 C 
ATOM     24  C   UNL A   1      34.298  21.893  24.632  1.00  0.00     0.291 C 
ATOM     25  H   UNL A   1      33.433  20.219  25.346  1.00  0.00     0.348 HD
ATOM     26  C   UNL A   1      34.340  22.754  27.342  1.00  0.00     0.221 C 
ATOM     27  C   UNL A   1      34.681  23.303  25.075  1.00  0.00     0.221 C 
ATOM     28  O   UNL A   1      35.254  23.295  26.387  1.00  0.00    -0.370 OA
ENDBRANCH  21  22
ENDBRANCH  20  21
ENDBRANCH  13  15
ENDBRANCH   6  11
ENDBRANCH   3   5
ENDBRANCH   2   3
ENDBRANCH   1   2
BRANCH   1  29
ATOM     29  C   UNL A   1      34.848  29.396  27.613  1.00  0.00     0.275 C 
BRANCH  29  30
ATOM     30  O   UNL A   1      36.107  30.066  27.804  1.00  0.00    -0.458 OA
BRANCH  30  31
ATOM     31  C   UNL A   1      36.829  29.598  28.848  1.00  0.00     0.338 C 
ATOM     32  O   UNL A   1      36.453  29.470  29.999  1.00  0.00    -0.246 OA
BRANCH  31  33
ATOM     33  C   UNL A   1      38.134  29.103  28.387  1.00  0.00     0.060 A 
ATOM     34  C   UNL A   1      38.909  28.442  29.330  1.00  0.00     0.016 A 
ATOM     35  C   UNL A   1      38.667  29.408  27.139  1.00  0.00     0.016 A 
ATOM     36  C   UNL A   1      40.241  28.150  29.097  1.00  0.00     0.010 A 
ATOM     37  C   UNL A   1      40.002  29.069  26.874  1.00  0.00     0.010 A 
ATOM     38  C   UNL A   1      40.805  28.475  27.869  1.00  0.00    -0.014 A 
BRANCH  38  39
ATOM     39  C   UNL A   1      42.268  28.319  27.700  1.00  0.00     0.031 A 
ATOM     40  C   UNL A   1      43.156  29.466  28.086  1.00  0.00     0.074 A 
ATOM     41  C   UNL A   1      42.799  27.150  27.297  1.00  0.00     0.049 A 
ATOM     42  N   UNL A   1      44.437  29.623  27.890  1.00  0.00    -0.248 NA
ATOM     43  C   UNL A   1      42.509  30.589  28.788  1.00  0.00     0.031 C 
ATOM     44  C   UNL A   1      42.047  25.923  27.030  1.00  0.00     0.029 A 
ATOM     45  N   UNL A   1      44.101  26.800  27.048  1.00  0.00    -0.354 N 
ATOM     46  C   UNL A   1      44.741  30.881  28.396  1.00  0.00     0.074 A 
ATOM     47  C   UNL A   1      43.512  31.447  28.905  1.00  0.00     0.031 C 
ATOM     48  C   UNL A   1      42.898  24.957  26.651  1.00  0.00     0.029 A 
ATOM     49  C   UNL A   1      44.243  25.516  26.575  1.00  0.00     0.049 A 
ATOM     50  H   UNL A   1      44.862  27.408  27.194  1.00  0.00     0.167 HD
ATOM     51  C   UNL A   1      45.940  31.507  28.423  1.00  0.00     0.031 A 
ATOM     52  C   UNL A   1      45.326  24.884  26.083  1.00  0.00     0.031 A 
ATOM     53  C   UNL A   1      47.153  30.918  27.920  1.00  0.00     0.049 A 
ATOM     54  C   UNL A   1      46.630  25.635  26.026  1.00  0.00     0.074 A 
ATOM     55  C   UNL A   1      48.420  31.468  27.865  1.00  0.00     0.029 A 
ATOM     56  N   UNL A   1      47.246  29.639  27.389  1.00  0.00    -0.354 N 
ATOM     57  N   UNL A   1      46.898  26.853  26.440  1.00  0.00    -0.248 NA
ATOM     58  C   UNL A   1      47.774  24.936  25.429  1.00  0.00     0.031 C 
ATOM     59  C   UNL A   1      49.267  30.541  27.250  1.00  0.00     0.029 A 
ATOM     60  C   UNL A   1      48.544  29.388  26.985  1.00  0.00     0.049 A 
ATOM     61  H   UNL A   1      46.498  29.004  27.313  1.00  0.00     0.167 HD
ATOM     62  C   UNL A   1      48.247  27.056  26.174  1.00  0.00     0.074 A 
ATOM     63  C   UNL A   1      48.743  25.829  25.581  1.00  0.00     0.031 C 
ATOM     64  C   UNL A   1      49.009  28.154  26.400  1.00  0.00     0.031 A 
BRANCH  51  65
ATOM     65  C   UNL A   1      45.974  32.918  28.946  1.00  0.00    -0.014 A 
ATOM     66  C   UNL A   1      46.235  33.201  30.298  1.00  0.00     0.010 A 
ATOM     67  C   UNL A   1      45.736  33.985  28.058  1.00  0.00     0.010 A 
ATOM     68  C   UNL A   1      46.215  34.520  30.762  1.00  0.00     0.020 A 
ATOM     69  C   UNL A   1      45.745  35.306  28.511  1.00  0.00     0.020 A 
ATOM     70  C   UNL A   1      45.966  35.563  29.865  1.00  0.00     0.054 A 
BRANCH  70  71
ATOM     71  S   UNL A   1      45.957  37.267  30.489  1.00  0.00     0.124 S 
ATOM     72  O   UNL A   1      45.477  37.084  31.857  1.00  0.00    -0.237 OA
ATOM     73  O   UNL A   1      47.357  37.661  30.363  1.00  0.00    -0.237 OA
ATOM     74  O   UNL A   1      45.034  37.961  29.594  1.00  0.00    -0.744 OA
ENDBRANCH  70  71
ENDBRANCH  51  65
BRANCH  52  75
ATOM     75  C   UNL A   1      45.208  23.498  25.548  1.00  0.00    -0.014 A 
ATOM     76  C   UNL A   1      45.461  22.383  26.365  1.00  0.00     0.010 A 
ATOM     77  C   UNL A   1      44.838  23.287  24.206  1.00  0.00     0.010 A 
ATOM     78  C   UNL A   1      45.363  21.087  25.848  1.00  0.00     0.020 A 
ATOM     79  C   UNL A   1      44.707  21.993  23.693  1.00  0.00     0.020 A 
ATOM     80  C   UNL A   1      44.983  20.900  24.515  1.00  0.00     0.054 A 
BRANCH  80  81
ATOM     81  S   UNL A   1      44.817  19.208  23.880  1.00  0.00     0.124 S 
ATOM     82  O   UNL A   1      44.302  19.437  22.534  1.00  0.00    -0.237 OA
ATOM     83  O   UNL A   1      46.187  18.707  23.956  1.00  0.00    -0.237 OA
ATOM     84  O   UNL A   1      43.880  18.582  24.810  1.00  0.00    -0.744 OA
ENDBRANCH  80  81
ENDBRANCH  52  75
BRANCH  64  85
ATOM     85  C   UNL A   1      50.469  28.065  26.048  1.00  0.00    -0.014 A 
ATOM     86  C   UNL A   1      51.440  27.762  27.018  1.00  0.00     0.010 A 
ATOM     87  C   UNL A   1      50.865  28.226  24.707  1.00  0.00     0.010 A 
ATOM     88  C   UNL A   1      52.786  27.650  26.658  1.00  0.00     0.020 A 
ATOM     89  C   UNL A   1      52.203  28.084  24.338  1.00  0.00     0.020 A 
ATOM     90  C   UNL A   1      53.158  27.810  25.319  1.00  0.00     0.054 A 
BRANCH  90  91
ATOM     91  S   UNL A   1      54.902  27.609  24.869  1.00  0.00     0.124 S 
ATOM     92  O   UNL A   1      55.261  28.956  24.433  1.00  0.00    -0.237 OA
ATOM     93  O   UNL A   1      55.509  27.172  26.124  1.00  0.00    -0.237 OA
ATOM     94  O   UNL A   1      54.874  26.599  23.812  1.00  0.00    -0.744 OA
ENDBRANCH  90  91
ENDBRANCH  64  85
ENDBRANCH  38  39
ENDBRANCH  31  33
ENDBRANCH  30  31
ENDBRANCH  29  30
ENDBRANCH   1  29
TORSDOF 18
ENDMDL
MODEL 3
REMARK VINA RESULT:     -11.2      4.665     10.681
REMARK SMILES O=C(Nc1ccccc1C(=O)OCCOC(=O)c1ccc(-c2c3nc(c(-c4ccc(S(=O)(=O)[O-])cc4)c4ccc([nH]4)c(-c4ccc(S(=O)(=O)[O-])cc4)c4nc(c(-c5ccc(S(=O)(=O)[O-])cc5)c5ccc2[nH]5)C=C4)C=C3)cc1)c1ccc(C[NH+]2CCOCC2)cc1
REMARK SMILES IDX 13 1 12 2 10 3 11 4 9 5 4 6 5 7 6 8 8 9 7 10 3 11 1 12 2 13
REMARK SMILES IDX 78 15 79 16 90 17 80 18 89 19 81 20 82 21 83 22 84 23 88 24
REMARK SMILES IDX 85 26 87 27 86 28 14 29 15 30 16 31 17 32 18 33 19 34 77 35
REMARK SMILES IDX 20 36 76 37 21 38 22 39 23 40 70 41 24 42 75 43 69 44 71 45
REMARK SMILES IDX 25 46 74 47 68 48 67 49 26 51 56 52 37 53 55 54 38 55 41 56
REMARK SMILES IDX 54 57 72 58 39 59 40 60 53 62 73 63 42 64 27 65 28 66 36 67
REMARK SMILES IDX 29 68 35 69 30 70 31 71 32 72 33 73 34 74 57 75 58 76 66 77
REMARK SMILES IDX 59 78 65 79 60 80 61 81 62 82 63 83 64 84 43 85 44 86 52 87
REMARK SMILES IDX 45 88 51 89 46 90 47 91 48 92 49 93 50 94
REMARK H PARENT 3 14 83 25 71 50 41 61
REMARK Flexibility Score: inf
ROOT
ATOM      1  C   UNL A   1      31.964  29.569  25.990  1.00  0.00     0.275 C 
ENDROOT
BRANCH   1   2
ATOM      2  O   UNL A   1      31.563  28.225  26.349  1.00  0.00    -0.458 OA
BRANCH   2   3
ATOM      3  C   UNL A   1      32.480  27.267  26.074  1.00  0.00     0.340 C 
ATOM      4  O   UNL A   1      33.601  27.211  26.553  1.00  0.00    -0.246 OA
BRANCH   3   5
ATOM      5  C   UNL A   1      32.038  26.245  25.108  1.00  0.00     0.083 A 
ATOM      6  C   UNL A   1      32.895  25.360  24.442  1.00  0.00     0.056 A 
ATOM      7  C   UNL A   1      32.337  24.471  23.503  1.00  0.00     0.027 A 
ATOM      8  C   UNL A   1      30.954  24.375  23.314  1.00  0.00     0.002 A 
ATOM      9  C   UNL A   1      30.649  26.142  24.896  1.00  0.00     0.018 A 
ATOM     10  C   UNL A   1      30.104  25.204  24.025  1.00  0.00     0.001 A 
BRANCH   6  11
ATOM     11  N   UNL A   1      34.292  25.263  24.608  1.00  0.00    -0.321 N 
ATOM     12  O   UNL A   1      36.223  24.607  25.571  1.00  0.00    -0.269 OA
ATOM     13  C   UNL A   1      35.078  24.314  25.226  1.00  0.00     0.255 C 
ATOM     14  H   UNL A   1      34.797  26.008  24.210  1.00  0.00     0.170 HD
BRANCH  13  15
ATOM     15  C   UNL A   1      34.629  22.905  25.370  1.00  0.00     0.040 A 
ATOM     16  C   UNL A   1      34.882  21.947  24.387  1.00  0.00     0.014 A 
ATOM     17  C   UNL A   1      33.993  22.516  26.552  1.00  0.00     0.014 A 
ATOM     18  C   UNL A   1      34.418  20.637  24.555  1.00  0.00     0.010 A 
ATOM     19  C   UNL A   1      33.466  21.225  26.683  1.00  0.00     0.010 A 
ATOM     20  C   UNL A   1      33.641  20.273  25.667  1.00  0.00     0.006 A 
BRANCH  20  21
ATOM     21  C   UNL A   1      33.084  18.869  25.818  1.00  0.00     0.299 C 
BRANCH  21  22
ATOM     22  N   UNL A   1      33.238  17.895  24.736  1.00  0.00    -0.327 N 
ATOM     23  C   UNL A   1      32.264  16.798  24.660  1.00  0.00     0.291 C 
ATOM     24  C   UNL A   1      34.594  17.397  24.476  1.00  0.00     0.291 C 
ATOM     25  H   UNL A   1      33.002  18.525  23.970  1.00  0.00     0.348 HD
ATOM     26  C   UNL A   1      32.677  15.513  25.401  1.00  0.00     0.221 C 
ATOM     27  C   UNL A   1      34.945  16.143  25.272  1.00  0.00     0.221 C 
ATOM     28  O   UNL A   1      33.995  15.099  25.036  1.00  0.00    -0.370 OA
ENDBRANCH  21  22
ENDBRANCH  20  21
ENDBRANCH  13  15
ENDBRANCH   6  11
ENDBRANCH   3   5
ENDBRANCH   2   3
ENDBRANCH   1   2
BRANCH   1  29
ATOM     29  C   UNL A   1      32.586  30.398  27.117  1.00  0.00     0.275 C 
BRANCH  29  30
ATOM     30  O   UNL A   1      33.994  30.615  26.916  1.00  0.00    -0.458 OA
BRANCH  30  31
ATOM     31  C   UNL A   1      34.661  30.976  28.036  1.00  0.00     0.338 C 
ATOM     32  O   UNL A   1      34.264  31.715  28.918  1.00  0.00    -0.246 OA
BRANCH  31  33
ATOM     33  C   UNL A   1      35.922  30.228  28.143  1.00  0.00     0.060 A 
ATOM     34  C   UNL A   1      36.191  29.649  29.377  1.00  0.00     0.016 A 
ATOM     35  C   UNL A   1      36.891  30.220  27.146  1.00  0.00     0.016 A 
ATOM     36  C   UNL A   1      37.439  29.137  29.680  1.00  0.00     0.010 A 
ATOM     37  C   UNL A   1      38.144  29.656  27.426  1.00  0.00     0.010 A 
ATOM     38  C   UNL A   1      38.434  29.149  28.711  1.00  0.00    -0.014 A 
BRANCH  38  39
ATOM     39  C   UNL A   1      39.809  28.762  29.103  1.00  0.00     0.031 A 
ATOM     40  C   UNL A   1      40.635  29.751  29.874  1.00  0.00     0.074 A 
ATOM     41  C   UNL A   1      40.278  27.524  28.858  1.00  0.00     0.049 A 
ATOM     42  N   UNL A   1      41.900  29.702  30.193  1.00  0.00    -0.248 NA
ATOM     43  C   UNL A   1      39.937  30.960  30.347  1.00  0.00     0.031 C 
ATOM     44  C   UNL A   1      39.518  26.435  28.244  1.00  0.00     0.029 A 
ATOM     45  N   UNL A   1      41.509  26.972  29.103  1.00  0.00    -0.354 N 
ATOM     46  C   UNL A   1      42.163  30.893  30.858  1.00  0.00     0.074 A 
ATOM     47  C   UNL A   1      40.929  31.646  30.895  1.00  0.00     0.031 C 
ATOM     48  C   UNL A   1      40.299  25.347  28.157  1.00  0.00     0.029 A 
ATOM     49  C   UNL A   1      41.634  25.684  28.636  1.00  0.00     0.049 A 
ATOM     50  H   UNL A   1      42.233  27.450  29.568  1.00  0.00     0.167 HD
ATOM     51  C   UNL A   1      43.335  31.319  31.383  1.00  0.00     0.031 A 
ATOM     52  C   UNL A   1      42.719  24.889  28.556  1.00  0.00     0.031 A 
ATOM     53  C   UNL A   1      44.548  30.547  31.343  1.00  0.00     0.049 A 
ATOM     54  C   UNL A   1      44.037  25.423  29.051  1.00  0.00     0.074 A 
ATOM     55  C   UNL A   1      45.803  30.888  31.813  1.00  0.00     0.029 A 
ATOM     56  N   UNL A   1      44.652  29.271  30.806  1.00  0.00    -0.354 N 
ATOM     57  N   UNL A   1      44.298  26.581  29.615  1.00  0.00    -0.248 NA
ATOM     58  C   UNL A   1      45.208  24.552  28.892  1.00  0.00     0.031 C 
ATOM     59  C   UNL A   1      46.678  29.839  31.509  1.00  0.00     0.029 A 
ATOM     60  C   UNL A   1      45.954  28.818  30.913  1.00  0.00     0.049 A 
ATOM     61  H   UNL A   1      43.908  28.764  30.407  1.00  0.00     0.167 HD
ATOM     62  C   UNL A   1      45.659  26.566  29.899  1.00  0.00     0.074 A 
ATOM     63  C   UNL A   1      46.161  25.278  29.461  1.00  0.00     0.031 C 
ATOM     64  C   UNL A   1      46.425  27.528  30.471  1.00  0.00     0.031 A 
BRANCH  51  65
ATOM     65  C   UNL A   1      43.368  32.705  31.970  1.00  0.00    -0.014 A 
ATOM     66  C   UNL A   1      43.733  33.826  31.205  1.00  0.00     0.010 A 
ATOM     67  C   UNL A   1      43.026  32.884  33.324  1.00  0.00     0.010 A 
ATOM     68  C   UNL A   1      43.798  35.093  31.792  1.00  0.00     0.020 A 
ATOM     69  C   UNL A   1      43.059  34.153  33.908  1.00  0.00     0.020 A 
ATOM     70  C   UNL A   1      43.464  35.247  33.141  1.00  0.00     0.054 A 
BRANCH  70  71
ATOM     71  S   UNL A   1      43.544  36.903  33.876  1.00  0.00     0.124 S 
ATOM     72  O   UNL A   1      44.768  36.821  34.671  1.00  0.00    -0.237 OA
ATOM     73  O   UNL A   1      43.616  37.770  32.703  1.00  0.00    -0.237 OA
ATOM     74  O   UNL A   1      42.307  37.003  34.647  1.00  0.00    -0.744 OA
ENDBRANCH  70  71
ENDBRANCH  51  65
BRANCH  52  75
ATOM     75  C   UNL A   1      42.617  23.542  27.927  1.00  0.00    -0.014 A 
ATOM     76  C   UNL A   1      42.095  22.449  28.638  1.00  0.00     0.010 A 
ATOM     77  C   UNL A   1      43.046  23.347  26.599  1.00  0.00     0.010 A 
ATOM     78  C   UNL A   1      42.018  21.185  28.042  1.00  0.00     0.020 A 
ATOM     79  C   UNL A   1      42.943  22.093  25.989  1.00  0.00     0.020 A 
ATOM     80  C   UNL A   1      42.440  21.016  26.720  1.00  0.00     0.054 A 
BRANCH  80  81
ATOM     81  S   UNL A   1      42.289  19.378  25.954  1.00  0.00     0.124 S 
ATOM     82  O   UNL A   1      43.112  19.523  24.758  1.00  0.00    -0.237 OA
ATOM     83  O   UNL A   1      42.825  18.495  26.987  1.00  0.00    -0.237 OA
ATOM     84  O   UNL A   1      40.854  19.243  25.713  1.00  0.00    -0.744 OA
ENDBRANCH  80  81
ENDBRANCH  52  75
BRANCH  64  85
ATOM     85  C   UNL A   1      47.877  27.208  30.698  1.00  0.00    -0.014 A 
ATOM     86  C   UNL A   1      48.298  26.471  31.818  1.00  0.00     0.010 A 
ATOM     87  C   UNL A   1      48.827  27.601  29.737  1.00  0.00     0.010 A 
ATOM     88  C   UNL A   1      49.650  26.156  31.987  1.00  0.00     0.020 A 
ATOM     89  C   UNL A   1      50.173  27.262  29.886  1.00  0.00     0.020 A 
ATOM     90  C   UNL A   1      50.577  26.553  31.018  1.00  0.00     0.054 A 
BRANCH  90  91
ATOM     91  S   UNL A   1      52.317  26.089  31.234  1.00  0.00     0.124 S 
ATOM     92  O   UNL A   1      52.205  24.751  31.811  1.00  0.00    -0.237 OA
ATOM     93  O   UNL A   1      52.834  26.143  29.870  1.00  0.00    -0.237 OA
ATOM     94  O   UNL A   1      52.840  27.113  32.135  1.00  0.00    -0.744 OA
ENDBRANCH  90  91
ENDBRANCH  64  85
ENDBRANCH  38  39
ENDBRANCH  31  33
ENDBRANCH  30  31
ENDBRANCH  29  30
ENDBRANCH   1  29
TORSDOF 18
ENDMDL
