MODEL 1
REMARK VINA RESULT:     -12.9      0.000      0.000
REMARK SMILES COc1cccc(-c2nn(-c3cc4c(cc3C(N)=O)OCO4)cc2C(=O)OCCOC(=O)c2ccc(-c3c4nc(c(-c5ccc(S(=O)(=O)[O-])cc5)c5ccc([nH]5)c(-c5ccc(S(=O)(=O)[O-])cc5)c5nc(c(-c6ccc(S(=O)(=O)[O-])cc6)c6ccc3[nH]6)C=C5)C=C4)cc2)c1
REMARK SMILES IDX 29 1 28 2 27 3 25 4 26 5 24 6 8 7 9 8 10 9 23 10 7 11 3 12
REMARK SMILES IDX 4 13 93 14 5 15 6 16 2 17 1 18 11 19 12 20 16 21 13 22 15 23
REMARK SMILES IDX 14 24 22 25 20 26 21 27 17 28 18 29 19 30 30 33 31 34 32 35
REMARK SMILES IDX 33 36 34 37 92 38 35 39 91 40 36 41 37 42 38 43 85 44 39 45
REMARK SMILES IDX 90 46 84 47 86 48 40 49 89 50 83 51 82 52 41 54 71 55 52 56
REMARK SMILES IDX 70 57 53 58 56 59 69 60 87 61 54 62 55 63 68 65 88 66 57 67
REMARK SMILES IDX 42 68 43 69 51 70 44 71 50 72 45 73 46 74 47 75 48 76 49 77
REMARK SMILES IDX 72 78 73 79 81 80 74 81 80 82 75 83 76 84 77 85 78 86 79 87
REMARK SMILES IDX 58 88 59 89 67 90 60 91 66 92 61 93 62 94 63 95 64 96 65 97
REMARK H PARENT 18 31 18 32 86 53 56 64
REMARK Flexibility Score: inf
ROOT
ATOM      1  C   UNL A   1      38.398  21.343  25.434  1.00  0.00     0.275 C 
ENDROOT
BRANCH   1   2
ATOM      2  C   UNL A   1      36.942  21.173  25.009  1.00  0.00     0.275 C 
BRANCH   2   3
ATOM      3  O   UNL A   1      36.233  22.423  24.949  1.00  0.00    -0.458 OA
BRANCH   3   4
ATOM      4  C   UNL A   1      35.567  22.737  23.793  1.00  0.00     0.342 C 
ATOM      5  O   UNL A   1      36.108  22.840  22.695  1.00  0.00    -0.246 OA
BRANCH   4   6
ATOM      6  C   UNL A   1      34.152  22.959  24.022  1.00  0.00     0.106 A 
ATOM      7  C   UNL A   1      33.024  22.087  23.932  1.00  0.00     0.107 A 
ATOM      8  N   UNL A   1      31.872  22.758  24.140  1.00  0.00    -0.167 NA
ATOM      9  N   UNL A   1      32.257  24.053  24.184  1.00  0.00    -0.239 N 
ATOM     10  C   UNL A   1      33.601  24.167  24.396  1.00  0.00     0.131 A 
BRANCH   7  11
ATOM     11  C   UNL A   1      33.014  20.645  23.708  1.00  0.00     0.007 A 
ATOM     12  C   UNL A   1      33.616  18.386  24.359  1.00  0.00     0.119 A 
ATOM     13  C   UNL A   1      32.852  17.891  23.297  1.00  0.00     0.046 A 
ATOM     14  C   UNL A   1      33.679  19.766  24.578  1.00  0.00     0.056 A 
ATOM     15  C   UNL A   1      32.210  18.759  22.417  1.00  0.00     0.005 A 
ATOM     16  C   UNL A   1      32.320  20.134  22.605  1.00  0.00     0.011 A 
BRANCH  12  17
ATOM     17  O   UNL A   1      34.251  17.413  25.081  1.00  0.00    -0.497 OA
ATOM     18  C   UNL A   1      33.533  16.223  25.364  1.00  0.00     0.278 C 
ENDBRANCH  12  17
ENDBRANCH   7  11
BRANCH   9  19
ATOM     19  C   UNL A   1      31.336  25.122  24.075  1.00  0.00     0.081 A 
ATOM     20  C   UNL A   1      31.500  26.018  22.999  1.00  0.00     0.079 A 
ATOM     21  C   UNL A   1      30.268  25.286  25.010  1.00  0.00     0.069 A 
ATOM     22  C   UNL A   1      30.559  27.013  22.852  1.00  0.00     0.167 A 
ATOM     23  C   UNL A   1      29.274  26.243  24.738  1.00  0.00     0.066 A 
ATOM     24  C   UNL A   1      29.467  27.101  23.680  1.00  0.00     0.166 A 
ATOM     25  O   UNL A   1      30.573  28.011  21.927  1.00  0.00    -0.454 OA
ATOM     26  O   UNL A   1      28.666  28.161  23.382  1.00  0.00    -0.454 OA
ATOM     27  C   UNL A   1      29.496  28.837  22.414  1.00  0.00     0.468 C 
BRANCH  21  28
ATOM     28  C   UNL A   1      30.291  24.658  26.384  1.00  0.00     0.251 C 
ATOM     29  N   UNL A   1      29.112  24.213  26.920  1.00  0.00    -0.366 N 
ATOM     30  O   UNL A   1      31.274  24.598  27.107  1.00  0.00    -0.269 OA
ATOM     31  H   UNL A   1      28.287  24.237  26.383  1.00  0.00     0.159 HD
ATOM     32  H   UNL A   1      29.091  23.868  27.843  1.00  0.00     0.159 HD
ENDBRANCH  21  28
ENDBRANCH   9  19
ENDBRANCH   4   6
ENDBRANCH   3   4
ENDBRANCH   2   3
ENDBRANCH   1   2
BRANCH   1  33
ATOM     33  O   UNL A   1      38.585  22.563  26.144  1.00  0.00    -0.458 OA
BRANCH  33  34
ATOM     34  C   UNL A   1      39.679  22.557  26.936  1.00  0.00     0.338 C 
ATOM     35  O   UNL A   1      40.175  21.599  27.505  1.00  0.00    -0.246 OA
BRANCH  34  36
ATOM     36  C   UNL A   1      40.171  23.917  27.115  1.00  0.00     0.060 A 
ATOM     37  C   UNL A   1      41.426  24.047  27.715  1.00  0.00     0.016 A 
ATOM     38  C   UNL A   1      39.309  25.002  26.932  1.00  0.00     0.016 A 
ATOM     39  C   UNL A   1      41.769  25.251  28.277  1.00  0.00     0.010 A 
ATOM     40  C   UNL A   1      39.644  26.205  27.505  1.00  0.00     0.010 A 
ATOM     41  C   UNL A   1      40.830  26.281  28.236  1.00  0.00    -0.014 A 
BRANCH  41  42
ATOM     42  C   UNL A   1      41.117  27.473  29.004  1.00  0.00     0.031 A 
ATOM     43  C   UNL A   1      42.252  28.250  28.450  1.00  0.00     0.074 A 
ATOM     44  C   UNL A   1      40.313  27.801  30.037  1.00  0.00     0.049 A 
ATOM     45  N   UNL A   1      43.384  28.522  29.006  1.00  0.00    -0.248 NA
ATOM     46  C   UNL A   1      42.190  28.617  27.021  1.00  0.00     0.031 C 
ATOM     47  C   UNL A   1      39.031  27.171  30.396  1.00  0.00     0.029 A 
ATOM     48  N   UNL A   1      40.379  28.842  30.903  1.00  0.00    -0.354 N 
ATOM     49  C   UNL A   1      44.072  29.308  28.083  1.00  0.00     0.074 A 
ATOM     50  C   UNL A   1      43.391  29.159  26.827  1.00  0.00     0.031 C 
ATOM     51  C   UNL A   1      38.329  28.008  31.191  1.00  0.00     0.029 A 
ATOM     52  C   UNL A   1      39.168  29.147  31.518  1.00  0.00     0.049 A 
ATOM     53  H   UNL A   1      41.211  29.340  31.081  1.00  0.00     0.167 HD
ATOM     54  C   UNL A   1      44.945  30.268  28.495  1.00  0.00     0.031 A 
ATOM     55  C   UNL A   1      38.863  30.298  32.168  1.00  0.00     0.031 A 
ATOM     56  C   UNL A   1      45.324  30.069  29.866  1.00  0.00     0.049 A 
ATOM     57  C   UNL A   1      40.150  30.954  32.501  1.00  0.00     0.074 A 
ATOM     58  C   UNL A   1      46.146  29.205  30.553  1.00  0.00     0.029 A 
ATOM     59  N   UNL A   1      44.447  30.616  30.769  1.00  0.00    -0.354 N 
ATOM     60  N   UNL A   1      41.036  30.427  33.302  1.00  0.00    -0.248 NA
ATOM     61  C   UNL A   1      40.652  32.007  31.627  1.00  0.00     0.031 C 
ATOM     62  C   UNL A   1      45.570  29.075  31.851  1.00  0.00     0.029 A 
ATOM     63  C   UNL A   1      44.454  29.910  31.940  1.00  0.00     0.049 A 
ATOM     64  H   UNL A   1      43.889  31.409  30.597  1.00  0.00     0.167 HD
ATOM     65  C   UNL A   1      42.258  30.774  32.754  1.00  0.00     0.074 A 
ATOM     66  C   UNL A   1      41.966  31.866  31.831  1.00  0.00     0.031 C 
ATOM     67  C   UNL A   1      43.340  29.949  32.869  1.00  0.00     0.031 A 
BRANCH  54  68
ATOM     68  C   UNL A   1      45.018  31.640  27.853  1.00  0.00    -0.014 A 
ATOM     69  C   UNL A   1      46.284  32.175  27.537  1.00  0.00     0.010 A 
ATOM     70  C   UNL A   1      43.927  32.536  27.825  1.00  0.00     0.010 A 
ATOM     71  C   UNL A   1      46.450  33.539  27.252  1.00  0.00     0.020 A 
ATOM     72  C   UNL A   1      44.075  33.887  27.510  1.00  0.00     0.020 A 
ATOM     73  C   UNL A   1      45.343  34.388  27.250  1.00  0.00     0.054 A 
BRANCH  73  74
ATOM     74  S   UNL A   1      45.575  36.159  26.958  1.00  0.00     0.124 S 
ATOM     75  O   UNL A   1      44.204  36.620  26.774  1.00  0.00    -0.237 OA
ATOM     76  O   UNL A   1      46.229  36.591  28.191  1.00  0.00    -0.237 OA
ATOM     77  O   UNL A   1      46.418  36.202  25.765  1.00  0.00    -0.744 OA
ENDBRANCH  73  74
ENDBRANCH  54  68
BRANCH  55  78
ATOM     78  C   UNL A   1      37.567  31.031  32.140  1.00  0.00    -0.014 A 
ATOM     79  C   UNL A   1      36.967  31.509  33.321  1.00  0.00     0.010 A 
ATOM     80  C   UNL A   1      37.061  31.508  30.913  1.00  0.00     0.010 A 
ATOM     81  C   UNL A   1      35.937  32.469  33.274  1.00  0.00     0.020 A 
ATOM     82  C   UNL A   1      36.037  32.462  30.858  1.00  0.00     0.020 A 
ATOM     83  C   UNL A   1      35.491  32.954  32.041  1.00  0.00     0.054 A 
BRANCH  83  84
ATOM     84  S   UNL A   1      34.279  34.311  31.990  1.00  0.00     0.124 S 
ATOM     85  O   UNL A   1      33.838  34.283  30.599  1.00  0.00    -0.237 OA
ATOM     86  O   UNL A   1      33.288  33.890  32.975  1.00  0.00    -0.237 OA
ATOM     87  O   UNL A   1      35.063  35.487  32.366  1.00  0.00    -0.744 OA
ENDBRANCH  83  84
ENDBRANCH  55  78
BRANCH  67  88
ATOM     88  C   UNL A   1      43.332  28.914  33.965  1.00  0.00    -0.014 A 
ATOM     89  C   UNL A   1      43.794  29.126  35.278  1.00  0.00     0.010 A 
ATOM     90  C   UNL A   1      42.701  27.696  33.660  1.00  0.00     0.010 A 
ATOM     91  C   UNL A   1      43.639  28.128  36.255  1.00  0.00     0.020 A 
ATOM     92  C   UNL A   1      42.527  26.710  34.629  1.00  0.00     0.020 A 
ATOM     93  C   UNL A   1      43.004  26.925  35.921  1.00  0.00     0.054 A 
BRANCH  93  94
ATOM     94  S   UNL A   1      42.768  25.646  37.187  1.00  0.00     0.124 S 
ATOM     95  O   UNL A   1      41.372  25.261  36.995  1.00  0.00    -0.237 OA
ATOM     96  O   UNL A   1      43.756  24.636  36.820  1.00  0.00    -0.237 OA
ATOM     97  O   UNL A   1      43.047  26.344  38.443  1.00  0.00    -0.744 OA
ENDBRANCH  93  94
ENDBRANCH  67  88
ENDBRANCH  41  42
ENDBRANCH  34  36
ENDBRANCH  33  34
ENDBRANCH   1  33
TORSDOF 18
ENDMDL
MODEL 2
REMARK VINA RESULT:     -12.9      1.764      2.285
REMARK SMILES COc1cccc(-c2nn(-c3cc4c(cc3C(N)=O)OCO4)cc2C(=O)OCCOC(=O)c2ccc(-c3c4nc(c(-c5ccc(S(=O)(=O)[O-])cc5)c5ccc([nH]5)c(-c5ccc(S(=O)(=O)[O-])cc5)c5nc(c(-c6ccc(S(=O)(=O)[O-])cc6)c6ccc3[nH]6)C=C5)C=C4)cc2)c1
REMARK SMILES IDX 29 1 28 2 27 3 25 4 26 5 24 6 8 7 9 8 10 9 23 10 7 11 3 12
REMARK SMILES IDX 4 13 93 14 5 15 6 16 2 17 1 18 11 19 12 20 16 21 13 22 15 23
REMARK SMILES IDX 14 24 22 25 20 26 21 27 17 28 18 29 19 30 30 33 31 34 32 35
REMARK SMILES IDX 33 36 34 37 92 38 35 39 91 40 36 41 37 42 38 43 85 44 39 45
REMARK SMILES IDX 90 46 84 47 86 48 40 49 89 50 83 51 82 52 41 54 71 55 52 56
REMARK SMILES IDX 70 57 53 58 56 59 69 60 87 61 54 62 55 63 68 65 88 66 57 67
REMARK SMILES IDX 42 68 43 69 51 70 44 71 50 72 45 73 46 74 47 75 48 76 49 77
REMARK SMILES IDX 72 78 73 79 81 80 74 81 80 82 75 83 76 84 77 85 78 86 79 87
REMARK SMILES IDX 58 88 59 89 67 90 60 91 66 92 61 93 62 94 63 95 64 96 65 97
REMARK H PARENT 18 31 18 32 86 53 56 64
REMARK Flexibility Score: inf
ROOT
ATOM      1  C   UNL A   1      38.754  20.523  25.658  1.00  0.00     0.275 C 
ENDROOT
BRANCH   1   2
ATOM      2  C   UNL A   1      37.519  20.647  24.770  1.00  0.00     0.275 C 
BRANCH   2   3
ATOM      3  O   UNL A   1      36.717  21.796  25.095  1.00  0.00    -0.458 OA
BRANCH   3   4
ATOM      4  C   UNL A   1      36.358  22.645  24.079  1.00  0.00     0.342 C 
ATOM      5  O   UNL A   1      37.000  22.784  23.040  1.00  0.00    -0.246 OA
BRANCH   4   6
ATOM      6  C   UNL A   1      35.146  23.380  24.386  1.00  0.00     0.106 A 
ATOM      7  C   UNL A   1      33.768  23.085  24.152  1.00  0.00     0.107 A 
ATOM      8  N   UNL A   1      32.979  24.115  24.522  1.00  0.00    -0.167 NA
ATOM      9  N   UNL A   1      33.856  25.102  24.817  1.00  0.00    -0.239 N 
ATOM     10  C   UNL A   1      35.114  24.609  25.011  1.00  0.00     0.131 A 
BRANCH   7  11
ATOM     11  C   UNL A   1      33.184  21.849  23.640  1.00  0.00     0.007 A 
ATOM     12  C   UNL A   1      32.626  19.500  23.882  1.00  0.00     0.119 A 
ATOM     13  C   UNL A   1      31.938  19.552  22.665  1.00  0.00     0.046 A 
ATOM     14  C   UNL A   1      33.232  20.658  24.382  1.00  0.00     0.056 A 
ATOM     15  C   UNL A   1      31.908  20.724  21.914  1.00  0.00     0.005 A 
ATOM     16  C   UNL A   1      32.559  21.861  22.387  1.00  0.00     0.011 A 
BRANCH  12  17
ATOM     17  O   UNL A   1      32.636  18.258  24.456  1.00  0.00    -0.497 OA
ATOM     18  C   UNL A   1      32.776  18.181  25.866  1.00  0.00     0.278 C 
ENDBRANCH  12  17
ENDBRANCH   7  11
BRANCH   9  19
ATOM     19  C   UNL A   1      33.459  26.453  24.951  1.00  0.00     0.081 A 
ATOM     20  C   UNL A   1      33.210  26.934  26.253  1.00  0.00     0.079 A 
ATOM     21  C   UNL A   1      33.325  27.309  23.815  1.00  0.00     0.069 A 
ATOM     22  C   UNL A   1      32.896  28.269  26.388  1.00  0.00     0.167 A 
ATOM     23  C   UNL A   1      33.121  28.684  24.026  1.00  0.00     0.066 A 
ATOM     24  C   UNL A   1      32.882  29.119  25.309  1.00  0.00     0.166 A 
ATOM     25  O   UNL A   1      32.558  28.909  27.540  1.00  0.00    -0.454 OA
ATOM     26  O   UNL A   1      32.531  30.390  25.647  1.00  0.00    -0.454 OA
ATOM     27  C   UNL A   1      32.128  30.182  27.017  1.00  0.00     0.468 C 
BRANCH  21  28
ATOM     28  C   UNL A   1      33.145  26.772  22.414  1.00  0.00     0.251 C 
ATOM     29  N   UNL A   1      31.987  27.063  21.745  1.00  0.00    -0.366 N 
ATOM     30  O   UNL A   1      33.919  26.010  21.854  1.00  0.00    -0.269 OA
ATOM     31  H   UNL A   1      31.326  27.672  22.147  1.00  0.00     0.159 HD
ATOM     32  H   UNL A   1      31.816  26.664  20.861  1.00  0.00     0.159 HD
ENDBRANCH  21  28
ENDBRANCH   9  19
ENDBRANCH   4   6
ENDBRANCH   3   4
ENDBRANCH   2   3
ENDBRANCH   1   2
BRANCH   1  33
ATOM     33  O   UNL A   1      39.043  21.756  26.309  1.00  0.00    -0.458 OA
BRANCH  33  34
ATOM     34  C   UNL A   1      40.177  21.720  27.041  1.00  0.00     0.338 C 
ATOM     35  O   UNL A   1      40.654  20.757  27.619  1.00  0.00    -0.246 OA
BRANCH  34  36
ATOM     36  C   UNL A   1      40.747  23.057  27.144  1.00  0.00     0.060 A 
ATOM     37  C   UNL A   1      41.768  23.224  28.083  1.00  0.00     0.016 A 
ATOM     38  C   UNL A   1      40.112  24.137  26.522  1.00  0.00     0.016 A 
ATOM     39  C   UNL A   1      42.062  24.492  28.520  1.00  0.00     0.010 A 
ATOM     40  C   UNL A   1      40.395  25.405  26.968  1.00  0.00     0.010 A 
ATOM     41  C   UNL A   1      41.306  25.549  28.016  1.00  0.00    -0.014 A 
BRANCH  41  42
ATOM     42  C   UNL A   1      41.483  26.846  28.630  1.00  0.00     0.031 A 
ATOM     43  C   UNL A   1      42.713  27.534  28.166  1.00  0.00     0.074 A 
ATOM     44  C   UNL A   1      40.523  27.326  29.448  1.00  0.00     0.049 A 
ATOM     45  N   UNL A   1      43.740  27.894  28.861  1.00  0.00    -0.248 NA
ATOM     46  C   UNL A   1      42.903  27.676  26.709  1.00  0.00     0.031 C 
ATOM     47  C   UNL A   1      39.186  26.753  29.673  1.00  0.00     0.029 A 
ATOM     48  N   UNL A   1      40.464  28.489  30.143  1.00  0.00    -0.354 N 
ATOM     49  C   UNL A   1      44.592  28.532  27.960  1.00  0.00     0.074 A 
ATOM     50  C   UNL A   1      44.131  28.187  26.643  1.00  0.00     0.031 C 
ATOM     51  C   UNL A   1      38.377  27.699  30.199  1.00  0.00     0.029 A 
ATOM     52  C   UNL A   1      39.172  28.878  30.487  1.00  0.00     0.049 A 
ATOM     53  H   UNL A   1      41.264  29.012  30.383  1.00  0.00     0.167 HD
ATOM     54  C   UNL A   1      45.402  29.548  28.363  1.00  0.00     0.031 A 
ATOM     55  C   UNL A   1      38.786  30.115  30.891  1.00  0.00     0.031 A 
ATOM     56  C   UNL A   1      45.538  29.565  29.793  1.00  0.00     0.049 A 
ATOM     57  C   UNL A   1      40.012  30.821  31.335  1.00  0.00     0.074 A 
ATOM     58  C   UNL A   1      46.213  28.821  30.735  1.00  0.00     0.029 A 
ATOM     59  N   UNL A   1      44.532  30.241  30.437  1.00  0.00    -0.354 N 
ATOM     60  N   UNL A   1      40.737  30.427  32.347  1.00  0.00    -0.248 NA
ATOM     61  C   UNL A   1      40.678  31.728  30.410  1.00  0.00     0.031 C 
ATOM     62  C   UNL A   1      45.422  28.890  31.919  1.00  0.00     0.029 A 
ATOM     63  C   UNL A   1      44.325  29.723  31.687  1.00  0.00     0.049 A 
ATOM     64  H   UNL A   1      44.029  30.995  30.053  1.00  0.00     0.167 HD
ATOM     65  C   UNL A   1      42.042  30.692  31.971  1.00  0.00     0.074 A 
ATOM     66  C   UNL A   1      41.935  31.627  30.856  1.00  0.00     0.031 C 
ATOM     67  C   UNL A   1      43.070  29.900  32.394  1.00  0.00     0.031 A 
BRANCH  54  68
ATOM     68  C   UNL A   1      45.613  30.805  27.542  1.00  0.00    -0.014 A 
ATOM     69  C   UNL A   1      46.912  31.347  27.450  1.00  0.00     0.010 A 
ATOM     70  C   UNL A   1      44.552  31.630  27.110  1.00  0.00     0.010 A 
ATOM     71  C   UNL A   1      47.127  32.655  26.994  1.00  0.00     0.020 A 
ATOM     72  C   UNL A   1      44.757  32.921  26.622  1.00  0.00     0.020 A 
ATOM     73  C   UNL A   1      46.044  33.437  26.591  1.00  0.00     0.054 A 
BRANCH  73  74
ATOM     74  S   UNL A   1      46.321  35.150  26.077  1.00  0.00     0.124 S 
ATOM     75  O   UNL A   1      47.526  35.501  26.819  1.00  0.00    -0.237 OA
ATOM     76  O   UNL A   1      46.481  35.016  24.631  1.00  0.00    -0.237 OA
ATOM     77  O   UNL A   1      45.102  35.836  26.500  1.00  0.00    -0.744 OA
ENDBRANCH  73  74
ENDBRANCH  54  68
BRANCH  55  78
ATOM     78  C   UNL A   1      37.530  30.828  30.530  1.00  0.00    -0.014 A 
ATOM     79  C   UNL A   1      36.820  31.593  31.476  1.00  0.00     0.010 A 
ATOM     80  C   UNL A   1      37.183  30.987  29.172  1.00  0.00     0.010 A 
ATOM     81  C   UNL A   1      35.839  32.518  31.071  1.00  0.00     0.020 A 
ATOM     82  C   UNL A   1      36.208  31.905  28.762  1.00  0.00     0.020 A 
ATOM     83  C   UNL A   1      35.553  32.682  29.712  1.00  0.00     0.054 A 
BRANCH  83  84
ATOM     84  S   UNL A   1      34.406  33.994  29.185  1.00  0.00     0.124 S 
ATOM     85  O   UNL A   1      33.634  33.329  28.138  1.00  0.00    -0.237 OA
ATOM     86  O   UNL A   1      33.677  34.293  30.412  1.00  0.00    -0.237 OA
ATOM     87  O   UNL A   1      35.292  35.059  28.717  1.00  0.00    -0.744 OA
ENDBRANCH  83  84
ENDBRANCH  55  78
BRANCH  67  88
ATOM     88  C   UNL A   1      42.853  29.047  33.617  1.00  0.00    -0.014 A 
ATOM     89  C   UNL A   1      42.854  29.522  34.943  1.00  0.00     0.010 A 
ATOM     90  C   UNL A   1      42.509  27.705  33.382  1.00  0.00     0.010 A 
ATOM     91  C   UNL A   1      42.531  28.661  36.006  1.00  0.00     0.020 A 
ATOM     92  C   UNL A   1      42.168  26.852  34.430  1.00  0.00     0.020 A 
ATOM     93  C   UNL A   1      42.189  27.329  35.739  1.00  0.00     0.054 A 
BRANCH  93  94
ATOM     94  S   UNL A   1      41.735  26.222  37.104  1.00  0.00     0.124 S 
ATOM     95  O   UNL A   1      41.660  24.920  36.446  1.00  0.00    -0.237 OA
ATOM     96  O   UNL A   1      42.840  26.391  38.043  1.00  0.00    -0.237 OA
ATOM     97  O   UNL A   1      40.452  26.752  37.570  1.00  0.00    -0.744 OA
ENDBRANCH  93  94
ENDBRANCH  67  88
ENDBRANCH  41  42
ENDBRANCH  34  36
ENDBRANCH  33  34
ENDBRANCH   1  33
TORSDOF 18
ENDMDL
MODEL 3
REMARK VINA RESULT:     -12.8      2.741      9.531
REMARK SMILES COc1cccc(-c2nn(-c3cc4c(cc3C(N)=O)OCO4)cc2C(=O)OCCOC(=O)c2ccc(-c3c4nc(c(-c5ccc(S(=O)(=O)[O-])cc5)c5ccc([nH]5)c(-c5ccc(S(=O)(=O)[O-])cc5)c5nc(c(-c6ccc(S(=O)(=O)[O-])cc6)c6ccc3[nH]6)C=C5)C=C4)cc2)c1
REMARK SMILES IDX 29 1 28 2 27 3 25 4 26 5 24 6 8 7 9 8 10 9 23 10 7 11 3 12
REMARK SMILES IDX 4 13 93 14 5 15 6 16 2 17 1 18 11 19 12 20 16 21 13 22 15 23
REMARK SMILES IDX 14 24 22 25 20 26 21 27 17 28 18 29 19 30 30 33 31 34 32 35
REMARK SMILES IDX 33 36 34 37 92 38 35 39 91 40 36 41 37 42 38 43 85 44 39 45
REMARK SMILES IDX 90 46 84 47 86 48 40 49 89 50 83 51 82 52 41 54 71 55 52 56
REMARK SMILES IDX 70 57 53 58 56 59 69 60 87 61 54 62 55 63 68 65 88 66 57 67
REMARK SMILES IDX 42 68 43 69 51 70 44 71 50 72 45 73 46 74 47 75 48 76 49 77
REMARK SMILES IDX 72 78 73 79 81 80 74 81 80 82 75 83 76 84 77 85 78 86 79 87
REMARK SMILES IDX 58 88 59 89 67 90 60 91 66 92 61 93 62 94 63 95 64 96 65 97
REMARK H PARENT 18 31 18 32 86 53 56 64
REMARK Flexibility Score: inf
ROOT
ATOM      1  C   UNL A   1      32.857  30.491  26.598  1.00  0.00     0.275 C 
ENDROOT
BRANCH   1   2
ATOM      2  C   UNL A   1      32.224  29.352  25.803  1.00  0.00     0.275 C 
BRANCH   2   3
ATOM      3  O   UNL A   1      33.193  28.593  25.058  1.00  0.00    -0.458 OA
BRANCH   3   4
ATOM      4  C   UNL A   1      32.934  28.330  23.737  1.00  0.00     0.342 C 
ATOM      5  O   UNL A   1      33.293  29.051  22.809  1.00  0.00    -0.246 OA
BRANCH   4   6
ATOM      6  C   UNL A   1      32.162  27.114  23.565  1.00  0.00     0.106 A 
ATOM      7  C   UNL A   1      30.760  26.891  23.406  1.00  0.00     0.107 A 
ATOM      8  N   UNL A   1      30.477  25.571  23.379  1.00  0.00    -0.167 NA
ATOM      9  N   UNL A   1      31.654  24.983  23.690  1.00  0.00    -0.239 N 
ATOM     10  C   UNL A   1      32.701  25.845  23.528  1.00  0.00     0.131 A 
BRANCH   7  11
ATOM     11  C   UNL A   1      29.702  27.880  23.232  1.00  0.00     0.007 A 
ATOM     12  C   UNL A   1      28.944  30.090  22.574  1.00  0.00     0.119 A 
ATOM     13  C   UNL A   1      27.623  29.688  22.798  1.00  0.00     0.046 A 
ATOM     14  C   UNL A   1      29.985  29.177  22.770  1.00  0.00     0.056 A 
ATOM     15  C   UNL A   1      27.339  28.412  23.279  1.00  0.00     0.005 A 
ATOM     16  C   UNL A   1      28.381  27.522  23.526  1.00  0.00     0.011 A 
BRANCH  12  17
ATOM     17  O   UNL A   1      29.063  31.396  22.185  1.00  0.00    -0.497 OA
ATOM     18  C   UNL A   1      28.401  31.796  20.996  1.00  0.00     0.278 C 
ENDBRANCH  12  17
ENDBRANCH   7  11
BRANCH   9  19
ATOM     19  C   UNL A   1      31.743  23.625  24.078  1.00  0.00     0.081 A 
ATOM     20  C   UNL A   1      31.967  22.671  23.064  1.00  0.00     0.079 A 
ATOM     21  C   UNL A   1      31.624  23.229  25.445  1.00  0.00     0.069 A 
ATOM     22  C   UNL A   1      32.128  21.358  23.452  1.00  0.00     0.167 A 
ATOM     23  C   UNL A   1      31.916  21.897  25.790  1.00  0.00     0.066 A 
ATOM     24  C   UNL A   1      32.130  20.993  24.776  1.00  0.00     0.166 A 
ATOM     25  O   UNL A   1      32.286  20.285  22.631  1.00  0.00    -0.454 OA
ATOM     26  O   UNL A   1      32.285  19.651  24.949  1.00  0.00    -0.454 OA
ATOM     27  C   UNL A   1      32.167  19.207  23.581  1.00  0.00     0.468 C 
BRANCH  21  28
ATOM     28  C   UNL A   1      30.965  24.102  26.487  1.00  0.00     0.251 C 
ATOM     29  N   UNL A   1      29.601  24.219  26.475  1.00  0.00    -0.366 N 
ATOM     30  O   UNL A   1      31.563  24.798  27.294  1.00  0.00    -0.269 OA
ATOM     31  H   UNL A   1      29.066  23.682  25.846  1.00  0.00     0.159 HD
ATOM     32  H   UNL A   1      29.155  24.840  27.097  1.00  0.00     0.159 HD
ENDBRANCH  21  28
ENDBRANCH   9  19
ENDBRANCH   4   6
ENDBRANCH   3   4
ENDBRANCH   2   3
ENDBRANCH   1   2
BRANCH   1  33
ATOM     33  O   UNL A   1      33.845  30.001  27.498  1.00  0.00    -0.458 OA
BRANCH  33  34
ATOM     34  C   UNL A   1      34.508  30.980  28.149  1.00  0.00     0.338 C 
ATOM     35  O   UNL A   1      34.027  31.931  28.743  1.00  0.00    -0.246 OA
BRANCH  34  36
ATOM     36  C   UNL A   1      35.945  30.813  27.970  1.00  0.00     0.060 A 
ATOM     37  C   UNL A   1      36.376  29.541  27.582  1.00  0.00     0.016 A 
ATOM     38  C   UNL A   1      36.826  31.800  28.421  1.00  0.00     0.016 A 
ATOM     39  C   UNL A   1      37.689  29.198  27.787  1.00  0.00     0.010 A 
ATOM     40  C   UNL A   1      38.137  31.455  28.639  1.00  0.00     0.010 A 
ATOM     41  C   UNL A   1      38.523  30.137  28.394  1.00  0.00    -0.014 A 
BRANCH  41  42
ATOM     42  C   UNL A   1      39.842  29.697  28.789  1.00  0.00     0.031 A 
ATOM     43  C   UNL A   1      40.010  29.648  30.262  1.00  0.00     0.074 A 
ATOM     44  C   UNL A   1      40.717  29.301  27.842  1.00  0.00     0.049 A 
ATOM     45  N   UNL A   1      40.830  30.322  30.998  1.00  0.00    -0.248 NA
ATOM     46  C   UNL A   1      39.010  28.884  31.035  1.00  0.00     0.031 C 
ATOM     47  C   UNL A   1      40.437  29.090  26.412  1.00  0.00     0.029 A 
ATOM     48  N   UNL A   1      41.997  28.866  27.956  1.00  0.00    -0.354 N 
ATOM     49  C   UNL A   1      40.612  29.875  32.300  1.00  0.00     0.074 A 
ATOM     50  C   UNL A   1      39.365  29.163  32.289  1.00  0.00     0.031 C 
ATOM     51  C   UNL A   1      41.404  28.312  25.877  1.00  0.00     0.029 A 
ATOM     52  C   UNL A   1      42.436  28.105  26.877  1.00  0.00     0.049 A 
ATOM     53  H   UNL A   1      42.565  29.071  28.734  1.00  0.00     0.167 HD
ATOM     54  C   UNL A   1      41.627  29.845  33.208  1.00  0.00     0.031 A 
ATOM     55  C   UNL A   1      43.524  27.294  26.854  1.00  0.00     0.031 A 
ATOM     56  C   UNL A   1      42.728  30.662  32.780  1.00  0.00     0.049 A 
ATOM     57  C   UNL A   1      44.390  27.712  27.981  1.00  0.00     0.074 A 
ATOM     58  C   UNL A   1      42.996  32.010  32.713  1.00  0.00     0.029 A 
ATOM     59  N   UNL A   1      43.597  30.021  31.933  1.00  0.00    -0.354 N 
ATOM     60  N   UNL A   1      44.943  28.892  28.060  1.00  0.00    -0.248 NA
ATOM     61  C   UNL A   1      44.319  26.975  29.237  1.00  0.00     0.031 C 
ATOM     62  C   UNL A   1      43.891  32.171  31.615  1.00  0.00     0.029 A 
ATOM     63  C   UNL A   1      44.194  30.914  31.086  1.00  0.00     0.049 A 
ATOM     64  H   UNL A   1      43.767  29.051  31.935  1.00  0.00     0.167 HD
ATOM     65  C   UNL A   1      44.906  29.211  29.406  1.00  0.00     0.074 A 
ATOM     66  C   UNL A   1      44.664  27.945  30.091  1.00  0.00     0.031 C 
ATOM     67  C   UNL A   1      44.772  30.505  29.820  1.00  0.00     0.031 A 
BRANCH  54  68
ATOM     68  C   UNL A   1      41.834  28.690  34.168  1.00  0.00    -0.014 A 
ATOM     69  C   UNL A   1      41.859  28.954  35.553  1.00  0.00     0.010 A 
ATOM     70  C   UNL A   1      42.299  27.421  33.758  1.00  0.00     0.010 A 
ATOM     71  C   UNL A   1      42.362  28.016  36.467  1.00  0.00     0.020 A 
ATOM     72  C   UNL A   1      42.770  26.468  34.661  1.00  0.00     0.020 A 
ATOM     73  C   UNL A   1      42.823  26.781  36.011  1.00  0.00     0.054 A 
BRANCH  73  74
ATOM     74  S   UNL A   1      43.542  25.606  37.186  1.00  0.00     0.124 S 
ATOM     75  O   UNL A   1      43.069  26.124  38.464  1.00  0.00    -0.237 OA
ATOM     76  O   UNL A   1      42.952  24.341  36.756  1.00  0.00    -0.237 OA
ATOM     77  O   UNL A   1      44.979  25.726  36.954  1.00  0.00    -0.744 OA
ENDBRANCH  73  74
ENDBRANCH  54  68
BRANCH  55  78
ATOM     78  C   UNL A   1      43.642  25.964  26.195  1.00  0.00    -0.014 A 
ATOM     79  C   UNL A   1      44.758  25.631  25.404  1.00  0.00     0.010 A 
ATOM     80  C   UNL A   1      42.780  24.916  26.581  1.00  0.00     0.010 A 
ATOM     81  C   UNL A   1      45.029  24.293  25.060  1.00  0.00     0.020 A 
ATOM     82  C   UNL A   1      43.044  23.582  26.242  1.00  0.00     0.020 A 
ATOM     83  C   UNL A   1      44.179  23.273  25.498  1.00  0.00     0.054 A 
BRANCH  83  84
ATOM     84  S   UNL A   1      44.623  21.535  25.192  1.00  0.00     0.124 S 
ATOM     85  O   UNL A   1      43.579  20.815  25.916  1.00  0.00    -0.237 OA
ATOM     86  O   UNL A   1      44.560  21.441  23.737  1.00  0.00    -0.237 OA
ATOM     87  O   UNL A   1      45.964  21.416  25.761  1.00  0.00    -0.744 OA
ENDBRANCH  83  84
ENDBRANCH  55  78
BRANCH  67  88
ATOM     88  C   UNL A   1      45.130  31.601  28.850  1.00  0.00    -0.014 A 
ATOM     89  C   UNL A   1      46.436  32.066  28.603  1.00  0.00     0.010 A 
ATOM     90  C   UNL A   1      44.078  32.097  28.060  1.00  0.00     0.010 A 
ATOM     91  C   UNL A   1      46.674  33.017  27.597  1.00  0.00     0.020 A 
ATOM     92  C   UNL A   1      44.310  33.025  27.048  1.00  0.00     0.020 A 
ATOM     93  C   UNL A   1      45.605  33.490  26.825  1.00  0.00     0.054 A 
BRANCH  93  94
ATOM     94  S   UNL A   1      45.910  34.692  25.499  1.00  0.00     0.124 S 
ATOM     95  O   UNL A   1      45.046  34.207  24.425  1.00  0.00    -0.237 OA
ATOM     96  O   UNL A   1      45.509  35.957  26.107  1.00  0.00    -0.237 OA
ATOM     97  O   UNL A   1      47.345  34.567  25.240  1.00  0.00    -0.744 OA
ENDBRANCH  93  94
ENDBRANCH  67  88
ENDBRANCH  41  42
ENDBRANCH  34  36
ENDBRANCH  33  34
ENDBRANCH   1  33
TORSDOF 18
ENDMDL
