MODEL 1
REMARK VINA RESULT:     -12.7      0.000      0.000
REMARK SMILES Cc1ccc(Nc2c(F)cccc2Cl)c(CC(=O)OCCOC(=O)c2ccc(-c3c4nc(c(-c5ccc(S(=O)(=O)[O-])cc5)c5ccc([nH]5)c(-c5ccc(S(=O)(=O)[O-])cc5)c5nc(c(-c6ccc(S(=O)(=O)[O-])cc6)c6ccc3[nH]6)C=C5)C=C4)cc2)c1
REMARK SMILES IDX 20 1 19 2 17 3 18 4 16 5 15 6 1 7 2 8 3 9 85 10 4 11 5 12
REMARK SMILES IDX 6 13 7 15 8 16 13 17 9 18 10 19 12 20 14 21 11 22 21 23
REMARK SMILES IDX 22 24 23 25 24 26 25 27 26 28 84 29 27 30 83 31 28 32 29 33
REMARK SMILES IDX 30 34 77 35 31 36 82 37 76 38 78 39 32 40 81 41 75 42 74 43
REMARK SMILES IDX 33 45 63 46 44 47 62 48 45 49 48 50 61 51 79 52 46 53 47 54
REMARK SMILES IDX 60 56 80 57 49 58 34 59 35 60 43 61 36 62 42 63 37 64 38 65
REMARK SMILES IDX 39 66 40 67 41 68 64 69 65 70 73 71 66 72 72 73 67 74 68 75
REMARK SMILES IDX 69 76 70 77 71 78 50 79 51 80 59 81 52 82 58 83 53 84 54 85
REMARK SMILES IDX 55 86 56 87 57 88
REMARK H PARENT 6 14 78 44 48 55
REMARK Flexibility Score: inf
ROOT
ATOM      1  C   UNL A   1      34.782  24.939  24.955  1.00  0.00     0.274 C 
ENDROOT
BRANCH   1   2
ATOM      2  O   UNL A   1      34.085  25.418  23.806  1.00  0.00    -0.462 OA
BRANCH   2   3
ATOM      3  C   UNL A   1      33.106  26.310  24.068  1.00  0.00     0.310 C 
ATOM      4  O   UNL A   1      32.077  26.035  24.676  1.00  0.00    -0.252 OA
BRANCH   3   5
ATOM      5  C   UNL A   1      33.501  27.655  23.492  1.00  0.00     0.160 C 
BRANCH   5   6
ATOM      6  C   UNL A   1      33.129  28.768  24.435  1.00  0.00    -0.013 A 
ATOM      7  C   UNL A   1      34.293  29.588  27.934  1.00  0.00     0.044 C 
ATOM      8  C   UNL A   1      33.508  29.640  26.662  1.00  0.00    -0.051 A 
ATOM      9  C   UNL A   1      32.279  30.297  26.583  1.00  0.00     0.005 A 
ATOM     10  C   UNL A   1      33.936  28.891  25.574  1.00  0.00     0.009 A 
ATOM     11  C   UNL A   1      31.508  30.242  25.415  1.00  0.00     0.026 A 
ATOM     12  C   UNL A   1      31.924  29.503  24.306  1.00  0.00     0.042 A 
BRANCH  12  13
ATOM     13  N   UNL A   1      31.085  29.338  23.188  1.00  0.00    -0.352 N 
ATOM     14  H   UNL A   1      31.556  29.358  22.323  1.00  0.00     0.167 HD
BRANCH  13  15
ATOM     15  C   UNL A   1      29.681  29.148  23.079  1.00  0.00     0.094 A 
ATOM     16  C   UNL A   1      29.119  27.869  23.178  1.00  0.00     0.148 A 
ATOM     17  C   UNL A   1      28.796  30.239  23.154  1.00  0.00     0.067 A 
ATOM     18  F   UNL A   1      29.900  26.779  23.126  1.00  0.00    -0.205 F 
ATOM     19  C   UNL A   1      27.743  27.679  23.336  1.00  0.00     0.041 A 
ATOM     20  C   UNL A   1      27.424  30.059  23.376  1.00  0.00     0.023 A 
ATOM     21  Cl  UNL A   1      29.324  31.853  22.833  1.00  0.00    -0.082 Cl
ATOM     22  C   UNL A   1      26.895  28.776  23.464  1.00  0.00     0.005 A 
ENDBRANCH  13  15
ENDBRANCH  12  13
ENDBRANCH   5   6
ENDBRANCH   3   5
ENDBRANCH   2   3
ENDBRANCH   1   2
BRANCH   1  23
ATOM     23  C   UNL A   1      35.249  23.474  24.777  1.00  0.00     0.275 C 
BRANCH  23  24
ATOM     24  O   UNL A   1      36.684  23.245  24.539  1.00  0.00    -0.458 OA
BRANCH  24  25
ATOM     25  C   UNL A   1      37.618  22.392  25.071  1.00  0.00     0.338 C 
ATOM     26  O   UNL A   1      38.021  21.444  24.399  1.00  0.00    -0.246 OA
BRANCH  25  27
ATOM     27  C   UNL A   1      38.450  22.849  26.203  1.00  0.00     0.060 A 
ATOM     28  C   UNL A   1      39.601  22.157  26.632  1.00  0.00     0.016 A 
ATOM     29  C   UNL A   1      38.257  24.129  26.631  1.00  0.00     0.016 A 
ATOM     30  C   UNL A   1      40.572  22.845  27.374  1.00  0.00     0.010 A 
ATOM     31  C   UNL A   1      39.362  24.873  26.886  1.00  0.00     0.010 A 
ATOM     32  C   UNL A   1      40.445  24.232  27.457  1.00  0.00    -0.014 A 
BRANCH  32  33
ATOM     33  C   UNL A   1      41.123  25.151  28.357  1.00  0.00     0.031 A 
ATOM     34  C   UNL A   1      40.407  26.283  28.940  1.00  0.00     0.074 A 
ATOM     35  C   UNL A   1      42.380  24.770  28.713  1.00  0.00     0.049 A 
ATOM     36  N   UNL A   1      40.759  27.516  28.820  1.00  0.00    -0.248 NA
ATOM     37  C   UNL A   1      39.198  26.086  29.747  1.00  0.00     0.031 C 
ATOM     38  C   UNL A   1      43.319  25.355  29.645  1.00  0.00     0.029 A 
ATOM     39  N   UNL A   1      43.122  23.695  28.189  1.00  0.00    -0.354 N 
ATOM     40  C   UNL A   1      40.103  28.171  29.842  1.00  0.00     0.074 A 
ATOM     41  C   UNL A   1      38.997  27.319  30.230  1.00  0.00     0.031 C 
ATOM     42  C   UNL A   1      44.555  24.905  29.327  1.00  0.00     0.029 A 
ATOM     43  C   UNL A   1      44.456  24.046  28.147  1.00  0.00     0.049 A 
ATOM     44  H   UNL A   1      42.749  22.831  27.899  1.00  0.00     0.167 HD
ATOM     45  C   UNL A   1      40.736  29.139  30.565  1.00  0.00     0.031 A 
ATOM     46  C   UNL A   1      45.031  24.213  26.917  1.00  0.00     0.031 A 
ATOM     47  C   UNL A   1      42.172  29.141  30.272  1.00  0.00     0.049 A 
ATOM     48  C   UNL A   1      45.190  25.688  26.627  1.00  0.00     0.074 A 
ATOM     49  C   UNL A   1      43.251  28.642  30.987  1.00  0.00     0.029 A 
ATOM     50  N   UNL A   1      42.629  29.338  28.972  1.00  0.00    -0.354 N 
ATOM     51  N   UNL A   1      44.582  26.617  27.313  1.00  0.00    -0.248 NA
ATOM     52  C   UNL A   1      46.060  26.244  25.597  1.00  0.00     0.031 C 
ATOM     53  C   UNL A   1      44.334  28.462  30.087  1.00  0.00     0.029 A 
ATOM     54  C   UNL A   1      43.921  28.859  28.828  1.00  0.00     0.049 A 
ATOM     55  H   UNL A   1      42.106  29.761  28.254  1.00  0.00     0.167 HD
ATOM     56  C   UNL A   1      45.016  27.849  26.923  1.00  0.00     0.074 A 
ATOM     57  C   UNL A   1      45.932  27.564  25.829  1.00  0.00     0.031 C 
ATOM     58  C   UNL A   1      44.616  28.992  27.552  1.00  0.00     0.031 A 
BRANCH  45  59
ATOM     59  C   UNL A   1      40.116  29.758  31.799  1.00  0.00    -0.014 A 
ATOM     60  C   UNL A   1      40.749  29.654  33.053  1.00  0.00     0.010 A 
ATOM     61  C   UNL A   1      38.915  30.500  31.758  1.00  0.00     0.010 A 
ATOM     62  C   UNL A   1      40.190  30.200  34.217  1.00  0.00     0.020 A 
ATOM     63  C   UNL A   1      38.333  31.035  32.922  1.00  0.00     0.020 A 
ATOM     64  C   UNL A   1      38.979  30.883  34.147  1.00  0.00     0.054 A 
BRANCH  64  65
ATOM     65  S   UNL A   1      38.284  31.579  35.671  1.00  0.00     0.124 S 
ATOM     66  O   UNL A   1      39.391  32.380  36.187  1.00  0.00    -0.237 OA
ATOM     67  O   UNL A   1      37.139  32.337  35.173  1.00  0.00    -0.237 OA
ATOM     68  O   UNL A   1      37.950  30.402  36.471  1.00  0.00    -0.744 OA
ENDBRANCH  64  65
ENDBRANCH  45  59
BRANCH  46  69
ATOM     69  C   UNL A   1      44.735  23.110  25.930  1.00  0.00    -0.014 A 
ATOM     70  C   UNL A   1      45.832  22.652  25.163  1.00  0.00     0.010 A 
ATOM     71  C   UNL A   1      43.599  22.277  26.000  1.00  0.00     0.010 A 
ATOM     72  C   UNL A   1      45.868  21.356  24.629  1.00  0.00     0.020 A 
ATOM     73  C   UNL A   1      43.624  20.976  25.445  1.00  0.00     0.020 A 
ATOM     74  C   UNL A   1      44.786  20.505  24.826  1.00  0.00     0.054 A 
BRANCH  74  75
ATOM     75  S   UNL A   1      45.041  18.731  24.487  1.00  0.00     0.124 S 
ATOM     76  O   UNL A   1      43.929  18.105  25.194  1.00  0.00    -0.237 OA
ATOM     77  O   UNL A   1      44.968  18.697  23.027  1.00  0.00    -0.237 OA
ATOM     78  O   UNL A   1      46.365  18.469  25.034  1.00  0.00    -0.744 OA
ENDBRANCH  74  75
ENDBRANCH  46  69
BRANCH  58  79
ATOM     79  C   UNL A   1      44.933  30.389  27.099  1.00  0.00    -0.014 A 
ATOM     80  C   UNL A   1      43.976  31.293  26.625  1.00  0.00     0.010 A 
ATOM     81  C   UNL A   1      46.253  30.872  27.285  1.00  0.00     0.010 A 
ATOM     82  C   UNL A   1      44.334  32.602  26.288  1.00  0.00     0.020 A 
ATOM     83  C   UNL A   1      46.606  32.189  27.008  1.00  0.00     0.020 A 
ATOM     84  C   UNL A   1      45.647  33.040  26.481  1.00  0.00     0.054 A 
BRANCH  84  85
ATOM     85  S   UNL A   1      46.085  34.749  26.099  1.00  0.00     0.124 S 
ATOM     86  O   UNL A   1      44.839  35.253  25.527  1.00  0.00    -0.237 OA
ATOM     87  O   UNL A   1      46.441  35.295  27.407  1.00  0.00    -0.237 OA
ATOM     88  O   UNL A   1      47.198  34.616  25.164  1.00  0.00    -0.744 OA
ENDBRANCH  84  85
ENDBRANCH  58  79
ENDBRANCH  32  33
ENDBRANCH  25  27
ENDBRANCH  24  25
ENDBRANCH  23  24
ENDBRANCH   1  23
TORSDOF 17
ENDMDL
MODEL 2
REMARK VINA RESULT:     -12.6      3.987      6.146
REMARK SMILES Cc1ccc(Nc2c(F)cccc2Cl)c(CC(=O)OCCOC(=O)c2ccc(-c3c4nc(c(-c5ccc(S(=O)(=O)[O-])cc5)c5ccc([nH]5)c(-c5ccc(S(=O)(=O)[O-])cc5)c5nc(c(-c6ccc(S(=O)(=O)[O-])cc6)c6ccc3[nH]6)C=C5)C=C4)cc2)c1
REMARK SMILES IDX 20 1 19 2 17 3 18 4 16 5 15 6 1 7 2 8 3 9 85 10 4 11 5 12
REMARK SMILES IDX 6 13 7 15 8 16 13 17 9 18 10 19 12 20 14 21 11 22 21 23
REMARK SMILES IDX 22 24 23 25 24 26 25 27 26 28 84 29 27 30 83 31 28 32 29 33
REMARK SMILES IDX 30 34 77 35 31 36 82 37 76 38 78 39 32 40 81 41 75 42 74 43
REMARK SMILES IDX 33 45 63 46 44 47 62 48 45 49 48 50 61 51 79 52 46 53 47 54
REMARK SMILES IDX 60 56 80 57 49 58 34 59 35 60 43 61 36 62 42 63 37 64 38 65
REMARK SMILES IDX 39 66 40 67 41 68 64 69 65 70 73 71 66 72 72 73 67 74 68 75
REMARK SMILES IDX 69 76 70 77 71 78 50 79 51 80 59 81 52 82 58 83 53 84 54 85
REMARK SMILES IDX 55 86 56 87 57 88
REMARK H PARENT 6 14 78 44 48 55
REMARK Flexibility Score: inf
ROOT
ATOM      1  C   UNL A   1      35.956  23.358  25.867  1.00  0.00     0.274 C 
ENDROOT
BRANCH   1   2
ATOM      2  O   UNL A   1      36.419  22.386  24.930  1.00  0.00    -0.462 OA
BRANCH   2   3
ATOM      3  C   UNL A   1      36.073  21.113  25.217  1.00  0.00     0.310 C 
ATOM      4  O   UNL A   1      36.777  20.140  24.962  1.00  0.00    -0.252 OA
BRANCH   3   5
ATOM      5  C   UNL A   1      34.710  21.112  25.880  1.00  0.00     0.160 C 
BRANCH   5   6
ATOM      6  C   UNL A   1      33.643  20.702  24.902  1.00  0.00    -0.013 A 
ATOM      7  C   UNL A   1      32.855  17.374  23.297  1.00  0.00     0.044 C 
ATOM      8  C   UNL A   1      32.810  18.838  23.599  1.00  0.00    -0.051 A 
ATOM      9  C   UNL A   1      32.215  19.751  22.726  1.00  0.00     0.005 A 
ATOM     10  C   UNL A   1      33.508  19.322  24.697  1.00  0.00     0.009 A 
ATOM     11  C   UNL A   1      32.279  21.128  22.974  1.00  0.00     0.026 A 
ATOM     12  C   UNL A   1      32.966  21.635  24.077  1.00  0.00     0.042 A 
BRANCH  12  13
ATOM     13  N   UNL A   1      33.145  23.021  24.246  1.00  0.00    -0.352 N 
ATOM     14  H   UNL A   1      34.080  23.320  24.165  1.00  0.00     0.167 HD
BRANCH  13  15
ATOM     15  C   UNL A   1      32.223  24.068  24.513  1.00  0.00     0.094 A 
ATOM     16  C   UNL A   1      31.726  24.871  23.478  1.00  0.00     0.148 A 
ATOM     17  C   UNL A   1      31.566  24.154  25.755  1.00  0.00     0.067 A 
ATOM     18  F   UNL A   1      32.293  24.836  22.262  1.00  0.00    -0.205 F 
ATOM     19  C   UNL A   1      30.635  25.725  23.666  1.00  0.00     0.041 A 
ATOM     20  C   UNL A   1      30.433  24.960  25.933  1.00  0.00     0.023 A 
ATOM     21  Cl  UNL A   1      32.201  23.387  27.166  1.00  0.00    -0.082 Cl
ATOM     22  C   UNL A   1      29.968  25.750  24.887  1.00  0.00     0.005 A 
ENDBRANCH  13  15
ENDBRANCH  12  13
ENDBRANCH   5   6
ENDBRANCH   3   5
ENDBRANCH   2   3
ENDBRANCH   1   2
BRANCH   1  23
ATOM     23  C   UNL A   1      37.064  24.369  26.245  1.00  0.00     0.275 C 
BRANCH  23  24
ATOM     24  O   UNL A   1      38.458  23.898  26.193  1.00  0.00    -0.458 OA
BRANCH  24  25
ATOM     25  C   UNL A   1      39.532  23.992  27.041  1.00  0.00     0.338 C 
ATOM     26  O   UNL A   1      40.370  23.091  27.057  1.00  0.00    -0.246 OA
BRANCH  25  27
ATOM     27  C   UNL A   1      39.922  25.316  27.568  1.00  0.00     0.060 A 
ATOM     28  C   UNL A   1      40.274  26.397  26.734  1.00  0.00     0.016 A 
ATOM     29  C   UNL A   1      39.632  25.566  28.877  1.00  0.00     0.016 A 
ATOM     30  C   UNL A   1      40.189  27.702  27.237  1.00  0.00     0.010 A 
ATOM     31  C   UNL A   1      39.093  26.775  29.175  1.00  0.00     0.010 A 
ATOM     32  C   UNL A   1      39.550  27.870  28.467  1.00  0.00    -0.014 A 
BRANCH  32  33
ATOM     33  C   UNL A   1      39.557  29.033  29.339  1.00  0.00     0.031 A 
ATOM     34  C   UNL A   1      38.547  30.079  29.190  1.00  0.00     0.074 A 
ATOM     35  C   UNL A   1      40.453  28.969  30.361  1.00  0.00     0.049 A 
ATOM     36  N   UNL A   1      38.803  31.323  28.977  1.00  0.00    -0.248 NA
ATOM     37  C   UNL A   1      37.116  29.775  29.293  1.00  0.00     0.031 C 
ATOM     38  C   UNL A   1      40.691  29.867  31.471  1.00  0.00     0.029 A 
ATOM     39  N   UNL A   1      41.449  27.994  30.558  1.00  0.00    -0.354 N 
ATOM     40  C   UNL A   1      37.647  31.987  29.336  1.00  0.00     0.074 A 
ATOM     41  C   UNL A   1      36.584  31.004  29.299  1.00  0.00     0.031 C 
ATOM     42  C   UNL A   1      41.937  29.626  31.940  1.00  0.00     0.029 A 
ATOM     43  C   UNL A   1      42.561  28.590  31.116  1.00  0.00     0.049 A 
ATOM     44  H   UNL A   1      41.365  27.038  30.334  1.00  0.00     0.167 HD
ATOM     45  C   UNL A   1      37.708  33.161  30.026  1.00  0.00     0.031 A 
ATOM     46  C   UNL A   1      43.690  28.674  30.348  1.00  0.00     0.031 A 
ATOM     47  C   UNL A   1      39.070  33.401  30.511  1.00  0.00     0.049 A 
ATOM     48  C   UNL A   1      43.853  30.087  29.838  1.00  0.00     0.074 A 
ATOM     49  C   UNL A   1      39.634  33.243  31.768  1.00  0.00     0.029 A 
ATOM     50  N   UNL A   1      40.135  33.480  29.618  1.00  0.00    -0.354 N 
ATOM     51  N   UNL A   1      42.897  30.973  29.879  1.00  0.00    -0.248 NA
ATOM     52  C   UNL A   1      45.090  30.637  29.294  1.00  0.00     0.031 C 
ATOM     53  C   UNL A   1      41.042  33.143  31.614  1.00  0.00     0.029 A 
ATOM     54  C   UNL A   1      41.338  33.249  30.267  1.00  0.00     0.049 A 
ATOM     55  H   UNL A   1      40.047  33.673  28.657  1.00  0.00     0.167 HD
ATOM     56  C   UNL A   1      43.366  32.191  29.482  1.00  0.00     0.074 A 
ATOM     57  C   UNL A   1      44.747  31.926  29.108  1.00  0.00     0.031 C 
ATOM     58  C   UNL A   1      42.595  33.316  29.530  1.00  0.00     0.031 A 
BRANCH  45  59
ATOM     59  C   UNL A   1      36.472  33.830  30.588  1.00  0.00    -0.014 A 
ATOM     60  C   UNL A   1      35.397  34.180  29.749  1.00  0.00     0.010 A 
ATOM     61  C   UNL A   1      36.310  34.097  31.965  1.00  0.00     0.010 A 
ATOM     62  C   UNL A   1      34.249  34.819  30.236  1.00  0.00     0.020 A 
ATOM     63  C   UNL A   1      35.171  34.755  32.465  1.00  0.00     0.020 A 
ATOM     64  C   UNL A   1      34.144  35.111  31.593  1.00  0.00     0.054 A 
BRANCH  64  65
ATOM     65  S   UNL A   1      32.644  35.936  32.193  1.00  0.00     0.124 S 
ATOM     66  O   UNL A   1      33.168  36.855  33.199  1.00  0.00    -0.237 OA
ATOM     67  O   UNL A   1      32.127  36.561  30.979  1.00  0.00    -0.237 OA
ATOM     68  O   UNL A   1      31.833  34.841  32.722  1.00  0.00    -0.744 OA
ENDBRANCH  64  65
ENDBRANCH  45  59
BRANCH  46  69
ATOM     69  C   UNL A   1      44.065  27.394  29.642  1.00  0.00    -0.014 A 
ATOM     70  C   UNL A   1      43.571  27.243  28.325  1.00  0.00     0.010 A 
ATOM     71  C   UNL A   1      45.142  26.570  30.029  1.00  0.00     0.010 A 
ATOM     72  C   UNL A   1      44.220  26.433  27.382  1.00  0.00     0.020 A 
ATOM     73  C   UNL A   1      45.787  25.735  29.087  1.00  0.00     0.020 A 
ATOM     74  C   UNL A   1      45.362  25.731  27.754  1.00  0.00     0.054 A 
BRANCH  74  75
ATOM     75  S   UNL A   1      46.395  25.040  26.419  1.00  0.00     0.124 S 
ATOM     76  O   UNL A   1      46.810  23.753  26.967  1.00  0.00    -0.237 OA
ATOM     77  O   UNL A   1      45.442  24.984  25.311  1.00  0.00    -0.237 OA
ATOM     78  O   UNL A   1      47.451  26.030  26.262  1.00  0.00    -0.744 OA
ENDBRANCH  74  75
ENDBRANCH  46  69
BRANCH  58  79
ATOM     79  C   UNL A   1      42.987  34.660  28.984  1.00  0.00    -0.014 A 
ATOM     80  C   UNL A   1      43.037  34.964  27.618  1.00  0.00     0.010 A 
ATOM     81  C   UNL A   1      43.187  35.725  29.898  1.00  0.00     0.010 A 
ATOM     82  C   UNL A   1      43.340  36.258  27.185  1.00  0.00     0.020 A 
ATOM     83  C   UNL A   1      43.432  37.027  29.477  1.00  0.00     0.020 A 
ATOM     84  C   UNL A   1      43.537  37.280  28.118  1.00  0.00     0.054 A 
BRANCH  84  85
ATOM     85  S   UNL A   1      43.868  38.960  27.546  1.00  0.00     0.124 S 
ATOM     86  O   UNL A   1      43.766  39.721  28.789  1.00  0.00    -0.237 OA
ATOM     87  O   UNL A   1      45.213  38.855  26.984  1.00  0.00    -0.237 OA
ATOM     88  O   UNL A   1      42.810  39.204  26.570  1.00  0.00    -0.744 OA
ENDBRANCH  84  85
ENDBRANCH  58  79
ENDBRANCH  32  33
ENDBRANCH  25  27
ENDBRANCH  24  25
ENDBRANCH  23  24
ENDBRANCH   1  23
TORSDOF 17
ENDMDL
MODEL 3
REMARK VINA RESULT:     -12.4      4.021      6.404
REMARK SMILES Cc1ccc(Nc2c(F)cccc2Cl)c(CC(=O)OCCOC(=O)c2ccc(-c3c4nc(c(-c5ccc(S(=O)(=O)[O-])cc5)c5ccc([nH]5)c(-c5ccc(S(=O)(=O)[O-])cc5)c5nc(c(-c6ccc(S(=O)(=O)[O-])cc6)c6ccc3[nH]6)C=C5)C=C4)cc2)c1
REMARK SMILES IDX 20 1 19 2 17 3 18 4 16 5 15 6 1 7 2 8 3 9 85 10 4 11 5 12
REMARK SMILES IDX 6 13 7 15 8 16 13 17 9 18 10 19 12 20 14 21 11 22 21 23
REMARK SMILES IDX 22 24 23 25 24 26 25 27 26 28 84 29 27 30 83 31 28 32 29 33
REMARK SMILES IDX 30 34 77 35 31 36 82 37 76 38 78 39 32 40 81 41 75 42 74 43
REMARK SMILES IDX 33 45 63 46 44 47 62 48 45 49 48 50 61 51 79 52 46 53 47 54
REMARK SMILES IDX 60 56 80 57 49 58 34 59 35 60 43 61 36 62 42 63 37 64 38 65
REMARK SMILES IDX 39 66 40 67 41 68 64 69 65 70 73 71 66 72 72 73 67 74 68 75
REMARK SMILES IDX 69 76 70 77 71 78 50 79 51 80 59 81 52 82 58 83 53 84 54 85
REMARK SMILES IDX 55 86 56 87 57 88
REMARK H PARENT 6 14 78 44 48 55
REMARK Flexibility Score: inf
ROOT
ATOM      1  C   UNL A   1      38.516  22.054  25.764  1.00  0.00     0.274 C 
ENDROOT
BRANCH   1   2
ATOM      2  O   UNL A   1      37.170  22.220  26.205  1.00  0.00    -0.462 OA
BRANCH   2   3
ATOM      3  C   UNL A   1      36.437  23.085  25.473  1.00  0.00     0.310 C 
ATOM      4  O   UNL A   1      36.301  24.272  25.754  1.00  0.00    -0.252 OA
BRANCH   3   5
ATOM      5  C   UNL A   1      35.837  22.345  24.294  1.00  0.00     0.160 C 
BRANCH   5   6
ATOM      6  C   UNL A   1      34.569  21.641  24.698  1.00  0.00    -0.013 A 
ATOM      7  C   UNL A   1      33.475  18.043  24.347  1.00  0.00     0.044 C 
ATOM      8  C   UNL A   1      33.423  19.509  24.637  1.00  0.00    -0.051 A 
ATOM      9  C   UNL A   1      32.211  20.188  24.778  1.00  0.00     0.005 A 
ATOM     10  C   UNL A   1      34.602  20.242  24.617  1.00  0.00     0.009 A 
ATOM     11  C   UNL A   1      32.183  21.579  24.941  1.00  0.00     0.026 A 
ATOM     12  C   UNL A   1      33.356  22.334  24.934  1.00  0.00     0.042 A 
BRANCH  12  13
ATOM     13  N   UNL A   1      33.313  23.742  24.959  1.00  0.00    -0.352 N 
ATOM     14  H   UNL A   1      33.689  24.142  25.777  1.00  0.00     0.167 HD
BRANCH  13  15
ATOM     15  C   UNL A   1      32.827  24.690  24.020  1.00  0.00     0.094 A 
ATOM     16  C   UNL A   1      33.087  24.545  22.652  1.00  0.00     0.148 A 
ATOM     17  C   UNL A   1      31.846  25.631  24.384  1.00  0.00     0.067 A 
ATOM     18  F   UNL A   1      34.002  23.660  22.226  1.00  0.00    -0.205 F 
ATOM     19  C   UNL A   1      32.414  25.303  21.688  1.00  0.00     0.041 A 
ATOM     20  C   UNL A   1      31.122  26.348  23.422  1.00  0.00     0.023 A 
ATOM     21  Cl  UNL A   1      31.579  26.062  26.036  1.00  0.00    -0.082 Cl
ATOM     22  C   UNL A   1      31.409  26.186  22.071  1.00  0.00     0.005 A 
ENDBRANCH  13  15
ENDBRANCH  12  13
ENDBRANCH   5   6
ENDBRANCH   3   5
ENDBRANCH   2   3
ENDBRANCH   1   2
BRANCH   1  23
ATOM     23  C   UNL A   1      39.500  22.941  26.565  1.00  0.00     0.275 C 
BRANCH  23  24
ATOM     24  O   UNL A   1      39.630  24.349  26.154  1.00  0.00    -0.458 OA
BRANCH  24  25
ATOM     25  C   UNL A   1      40.445  25.385  26.535  1.00  0.00     0.338 C 
ATOM     26  O   UNL A   1      41.421  25.671  25.844  1.00  0.00    -0.246 OA
BRANCH  25  27
ATOM     27  C   UNL A   1      39.923  26.409  27.463  1.00  0.00     0.060 A 
ATOM     28  C   UNL A   1      39.338  26.088  28.705  1.00  0.00     0.016 A 
ATOM     29  C   UNL A   1      40.301  27.699  27.232  1.00  0.00     0.016 A 
ATOM     30  C   UNL A   1      39.284  27.067  29.707  1.00  0.00     0.010 A 
ATOM     31  C   UNL A   1      40.687  28.436  28.303  1.00  0.00     0.010 A 
ATOM     32  C   UNL A   1      40.010  28.239  29.491  1.00  0.00    -0.014 A 
BRANCH  32  33
ATOM     33  C   UNL A   1      39.922  29.503  30.205  1.00  0.00     0.031 A 
ATOM     34  C   UNL A   1      38.816  30.424  29.950  1.00  0.00     0.074 A 
ATOM     35  C   UNL A   1      40.835  29.654  31.203  1.00  0.00     0.049 A 
ATOM     36  N   UNL A   1      38.951  31.647  29.572  1.00  0.00    -0.248 NA
ATOM     37  C   UNL A   1      37.421  30.008  30.130  1.00  0.00     0.031 C 
ATOM     38  C   UNL A   1      41.005  30.707  32.180  1.00  0.00     0.029 A 
ATOM     39  N   UNL A   1      41.920  28.807  31.496  1.00  0.00    -0.354 N 
ATOM     40  C   UNL A   1      37.744  32.245  29.873  1.00  0.00     0.074 A 
ATOM     41  C   UNL A   1      36.777  31.174  29.992  1.00  0.00     0.031 C 
ATOM     42  C   UNL A   1      42.274  30.644  32.643  1.00  0.00     0.029 A 
ATOM     43  C   UNL A   1      42.980  29.570  31.942  1.00  0.00     0.049 A 
ATOM     44  H   UNL A   1      41.922  27.827  31.399  1.00  0.00     0.167 HD
ATOM     45  C   UNL A   1      37.706  33.500  30.405  1.00  0.00     0.031 A 
ATOM     46  C   UNL A   1      44.085  29.653  31.139  1.00  0.00     0.031 A 
ATOM     47  C   UNL A   1      39.047  33.925  30.817  1.00  0.00     0.049 A 
ATOM     48  C   UNL A   1      44.108  30.997  30.448  1.00  0.00     0.074 A 
ATOM     49  C   UNL A   1      39.642  33.984  32.068  1.00  0.00     0.029 A 
ATOM     50  N   UNL A   1      40.086  33.981  29.893  1.00  0.00    -0.354 N 
ATOM     51  N   UNL A   1      43.073  31.790  30.399  1.00  0.00    -0.248 NA
ATOM     52  C   UNL A   1      45.280  31.580  29.803  1.00  0.00     0.031 C 
ATOM     53  C   UNL A   1      41.051  33.992  31.890  1.00  0.00     0.029 A 
ATOM     54  C   UNL A   1      41.315  33.947  30.533  1.00  0.00     0.049 A 
ATOM     55  H   UNL A   1      39.966  34.038  28.918  1.00  0.00     0.167 HD
ATOM     56  C   UNL A   1      43.421  32.983  29.837  1.00  0.00     0.074 A 
ATOM     57  C   UNL A   1      44.814  32.797  29.462  1.00  0.00     0.031 C 
ATOM     58  C   UNL A   1      42.549  34.031  29.760  1.00  0.00     0.031 A 
BRANCH  45  59
ATOM     59  C   UNL A   1      36.422  34.123  30.909  1.00  0.00    -0.014 A 
ATOM     60  C   UNL A   1      35.307  34.261  30.061  1.00  0.00     0.010 A 
ATOM     61  C   UNL A   1      36.257  34.552  32.244  1.00  0.00     0.010 A 
ATOM     62  C   UNL A   1      34.111  34.853  30.493  1.00  0.00     0.020 A 
ATOM     63  C   UNL A   1      35.069  35.164  32.685  1.00  0.00     0.020 A 
ATOM     64  C   UNL A   1      34.000  35.309  31.803  1.00  0.00     0.054 A 
BRANCH  64  65
ATOM     65  S   UNL A   1      32.439  36.066  32.332  1.00  0.00     0.124 S 
ATOM     66  O   UNL A   1      32.014  36.784  31.133  1.00  0.00    -0.237 OA
ATOM     67  O   UNL A   1      31.632  34.901  32.685  1.00  0.00    -0.237 OA
ATOM     68  O   UNL A   1      32.828  36.917  33.454  1.00  0.00    -0.744 OA
ENDBRANCH  64  65
ENDBRANCH  45  59
BRANCH  46  69
ATOM     69  C   UNL A   1      44.567  28.332  30.595  1.00  0.00    -0.014 A 
ATOM     70  C   UNL A   1      44.459  27.223  31.467  1.00  0.00     0.010 A 
ATOM     71  C   UNL A   1      44.732  28.061  29.220  1.00  0.00     0.010 A 
ATOM     72  C   UNL A   1      44.352  25.912  30.984  1.00  0.00     0.020 A 
ATOM     73  C   UNL A   1      44.645  26.737  28.730  1.00  0.00     0.020 A 
ATOM     74  C   UNL A   1      44.385  25.684  29.611  1.00  0.00     0.054 A 
BRANCH  74  75
ATOM     75  S   UNL A   1      43.830  24.050  29.018  1.00  0.00     0.124 S 
ATOM     76  O   UNL A   1      42.377  24.153  29.105  1.00  0.00    -0.237 OA
ATOM     77  O   UNL A   1      44.388  24.025  27.667  1.00  0.00    -0.237 OA
ATOM     78  O   UNL A   1      44.456  23.122  29.950  1.00  0.00    -0.744 OA
ENDBRANCH  74  75
ENDBRANCH  46  69
BRANCH  58  79
ATOM     79  C   UNL A   1      42.806  35.321  29.034  1.00  0.00    -0.014 A 
ATOM     80  C   UNL A   1      42.501  35.532  27.684  1.00  0.00     0.010 A 
ATOM     81  C   UNL A   1      43.256  36.436  29.785  1.00  0.00     0.010 A 
ATOM     82  C   UNL A   1      42.701  36.784  27.094  1.00  0.00     0.020 A 
ATOM     83  C   UNL A   1      43.402  37.699  29.221  1.00  0.00     0.020 A 
ATOM     84  C   UNL A   1      43.152  37.857  27.867  1.00  0.00     0.054 A 
BRANCH  84  85
ATOM     85  S   UNL A   1      43.349  39.484  27.108  1.00  0.00     0.124 S 
ATOM     86  O   UNL A   1      43.490  40.343  28.282  1.00  0.00    -0.237 OA
ATOM     87  O   UNL A   1      44.556  39.324  26.300  1.00  0.00    -0.237 OA
ATOM     88  O   UNL A   1      42.116  39.657  26.346  1.00  0.00    -0.744 OA
ENDBRANCH  84  85
ENDBRANCH  58  79
ENDBRANCH  32  33
ENDBRANCH  25  27
ENDBRANCH  24  25
ENDBRANCH  23  24
ENDBRANCH   1  23
TORSDOF 17
ENDMDL
