MODEL 1
REMARK VINA RESULT:      -9.7      0.000      0.000
REMARK SMILES CC[N@H+](CC(C)(C)C(=O)OCCOC(=O)c1ccc(-c2c3nc(c(-c4ccc(S(=O)(=O)[O-])cc4)c4ccc([nH]4)c(-c4ccc(S(=O)(=O)[O-])cc4)c4nc(c(-c5ccc(S(=O)(=O)[O-])cc5)c5ccc2[nH]5)C=C4)C=C3)cc1)[C@H]1CCC[NH2+]C1
REMARK SMILES IDX 11 1 10 2 8 3 9 4 5 5 6 6 7 7 4 8 3 9 2 11 1 12 76 13 77 14
REMARK SMILES IDX 81 15 78 16 80 17 79 18 12 21 13 22 14 23 15 24 16 25 17 26
REMARK SMILES IDX 75 27 18 28 74 29 19 30 20 31 21 32 68 33 22 34 73 35 67 36
REMARK SMILES IDX 69 37 23 38 72 39 66 40 65 41 24 43 54 44 35 45 53 46 36 47
REMARK SMILES IDX 39 48 52 49 70 50 37 51 38 52 51 54 71 55 40 56 25 57 26 58
REMARK SMILES IDX 34 59 27 60 33 61 28 62 29 63 30 64 31 65 32 66 55 67 56 68
REMARK SMILES IDX 64 69 57 70 63 71 58 72 59 73 60 74 61 75 62 76 41 77 42 78
REMARK SMILES IDX 50 79 43 80 49 81 44 82 45 83 46 84 47 85 48 86
REMARK H PARENT 3 10 80 19 80 20 69 42 39 53
REMARK Flexibility Score: inf
ROOT
ATOM      1  C   UNL A   1      38.315  22.394  25.987  1.00  0.00     0.274 C 
ENDROOT
BRANCH   1   2
ATOM      2  O   UNL A   1      37.040  23.064  26.102  1.00  0.00    -0.461 OA
BRANCH   2   3
ATOM      3  C   UNL A   1      36.170  22.806  25.081  1.00  0.00     0.317 C 
ATOM      4  O   UNL A   1      36.539  22.257  24.054  1.00  0.00    -0.251 OA
BRANCH   3   5
ATOM      5  C   UNL A   1      34.743  23.333  25.350  1.00  0.00     0.111 C 
ATOM      6  C   UNL A   1      34.683  24.831  25.036  1.00  0.00     0.029 C 
ATOM      7  C   UNL A   1      34.450  23.139  26.865  1.00  0.00     0.029 C 
BRANCH   5   8
ATOM      8  C   UNL A   1      33.611  22.538  24.588  1.00  0.00     0.280 C 
BRANCH   8   9
ATOM      9  N   UNL A   1      32.336  22.034  25.181  1.00  0.00    -0.327 N 
ATOM     10  H   UNL A   1      32.372  22.193  26.188  1.00  0.00     0.348 HD
BRANCH   9  11
ATOM     11  C   UNL A   1      31.165  22.840  24.806  1.00  0.00     0.259 C 
ATOM     12  C   UNL A   1      31.082  23.535  23.449  1.00  0.00     0.071 C 
ENDBRANCH   9  11
BRANCH   9  13
ATOM     13  C   UNL A   1      32.210  20.522  25.110  1.00  0.00     0.239 C 
ATOM     14  C   UNL A   1      32.525  19.872  23.743  1.00  0.00     0.077 C 
ATOM     15  C   UNL A   1      32.928  19.692  26.238  1.00  0.00     0.326 C 
ATOM     16  C   UNL A   1      32.441  18.348  23.737  1.00  0.00     0.068 C 
ATOM     17  N   UNL A   1      32.781  18.236  26.143  1.00  0.00    -0.341 N 
ATOM     18  C   UNL A   1      33.261  17.736  24.858  1.00  0.00     0.260 C 
ATOM     19  H   UNL A   1      33.319  17.799  26.891  1.00  0.00     0.346 HD
ATOM     20  H   UNL A   1      31.791  18.006  26.228  1.00  0.00     0.346 HD
ENDBRANCH   9  13
ENDBRANCH   8   9
ENDBRANCH   5   8
ENDBRANCH   3   5
ENDBRANCH   2   3
ENDBRANCH   1   2
BRANCH   1  21
ATOM     21  C   UNL A   1      39.476  23.269  26.468  1.00  0.00     0.275 C 
BRANCH  21  22
ATOM     22  O   UNL A   1      39.021  24.582  26.847  1.00  0.00    -0.458 OA
BRANCH  22  23
ATOM     23  C   UNL A   1      39.930  25.577  26.795  1.00  0.00     0.338 C 
ATOM     24  O   UNL A   1      40.837  25.705  25.973  1.00  0.00    -0.246 OA
BRANCH  23  25
ATOM     25  C   UNL A   1      39.692  26.555  27.871  1.00  0.00     0.060 A 
ATOM     26  C   UNL A   1      40.099  27.874  27.695  1.00  0.00     0.016 A 
ATOM     27  C   UNL A   1      39.197  26.151  29.111  1.00  0.00     0.016 A 
ATOM     28  C   UNL A   1      40.074  28.774  28.757  1.00  0.00     0.010 A 
ATOM     29  C   UNL A   1      39.130  27.072  30.169  1.00  0.00     0.010 A 
ATOM     30  C   UNL A   1      39.608  28.387  30.015  1.00  0.00    -0.014 A 
BRANCH  30  31
ATOM     31  C   UNL A   1      39.762  29.304  31.181  1.00  0.00     0.031 A 
ATOM     32  C   UNL A   1      41.049  29.284  31.967  1.00  0.00     0.074 A 
ATOM     33  C   UNL A   1      38.841  30.242  31.486  1.00  0.00     0.049 A 
ATOM     34  N   UNL A   1      41.320  29.824  33.126  1.00  0.00    -0.248 NA
ATOM     35  C   UNL A   1      42.184  28.571  31.356  1.00  0.00     0.031 C 
ATOM     36  C   UNL A   1      37.630  30.534  30.717  1.00  0.00     0.029 A 
ATOM     37  N   UNL A   1      38.806  31.158  32.512  1.00  0.00    -0.354 N 
ATOM     38  C   UNL A   1      42.626  29.449  33.422  1.00  0.00     0.074 A 
ATOM     39  C   UNL A   1      43.109  28.674  32.300  1.00  0.00     0.031 C 
ATOM     40  C   UNL A   1      37.011  31.597  31.258  1.00  0.00     0.029 A 
ATOM     41  C   UNL A   1      37.710  31.989  32.479  1.00  0.00     0.049 A 
ATOM     42  H   UNL A   1      39.503  31.216  33.205  1.00  0.00     0.167 HD
ATOM     43  C   UNL A   1      43.342  29.700  34.544  1.00  0.00     0.031 A 
ATOM     44  C   UNL A   1      37.284  32.921  33.357  1.00  0.00     0.031 A 
ATOM     45  C   UNL A   1      42.866  30.494  35.643  1.00  0.00     0.049 A 
ATOM     46  C   UNL A   1      38.040  33.111  34.648  1.00  0.00     0.074 A 
ATOM     47  C   UNL A   1      43.454  30.703  36.878  1.00  0.00     0.029 A 
ATOM     48  N   UNL A   1      41.697  31.237  35.625  1.00  0.00    -0.354 N 
ATOM     49  N   UNL A   1      39.183  32.588  35.019  1.00  0.00    -0.248 NA
ATOM     50  C   UNL A   1      37.421  33.981  35.661  1.00  0.00     0.031 C 
ATOM     51  C   UNL A   1      42.621  31.549  37.620  1.00  0.00     0.029 A 
ATOM     52  C   UNL A   1      41.542  31.904  36.826  1.00  0.00     0.049 A 
ATOM     53  H   UNL A   1      41.068  31.283  34.868  1.00  0.00     0.167 HD
ATOM     54  C   UNL A   1      39.419  33.064  36.305  1.00  0.00     0.074 A 
ATOM     55  C   UNL A   1      38.317  33.940  36.640  1.00  0.00     0.031 C 
ATOM     56  C   UNL A   1      40.449  32.785  37.142  1.00  0.00     0.031 A 
BRANCH  43  57
ATOM     57  C   UNL A   1      44.670  29.010  34.684  1.00  0.00    -0.014 A 
ATOM     58  C   UNL A   1      45.879  29.643  34.350  1.00  0.00     0.010 A 
ATOM     59  C   UNL A   1      44.697  27.695  35.185  1.00  0.00     0.010 A 
ATOM     60  C   UNL A   1      47.091  28.956  34.484  1.00  0.00     0.020 A 
ATOM     61  C   UNL A   1      45.905  27.014  35.340  1.00  0.00     0.020 A 
ATOM     62  C   UNL A   1      47.094  27.644  34.971  1.00  0.00     0.054 A 
BRANCH  62  63
ATOM     63  S   UNL A   1      48.677  26.774  35.141  1.00  0.00     0.124 S 
ATOM     64  O   UNL A   1      49.430  27.298  34.004  1.00  0.00    -0.237 OA
ATOM     65  O   UNL A   1      49.144  27.205  36.456  1.00  0.00    -0.237 OA
ATOM     66  O   UNL A   1      48.309  25.363  35.045  1.00  0.00    -0.744 OA
ENDBRANCH  62  63
ENDBRANCH  43  57
BRANCH  44  67
ATOM     67  C   UNL A   1      36.033  33.691  33.101  1.00  0.00    -0.014 A 
ATOM     68  C   UNL A   1      34.775  33.114  33.353  1.00  0.00     0.010 A 
ATOM     69  C   UNL A   1      36.088  34.995  32.575  1.00  0.00     0.010 A 
ATOM     70  C   UNL A   1      33.601  33.820  33.071  1.00  0.00     0.020 A 
ATOM     71  C   UNL A   1      34.918  35.716  32.323  1.00  0.00     0.020 A 
ATOM     72  C   UNL A   1      33.680  35.117  32.557  1.00  0.00     0.054 A 
BRANCH  72  73
ATOM     73  S   UNL A   1      32.151  36.041  32.234  1.00  0.00     0.124 S 
ATOM     74  O   UNL A   1      32.273  36.337  30.811  1.00  0.00    -0.237 OA
ATOM     75  O   UNL A   1      31.113  35.078  32.594  1.00  0.00    -0.237 OA
ATOM     76  O   UNL A   1      32.258  37.192  33.128  1.00  0.00    -0.744 OA
ENDBRANCH  72  73
ENDBRANCH  44  67
BRANCH  56  77
ATOM     77  C   UNL A   1      40.459  33.442  38.494  1.00  0.00    -0.014 A 
ATOM     78  C   UNL A   1      41.101  34.676  38.691  1.00  0.00     0.010 A 
ATOM     79  C   UNL A   1      39.727  32.870  39.551  1.00  0.00     0.010 A 
ATOM     80  C   UNL A   1      41.015  35.327  39.926  1.00  0.00     0.020 A 
ATOM     81  C   UNL A   1      39.623  33.526  40.780  1.00  0.00     0.020 A 
ATOM     82  C   UNL A   1      40.271  34.750  40.961  1.00  0.00     0.054 A 
BRANCH  82  83
ATOM     83  S   UNL A   1      40.100  35.656  42.524  1.00  0.00     0.124 S 
ATOM     84  O   UNL A   1      38.732  36.156  42.439  1.00  0.00    -0.237 OA
ATOM     85  O   UNL A   1      40.329  34.617  43.525  1.00  0.00    -0.237 OA
ATOM     86  O   UNL A   1      41.143  36.677  42.446  1.00  0.00    -0.744 OA
ENDBRANCH  82  83
ENDBRANCH  56  77
ENDBRANCH  30  31
ENDBRANCH  23  25
ENDBRANCH  22  23
ENDBRANCH  21  22
ENDBRANCH   1  21
TORSDOF 18
ENDMDL
MODEL 2
REMARK VINA RESULT:      -9.6      4.969      6.128
REMARK SMILES CC[N@H+](CC(C)(C)C(=O)OCCOC(=O)c1ccc(-c2c3nc(c(-c4ccc(S(=O)(=O)[O-])cc4)c4ccc([nH]4)c(-c4ccc(S(=O)(=O)[O-])cc4)c4nc(c(-c5ccc(S(=O)(=O)[O-])cc5)c5ccc2[nH]5)C=C4)C=C3)cc1)[C@H]1CCC[NH2+]C1
REMARK SMILES IDX 11 1 10 2 8 3 9 4 5 5 6 6 7 7 4 8 3 9 2 11 1 12 76 13 77 14
REMARK SMILES IDX 81 15 78 16 80 17 79 18 12 21 13 22 14 23 15 24 16 25 17 26
REMARK SMILES IDX 75 27 18 28 74 29 19 30 20 31 21 32 68 33 22 34 73 35 67 36
REMARK SMILES IDX 69 37 23 38 72 39 66 40 65 41 24 43 54 44 35 45 53 46 36 47
REMARK SMILES IDX 39 48 52 49 70 50 37 51 38 52 51 54 71 55 40 56 25 57 26 58
REMARK SMILES IDX 34 59 27 60 33 61 28 62 29 63 30 64 31 65 32 66 55 67 56 68
REMARK SMILES IDX 64 69 57 70 63 71 58 72 59 73 60 74 61 75 62 76 41 77 42 78
REMARK SMILES IDX 50 79 43 80 49 81 44 82 45 83 46 84 47 85 48 86
REMARK H PARENT 3 10 80 19 80 20 69 42 39 53
REMARK Flexibility Score: inf
ROOT
ATOM      1  C   UNL A   1      36.253  21.138  24.777  1.00  0.00     0.274 C 
ENDROOT
BRANCH   1   2
ATOM      2  O   UNL A   1      35.631  22.440  24.838  1.00  0.00    -0.461 OA
BRANCH   2   3
ATOM      3  C   UNL A   1      35.341  22.987  23.620  1.00  0.00     0.317 C 
ATOM      4  O   UNL A   1      36.127  22.916  22.687  1.00  0.00    -0.251 OA
BRANCH   3   5
ATOM      5  C   UNL A   1      33.987  23.730  23.593  1.00  0.00     0.111 C 
ATOM      6  C   UNL A   1      33.593  24.022  22.141  1.00  0.00     0.029 C 
ATOM      7  C   UNL A   1      34.182  25.085  24.329  1.00  0.00     0.029 C 
BRANCH   5   8
ATOM      8  C   UNL A   1      32.830  22.983  24.366  1.00  0.00     0.280 C 
BRANCH   8   9
ATOM      9  N   UNL A   1      32.985  22.163  25.605  1.00  0.00    -0.327 N 
ATOM     10  H   UNL A   1      33.981  22.079  25.805  1.00  0.00     0.348 HD
BRANCH   9  11
ATOM     11  C   UNL A   1      32.506  22.846  26.815  1.00  0.00     0.259 C 
ATOM     12  C   UNL A   1      31.604  24.075  26.727  1.00  0.00     0.071 C 
ENDBRANCH   9  11
BRANCH   9  13
ATOM     13  C   UNL A   1      32.586  20.711  25.404  1.00  0.00     0.239 C 
ATOM     14  C   UNL A   1      32.743  20.149  23.972  1.00  0.00     0.077 C 
ATOM     15  C   UNL A   1      33.172  19.663  26.421  1.00  0.00     0.326 C 
ATOM     16  C   UNL A   1      32.386  18.672  23.833  1.00  0.00     0.068 C 
ATOM     17  N   UNL A   1      32.763  18.272  26.202  1.00  0.00    -0.341 N 
ATOM     18  C   UNL A   1      33.111  17.820  24.858  1.00  0.00     0.260 C 
ATOM     19  H   UNL A   1      33.232  17.676  26.884  1.00  0.00     0.346 HD
ATOM     20  H   UNL A   1      31.750  18.213  26.308  1.00  0.00     0.346 HD
ENDBRANCH   9  13
ENDBRANCH   8   9
ENDBRANCH   5   8
ENDBRANCH   3   5
ENDBRANCH   2   3
ENDBRANCH   1   2
BRANCH   1  21
ATOM     21  C   UNL A   1      37.777  21.214  24.904  1.00  0.00     0.275 C 
BRANCH  21  22
ATOM     22  O   UNL A   1      38.169  21.951  26.079  1.00  0.00    -0.458 OA
BRANCH  22  23
ATOM     23  C   UNL A   1      39.490  22.013  26.343  1.00  0.00     0.338 C 
ATOM     24  O   UNL A   1      40.338  21.165  26.066  1.00  0.00    -0.246 OA
BRANCH  23  25
ATOM     25  C   UNL A   1      39.826  23.282  27.011  1.00  0.00     0.060 A 
ATOM     26  C   UNL A   1      39.238  24.462  26.568  1.00  0.00     0.016 A 
ATOM     27  C   UNL A   1      40.828  23.338  27.981  1.00  0.00     0.016 A 
ATOM     28  C   UNL A   1      39.678  25.697  27.038  1.00  0.00     0.010 A 
ATOM     29  C   UNL A   1      41.240  24.583  28.486  1.00  0.00     0.010 A 
ATOM     30  C   UNL A   1      40.697  25.782  27.988  1.00  0.00    -0.014 A 
BRANCH  30  31
ATOM     31  C   UNL A   1      41.281  27.109  28.339  1.00  0.00     0.031 A 
ATOM     32  C   UNL A   1      42.736  27.371  28.045  1.00  0.00     0.074 A 
ATOM     33  C   UNL A   1      40.526  28.129  28.796  1.00  0.00     0.049 A 
ATOM     34  N   UNL A   1      43.500  28.352  28.452  1.00  0.00    -0.248 NA
ATOM     35  C   UNL A   1      43.416  26.408  27.162  1.00  0.00     0.031 C 
ATOM     36  C   UNL A   1      39.071  28.114  28.953  1.00  0.00     0.029 A 
ATOM     37  N   UNL A   1      40.883  29.403  29.174  1.00  0.00    -0.354 N 
ATOM     38  C   UNL A   1      44.766  28.080  27.945  1.00  0.00     0.074 A 
ATOM     39  C   UNL A   1      44.659  26.869  27.162  1.00  0.00     0.031 C 
ATOM     40  C   UNL A   1      38.656  29.335  29.329  1.00  0.00     0.029 A 
ATOM     41  C   UNL A   1      39.819  30.188  29.556  1.00  0.00     0.049 A 
ATOM     42  H   UNL A   1      41.813  29.725  29.169  1.00  0.00     0.167 HD
ATOM     43  C   UNL A   1      45.919  28.762  28.147  1.00  0.00     0.031 A 
ATOM     44  C   UNL A   1      39.786  31.432  30.081  1.00  0.00     0.031 A 
ATOM     45  C   UNL A   1      46.013  29.981  28.903  1.00  0.00     0.049 A 
ATOM     46  C   UNL A   1      41.085  32.131  30.392  1.00  0.00     0.074 A 
ATOM     47  C   UNL A   1      47.146  30.681  29.278  1.00  0.00     0.029 A 
ATOM     48  N   UNL A   1      44.925  30.697  29.374  1.00  0.00    -0.354 N 
ATOM     49  N   UNL A   1      42.309  31.768  30.095  1.00  0.00    -0.248 NA
ATOM     50  C   UNL A   1      41.000  33.386  31.155  1.00  0.00     0.031 C 
ATOM     51  C   UNL A   1      46.743  31.806  30.005  1.00  0.00     0.029 A 
ATOM     52  C   UNL A   1      45.357  31.830  30.038  1.00  0.00     0.049 A 
ATOM     53  H   UNL A   1      43.982  30.438  29.254  1.00  0.00     0.167 HD
ATOM     54  C   UNL A   1      43.137  32.747  30.635  1.00  0.00     0.074 A 
ATOM     55  C   UNL A   1      42.277  33.735  31.251  1.00  0.00     0.031 C 
ATOM     56  C   UNL A   1      44.491  32.813  30.635  1.00  0.00     0.031 A 
BRANCH  43  57
ATOM     57  C   UNL A   1      47.188  28.139  27.636  1.00  0.00    -0.014 A 
ATOM     58  C   UNL A   1      47.699  28.427  26.360  1.00  0.00     0.010 A 
ATOM     59  C   UNL A   1      47.890  27.255  28.477  1.00  0.00     0.010 A 
ATOM     60  C   UNL A   1      48.878  27.812  25.922  1.00  0.00     0.020 A 
ATOM     61  C   UNL A   1      49.077  26.656  28.050  1.00  0.00     0.020 A 
ATOM     62  C   UNL A   1      49.554  26.925  26.767  1.00  0.00     0.054 A 
BRANCH  62  63
ATOM     63  S   UNL A   1      51.081  26.142  26.181  1.00  0.00     0.124 S 
ATOM     64  O   UNL A   1      50.974  24.805  26.759  1.00  0.00    -0.237 OA
ATOM     65  O   UNL A   1      50.943  26.211  24.728  1.00  0.00    -0.237 OA
ATOM     66  O   UNL A   1      52.138  26.980  26.743  1.00  0.00    -0.744 OA
ENDBRANCH  62  63
ENDBRANCH  43  57
BRANCH  44  67
ATOM     67  C   UNL A   1      38.486  32.072  30.435  1.00  0.00    -0.014 A 
ATOM     68  C   UNL A   1      37.893  31.837  31.689  1.00  0.00     0.010 A 
ATOM     69  C   UNL A   1      37.817  32.896  29.511  1.00  0.00     0.010 A 
ATOM     70  C   UNL A   1      36.653  32.402  32.004  1.00  0.00     0.020 A 
ATOM     71  C   UNL A   1      36.594  33.489  29.835  1.00  0.00     0.020 A 
ATOM     72  C   UNL A   1      36.011  33.225  31.074  1.00  0.00     0.054 A 
BRANCH  72  73
ATOM     73  S   UNL A   1      34.422  33.988  31.509  1.00  0.00     0.124 S 
ATOM     74  O   UNL A   1      34.848  35.237  32.130  1.00  0.00    -0.237 OA
ATOM     75  O   UNL A   1      33.763  34.117  30.212  1.00  0.00    -0.237 OA
ATOM     76  O   UNL A   1      33.816  33.011  32.412  1.00  0.00    -0.744 OA
ENDBRANCH  72  73
ENDBRANCH  44  67
BRANCH  56  77
ATOM     77  C   UNL A   1      45.142  33.996  31.297  1.00  0.00    -0.014 A 
ATOM     78  C   UNL A   1      45.370  35.185  30.586  1.00  0.00     0.010 A 
ATOM     79  C   UNL A   1      45.428  33.951  32.674  1.00  0.00     0.010 A 
ATOM     80  C   UNL A   1      45.880  36.312  31.240  1.00  0.00     0.020 A 
ATOM     81  C   UNL A   1      45.919  35.079  33.335  1.00  0.00     0.020 A 
ATOM     82  C   UNL A   1      46.145  36.252  32.613  1.00  0.00     0.054 A 
BRANCH  82  83
ATOM     83  S   UNL A   1      46.721  37.752  33.456  1.00  0.00     0.124 S 
ATOM     84  O   UNL A   1      46.226  37.549  34.814  1.00  0.00    -0.237 OA
ATOM     85  O   UNL A   1      48.171  37.675  33.298  1.00  0.00    -0.237 OA
ATOM     86  O   UNL A   1      46.078  38.835  32.713  1.00  0.00    -0.744 OA
ENDBRANCH  82  83
ENDBRANCH  56  77
ENDBRANCH  30  31
ENDBRANCH  23  25
ENDBRANCH  22  23
ENDBRANCH  21  22
ENDBRANCH   1  21
TORSDOF 18
ENDMDL
MODEL 3
REMARK VINA RESULT:      -9.4      3.820      8.258
REMARK SMILES CC[N@H+](CC(C)(C)C(=O)OCCOC(=O)c1ccc(-c2c3nc(c(-c4ccc(S(=O)(=O)[O-])cc4)c4ccc([nH]4)c(-c4ccc(S(=O)(=O)[O-])cc4)c4nc(c(-c5ccc(S(=O)(=O)[O-])cc5)c5ccc2[nH]5)C=C4)C=C3)cc1)[C@H]1CCC[NH2+]C1
REMARK SMILES IDX 11 1 10 2 8 3 9 4 5 5 6 6 7 7 4 8 3 9 2 11 1 12 76 13 77 14
REMARK SMILES IDX 81 15 78 16 80 17 79 18 12 21 13 22 14 23 15 24 16 25 17 26
REMARK SMILES IDX 75 27 18 28 74 29 19 30 20 31 21 32 68 33 22 34 73 35 67 36
REMARK SMILES IDX 69 37 23 38 72 39 66 40 65 41 24 43 54 44 35 45 53 46 36 47
REMARK SMILES IDX 39 48 52 49 70 50 37 51 38 52 51 54 71 55 40 56 25 57 26 58
REMARK SMILES IDX 34 59 27 60 33 61 28 62 29 63 30 64 31 65 32 66 55 67 56 68
REMARK SMILES IDX 64 69 57 70 63 71 58 72 59 73 60 74 61 75 62 76 41 77 42 78
REMARK SMILES IDX 50 79 43 80 49 81 44 82 45 83 46 84 47 85 48 86
REMARK H PARENT 3 10 80 19 80 20 69 42 39 53
REMARK Flexibility Score: inf
ROOT
ATOM      1  C   UNL A   1      31.964  29.941  25.819  1.00  0.00     0.274 C 
ENDROOT
BRANCH   1   2
ATOM      2  O   UNL A   1      31.676  28.574  26.184  1.00  0.00    -0.461 OA
BRANCH   2   3
ATOM      3  C   UNL A   1      32.576  27.660  25.713  1.00  0.00     0.317 C 
ATOM      4  O   UNL A   1      33.720  27.981  25.429  1.00  0.00    -0.251 OA
BRANCH   3   5
ATOM      5  C   UNL A   1      31.971  26.250  25.528  1.00  0.00     0.111 C 
ATOM      6  C   UNL A   1      30.624  26.173  26.254  1.00  0.00     0.029 C 
ATOM      7  C   UNL A   1      32.943  25.234  26.191  1.00  0.00     0.029 C 
BRANCH   5   8
ATOM      8  C   UNL A   1      31.840  25.801  24.020  1.00  0.00     0.280 C 
BRANCH   8   9
ATOM      9  N   UNL A   1      32.298  26.575  22.827  1.00  0.00    -0.327 N 
ATOM     10  H   UNL A   1      33.068  27.177  23.119  1.00  0.00     0.348 HD
BRANCH   9  11
ATOM     11  C   UNL A   1      32.957  25.739  21.813  1.00  0.00     0.259 C 
ATOM     12  C   UNL A   1      32.379  25.597  20.407  1.00  0.00     0.071 C 
ENDBRANCH   9  11
BRANCH   9  13
ATOM     13  C   UNL A   1      31.273  27.591  22.355  1.00  0.00     0.239 C 
ATOM     14  C   UNL A   1      29.918  27.594  23.100  1.00  0.00     0.077 C 
ATOM     15  C   UNL A   1      31.762  29.078  22.197  1.00  0.00     0.326 C 
ATOM     16  C   UNL A   1      28.943  28.670  22.628  1.00  0.00     0.068 C 
ATOM     17  N   UNL A   1      30.749  30.032  21.734  1.00  0.00    -0.341 N 
ATOM     18  C   UNL A   1      29.586  30.044  22.617  1.00  0.00     0.260 C 
ATOM     19  H   UNL A   1      31.157  30.966  21.711  1.00  0.00     0.346 HD
ATOM     20  H   UNL A   1      30.441  29.749  20.803  1.00  0.00     0.346 HD
ENDBRANCH   9  13
ENDBRANCH   8   9
ENDBRANCH   5   8
ENDBRANCH   3   5
ENDBRANCH   2   3
ENDBRANCH   1   2
BRANCH   1  21
ATOM     21  C   UNL A   1      32.485  30.762  27.002  1.00  0.00     0.275 C 
BRANCH  21  22
ATOM     22  O   UNL A   1      33.908  30.600  27.165  1.00  0.00    -0.458 OA
BRANCH  22  23
ATOM     23  C   UNL A   1      34.563  31.600  27.790  1.00  0.00     0.338 C 
ATOM     24  O   UNL A   1      34.154  32.744  27.980  1.00  0.00    -0.246 OA
BRANCH  23  25
ATOM     25  C   UNL A   1      35.881  31.141  28.263  1.00  0.00     0.060 A 
ATOM     26  C   UNL A   1      36.017  29.843  28.745  1.00  0.00     0.016 A 
ATOM     27  C   UNL A   1      36.954  32.026  28.368  1.00  0.00     0.016 A 
ATOM     28  C   UNL A   1      37.187  29.438  29.382  1.00  0.00     0.010 A 
ATOM     29  C   UNL A   1      38.150  31.603  28.972  1.00  0.00     0.010 A 
ATOM     30  C   UNL A   1      38.266  30.314  29.524  1.00  0.00    -0.014 A 
BRANCH  30  31
ATOM     31  C   UNL A   1      39.433  29.927  30.368  1.00  0.00     0.031 A 
ATOM     32  C   UNL A   1      40.431  28.933  29.830  1.00  0.00     0.074 A 
ATOM     33  C   UNL A   1      39.700  30.527  31.547  1.00  0.00     0.049 A 
ATOM     34  N   UNL A   1      41.385  28.296  30.457  1.00  0.00    -0.248 NA
ATOM     35  C   UNL A   1      40.350  28.630  28.391  1.00  0.00     0.031 C 
ATOM     36  C   UNL A   1      38.953  31.645  32.126  1.00  0.00     0.029 A 
ATOM     37  N   UNL A   1      40.710  30.304  32.454  1.00  0.00    -0.354 N 
ATOM     38  C   UNL A   1      41.963  27.456  29.510  1.00  0.00     0.074 A 
ATOM     39  C   UNL A   1      41.284  27.699  28.257  1.00  0.00     0.031 C 
ATOM     40  C   UNL A   1      39.568  32.049  33.251  1.00  0.00     0.029 A 
ATOM     41  C   UNL A   1      40.680  31.148  33.540  1.00  0.00     0.049 A 
ATOM     42  H   UNL A   1      41.393  29.605  32.336  1.00  0.00     0.167 HD
ATOM     43  C   UNL A   1      42.947  26.541  29.684  1.00  0.00     0.031 A 
ATOM     44  C   UNL A   1      41.426  31.163  34.665  1.00  0.00     0.031 A 
ATOM     45  C   UNL A   1      43.637  26.325  30.926  1.00  0.00     0.049 A 
ATOM     46  C   UNL A   1      42.445  30.074  34.883  1.00  0.00     0.074 A 
ATOM     47  C   UNL A   1      44.554  25.340  31.246  1.00  0.00     0.029 A 
ATOM     48  N   UNL A   1      43.505  27.129  32.046  1.00  0.00    -0.354 N 
ATOM     49  N   UNL A   1      42.845  29.140  34.054  1.00  0.00    -0.248 NA
ATOM     50  C   UNL A   1      43.079  30.010  36.209  1.00  0.00     0.031 C 
ATOM     51  C   UNL A   1      44.953  25.531  32.574  1.00  0.00     0.029 A 
ATOM     52  C   UNL A   1      44.321  26.663  33.061  1.00  0.00     0.049 A 
ATOM     53  H   UNL A   1      42.917  27.917  32.111  1.00  0.00     0.167 HD
ATOM     54  C   UNL A   1      43.775  28.380  34.758  1.00  0.00     0.074 A 
ATOM     55  C   UNL A   1      43.901  28.978  36.070  1.00  0.00     0.031 C 
ATOM     56  C   UNL A   1      44.449  27.275  34.357  1.00  0.00     0.031 A 
BRANCH  43  57
ATOM     57  C   UNL A   1      43.252  25.628  28.530  1.00  0.00    -0.014 A 
ATOM     58  C   UNL A   1      42.645  24.368  28.394  1.00  0.00     0.010 A 
ATOM     59  C   UNL A   1      44.160  26.065  27.547  1.00  0.00     0.010 A 
ATOM     60  C   UNL A   1      42.971  23.546  27.309  1.00  0.00     0.020 A 
ATOM     61  C   UNL A   1      44.471  25.256  26.453  1.00  0.00     0.020 A 
ATOM     62  C   UNL A   1      43.888  23.994  26.350  1.00  0.00     0.054 A 
BRANCH  62  63
ATOM     63  S   UNL A   1      44.291  22.914  24.949  1.00  0.00     0.124 S 
ATOM     64  O   UNL A   1      45.283  23.713  24.232  1.00  0.00    -0.237 OA
ATOM     65  O   UNL A   1      44.807  21.714  25.604  1.00  0.00    -0.237 OA
ATOM     66  O   UNL A   1      43.013  22.746  24.262  1.00  0.00    -0.744 OA
ENDBRANCH  62  63
ENDBRANCH  43  57
BRANCH  44  67
ATOM     67  C   UNL A   1      41.185  32.187  35.722  1.00  0.00    -0.014 A 
ATOM     68  C   UNL A   1      40.158  32.010  36.666  1.00  0.00     0.010 A 
ATOM     69  C   UNL A   1      41.960  33.361  35.773  1.00  0.00     0.010 A 
ATOM     70  C   UNL A   1      39.903  32.992  37.630  1.00  0.00     0.020 A 
ATOM     71  C   UNL A   1      41.731  34.328  36.756  1.00  0.00     0.020 A 
ATOM     72  C   UNL A   1      40.692  34.145  37.668  1.00  0.00     0.054 A 
BRANCH  72  73
ATOM     73  S   UNL A   1      40.381  35.393  38.950  1.00  0.00     0.124 S 
ATOM     74  O   UNL A   1      41.230  36.494  38.509  1.00  0.00    -0.237 OA
ATOM     75  O   UNL A   1      38.943  35.617  38.837  1.00  0.00    -0.237 OA
ATOM     76  O   UNL A   1      40.805  34.725  40.179  1.00  0.00    -0.744 OA
ENDBRANCH  72  73
ENDBRANCH  44  67
BRANCH  56  77
ATOM     77  C   UNL A   1      45.406  26.640  35.329  1.00  0.00    -0.014 A 
ATOM     78  C   UNL A   1      46.739  27.073  35.416  1.00  0.00     0.010 A 
ATOM     79  C   UNL A   1      44.935  25.675  36.238  1.00  0.00     0.010 A 
ATOM     80  C   UNL A   1      47.590  26.547  36.394  1.00  0.00     0.020 A 
ATOM     81  C   UNL A   1      45.775  25.161  37.229  1.00  0.00     0.020 A 
ATOM     82  C   UNL A   1      47.099  25.599  37.298  1.00  0.00     0.054 A 
BRANCH  82  83
ATOM     83  S   UNL A   1      48.196  24.998  38.612  1.00  0.00     0.124 S 
ATOM     84  O   UNL A   1      48.834  23.849  37.977  1.00  0.00    -0.237 OA
ATOM     85  O   UNL A   1      49.067  26.145  38.856  1.00  0.00    -0.237 OA
ATOM     86  O   UNL A   1      47.281  24.677  39.706  1.00  0.00    -0.744 OA
ENDBRANCH  82  83
ENDBRANCH  56  77
ENDBRANCH  30  31
ENDBRANCH  23  25
ENDBRANCH  22  23
ENDBRANCH  21  22
ENDBRANCH   1  21
TORSDOF 18
ENDMDL
