MODEL 1
REMARK VINA RESULT:      -9.5      0.000      0.000
REMARK SMILES CCN(C(=O)N1C[C@@H](C)[C@H](C(=O)OC)C1)C(C)(C)C(=O)OCCOC(=O)c1ccc(-c2c3nc(c(-c4ccc(S(=O)(=O)[O-])cc4)c4ccc([nH]4)c(-c4ccc(S(=O)(=O)[O-])cc4)c4nc(c(-c5ccc(S(=O)(=O)[O-])cc5)c5ccc2[nH]5)C=C4)C=C3)cc1
REMARK SMILES IDX 22 1 21 2 19 3 20 4 16 5 17 6 18 7 3 8 2 9 1 10 4 11 5 12
REMARK SMILES IDX 6 13 7 14 15 15 8 16 10 17 9 18 11 19 12 20 13 21 14 22
REMARK SMILES IDX 23 23 24 24 25 25 26 26 27 27 28 28 86 29 29 30 85 31 30 32
REMARK SMILES IDX 31 33 32 34 79 35 33 36 84 37 78 38 80 39 34 40 83 41 77 42
REMARK SMILES IDX 76 43 35 45 65 46 46 47 64 48 47 49 50 50 63 51 81 52 48 53
REMARK SMILES IDX 49 54 62 56 82 57 51 58 36 59 37 60 45 61 38 62 44 63 39 64
REMARK SMILES IDX 40 65 41 66 42 67 43 68 66 69 67 70 75 71 68 72 74 73 69 74
REMARK SMILES IDX 70 75 71 76 72 77 73 78 52 79 53 80 61 81 54 82 60 83 55 84
REMARK SMILES IDX 56 85 57 86 58 87 59 88
REMARK H PARENT 80 44 50 55
REMARK Flexibility Score: inf
ROOT
ATOM      1  C   UNL A   1      36.112  21.077  25.060  1.00  0.00     0.274 C 
ENDROOT
BRANCH   1   2
ATOM      2  O   UNL A   1      35.216  22.097  25.550  1.00  0.00    -0.460 OA
BRANCH   2   3
ATOM      3  C   UNL A   1      34.223  22.574  24.721  1.00  0.00     0.331 C 
ATOM      4  O   UNL A   1      34.421  22.798  23.536  1.00  0.00    -0.249 OA
BRANCH   3   5
ATOM      5  C   UNL A   1      32.887  22.872  25.550  1.00  0.00     0.136 C 
ATOM      6  C   UNL A   1      33.268  23.061  27.029  1.00  0.00     0.047 C 
ATOM      7  C   UNL A   1      32.069  21.557  25.447  1.00  0.00     0.047 C 
BRANCH   5   8
ATOM      8  N   UNL A   1      32.070  24.073  25.060  1.00  0.00    -0.309 N 
BRANCH   8   9
ATOM      9  C   UNL A   1      31.041  23.939  24.001  1.00  0.00     0.119 C 
ATOM     10  C   UNL A   1      30.279  25.127  23.453  1.00  0.00     0.027 C 
ENDBRANCH   8   9
BRANCH   8  11
ATOM     11  C   UNL A   1      31.707  25.073  26.019  1.00  0.00     0.320 C 
ATOM     12  O   UNL A   1      30.864  24.929  26.895  1.00  0.00    -0.248 OA
BRANCH  11  13
ATOM     13  N   UNL A   1      32.462  26.225  25.895  1.00  0.00    -0.323 N 
ATOM     14  C   UNL A   1      32.573  27.343  26.808  1.00  0.00     0.125 C 
ATOM     15  C   UNL A   1      33.618  26.229  25.058  1.00  0.00     0.137 C 
ATOM     16  C   UNL A   1      33.261  28.434  25.944  1.00  0.00     0.021 C 
ATOM     17  C   UNL A   1      33.775  27.694  24.686  1.00  0.00     0.123 C 
ATOM     18  C   UNL A   1      34.420  29.129  26.648  1.00  0.00     0.010 C 
BRANCH  17  19
ATOM     19  C   UNL A   1      33.036  28.180  23.447  1.00  0.00     0.310 C 
ATOM     20  O   UNL A   1      33.614  28.489  22.412  1.00  0.00    -0.252 OA
BRANCH  19  21
ATOM     21  O   UNL A   1      31.683  28.222  23.587  1.00  0.00    -0.469 OA
ATOM     22  C   UNL A   1      31.013  29.043  22.621  1.00  0.00     0.282 C 
ENDBRANCH  19  21
ENDBRANCH  17  19
ENDBRANCH  11  13
ENDBRANCH   8  11
ENDBRANCH   5   8
ENDBRANCH   3   5
ENDBRANCH   2   3
ENDBRANCH   1   2
BRANCH   1  23
ATOM     23  C   UNL A   1      37.515  21.591  24.722  1.00  0.00     0.275 C 
BRANCH  23  24
ATOM     24  O   UNL A   1      37.869  22.734  25.522  1.00  0.00    -0.458 OA
BRANCH  24  25
ATOM     25  C   UNL A   1      39.099  22.673  26.085  1.00  0.00     0.338 C 
ATOM     26  O   UNL A   1      39.888  21.747  26.006  1.00  0.00    -0.246 OA
BRANCH  25  27
ATOM     27  C   UNL A   1      39.473  23.987  26.652  1.00  0.00     0.060 A 
ATOM     28  C   UNL A   1      39.089  24.188  27.966  1.00  0.00     0.016 A 
ATOM     29  C   UNL A   1      40.117  25.022  25.959  1.00  0.00     0.016 A 
ATOM     30  C   UNL A   1      39.378  25.401  28.578  1.00  0.00     0.010 A 
ATOM     31  C   UNL A   1      40.446  26.235  26.624  1.00  0.00     0.010 A 
ATOM     32  C   UNL A   1      40.114  26.418  27.970  1.00  0.00    -0.014 A 
BRANCH  32  33
ATOM     33  C   UNL A   1      40.432  27.602  28.836  1.00  0.00     0.031 A 
ATOM     34  C   UNL A   1      41.860  27.838  29.273  1.00  0.00     0.074 A 
ATOM     35  C   UNL A   1      39.566  28.632  28.985  1.00  0.00     0.049 A 
ATOM     36  N   UNL A   1      42.375  28.862  29.908  1.00  0.00    -0.248 NA
ATOM     37  C   UNL A   1      42.841  26.809  28.894  1.00  0.00     0.031 C 
ATOM     38  C   UNL A   1      38.228  28.711  28.401  1.00  0.00     0.029 A 
ATOM     39  N   UNL A   1      39.722  29.860  29.604  1.00  0.00    -0.354 N 
ATOM     40  C   UNL A   1      43.735  28.597  30.013  1.00  0.00     0.074 A 
ATOM     41  C   UNL A   1      43.971  27.339  29.336  1.00  0.00     0.031 C 
ATOM     42  C   UNL A   1      37.708  29.928  28.651  1.00  0.00     0.029 A 
ATOM     43  C   UNL A   1      38.637  30.703  29.477  1.00  0.00     0.049 A 
ATOM     44  H   UNL A   1      40.538  30.111  30.094  1.00  0.00     0.167 HD
ATOM     45  C   UNL A   1      44.702  29.298  30.654  1.00  0.00     0.031 A 
ATOM     46  C   UNL A   1      38.401  31.940  29.980  1.00  0.00     0.031 A 
ATOM     47  C   UNL A   1      44.497  30.514  31.394  1.00  0.00     0.049 A 
ATOM     48  C   UNL A   1      39.428  32.598  30.880  1.00  0.00     0.074 A 
ATOM     49  C   UNL A   1      45.401  31.189  32.199  1.00  0.00     0.029 A 
ATOM     50  N   UNL A   1      43.317  31.233  31.432  1.00  0.00    -0.354 N 
ATOM     51  N   UNL A   1      40.678  32.265  31.094  1.00  0.00    -0.248 NA
ATOM     52  C   UNL A   1      38.995  33.787  31.637  1.00  0.00     0.031 C 
ATOM     53  C   UNL A   1      44.742  32.272  32.788  1.00  0.00     0.029 A 
ATOM     54  C   UNL A   1      43.452  32.317  32.286  1.00  0.00     0.049 A 
ATOM     55  H   UNL A   1      42.501  31.008  30.928  1.00  0.00     0.167 HD
ATOM     56  C   UNL A   1      41.174  33.204  31.999  1.00  0.00     0.074 A 
ATOM     57  C   UNL A   1      40.108  34.140  32.265  1.00  0.00     0.031 C 
ATOM     58  C   UNL A   1      42.405  33.265  32.568  1.00  0.00     0.031 A 
BRANCH  45  59
ATOM     59  C   UNL A   1      46.058  28.657  30.724  1.00  0.00    -0.014 A 
ATOM     60  C   UNL A   1      46.400  27.739  31.729  1.00  0.00     0.010 A 
ATOM     61  C   UNL A   1      47.008  28.999  29.742  1.00  0.00     0.010 A 
ATOM     62  C   UNL A   1      47.689  27.199  31.771  1.00  0.00     0.020 A 
ATOM     63  C   UNL A   1      48.286  28.444  29.769  1.00  0.00     0.020 A 
ATOM     64  C   UNL A   1      48.625  27.562  30.795  1.00  0.00     0.054 A 
BRANCH  64  65
ATOM     65  S   UNL A   1      50.295  26.861  30.878  1.00  0.00     0.124 S 
ATOM     66  O   UNL A   1      50.114  25.575  30.209  1.00  0.00    -0.237 OA
ATOM     67  O   UNL A   1      51.091  27.843  30.148  1.00  0.00    -0.237 OA
ATOM     68  O   UNL A   1      50.567  26.782  32.311  1.00  0.00    -0.744 OA
ENDBRANCH  64  65
ENDBRANCH  45  59
BRANCH  46  69
ATOM     69  C   UNL A   1      37.094  32.641  29.753  1.00  0.00    -0.014 A 
ATOM     70  C   UNL A   1      36.867  33.401  28.588  1.00  0.00     0.010 A 
ATOM     71  C   UNL A   1      36.109  32.648  30.757  1.00  0.00     0.010 A 
ATOM     72  C   UNL A   1      35.704  34.171  28.448  1.00  0.00     0.020 A 
ATOM     73  C   UNL A   1      34.928  33.384  30.607  1.00  0.00     0.020 A 
ATOM     74  C   UNL A   1      34.741  34.157  29.461  1.00  0.00     0.054 A 
BRANCH  74  75
ATOM     75  S   UNL A   1      33.232  35.148  29.264  1.00  0.00     0.124 S 
ATOM     76  O   UNL A   1      33.764  36.423  28.795  1.00  0.00    -0.237 OA
ATOM     77  O   UNL A   1      32.473  34.379  28.280  1.00  0.00    -0.237 OA
ATOM     78  O   UNL A   1      32.658  35.165  30.607  1.00  0.00    -0.744 OA
ENDBRANCH  74  75
ENDBRANCH  46  69
BRANCH  58  79
ATOM     79  C   UNL A   1      42.702  34.384  33.541  1.00  0.00    -0.014 A 
ATOM     80  C   UNL A   1      42.556  34.204  34.929  1.00  0.00     0.010 A 
ATOM     81  C   UNL A   1      43.222  35.605  33.070  1.00  0.00     0.010 A 
ATOM     82  C   UNL A   1      42.902  35.225  35.821  1.00  0.00     0.020 A 
ATOM     83  C   UNL A   1      43.595  36.620  33.960  1.00  0.00     0.020 A 
ATOM     84  C   UNL A   1      43.423  36.427  35.331  1.00  0.00     0.054 A 
BRANCH  84  85
ATOM     85  S   UNL A   1      43.920  37.713  36.513  1.00  0.00     0.124 S 
ATOM     86  O   UNL A   1      45.247  37.256  36.922  1.00  0.00    -0.237 OA
ATOM     87  O   UNL A   1      43.897  38.924  35.698  1.00  0.00    -0.237 OA
ATOM     88  O   UNL A   1      42.894  37.648  37.551  1.00  0.00    -0.744 OA
ENDBRANCH  84  85
ENDBRANCH  58  79
ENDBRANCH  32  33
ENDBRANCH  25  27
ENDBRANCH  24  25
ENDBRANCH  23  24
ENDBRANCH   1  23
TORSDOF 20
ENDMDL
MODEL 2
REMARK VINA RESULT:      -9.3      2.523      3.346
REMARK SMILES CCN(C(=O)N1C[C@@H](C)[C@H](C(=O)OC)C1)C(C)(C)C(=O)OCCOC(=O)c1ccc(-c2c3nc(c(-c4ccc(S(=O)(=O)[O-])cc4)c4ccc([nH]4)c(-c4ccc(S(=O)(=O)[O-])cc4)c4nc(c(-c5ccc(S(=O)(=O)[O-])cc5)c5ccc2[nH]5)C=C4)C=C3)cc1
REMARK SMILES IDX 22 1 21 2 19 3 20 4 16 5 17 6 18 7 3 8 2 9 1 10 4 11 5 12
REMARK SMILES IDX 6 13 7 14 15 15 8 16 10 17 9 18 11 19 12 20 13 21 14 22
REMARK SMILES IDX 23 23 24 24 25 25 26 26 27 27 28 28 86 29 29 30 85 31 30 32
REMARK SMILES IDX 31 33 32 34 79 35 33 36 84 37 78 38 80 39 34 40 83 41 77 42
REMARK SMILES IDX 76 43 35 45 65 46 46 47 64 48 47 49 50 50 63 51 81 52 48 53
REMARK SMILES IDX 49 54 62 56 82 57 51 58 36 59 37 60 45 61 38 62 44 63 39 64
REMARK SMILES IDX 40 65 41 66 42 67 43 68 66 69 67 70 75 71 68 72 74 73 69 74
REMARK SMILES IDX 70 75 71 76 72 77 73 78 52 79 53 80 61 81 54 82 60 83 55 84
REMARK SMILES IDX 56 85 57 86 58 87 59 88
REMARK H PARENT 80 44 50 55
REMARK Flexibility Score: inf
ROOT
ATOM      1  C   UNL A   1      36.838  21.990  24.078  1.00  0.00     0.274 C 
ENDROOT
BRANCH   1   2
ATOM      2  O   UNL A   1      35.446  22.154  24.423  1.00  0.00    -0.460 OA
BRANCH   2   3
ATOM      3  C   UNL A   1      34.614  22.827  23.554  1.00  0.00     0.331 C 
ATOM      4  O   UNL A   1      35.036  23.669  22.775  1.00  0.00    -0.249 OA
BRANCH   3   5
ATOM      5  C   UNL A   1      33.085  22.425  23.805  1.00  0.00     0.136 C 
ATOM      6  C   UNL A   1      33.028  20.920  24.121  1.00  0.00     0.047 C 
ATOM      7  C   UNL A   1      32.401  22.635  22.427  1.00  0.00     0.047 C 
BRANCH   5   8
ATOM      8  N   UNL A   1      32.374  23.219  24.905  1.00  0.00    -0.309 N 
BRANCH   8   9
ATOM      9  C   UNL A   1      31.862  22.567  26.134  1.00  0.00     0.119 C 
ATOM     10  C   UNL A   1      30.561  22.980  26.792  1.00  0.00     0.027 C 
ENDBRANCH   8   9
BRANCH   8  11
ATOM     11  C   UNL A   1      32.826  24.553  25.170  1.00  0.00     0.320 C 
ATOM     12  O   UNL A   1      33.931  24.841  25.612  1.00  0.00    -0.248 OA
BRANCH  11  13
ATOM     13  N   UNL A   1      31.895  25.509  24.811  1.00  0.00    -0.323 N 
ATOM     14  C   UNL A   1      30.878  25.449  23.782  1.00  0.00     0.125 C 
ATOM     15  C   UNL A   1      31.501  26.506  25.753  1.00  0.00     0.137 C 
ATOM     16  C   UNL A   1      30.429  26.928  23.645  1.00  0.00     0.021 C 
ATOM     17  C   UNL A   1      31.029  27.652  24.874  1.00  0.00     0.123 C 
ATOM     18  C   UNL A   1      28.915  27.108  23.624  1.00  0.00     0.010 C 
BRANCH  17  19
ATOM     19  C   UNL A   1      32.075  28.667  24.432  1.00  0.00     0.310 C 
ATOM     20  O   UNL A   1      32.867  28.446  23.525  1.00  0.00    -0.252 OA
BRANCH  19  21
ATOM     21  O   UNL A   1      32.036  29.840  25.119  1.00  0.00    -0.469 OA
ATOM     22  C   UNL A   1      33.045  29.967  26.131  1.00  0.00     0.282 C 
ENDBRANCH  19  21
ENDBRANCH  17  19
ENDBRANCH  11  13
ENDBRANCH   8  11
ENDBRANCH   5   8
ENDBRANCH   3   5
ENDBRANCH   2   3
ENDBRANCH   1   2
BRANCH   1  23
ATOM     23  C   UNL A   1      37.597  21.030  25.000  1.00  0.00     0.275 C 
BRANCH  23  24
ATOM     24  O   UNL A   1      38.182  21.719  26.120  1.00  0.00    -0.458 OA
BRANCH  24  25
ATOM     25  C   UNL A   1      39.455  21.357  26.408  1.00  0.00     0.338 C 
ATOM     26  O   UNL A   1      40.006  20.321  26.076  1.00  0.00    -0.246 OA
BRANCH  25  27
ATOM     27  C   UNL A   1      40.191  22.490  27.008  1.00  0.00     0.060 A 
ATOM     28  C   UNL A   1      39.890  23.731  26.476  1.00  0.00     0.016 A 
ATOM     29  C   UNL A   1      41.174  22.391  28.003  1.00  0.00     0.016 A 
ATOM     30  C   UNL A   1      40.548  24.854  26.962  1.00  0.00     0.010 A 
ATOM     31  C   UNL A   1      41.795  23.561  28.518  1.00  0.00     0.010 A 
ATOM     32  C   UNL A   1      41.449  24.823  28.025  1.00  0.00    -0.014 A 
BRANCH  32  33
ATOM     33  C   UNL A   1      41.960  26.156  28.488  1.00  0.00     0.031 A 
ATOM     34  C   UNL A   1      43.396  26.537  28.205  1.00  0.00     0.074 A 
ATOM     35  C   UNL A   1      41.124  27.151  28.866  1.00  0.00     0.049 A 
ATOM     36  N   UNL A   1      44.004  27.682  28.397  1.00  0.00    -0.248 NA
ATOM     37  C   UNL A   1      44.236  25.508  27.572  1.00  0.00     0.031 C 
ATOM     38  C   UNL A   1      39.667  27.058  28.936  1.00  0.00     0.029 A 
ATOM     39  N   UNL A   1      41.379  28.475  29.176  1.00  0.00    -0.354 N 
ATOM     40  C   UNL A   1      45.297  27.508  27.918  1.00  0.00     0.074 A 
ATOM     41  C   UNL A   1      45.371  26.164  27.387  1.00  0.00     0.031 C 
ATOM     42  C   UNL A   1      39.160  28.273  29.224  1.00  0.00     0.029 A 
ATOM     43  C   UNL A   1      40.250  29.227  29.433  1.00  0.00     0.049 A 
ATOM     44  H   UNL A   1      42.289  28.850  29.211  1.00  0.00     0.167 HD
ATOM     45  C   UNL A   1      46.351  28.359  27.959  1.00  0.00     0.031 A 
ATOM     46  C   UNL A   1      40.104  30.519  29.815  1.00  0.00     0.031 A 
ATOM     47  C   UNL A   1      46.338  29.675  28.538  1.00  0.00     0.049 A 
ATOM     48  C   UNL A   1      41.329  31.378  30.063  1.00  0.00     0.074 A 
ATOM     49  C   UNL A   1      47.409  30.526  28.755  1.00  0.00     0.029 A 
ATOM     50  N   UNL A   1      45.211  30.329  29.001  1.00  0.00    -0.354 N 
ATOM     51  N   UNL A   1      42.580  31.151  29.740  1.00  0.00    -0.248 NA
ATOM     52  C   UNL A   1      41.122  32.659  30.763  1.00  0.00     0.031 C 
ATOM     53  C   UNL A   1      46.942  31.662  29.422  1.00  0.00     0.029 A 
ATOM     54  C   UNL A   1      45.567  31.552  29.548  1.00  0.00     0.049 A 
ATOM     55  H   UNL A   1      44.292  29.978  28.950  1.00  0.00     0.167 HD
ATOM     56  C   UNL A   1      43.298  32.259  30.191  1.00  0.00     0.074 A 
ATOM     57  C   UNL A   1      42.345  33.173  30.774  1.00  0.00     0.031 C 
ATOM     58  C   UNL A   1      44.636  32.482  30.136  1.00  0.00     0.031 A 
BRANCH  45  59
ATOM     59  C   UNL A   1      47.672  27.810  27.502  1.00  0.00    -0.014 A 
ATOM     60  C   UNL A   1      48.481  27.021  28.335  1.00  0.00     0.010 A 
ATOM     61  C   UNL A   1      48.100  28.104  26.194  1.00  0.00     0.010 A 
ATOM     62  C   UNL A   1      49.721  26.566  27.874  1.00  0.00     0.020 A 
ATOM     63  C   UNL A   1      49.324  27.632  25.724  1.00  0.00     0.020 A 
ATOM     64  C   UNL A   1      50.136  26.881  26.575  1.00  0.00     0.054 A 
BRANCH  64  65
ATOM     65  S   UNL A   1      51.752  26.291  26.004  1.00  0.00     0.124 S 
ATOM     66  O   UNL A   1      51.762  24.916  26.495  1.00  0.00    -0.237 OA
ATOM     67  O   UNL A   1      51.654  26.441  24.555  1.00  0.00    -0.237 OA
ATOM     68  O   UNL A   1      52.700  27.190  26.658  1.00  0.00    -0.744 OA
ENDBRANCH  64  65
ENDBRANCH  45  59
BRANCH  46  69
ATOM     69  C   UNL A   1      38.752  31.103  30.102  1.00  0.00    -0.014 A 
ATOM     70  C   UNL A   1      38.049  31.831  29.121  1.00  0.00     0.010 A 
ATOM     71  C   UNL A   1      38.209  31.032  31.398  1.00  0.00     0.010 A 
ATOM     72  C   UNL A   1      36.856  32.496  29.439  1.00  0.00     0.020 A 
ATOM     73  C   UNL A   1      36.999  31.661  31.711  1.00  0.00     0.020 A 
ATOM     74  C   UNL A   1      36.339  32.407  30.733  1.00  0.00     0.054 A 
BRANCH  74  75
ATOM     75  S   UNL A   1      34.787  33.261  31.130  1.00  0.00     0.124 S 
ATOM     76  O   UNL A   1      34.121  33.300  29.831  1.00  0.00    -0.237 OA
ATOM     77  O   UNL A   1      34.183  32.377  32.124  1.00  0.00    -0.237 OA
ATOM     78  O   UNL A   1      35.231  34.554  31.645  1.00  0.00    -0.744 OA
ENDBRANCH  74  75
ENDBRANCH  46  69
BRANCH  58  79
ATOM     79  C   UNL A   1      45.183  33.768  30.712  1.00  0.00    -0.014 A 
ATOM     80  C   UNL A   1      45.634  33.840  32.043  1.00  0.00     0.010 A 
ATOM     81  C   UNL A   1      45.335  34.899  29.886  1.00  0.00     0.010 A 
ATOM     82  C   UNL A   1      46.203  35.019  32.540  1.00  0.00     0.020 A 
ATOM     83  C   UNL A   1      45.929  36.070  30.370  1.00  0.00     0.020 A 
ATOM     84  C   UNL A   1      46.351  36.126  31.699  1.00  0.00     0.054 A 
BRANCH  84  85
ATOM     85  S   UNL A   1      47.148  37.622  32.353  1.00  0.00     0.124 S 
ATOM     86  O   UNL A   1      47.073  37.403  33.795  1.00  0.00    -0.237 OA
ATOM     87  O   UNL A   1      48.488  37.550  31.776  1.00  0.00    -0.237 OA
ATOM     88  O   UNL A   1      46.315  38.710  31.845  1.00  0.00    -0.744 OA
ENDBRANCH  84  85
ENDBRANCH  58  79
ENDBRANCH  32  33
ENDBRANCH  25  27
ENDBRANCH  24  25
ENDBRANCH  23  24
ENDBRANCH   1  23
TORSDOF 20
ENDMDL
MODEL 3
REMARK VINA RESULT:      -9.0      1.319      2.250
REMARK SMILES CCN(C(=O)N1C[C@@H](C)[C@H](C(=O)OC)C1)C(C)(C)C(=O)OCCOC(=O)c1ccc(-c2c3nc(c(-c4ccc(S(=O)(=O)[O-])cc4)c4ccc([nH]4)c(-c4ccc(S(=O)(=O)[O-])cc4)c4nc(c(-c5ccc(S(=O)(=O)[O-])cc5)c5ccc2[nH]5)C=C4)C=C3)cc1
REMARK SMILES IDX 22 1 21 2 19 3 20 4 16 5 17 6 18 7 3 8 2 9 1 10 4 11 5 12
REMARK SMILES IDX 6 13 7 14 15 15 8 16 10 17 9 18 11 19 12 20 13 21 14 22
REMARK SMILES IDX 23 23 24 24 25 25 26 26 27 27 28 28 86 29 29 30 85 31 30 32
REMARK SMILES IDX 31 33 32 34 79 35 33 36 84 37 78 38 80 39 34 40 83 41 77 42
REMARK SMILES IDX 76 43 35 45 65 46 46 47 64 48 47 49 50 50 63 51 81 52 48 53
REMARK SMILES IDX 49 54 62 56 82 57 51 58 36 59 37 60 45 61 38 62 44 63 39 64
REMARK SMILES IDX 40 65 41 66 42 67 43 68 66 69 67 70 75 71 68 72 74 73 69 74
REMARK SMILES IDX 70 75 71 76 72 77 73 78 52 79 53 80 61 81 54 82 60 83 55 84
REMARK SMILES IDX 56 85 57 86 58 87 59 88
REMARK H PARENT 80 44 50 55
REMARK Flexibility Score: inf
ROOT
ATOM      1  C   UNL A   1      36.414  24.069  25.236  1.00  0.00     0.274 C 
ENDROOT
BRANCH   1   2
ATOM      2  O   UNL A   1      35.033  23.913  24.848  1.00  0.00    -0.460 OA
BRANCH   2   3
ATOM      3  C   UNL A   1      34.714  23.854  23.508  1.00  0.00     0.331 C 
ATOM      4  O   UNL A   1      35.348  23.166  22.721  1.00  0.00    -0.249 OA
BRANCH   3   5
ATOM      5  C   UNL A   1      33.523  24.865  23.163  1.00  0.00     0.136 C 
ATOM      6  C   UNL A   1      33.104  24.637  21.700  1.00  0.00     0.047 C 
ATOM      7  C   UNL A   1      34.176  26.271  23.244  1.00  0.00     0.047 C 
BRANCH   5   8
ATOM      8  N   UNL A   1      32.299  24.769  24.080  1.00  0.00    -0.309 N 
BRANCH   8   9
ATOM      9  C   UNL A   1      32.371  25.122  25.519  1.00  0.00     0.119 C 
ATOM     10  C   UNL A   1      31.603  24.363  26.582  1.00  0.00     0.027 C 
ENDBRANCH   8   9
BRANCH   8  11
ATOM     11  C   UNL A   1      31.017  25.089  23.526  1.00  0.00     0.320 C 
ATOM     12  O   UNL A   1      30.159  24.268  23.230  1.00  0.00    -0.248 OA
BRANCH  11  13
ATOM     13  N   UNL A   1      30.815  26.452  23.413  1.00  0.00    -0.323 N 
ATOM     14  C   UNL A   1      30.830  27.279  22.225  1.00  0.00     0.125 C 
ATOM     15  C   UNL A   1      30.075  27.146  24.417  1.00  0.00     0.137 C 
ATOM     16  C   UNL A   1      30.902  28.719  22.800  1.00  0.00     0.021 C 
ATOM     17  C   UNL A   1      30.589  28.572  24.308  1.00  0.00     0.123 C 
ATOM     18  C   UNL A   1      29.914  29.684  22.156  1.00  0.00     0.010 C 
BRANCH  17  19
ATOM     19  C   UNL A   1      31.811  28.936  25.141  1.00  0.00     0.310 C 
ATOM     20  O   UNL A   1      32.815  29.443  24.654  1.00  0.00    -0.252 OA
BRANCH  19  21
ATOM     21  O   UNL A   1      31.680  28.667  26.468  1.00  0.00    -0.469 OA
ATOM     22  C   UNL A   1      32.904  28.300  27.120  1.00  0.00     0.282 C 
ENDBRANCH  19  21
ENDBRANCH  17  19
ENDBRANCH  11  13
ENDBRANCH   8  11
ENDBRANCH   5   8
ENDBRANCH   3   5
ENDBRANCH   2   3
ENDBRANCH   1   2
BRANCH   1  23
ATOM     23  C   UNL A   1      37.205  22.756  25.260  1.00  0.00     0.275 C 
BRANCH  23  24
ATOM     24  O   UNL A   1      37.899  22.576  26.507  1.00  0.00    -0.458 OA
BRANCH  24  25
ATOM     25  C   UNL A   1      39.243  22.724  26.435  1.00  0.00     0.338 C 
ATOM     26  O   UNL A   1      40.033  21.939  25.936  1.00  0.00    -0.246 OA
BRANCH  25  27
ATOM     27  C   UNL A   1      39.637  24.086  26.853  1.00  0.00     0.060 A 
ATOM     28  C   UNL A   1      39.366  24.392  28.175  1.00  0.00     0.016 A 
ATOM     29  C   UNL A   1      40.194  25.068  26.022  1.00  0.00     0.016 A 
ATOM     30  C   UNL A   1      39.681  25.658  28.655  1.00  0.00     0.010 A 
ATOM     31  C   UNL A   1      40.553  26.338  26.551  1.00  0.00     0.010 A 
ATOM     32  C   UNL A   1      40.337  26.630  27.901  1.00  0.00    -0.014 A 
BRANCH  32  33
ATOM     33  C   UNL A   1      40.703  27.888  28.633  1.00  0.00     0.031 A 
ATOM     34  C   UNL A   1      42.163  28.223  28.845  1.00  0.00     0.074 A 
ATOM     35  C   UNL A   1      39.808  28.884  28.836  1.00  0.00     0.049 A 
ATOM     36  N   UNL A   1      42.701  29.315  29.331  1.00  0.00    -0.248 NA
ATOM     37  C   UNL A   1      43.139  27.218  28.397  1.00  0.00     0.031 C 
ATOM     38  C   UNL A   1      38.400  28.855  28.447  1.00  0.00     0.029 A 
ATOM     39  N   UNL A   1      39.978  30.160  29.344  1.00  0.00    -0.354 N 
ATOM     40  C   UNL A   1      44.075  29.124  29.257  1.00  0.00     0.074 A 
ATOM     41  C   UNL A   1      44.287  27.832  28.638  1.00  0.00     0.031 C 
ATOM     42  C   UNL A   1      37.850  30.061  28.688  1.00  0.00     0.029 A 
ATOM     43  C   UNL A   1      38.839  30.938  29.319  1.00  0.00     0.049 A 
ATOM     44  H   UNL A   1      40.839  30.484  29.695  1.00  0.00     0.167 HD
ATOM     45  C   UNL A   1      45.080  29.915  29.706  1.00  0.00     0.031 A 
ATOM     46  C   UNL A   1      38.604  32.195  29.769  1.00  0.00     0.031 A 
ATOM     47  C   UNL A   1      44.910  31.171  30.385  1.00  0.00     0.049 A 
ATOM     48  C   UNL A   1      39.707  32.966  30.467  1.00  0.00     0.074 A 
ATOM     49  C   UNL A   1      45.877  31.946  31.007  1.00  0.00     0.029 A 
ATOM     50  N   UNL A   1      43.707  31.833  30.545  1.00  0.00    -0.354 N 
ATOM     51  N   UNL A   1      40.992  32.710  30.522  1.00  0.00    -0.248 NA
ATOM     52  C   UNL A   1      39.315  34.186  31.199  1.00  0.00     0.031 C 
ATOM     53  C   UNL A   1      45.245  33.036  31.612  1.00  0.00     0.029 A 
ATOM     54  C   UNL A   1      43.897  32.982  31.298  1.00  0.00     0.049 A 
ATOM     55  H   UNL A   1      42.844  31.533  30.179  1.00  0.00     0.167 HD
ATOM     56  C   UNL A   1      41.554  33.735  31.283  1.00  0.00     0.074 A 
ATOM     57  C   UNL A   1      40.483  34.636  31.637  1.00  0.00     0.031 C 
ATOM     58  C   UNL A   1      42.847  33.897  31.664  1.00  0.00     0.031 A 
BRANCH  45  59
ATOM     59  C   UNL A   1      46.467  29.347  29.623  1.00  0.00    -0.014 A 
ATOM     60  C   UNL A   1      47.340  29.658  28.568  1.00  0.00     0.010 A 
ATOM     61  C   UNL A   1      46.892  28.475  30.643  1.00  0.00     0.010 A 
ATOM     62  C   UNL A   1      48.610  29.073  28.519  1.00  0.00     0.020 A 
ATOM     63  C   UNL A   1      48.165  27.908  30.607  1.00  0.00     0.020 A 
ATOM     64  C   UNL A   1      49.009  28.197  29.535  1.00  0.00     0.054 A 
BRANCH  64  65
ATOM     65  S   UNL A   1      50.653  27.439  29.442  1.00  0.00     0.124 S 
ATOM     66  O   UNL A   1      50.836  27.293  28.000  1.00  0.00    -0.237 OA
ATOM     67  O   UNL A   1      51.503  28.436  30.086  1.00  0.00    -0.237 OA
ATOM     68  O   UNL A   1      50.500  26.185  30.177  1.00  0.00    -0.744 OA
ENDBRANCH  64  65
ENDBRANCH  45  59
BRANCH  46  69
ATOM     69  C   UNL A   1      37.240  32.815  29.685  1.00  0.00    -0.014 A 
ATOM     70  C   UNL A   1      36.837  33.541  28.547  1.00  0.00     0.010 A 
ATOM     71  C   UNL A   1      36.376  32.778  30.795  1.00  0.00     0.010 A 
ATOM     72  C   UNL A   1      35.621  34.240  28.534  1.00  0.00     0.020 A 
ATOM     73  C   UNL A   1      35.143  33.441  30.773  1.00  0.00     0.020 A 
ATOM     74  C   UNL A   1      34.782  34.184  29.649  1.00  0.00     0.054 A 
BRANCH  74  75
ATOM     75  S   UNL A   1      33.203  35.081  29.617  1.00  0.00     0.124 S 
ATOM     76  O   UNL A   1      32.776  34.996  31.010  1.00  0.00    -0.237 OA
ATOM     77  O   UNL A   1      33.601  36.409  29.156  1.00  0.00    -0.237 OA
ATOM     78  O   UNL A   1      32.397  34.316  28.667  1.00  0.00    -0.744 OA
ENDBRANCH  74  75
ENDBRANCH  46  69
BRANCH  58  79
ATOM     79  C   UNL A   1      43.211  35.097  32.509  1.00  0.00    -0.014 A 
ATOM     80  C   UNL A   1      43.200  35.032  33.915  1.00  0.00     0.010 A 
ATOM     81  C   UNL A   1      43.660  36.280  31.892  1.00  0.00     0.010 A 
ATOM     82  C   UNL A   1      43.608  36.129  34.683  1.00  0.00     0.020 A 
ATOM     83  C   UNL A   1      44.095  37.371  32.655  1.00  0.00     0.020 A 
ATOM     84  C   UNL A   1      44.057  37.291  34.048  1.00  0.00     0.054 A 
BRANCH  84  85
ATOM     85  S   UNL A   1      44.637  38.678  35.068  1.00  0.00     0.124 S 
ATOM     86  O   UNL A   1      43.660  39.718  34.755  1.00  0.00    -0.237 OA
ATOM     87  O   UNL A   1      44.562  38.134  36.422  1.00  0.00    -0.237 OA
ATOM     88  O   UNL A   1      45.990  38.929  34.578  1.00  0.00    -0.744 OA
ENDBRANCH  84  85
ENDBRANCH  58  79
ENDBRANCH  32  33
ENDBRANCH  25  27
ENDBRANCH  24  25
ENDBRANCH  23  24
ENDBRANCH   1  23
TORSDOF 20
ENDMDL
