MODEL 1
REMARK VINA RESULT:     -10.7      0.000      0.000
REMARK SMILES C[C@@H](C(=O)OCCOC(=O)c1ccc(-c2c3nc(c(-c4ccc(S(=O)(=O)[O-])cc4)c4ccc([nH]4)c(-c4ccc(S(=O)(=O)[O-])cc4)c4nc(c(-c5ccc(S(=O)(=O)[O-])cc5)c5ccc2[nH]5)C=C4)C=C3)cc1)[C@H]1CCOC2(CCCCC2)C1
REMARK SMILES IDX 7 1 6 2 5 3 3 4 4 5 2 6 1 7 71 8 72 9 81 10 73 11 75 12
REMARK SMILES IDX 74 13 76 14 80 15 77 16 79 17 78 18 8 19 9 20 10 21 11 22
REMARK SMILES IDX 12 23 70 24 13 25 69 26 14 27 15 28 16 29 63 30 17 31 68 32
REMARK SMILES IDX 62 33 64 34 18 35 67 36 61 37 60 38 19 40 49 41 30 42 48 43
REMARK SMILES IDX 31 44 34 45 47 46 65 47 32 48 33 49 46 51 66 52 35 53 20 54
REMARK SMILES IDX 21 55 29 56 22 57 28 58 23 59 24 60 25 61 26 62 27 63 50 64
REMARK SMILES IDX 51 65 59 66 52 67 58 68 53 69 54 70 55 71 56 72 57 73 36 74
REMARK SMILES IDX 37 75 45 76 38 77 44 78 39 79 40 80 41 81 42 82 43 83
REMARK H PARENT 64 39 34 50
REMARK Flexibility Score: inf
ROOT
ATOM      1  C   UNL A   1      34.641  32.108  29.633  1.00  0.00     0.275 C 
ENDROOT
BRANCH   1   2
ATOM      2  C   UNL A   1      34.117  32.546  28.270  1.00  0.00     0.274 C 
BRANCH   2   3
ATOM      3  O   UNL A   1      34.249  31.455  27.335  1.00  0.00    -0.462 OA
BRANCH   3   4
ATOM      4  C   UNL A   1      33.139  30.712  27.076  1.00  0.00     0.309 C 
ATOM      5  O   UNL A   1      32.019  31.181  26.916  1.00  0.00    -0.252 OA
BRANCH   4   6
ATOM      6  C   UNL A   1      33.421  29.204  27.097  1.00  0.00     0.099 C 
ATOM      7  C   UNL A   1      34.910  28.901  27.346  1.00  0.00     0.020 C 
BRANCH   6   8
ATOM      8  C   UNL A   1      32.938  28.403  25.850  1.00  0.00     0.008 C 
ATOM      9  C   UNL A   1      33.194  29.215  24.561  1.00  0.00     0.033 C 
ATOM     10  C   UNL A   1      33.562  27.016  25.643  1.00  0.00     0.040 C 
ATOM     11  C   UNL A   1      32.809  28.465  23.288  1.00  0.00     0.161 C 
ATOM     12  C   UNL A   1      33.010  26.322  24.374  1.00  0.00     0.069 C 
ATOM     13  O   UNL A   1      33.334  27.144  23.243  1.00  0.00    -0.375 OA
ATOM     14  C   UNL A   1      31.482  26.074  24.462  1.00  0.00     0.035 C 
ATOM     15  C   UNL A   1      33.753  24.978  24.182  1.00  0.00     0.035 C 
ATOM     16  C   UNL A   1      30.946  25.256  23.292  1.00  0.00     0.003 C 
ATOM     17  C   UNL A   1      33.170  24.097  23.074  1.00  0.00     0.003 C 
ATOM     18  C   UNL A   1      31.663  23.921  23.190  1.00  0.00     0.000 C 
ENDBRANCH   6   8
ENDBRANCH   4   6
ENDBRANCH   3   4
ENDBRANCH   2   3
ENDBRANCH   1   2
BRANCH   1  19
ATOM     19  O   UNL A   1      35.987  31.644  29.455  1.00  0.00    -0.458 OA
BRANCH  19  20
ATOM     20  C   UNL A   1      36.401  30.647  30.272  1.00  0.00     0.338 C 
ATOM     21  O   UNL A   1      35.897  30.305  31.326  1.00  0.00    -0.246 OA
BRANCH  20  22
ATOM     22  C   UNL A   1      37.591  30.008  29.666  1.00  0.00     0.060 A 
ATOM     23  C   UNL A   1      38.444  29.251  30.463  1.00  0.00     0.016 A 
ATOM     24  C   UNL A   1      37.911  30.224  28.322  1.00  0.00     0.016 A 
ATOM     25  C   UNL A   1      39.645  28.780  29.940  1.00  0.00     0.010 A 
ATOM     26  C   UNL A   1      39.100  29.696  27.787  1.00  0.00     0.010 A 
ATOM     27  C   UNL A   1      40.010  29.009  28.605  1.00  0.00    -0.014 A 
BRANCH  27  28
ATOM     28  C   UNL A   1      41.399  28.660  28.163  1.00  0.00     0.031 A 
ATOM     29  C   UNL A   1      42.550  29.576  28.518  1.00  0.00     0.074 A 
ATOM     30  C   UNL A   1      41.688  27.446  27.643  1.00  0.00     0.049 A 
ATOM     31  N   UNL A   1      43.822  29.456  28.227  1.00  0.00    -0.248 NA
ATOM     32  C   UNL A   1      42.236  30.769  29.323  1.00  0.00     0.031 C 
ATOM     33  C   UNL A   1      40.723  26.370  27.414  1.00  0.00     0.029 A 
ATOM     34  N   UNL A   1      42.900  26.869  27.330  1.00  0.00    -0.354 N 
ATOM     35  C   UNL A   1      44.439  30.595  28.734  1.00  0.00     0.074 A 
ATOM     36  C   UNL A   1      43.413  31.372  29.394  1.00  0.00     0.031 C 
ATOM     37  C   UNL A   1      41.389  25.234  27.154  1.00  0.00     0.029 A 
ATOM     38  C   UNL A   1      42.820  25.517  27.075  1.00  0.00     0.049 A 
ATOM     39  H   UNL A   1      43.744  27.376  27.292  1.00  0.00     0.167 HD
ATOM     40  C   UNL A   1      45.733  30.980  28.631  1.00  0.00     0.031 A 
ATOM     41  C   UNL A   1      43.782  24.609  26.806  1.00  0.00     0.031 A 
ATOM     42  C   UNL A   1      46.774  30.200  28.020  1.00  0.00     0.049 A 
ATOM     43  C   UNL A   1      45.207  25.071  26.638  1.00  0.00     0.074 A 
ATOM     44  C   UNL A   1      48.085  30.563  27.759  1.00  0.00     0.029 A 
ATOM     45  N   UNL A   1      46.633  28.889  27.602  1.00  0.00    -0.354 N 
ATOM     46  N   UNL A   1      45.742  26.230  26.935  1.00  0.00    -0.248 NA
ATOM     47  C   UNL A   1      46.146  24.110  26.036  1.00  0.00     0.031 C 
ATOM     48  C   UNL A   1      48.725  29.483  27.140  1.00  0.00     0.029 A 
ATOM     49  C   UNL A   1      47.825  28.434  27.063  1.00  0.00     0.049 A 
ATOM     50  H   UNL A   1      45.808  28.357  27.677  1.00  0.00     0.167 HD
ATOM     51  C   UNL A   1      47.071  26.146  26.526  1.00  0.00     0.074 A 
ATOM     52  C   UNL A   1      47.275  24.805  26.021  1.00  0.00     0.031 C 
ATOM     53  C   UNL A   1      48.025  27.109  26.537  1.00  0.00     0.031 A 
BRANCH  40  54
ATOM     54  C   UNL A   1      46.071  32.375  29.078  1.00  0.00    -0.014 A 
ATOM     55  C   UNL A   1      45.887  33.495  28.252  1.00  0.00     0.010 A 
ATOM     56  C   UNL A   1      46.559  32.552  30.387  1.00  0.00     0.010 A 
ATOM     57  C   UNL A   1      46.214  34.772  28.723  1.00  0.00     0.020 A 
ATOM     58  C   UNL A   1      46.866  33.825  30.867  1.00  0.00     0.020 A 
ATOM     59  C   UNL A   1      46.706  34.928  30.025  1.00  0.00     0.054 A 
BRANCH  59  60
ATOM     60  S   UNL A   1      47.109  36.593  30.621  1.00  0.00     0.124 S 
ATOM     61  O   UNL A   1      47.687  36.310  31.933  1.00  0.00    -0.237 OA
ATOM     62  O   UNL A   1      48.048  37.077  29.612  1.00  0.00    -0.237 OA
ATOM     63  O   UNL A   1      45.818  37.275  30.644  1.00  0.00    -0.744 OA
ENDBRANCH  59  60
ENDBRANCH  40  54
BRANCH  41  64
ATOM     64  C   UNL A   1      43.450  23.166  26.619  1.00  0.00    -0.014 A 
ATOM     65  C   UNL A   1      42.874  22.430  27.671  1.00  0.00     0.010 A 
ATOM     66  C   UNL A   1      43.750  22.504  25.414  1.00  0.00     0.010 A 
ATOM     67  C   UNL A   1      42.619  21.062  27.528  1.00  0.00     0.020 A 
ATOM     68  C   UNL A   1      43.462  21.146  25.255  1.00  0.00     0.020 A 
ATOM     69  C   UNL A   1      42.915  20.428  26.320  1.00  0.00     0.054 A 
BRANCH  69  70
ATOM     70  S   UNL A   1      42.543  18.664  26.120  1.00  0.00     0.124 S 
ATOM     71  O   UNL A   1      42.825  18.143  27.454  1.00  0.00    -0.237 OA
ATOM     72  O   UNL A   1      41.137  18.668  25.725  1.00  0.00    -0.237 OA
ATOM     73  O   UNL A   1      43.472  18.243  25.073  1.00  0.00    -0.744 OA
ENDBRANCH  69  70
ENDBRANCH  41  64
BRANCH  53  74
ATOM     74  C   UNL A   1      49.366  26.777  25.938  1.00  0.00    -0.014 A 
ATOM     75  C   UNL A   1      49.654  27.125  24.606  1.00  0.00     0.010 A 
ATOM     76  C   UNL A   1      50.368  26.177  26.720  1.00  0.00     0.010 A 
ATOM     77  C   UNL A   1      50.912  26.857  24.058  1.00  0.00     0.020 A 
ATOM     78  C   UNL A   1      51.636  25.928  26.182  1.00  0.00     0.020 A 
ATOM     79  C   UNL A   1      51.896  26.259  24.850  1.00  0.00     0.054 A 
BRANCH  79  80
ATOM     80  S   UNL A   1      53.536  25.969  24.130  1.00  0.00     0.124 S 
ATOM     81  O   UNL A   1      54.281  27.140  24.588  1.00  0.00    -0.237 OA
ATOM     82  O   UNL A   1      53.933  24.698  24.732  1.00  0.00    -0.237 OA
ATOM     83  O   UNL A   1      53.280  25.917  22.693  1.00  0.00    -0.744 OA
ENDBRANCH  79  80
ENDBRANCH  53  74
ENDBRANCH  27  28
ENDBRANCH  20  22
ENDBRANCH  19  20
ENDBRANCH   1  19
TORSDOF 15
ENDMDL
MODEL 2
REMARK VINA RESULT:     -10.7      1.514      2.179
REMARK SMILES C[C@@H](C(=O)OCCOC(=O)c1ccc(-c2c3nc(c(-c4ccc(S(=O)(=O)[O-])cc4)c4ccc([nH]4)c(-c4ccc(S(=O)(=O)[O-])cc4)c4nc(c(-c5ccc(S(=O)(=O)[O-])cc5)c5ccc2[nH]5)C=C4)C=C3)cc1)[C@H]1CCOC2(CCCCC2)C1
REMARK SMILES IDX 7 1 6 2 5 3 3 4 4 5 2 6 1 7 71 8 72 9 81 10 73 11 75 12
REMARK SMILES IDX 74 13 76 14 80 15 77 16 79 17 78 18 8 19 9 20 10 21 11 22
REMARK SMILES IDX 12 23 70 24 13 25 69 26 14 27 15 28 16 29 63 30 17 31 68 32
REMARK SMILES IDX 62 33 64 34 18 35 67 36 61 37 60 38 19 40 49 41 30 42 48 43
REMARK SMILES IDX 31 44 34 45 47 46 65 47 32 48 33 49 46 51 66 52 35 53 20 54
REMARK SMILES IDX 21 55 29 56 22 57 28 58 23 59 24 60 25 61 26 62 27 63 50 64
REMARK SMILES IDX 51 65 59 66 52 67 58 68 53 69 54 70 55 71 56 72 57 73 36 74
REMARK SMILES IDX 37 75 45 76 38 77 44 78 39 79 40 80 41 81 42 82 43 83
REMARK H PARENT 64 39 34 50
REMARK Flexibility Score: inf
ROOT
ATOM      1  C   UNL A   1      35.536  31.281  28.293  1.00  0.00     0.275 C 
ENDROOT
BRANCH   1   2
ATOM      2  C   UNL A   1      34.102  31.295  27.774  1.00  0.00     0.274 C 
BRANCH   2   3
ATOM      3  O   UNL A   1      33.911  30.185  26.872  1.00  0.00    -0.462 OA
BRANCH   3   4
ATOM      4  C   UNL A   1      32.641  29.912  26.472  1.00  0.00     0.309 C 
ATOM      5  O   UNL A   1      31.638  30.243  27.092  1.00  0.00    -0.252 OA
BRANCH   4   6
ATOM      6  C   UNL A   1      32.595  29.057  25.198  1.00  0.00     0.099 C 
ATOM      7  C   UNL A   1      31.240  29.173  24.477  1.00  0.00     0.020 C 
BRANCH   6   8
ATOM      8  C   UNL A   1      32.953  27.551  25.376  1.00  0.00     0.008 C 
ATOM      9  C   UNL A   1      31.771  26.792  26.019  1.00  0.00     0.033 C 
ATOM     10  C   UNL A   1      33.344  26.785  24.104  1.00  0.00     0.040 C 
ATOM     11  C   UNL A   1      32.022  25.293  26.162  1.00  0.00     0.161 C 
ATOM     12  C   UNL A   1      33.673  25.302  24.405  1.00  0.00     0.069 C 
ATOM     13  O   UNL A   1      32.498  24.694  24.964  1.00  0.00    -0.375 OA
ATOM     14  C   UNL A   1      34.884  25.155  25.360  1.00  0.00     0.035 C 
ATOM     15  C   UNL A   1      33.962  24.579  23.067  1.00  0.00     0.035 C 
ATOM     16  C   UNL A   1      35.318  23.705  25.546  1.00  0.00     0.003 C 
ATOM     17  C   UNL A   1      34.491  23.152  23.234  1.00  0.00     0.003 C 
ATOM     18  C   UNL A   1      35.654  23.063  24.212  1.00  0.00     0.000 C 
ENDBRANCH   6   8
ENDBRANCH   4   6
ENDBRANCH   3   4
ENDBRANCH   2   3
ENDBRANCH   1   2
BRANCH   1  19
ATOM     19  O   UNL A   1      36.008  29.928  28.235  1.00  0.00    -0.458 OA
BRANCH  19  20
ATOM     20  C   UNL A   1      36.809  29.517  29.247  1.00  0.00     0.338 C 
ATOM     21  O   UNL A   1      36.527  29.463  30.429  1.00  0.00    -0.246 OA
BRANCH  20  22
ATOM     22  C   UNL A   1      38.117  29.120  28.678  1.00  0.00     0.060 A 
ATOM     23  C   UNL A   1      38.998  28.366  29.448  1.00  0.00     0.016 A 
ATOM     24  C   UNL A   1      38.509  29.562  27.412  1.00  0.00     0.016 A 
ATOM     25  C   UNL A   1      40.289  28.124  28.984  1.00  0.00     0.010 A 
ATOM     26  C   UNL A   1      39.795  29.263  26.928  1.00  0.00     0.010 A 
ATOM     27  C   UNL A   1      40.723  28.583  27.732  1.00  0.00    -0.014 A 
BRANCH  27  28
ATOM     28  C   UNL A   1      42.176  28.472  27.383  1.00  0.00     0.031 A 
ATOM     29  C   UNL A   1      43.164  29.459  27.965  1.00  0.00     0.074 A 
ATOM     30  C   UNL A   1      42.664  27.389  26.736  1.00  0.00     0.049 A 
ATOM     31  N   UNL A   1      44.459  29.538  27.784  1.00  0.00    -0.248 NA
ATOM     32  C   UNL A   1      42.631  30.477  28.887  1.00  0.00     0.031 C 
ATOM     33  C   UNL A   1      41.872  26.249  26.275  1.00  0.00     0.029 A 
ATOM     34  N   UNL A   1      43.962  27.014  26.467  1.00  0.00    -0.354 N 
ATOM     35  C   UNL A   1      44.878  30.658  28.495  1.00  0.00     0.074 A 
ATOM     36  C   UNL A   1      43.709  31.202  29.150  1.00  0.00     0.031 C 
ATOM     37  C   UNL A   1      42.701  25.251  25.932  1.00  0.00     0.029 A 
ATOM     38  C   UNL A   1      44.083  25.714  26.029  1.00  0.00     0.049 A 
ATOM     39  H   UNL A   1      44.732  27.619  26.578  1.00  0.00     0.167 HD
ATOM     40  C   UNL A   1      46.113  31.207  28.568  1.00  0.00     0.031 A 
ATOM     41  C   UNL A   1      45.176  24.976  25.735  1.00  0.00     0.031 A 
ATOM     42  C   UNL A   1      47.293  30.655  27.961  1.00  0.00     0.049 A 
ATOM     43  C   UNL A   1      46.535  25.627  25.768  1.00  0.00     0.074 A 
ATOM     44  C   UNL A   1      48.560  31.207  27.879  1.00  0.00     0.029 A 
ATOM     45  N   UNL A   1      47.361  29.410  27.362  1.00  0.00    -0.354 N 
ATOM     46  N   UNL A   1      46.887  26.787  26.265  1.00  0.00    -0.248 NA
ATOM     47  C   UNL A   1      47.638  24.883  25.136  1.00  0.00     0.031 C 
ATOM     48  C   UNL A   1      49.384  30.313  27.185  1.00  0.00     0.029 A 
ATOM     49  C   UNL A   1      48.641  29.185  26.884  1.00  0.00     0.049 A 
ATOM     50  H   UNL A   1      46.610  28.777  27.286  1.00  0.00     0.167 HD
ATOM     51  C   UNL A   1      48.242  26.923  25.979  1.00  0.00     0.074 A 
ATOM     52  C   UNL A   1      48.662  25.705  25.322  1.00  0.00     0.031 C 
ATOM     53  C   UNL A   1      49.056  27.984  26.209  1.00  0.00     0.031 A 
BRANCH  40  54
ATOM     54  C   UNL A   1      46.227  32.554  29.227  1.00  0.00    -0.014 A 
ATOM     55  C   UNL A   1      45.950  33.750  28.546  1.00  0.00     0.010 A 
ATOM     56  C   UNL A   1      46.594  32.599  30.585  1.00  0.00     0.010 A 
ATOM     57  C   UNL A   1      46.067  34.975  29.212  1.00  0.00     0.020 A 
ATOM     58  C   UNL A   1      46.691  33.817  31.257  1.00  0.00     0.020 A 
ATOM     59  C   UNL A   1      46.441  35.001  30.561  1.00  0.00     0.054 A 
BRANCH  59  60
ATOM     60  S   UNL A   1      46.572  36.600  31.408  1.00  0.00     0.124 S 
ATOM     61  O   UNL A   1      45.880  37.489  30.479  1.00  0.00    -0.237 OA
ATOM     62  O   UNL A   1      45.881  36.351  32.671  1.00  0.00    -0.237 OA
ATOM     63  O   UNL A   1      48.012  36.815  31.522  1.00  0.00    -0.744 OA
ENDBRANCH  59  60
ENDBRANCH  40  54
BRANCH  41  64
ATOM     64  C   UNL A   1      45.055  23.546  25.327  1.00  0.00    -0.014 A 
ATOM     65  C   UNL A   1      45.303  22.521  26.259  1.00  0.00     0.010 A 
ATOM     66  C   UNL A   1      44.742  23.195  24.001  1.00  0.00     0.010 A 
ATOM     67  C   UNL A   1      45.255  21.177  25.871  1.00  0.00     0.020 A 
ATOM     68  C   UNL A   1      44.656  21.853  23.619  1.00  0.00     0.020 A 
ATOM     69  C   UNL A   1      44.932  20.853  24.552  1.00  0.00     0.054 A 
BRANCH  69  70
ATOM     70  S   UNL A   1      44.827  19.109  24.060  1.00  0.00     0.124 S 
ATOM     71  O   UNL A   1      46.186  18.642  24.316  1.00  0.00    -0.237 OA
ATOM     72  O   UNL A   1      43.796  18.579  24.948  1.00  0.00    -0.237 OA
ATOM     73  O   UNL A   1      44.444  19.182  22.651  1.00  0.00    -0.744 OA
ENDBRANCH  69  70
ENDBRANCH  41  64
BRANCH  53  74
ATOM     74  C   UNL A   1      50.472  27.906  25.702  1.00  0.00    -0.014 A 
ATOM     75  C   UNL A   1      51.492  27.389  26.522  1.00  0.00     0.010 A 
ATOM     76  C   UNL A   1      50.780  28.283  24.384  1.00  0.00     0.010 A 
ATOM     77  C   UNL A   1      52.799  27.275  26.042  1.00  0.00     0.020 A 
ATOM     78  C   UNL A   1      52.084  28.150  23.892  1.00  0.00     0.020 A 
ATOM     79  C   UNL A   1      53.088  27.657  24.728  1.00  0.00     0.054 A 
BRANCH  79  80
ATOM     80  S   UNL A   1      54.783  27.450  24.114  1.00  0.00     0.124 S 
ATOM     81  O   UNL A   1      54.624  27.719  22.687  1.00  0.00    -0.237 OA
ATOM     82  O   UNL A   1      55.524  28.461  24.864  1.00  0.00    -0.237 OA
ATOM     83  O   UNL A   1      55.109  26.067  24.454  1.00  0.00    -0.744 OA
ENDBRANCH  79  80
ENDBRANCH  53  74
ENDBRANCH  27  28
ENDBRANCH  20  22
ENDBRANCH  19  20
ENDBRANCH   1  19
TORSDOF 15
ENDMDL
MODEL 3
REMARK VINA RESULT:     -10.7      6.630     12.527
REMARK SMILES C[C@@H](C(=O)OCCOC(=O)c1ccc(-c2c3nc(c(-c4ccc(S(=O)(=O)[O-])cc4)c4ccc([nH]4)c(-c4ccc(S(=O)(=O)[O-])cc4)c4nc(c(-c5ccc(S(=O)(=O)[O-])cc5)c5ccc2[nH]5)C=C4)C=C3)cc1)[C@H]1CCOC2(CCCCC2)C1
REMARK SMILES IDX 7 1 6 2 5 3 3 4 4 5 2 6 1 7 71 8 72 9 81 10 73 11 75 12
REMARK SMILES IDX 74 13 76 14 80 15 77 16 79 17 78 18 8 19 9 20 10 21 11 22
REMARK SMILES IDX 12 23 70 24 13 25 69 26 14 27 15 28 16 29 63 30 17 31 68 32
REMARK SMILES IDX 62 33 64 34 18 35 67 36 61 37 60 38 19 40 49 41 30 42 48 43
REMARK SMILES IDX 31 44 34 45 47 46 65 47 32 48 33 49 46 51 66 52 35 53 20 54
REMARK SMILES IDX 21 55 29 56 22 57 28 58 23 59 24 60 25 61 26 62 27 63 50 64
REMARK SMILES IDX 51 65 59 66 52 67 58 68 53 69 54 70 55 71 56 72 57 73 36 74
REMARK SMILES IDX 37 75 45 76 38 77 44 78 39 79 40 80 41 81 42 82 43 83
REMARK H PARENT 64 39 34 50
REMARK Flexibility Score: inf
ROOT
ATOM      1  C   UNL A   1      38.925  23.288  26.250  1.00  0.00     0.275 C 
ENDROOT
BRANCH   1   2
ATOM      2  C   UNL A   1      37.559  22.696  25.920  1.00  0.00     0.274 C 
BRANCH   2   3
ATOM      3  O   UNL A   1      37.532  22.308  24.530  1.00  0.00    -0.462 OA
BRANCH   3   4
ATOM      4  C   UNL A   1      36.545  22.827  23.752  1.00  0.00     0.309 C 
ATOM      5  O   UNL A   1      36.673  23.086  22.561  1.00  0.00    -0.252 OA
BRANCH   4   6
ATOM      6  C   UNL A   1      35.272  23.146  24.548  1.00  0.00     0.099 C 
ATOM      7  C   UNL A   1      34.281  21.968  24.543  1.00  0.00     0.020 C 
BRANCH   6   8
ATOM      8  C   UNL A   1      34.522  24.449  24.138  1.00  0.00     0.008 C 
ATOM      9  C   UNL A   1      33.533  24.157  22.987  1.00  0.00     0.033 C 
ATOM     10  C   UNL A   1      33.730  25.160  25.244  1.00  0.00     0.040 C 
ATOM     11  C   UNL A   1      32.709  25.374  22.575  1.00  0.00     0.161 C 
ATOM     12  C   UNL A   1      33.026  26.435  24.717  1.00  0.00     0.069 C 
ATOM     13  O   UNL A   1      32.113  26.040  23.682  1.00  0.00    -0.375 OA
ATOM     14  C   UNL A   1      34.037  27.488  24.195  1.00  0.00     0.035 C 
ATOM     15  C   UNL A   1      32.176  27.039  25.861  1.00  0.00     0.035 C 
ATOM     16  C   UNL A   1      33.375  28.807  23.815  1.00  0.00     0.003 C 
ATOM     17  C   UNL A   1      31.580  28.411  25.535  1.00  0.00     0.003 C 
ATOM     18  C   UNL A   1      32.611  29.390  24.991  1.00  0.00     0.000 C 
ENDBRANCH   6   8
ENDBRANCH   4   6
ENDBRANCH   3   4
ENDBRANCH   2   3
ENDBRANCH   1   2
BRANCH   1  19
ATOM     19  O   UNL A   1      38.748  24.693  26.478  1.00  0.00    -0.458 OA
BRANCH  19  20
ATOM     20  C   UNL A   1      39.864  25.413  26.744  1.00  0.00     0.338 C 
ATOM     21  O   UNL A   1      40.921  25.377  26.141  1.00  0.00    -0.246 OA
BRANCH  20  22
ATOM     22  C   UNL A   1      39.593  26.287  27.907  1.00  0.00     0.060 A 
ATOM     23  C   UNL A   1      39.965  27.627  27.860  1.00  0.00     0.016 A 
ATOM     24  C   UNL A   1      39.045  25.763  29.081  1.00  0.00     0.016 A 
ATOM     25  C   UNL A   1      39.860  28.416  29.003  1.00  0.00     0.010 A 
ATOM     26  C   UNL A   1      38.889  26.582  30.214  1.00  0.00     0.010 A 
ATOM     27  C   UNL A   1      39.345  27.910  30.205  1.00  0.00    -0.014 A 
BRANCH  27  28
ATOM     28  C   UNL A   1      39.451  28.742  31.447  1.00  0.00     0.031 A 
ATOM     29  C   UNL A   1      40.762  28.795  32.202  1.00  0.00     0.074 A 
ATOM     30  C   UNL A   1      38.480  29.616  31.795  1.00  0.00     0.049 A 
ATOM     31  N   UNL A   1      41.059  29.449  33.297  1.00  0.00    -0.248 NA
ATOM     32  C   UNL A   1      41.891  28.033  31.642  1.00  0.00     0.031 C 
ATOM     33  C   UNL A   1      37.231  29.831  31.064  1.00  0.00     0.029 A 
ATOM     34  N   UNL A   1      38.449  30.576  32.783  1.00  0.00    -0.354 N 
ATOM     35  C   UNL A   1      42.373  29.109  33.602  1.00  0.00     0.074 A 
ATOM     36  C   UNL A   1      42.834  28.228  32.552  1.00  0.00     0.031 C 
ATOM     37  C   UNL A   1      36.641  30.945  31.524  1.00  0.00     0.029 A 
ATOM     38  C   UNL A   1      37.398  31.459  32.663  1.00  0.00     0.049 A 
ATOM     39  H   UNL A   1      39.114  30.626  33.507  1.00  0.00     0.167 HD
ATOM     40  C   UNL A   1      43.118  29.465  34.675  1.00  0.00     0.031 A 
ATOM     41  C   UNL A   1      37.075  32.555  33.384  1.00  0.00     0.031 A 
ATOM     42  C   UNL A   1      42.692  30.373  35.704  1.00  0.00     0.049 A 
ATOM     43  C   UNL A   1      37.885  32.896  34.608  1.00  0.00     0.074 A 
ATOM     44  C   UNL A   1      43.330  30.696  36.890  1.00  0.00     0.029 A 
ATOM     45  N   UNL A   1      41.536  31.132  35.655  1.00  0.00    -0.354 N 
ATOM     46  N   UNL A   1      39.041  32.417  34.998  1.00  0.00    -0.248 NA
ATOM     47  C   UNL A   1      37.307  33.892  35.525  1.00  0.00     0.031 C 
ATOM     48  C   UNL A   1      42.534  31.615  37.582  1.00  0.00     0.029 A 
ATOM     49  C   UNL A   1      41.428  31.903  36.800  1.00  0.00     0.049 A 
ATOM     50  H   UNL A   1      40.886  31.125  34.915  1.00  0.00     0.167 HD
ATOM     51  C   UNL A   1      39.310  33.030  36.218  1.00  0.00     0.074 A 
ATOM     52  C   UNL A   1      38.231  33.959  36.473  1.00  0.00     0.031 C 
ATOM     53  C   UNL A   1      40.343  32.811  37.068  1.00  0.00     0.031 A 
BRANCH  40  54
ATOM     54  C   UNL A   1      44.432  28.759  34.862  1.00  0.00    -0.014 A 
ATOM     55  C   UNL A   1      45.653  29.323  34.460  1.00  0.00     0.010 A 
ATOM     56  C   UNL A   1      44.426  27.501  35.494  1.00  0.00     0.010 A 
ATOM     57  C   UNL A   1      46.847  28.623  34.664  1.00  0.00     0.020 A 
ATOM     58  C   UNL A   1      45.616  26.810  35.718  1.00  0.00     0.020 A 
ATOM     59  C   UNL A   1      46.821  27.369  35.287  1.00  0.00     0.054 A 
BRANCH  59  60
ATOM     60  S   UNL A   1      48.382  26.485  35.556  1.00  0.00     0.124 S 
ATOM     61  O   UNL A   1      49.290  27.578  35.896  1.00  0.00    -0.237 OA
ATOM     62  O   UNL A   1      48.053  25.578  36.653  1.00  0.00    -0.237 OA
ATOM     63  O   UNL A   1      48.639  25.838  34.272  1.00  0.00    -0.744 OA
ENDBRANCH  59  60
ENDBRANCH  40  54
BRANCH  41  64
ATOM     64  C   UNL A   1      35.900  33.399  33.020  1.00  0.00    -0.014 A 
ATOM     65  C   UNL A   1      36.062  34.509  32.170  1.00  0.00     0.010 A 
ATOM     66  C   UNL A   1      34.626  33.135  33.555  1.00  0.00     0.010 A 
ATOM     67  C   UNL A   1      34.980  35.345  31.875  1.00  0.00     0.020 A 
ATOM     68  C   UNL A   1      33.534  33.947  33.232  1.00  0.00     0.020 A 
ATOM     69  C   UNL A   1      33.722  35.057  32.408  1.00  0.00     0.054 A 
BRANCH  69  70
ATOM     70  S   UNL A   1      32.309  36.117  31.990  1.00  0.00     0.124 S 
ATOM     71  O   UNL A   1      31.184  35.329  32.486  1.00  0.00    -0.237 OA
ATOM     72  O   UNL A   1      32.594  37.347  32.723  1.00  0.00    -0.237 OA
ATOM     73  O   UNL A   1      32.399  36.234  30.536  1.00  0.00    -0.744 OA
ENDBRANCH  69  70
ENDBRANCH  41  64
BRANCH  53  74
ATOM     74  C   UNL A   1      40.340  33.545  38.383  1.00  0.00    -0.014 A 
ATOM     75  C   UNL A   1      40.939  34.814  38.490  1.00  0.00     0.010 A 
ATOM     76  C   UNL A   1      39.680  33.004  39.501  1.00  0.00     0.010 A 
ATOM     77  C   UNL A   1      40.900  35.518  39.696  1.00  0.00     0.020 A 
ATOM     78  C   UNL A   1      39.620  33.716  40.704  1.00  0.00     0.020 A 
ATOM     79  C   UNL A   1      40.241  34.964  40.797  1.00  0.00     0.054 A 
BRANCH  79  80
ATOM     80  S   UNL A   1      40.162  35.921  42.337  1.00  0.00     0.124 S 
ATOM     81  O   UNL A   1      39.525  37.159  41.894  1.00  0.00    -0.237 OA
ATOM     82  O   UNL A   1      39.349  35.072  43.204  1.00  0.00    -0.237 OA
ATOM     83  O   UNL A   1      41.562  36.050  42.738  1.00  0.00    -0.744 OA
ENDBRANCH  79  80
ENDBRANCH  53  74
ENDBRANCH  27  28
ENDBRANCH  20  22
ENDBRANCH  19  20
ENDBRANCH   1  19
TORSDOF 15
ENDMDL
