MODEL 1
REMARK VINA RESULT:      -9.1      0.000      0.000
REMARK SMILES O=C(/C=C/c1ccc(O)c(O)c1)OCCOC(=O)c1ccc(-c2c3nc(c(-c4ccc(S(=O)(=O)[O-])cc4)c4ccc([nH]4)c(-c4ccc(S(=O)(=O)[O-])cc4)c4nc(c(-c5ccc(S(=O)(=O)[O-])cc5)c5ccc2[nH]5)C=C4)C=C3)cc1
REMARK SMILES IDX 15 1 14 2 13 3 2 4 1 5 3 6 4 7 5 8 6 9 12 10 7 11 10 12 8 13
REMARK SMILES IDX 11 14 9 16 16 18 17 19 18 20 19 21 20 22 78 23 21 24 77 25
REMARK SMILES IDX 22 26 23 27 24 28 71 29 25 30 76 31 70 32 72 33 26 34 75 35
REMARK SMILES IDX 69 36 68 37 27 39 57 40 38 41 56 42 39 43 42 44 55 45 73 46
REMARK SMILES IDX 40 47 41 48 54 50 74 51 43 52 28 53 29 54 37 55 30 56 36 57
REMARK SMILES IDX 31 58 32 59 33 60 34 61 35 62 58 63 59 64 67 65 60 66 66 67
REMARK SMILES IDX 61 68 62 69 63 70 64 71 65 72 44 73 45 74 53 75 46 76 52 77
REMARK SMILES IDX 47 78 48 79 49 80 50 81 51 82
REMARK H PARENT 11 15 9 17 72 38 42 49
REMARK Flexibility Score: inf
ROOT
ATOM      1  C   UNL A   1      40.434  21.062  26.089  1.00  0.00     0.275 C 
ENDROOT
BRANCH   1   2
ATOM      2  C   UNL A   1      41.293  20.065  26.873  1.00  0.00     0.275 C 
BRANCH   2   3
ATOM      3  O   UNL A   1      42.719  20.259  26.767  1.00  0.00    -0.459 OA
BRANCH   3   4
ATOM      4  C   UNL A   1      43.419  20.782  25.733  1.00  0.00     0.330 C 
ATOM      5  O   UNL A   1      43.796  20.067  24.808  1.00  0.00    -0.247 OA
BRANCH   4   6
ATOM      6  C   UNL A   1      43.903  22.171  25.788  1.00  0.00     0.094 C 
ATOM      7  C   UNL A   1      43.623  23.167  24.940  1.00  0.00     0.016 C 
BRANCH   7   8
ATOM      8  C   UNL A   1      44.017  24.554  25.213  1.00  0.00    -0.021 A 
ATOM      9  C   UNL A   1      45.206  24.884  25.881  1.00  0.00     0.012 A 
ATOM     10  C   UNL A   1      43.160  25.580  24.788  1.00  0.00     0.058 A 
ATOM     11  C   UNL A   1      45.540  26.223  26.123  1.00  0.00     0.051 A 
ATOM     12  C   UNL A   1      43.498  26.902  25.034  1.00  0.00     0.157 A 
ATOM     13  C   UNL A   1      44.680  27.225  25.691  1.00  0.00     0.157 A 
BRANCH  12  14
ATOM     14  O   UNL A   1      42.652  27.893  24.623  1.00  0.00    -0.504 OA
ATOM     15  H   UNL A   1      42.359  27.920  23.733  1.00  0.00     0.293 HD
ENDBRANCH  12  14
BRANCH  13  16
ATOM     16  O   UNL A   1      44.955  28.550  25.886  1.00  0.00    -0.504 OA
ATOM     17  H   UNL A   1      44.683  29.184  25.251  1.00  0.00     0.293 HD
ENDBRANCH  13  16
ENDBRANCH   7   8
ENDBRANCH   4   6
ENDBRANCH   3   4
ENDBRANCH   2   3
ENDBRANCH   1   2
BRANCH   1  18
ATOM     18  O   UNL A   1      39.451  21.714  26.905  1.00  0.00    -0.458 OA
BRANCH  18  19
ATOM     19  C   UNL A   1      38.779  22.719  26.288  1.00  0.00     0.338 C 
ATOM     20  O   UNL A   1      37.919  22.593  25.431  1.00  0.00    -0.246 OA
BRANCH  19  21
ATOM     21  C   UNL A   1      39.123  24.021  26.904  1.00  0.00     0.060 A 
ATOM     22  C   UNL A   1      39.866  24.924  26.134  1.00  0.00     0.016 A 
ATOM     23  C   UNL A   1      38.730  24.365  28.202  1.00  0.00     0.016 A 
ATOM     24  C   UNL A   1      40.238  26.160  26.667  1.00  0.00     0.010 A 
ATOM     25  C   UNL A   1      39.107  25.603  28.735  1.00  0.00     0.010 A 
ATOM     26  C   UNL A   1      39.882  26.499  27.979  1.00  0.00    -0.014 A 
BRANCH  26  27
ATOM     27  C   UNL A   1      40.407  27.748  28.588  1.00  0.00     0.031 A 
ATOM     28  C   UNL A   1      41.855  27.822  28.988  1.00  0.00     0.074 A 
ATOM     29  C   UNL A   1      39.610  28.818  28.762  1.00  0.00     0.049 A 
ATOM     30  N   UNL A   1      42.517  28.824  29.510  1.00  0.00    -0.248 NA
ATOM     31  C   UNL A   1      42.663  26.612  28.771  1.00  0.00     0.031 C 
ATOM     32  C   UNL A   1      38.197  28.893  28.392  1.00  0.00     0.029 A 
ATOM     33  N   UNL A   1      39.883  30.054  29.296  1.00  0.00    -0.354 N 
ATOM     34  C   UNL A   1      43.819  28.368  29.679  1.00  0.00     0.074 A 
ATOM     35  C   UNL A   1      43.845  26.989  29.238  1.00  0.00     0.031 C 
ATOM     36  C   UNL A   1      37.727  30.112  28.712  1.00  0.00     0.029 A 
ATOM     37  C   UNL A   1      38.798  30.895  29.328  1.00  0.00     0.049 A 
ATOM     38  H   UNL A   1      40.773  30.313  29.627  1.00  0.00     0.167 HD
ATOM     39  C   UNL A   1      44.900  29.035  30.148  1.00  0.00     0.031 A 
ATOM     40  C   UNL A   1      38.675  32.151  29.804  1.00  0.00     0.031 A 
ATOM     41  C   UNL A   1      44.881  30.399  30.606  1.00  0.00     0.049 A 
ATOM     42  C   UNL A   1      39.876  32.851  30.388  1.00  0.00     0.074 A 
ATOM     43  C   UNL A   1      45.935  31.161  31.081  1.00  0.00     0.029 A 
ATOM     44  N   UNL A   1      43.752  31.203  30.656  1.00  0.00    -0.354 N 
ATOM     45  N   UNL A   1      41.109  32.418  30.500  1.00  0.00    -0.248 NA
ATOM     46  C   UNL A   1      39.668  34.214  30.899  1.00  0.00     0.031 C 
ATOM     47  C   UNL A   1      45.433  32.408  31.471  1.00  0.00     0.029 A 
ATOM     48  C   UNL A   1      44.078  32.442  31.183  1.00  0.00     0.049 A 
ATOM     49  H   UNL A   1      42.853  30.933  30.363  1.00  0.00     0.167 HD
ATOM     50  C   UNL A   1      41.829  33.468  31.064  1.00  0.00     0.074 A 
ATOM     51  C   UNL A   1      40.897  34.557  31.263  1.00  0.00     0.031 C 
ATOM     52  C   UNL A   1      43.147  33.525  31.378  1.00  0.00     0.031 A 
BRANCH  39  53
ATOM     53  C   UNL A   1      46.203  28.285  30.215  1.00  0.00    -0.014 A 
ATOM     54  C   UNL A   1      46.609  27.639  31.397  1.00  0.00     0.010 A 
ATOM     55  C   UNL A   1      47.012  28.190  29.068  1.00  0.00     0.010 A 
ATOM     56  C   UNL A   1      47.819  26.944  31.441  1.00  0.00     0.020 A 
ATOM     57  C   UNL A   1      48.210  27.473  29.101  1.00  0.00     0.020 A 
ATOM     58  C   UNL A   1      48.616  26.869  30.294  1.00  0.00     0.054 A 
BRANCH  58  59
ATOM     59  S   UNL A   1      50.173  25.944  30.374  1.00  0.00     0.124 S 
ATOM     60  O   UNL A   1      50.328  25.497  28.991  1.00  0.00    -0.237 OA
ATOM     61  O   UNL A   1      51.128  26.958  30.815  1.00  0.00    -0.237 OA
ATOM     62  O   UNL A   1      49.899  24.887  31.343  1.00  0.00    -0.744 OA
ENDBRANCH  58  59
ENDBRANCH  39  53
BRANCH  40  63
ATOM     63  C   UNL A   1      37.355  32.836  29.761  1.00  0.00    -0.014 A 
ATOM     64  C   UNL A   1      36.925  33.499  28.599  1.00  0.00     0.010 A 
ATOM     65  C   UNL A   1      36.526  32.838  30.899  1.00  0.00     0.010 A 
ATOM     66  C   UNL A   1      35.698  34.169  28.580  1.00  0.00     0.020 A 
ATOM     67  C   UNL A   1      35.288  33.484  30.875  1.00  0.00     0.020 A 
ATOM     68  C   UNL A   1      34.887  34.157  29.719  1.00  0.00     0.054 A 
BRANCH  68  69
ATOM     69  S   UNL A   1      33.279  34.995  29.662  1.00  0.00     0.124 S 
ATOM     70  O   UNL A   1      33.649  36.329  29.200  1.00  0.00    -0.237 OA
ATOM     71  O   UNL A   1      32.530  34.178  28.710  1.00  0.00    -0.237 OA
ATOM     72  O   UNL A   1      32.808  34.918  31.042  1.00  0.00    -0.744 OA
ENDBRANCH  68  69
ENDBRANCH  40  63
BRANCH  52  73
ATOM     73  C   UNL A   1      43.681  34.817  31.941  1.00  0.00    -0.014 A 
ATOM     74  C   UNL A   1      44.056  35.881  31.101  1.00  0.00     0.010 A 
ATOM     75  C   UNL A   1      43.744  34.992  33.336  1.00  0.00     0.010 A 
ATOM     76  C   UNL A   1      44.509  37.087  31.647  1.00  0.00     0.020 A 
ATOM     77  C   UNL A   1      44.172  36.204  33.886  1.00  0.00     0.020 A 
ATOM     78  C   UNL A   1      44.563  37.241  33.036  1.00  0.00     0.054 A 
BRANCH  78  79
ATOM     79  S   UNL A   1      45.106  38.831  33.720  1.00  0.00     0.124 S 
ATOM     80  O   UNL A   1      46.381  38.479  34.338  1.00  0.00    -0.237 OA
ATOM     81  O   UNL A   1      45.197  39.678  32.532  1.00  0.00    -0.237 OA
ATOM     82  O   UNL A   1      44.040  39.190  34.652  1.00  0.00    -0.744 OA
ENDBRANCH  78  79
ENDBRANCH  52  73
ENDBRANCH  26  27
ENDBRANCH  19  21
ENDBRANCH  18  19
ENDBRANCH   1  18
TORSDOF 17
ENDMDL
MODEL 2
REMARK VINA RESULT:      -9.0      3.213      5.821
REMARK SMILES O=C(/C=C/c1ccc(O)c(O)c1)OCCOC(=O)c1ccc(-c2c3nc(c(-c4ccc(S(=O)(=O)[O-])cc4)c4ccc([nH]4)c(-c4ccc(S(=O)(=O)[O-])cc4)c4nc(c(-c5ccc(S(=O)(=O)[O-])cc5)c5ccc2[nH]5)C=C4)C=C3)cc1
REMARK SMILES IDX 15 1 14 2 13 3 2 4 1 5 3 6 4 7 5 8 6 9 12 10 7 11 10 12 8 13
REMARK SMILES IDX 11 14 9 16 16 18 17 19 18 20 19 21 20 22 78 23 21 24 77 25
REMARK SMILES IDX 22 26 23 27 24 28 71 29 25 30 76 31 70 32 72 33 26 34 75 35
REMARK SMILES IDX 69 36 68 37 27 39 57 40 38 41 56 42 39 43 42 44 55 45 73 46
REMARK SMILES IDX 40 47 41 48 54 50 74 51 43 52 28 53 29 54 37 55 30 56 36 57
REMARK SMILES IDX 31 58 32 59 33 60 34 61 35 62 58 63 59 64 67 65 60 66 66 67
REMARK SMILES IDX 61 68 62 69 63 70 64 71 65 72 44 73 45 74 53 75 46 76 52 77
REMARK SMILES IDX 47 78 48 79 49 80 50 81 51 82
REMARK H PARENT 11 15 9 17 72 38 42 49
REMARK Flexibility Score: inf
ROOT
ATOM      1  C   UNL A   1      36.624  22.497  25.106  1.00  0.00     0.275 C 
ENDROOT
BRANCH   1   2
ATOM      2  C   UNL A   1      35.151  22.912  25.094  1.00  0.00     0.275 C 
BRANCH   2   3
ATOM      3  O   UNL A   1      34.369  22.394  23.997  1.00  0.00    -0.459 OA
BRANCH   3   4
ATOM      4  C   UNL A   1      33.159  21.787  24.043  1.00  0.00     0.330 C 
ATOM      5  O   UNL A   1      32.130  22.451  24.131  1.00  0.00    -0.247 OA
BRANCH   4   6
ATOM      6  C   UNL A   1      33.065  20.325  24.178  1.00  0.00     0.094 C 
ATOM      7  C   UNL A   1      34.013  19.481  24.603  1.00  0.00     0.016 C 
BRANCH   7   8
ATOM      8  C   UNL A   1      33.731  18.066  24.872  1.00  0.00    -0.021 A 
ATOM      9  C   UNL A   1      32.443  17.597  25.169  1.00  0.00     0.012 A 
ATOM     10  C   UNL A   1      34.800  17.160  24.831  1.00  0.00     0.058 A 
ATOM     11  C   UNL A   1      32.220  16.237  25.423  1.00  0.00     0.051 A 
ATOM     12  C   UNL A   1      34.571  15.817  25.085  1.00  0.00     0.157 A 
ATOM     13  C   UNL A   1      33.291  15.354  25.374  1.00  0.00     0.157 A 
BRANCH  12  14
ATOM     14  O   UNL A   1      35.621  14.944  25.051  1.00  0.00    -0.504 OA
ATOM     15  H   UNL A   1      36.100  14.818  24.256  1.00  0.00     0.293 HD
ENDBRANCH  12  14
BRANCH  13  16
ATOM     16  O   UNL A   1      33.139  14.014  25.600  1.00  0.00    -0.504 OA
ATOM     17  H   UNL A   1      32.280  13.639  25.630  1.00  0.00     0.293 HD
ENDBRANCH  13  16
ENDBRANCH   7   8
ENDBRANCH   4   6
ENDBRANCH   3   4
ENDBRANCH   2   3
ENDBRANCH   1   2
BRANCH   1  18
ATOM     18  O   UNL A   1      37.508  23.586  25.408  1.00  0.00    -0.458 OA
BRANCH  18  19
ATOM     19  C   UNL A   1      38.655  23.227  26.038  1.00  0.00     0.338 C 
ATOM     20  O   UNL A   1      39.226  22.152  25.944  1.00  0.00    -0.246 OA
BRANCH  19  21
ATOM     21  C   UNL A   1      39.225  24.385  26.765  1.00  0.00     0.060 A 
ATOM     22  C   UNL A   1      38.895  24.526  28.118  1.00  0.00     0.016 A 
ATOM     23  C   UNL A   1      40.069  25.315  26.150  1.00  0.00     0.016 A 
ATOM     24  C   UNL A   1      39.386  25.607  28.852  1.00  0.00     0.010 A 
ATOM     25  C   UNL A   1      40.558  26.401  26.887  1.00  0.00     0.010 A 
ATOM     26  C   UNL A   1      40.201  26.566  28.236  1.00  0.00    -0.014 A 
BRANCH  26  27
ATOM     27  C   UNL A   1      40.595  27.789  28.980  1.00  0.00     0.031 A 
ATOM     28  C   UNL A   1      41.956  27.858  29.618  1.00  0.00     0.074 A 
ATOM     29  C   UNL A   1      39.762  28.842  29.067  1.00  0.00     0.049 A 
ATOM     30  N   UNL A   1      42.504  28.840  30.288  1.00  0.00    -0.248 NA
ATOM     31  C   UNL A   1      42.809  26.667  29.485  1.00  0.00     0.031 C 
ATOM     32  C   UNL A   1      38.429  28.921  28.471  1.00  0.00     0.029 A 
ATOM     33  N   UNL A   1      39.921  30.054  29.695  1.00  0.00    -0.354 N 
ATOM     34  C   UNL A   1      43.768  28.389  30.651  1.00  0.00     0.074 A 
ATOM     35  C   UNL A   1      43.890  27.033  30.159  1.00  0.00     0.031 C 
ATOM     36  C   UNL A   1      37.891  30.119  28.762  1.00  0.00     0.029 A 
ATOM     37  C   UNL A   1      38.832  30.883  29.583  1.00  0.00     0.049 A 
ATOM     38  H   UNL A   1      40.740  30.305  30.180  1.00  0.00     0.167 HD
ATOM     39  C   UNL A   1      44.745  29.044  31.323  1.00  0.00     0.031 A 
ATOM     40  C   UNL A   1      38.610  32.113  30.088  1.00  0.00     0.031 A 
ATOM     41  C   UNL A   1      44.626  30.385  31.832  1.00  0.00     0.049 A 
ATOM     42  C   UNL A   1      39.685  32.796  30.895  1.00  0.00     0.074 A 
ATOM     43  C   UNL A   1      45.573  31.134  32.510  1.00  0.00     0.029 A 
ATOM     44  N   UNL A   1      43.491  31.175  31.730  1.00  0.00    -0.354 N 
ATOM     45  N   UNL A   1      40.890  32.370  31.191  1.00  0.00    -0.248 NA
ATOM     46  C   UNL A   1      39.372  34.132  31.426  1.00  0.00     0.031 C 
ATOM     47  C   UNL A   1      44.992  32.355  32.867  1.00  0.00     0.029 A 
ATOM     48  C   UNL A   1      43.704  32.390  32.359  1.00  0.00     0.049 A 
ATOM     49  H   UNL A   1      42.658  30.910  31.279  1.00  0.00     0.167 HD
ATOM     50  C   UNL A   1      41.488  33.399  31.913  1.00  0.00     0.074 A 
ATOM     51  C   UNL A   1      40.517  34.469  32.004  1.00  0.00     0.031 C 
ATOM     52  C   UNL A   1      42.734  33.453  32.445  1.00  0.00     0.031 A 
BRANCH  39  53
ATOM     53  C   UNL A   1      46.031  28.304  31.572  1.00  0.00    -0.014 A 
ATOM     54  C   UNL A   1      46.193  27.491  32.708  1.00  0.00     0.010 A 
ATOM     55  C   UNL A   1      47.077  28.390  30.635  1.00  0.00     0.010 A 
ATOM     56  C   UNL A   1      47.392  26.808  32.923  1.00  0.00     0.020 A 
ATOM     57  C   UNL A   1      48.268  27.688  30.833  1.00  0.00     0.020 A 
ATOM     58  C   UNL A   1      48.425  26.914  31.986  1.00  0.00     0.054 A 
BRANCH  58  59
ATOM     59  S   UNL A   1      49.964  26.002  32.279  1.00  0.00     0.124 S 
ATOM     60  O   UNL A   1      49.477  24.805  32.963  1.00  0.00    -0.237 OA
ATOM     61  O   UNL A   1      50.475  25.788  30.927  1.00  0.00    -0.237 OA
ATOM     62  O   UNL A   1      50.754  26.912  33.104  1.00  0.00    -0.744 OA
ENDBRANCH  58  59
ENDBRANCH  39  53
BRANCH  40  63
ATOM     63  C   UNL A   1      37.303  32.787  29.857  1.00  0.00    -0.014 A 
ATOM     64  C   UNL A   1      37.106  33.610  28.736  1.00  0.00     0.010 A 
ATOM     65  C   UNL A   1      36.251  32.615  30.776  1.00  0.00     0.010 A 
ATOM     66  C   UNL A   1      35.886  34.266  28.545  1.00  0.00     0.020 A 
ATOM     67  C   UNL A   1      35.022  33.248  30.576  1.00  0.00     0.020 A 
ATOM     68  C   UNL A   1      34.852  34.080  29.467  1.00  0.00     0.054 A 
BRANCH  68  69
ATOM     69  S   UNL A   1      33.261  34.905  29.182  1.00  0.00     0.124 S 
ATOM     70  O   UNL A   1      32.684  34.921  30.522  1.00  0.00    -0.237 OA
ATOM     71  O   UNL A   1      33.670  36.204  28.651  1.00  0.00    -0.237 OA
ATOM     72  O   UNL A   1      32.594  34.031  28.221  1.00  0.00    -0.744 OA
ENDBRANCH  68  69
ENDBRANCH  40  63
BRANCH  52  73
ATOM     73  C   UNL A   1      43.145  34.723  33.146  1.00  0.00    -0.014 A 
ATOM     74  C   UNL A   1      43.028  34.859  34.541  1.00  0.00     0.010 A 
ATOM     75  C   UNL A   1      43.721  35.770  32.403  1.00  0.00     0.010 A 
ATOM     76  C   UNL A   1      43.455  36.031  35.176  1.00  0.00     0.020 A 
ATOM     77  C   UNL A   1      44.172  36.932  33.035  1.00  0.00     0.020 A 
ATOM     78  C   UNL A   1      44.025  37.060  34.419  1.00  0.00     0.054 A 
BRANCH  78  79
ATOM     79  S   UNL A   1      44.617  38.548  35.270  1.00  0.00     0.124 S 
ATOM     80  O   UNL A   1      43.940  39.611  34.533  1.00  0.00    -0.237 OA
ATOM     81  O   UNL A   1      44.155  38.340  36.641  1.00  0.00    -0.237 OA
ATOM     82  O   UNL A   1      46.067  38.494  35.094  1.00  0.00    -0.744 OA
ENDBRANCH  78  79
ENDBRANCH  52  73
ENDBRANCH  26  27
ENDBRANCH  19  21
ENDBRANCH  18  19
ENDBRANCH   1  18
TORSDOF 17
ENDMDL
MODEL 3
REMARK VINA RESULT:      -9.0      5.128      7.295
REMARK SMILES O=C(/C=C/c1ccc(O)c(O)c1)OCCOC(=O)c1ccc(-c2c3nc(c(-c4ccc(S(=O)(=O)[O-])cc4)c4ccc([nH]4)c(-c4ccc(S(=O)(=O)[O-])cc4)c4nc(c(-c5ccc(S(=O)(=O)[O-])cc5)c5ccc2[nH]5)C=C4)C=C3)cc1
REMARK SMILES IDX 15 1 14 2 13 3 2 4 1 5 3 6 4 7 5 8 6 9 12 10 7 11 10 12 8 13
REMARK SMILES IDX 11 14 9 16 16 18 17 19 18 20 19 21 20 22 78 23 21 24 77 25
REMARK SMILES IDX 22 26 23 27 24 28 71 29 25 30 76 31 70 32 72 33 26 34 75 35
REMARK SMILES IDX 69 36 68 37 27 39 57 40 38 41 56 42 39 43 42 44 55 45 73 46
REMARK SMILES IDX 40 47 41 48 54 50 74 51 43 52 28 53 29 54 37 55 30 56 36 57
REMARK SMILES IDX 31 58 32 59 33 60 34 61 35 62 58 63 59 64 67 65 60 66 66 67
REMARK SMILES IDX 61 68 62 69 63 70 64 71 65 72 44 73 45 74 53 75 46 76 52 77
REMARK SMILES IDX 47 78 48 79 49 80 50 81 51 82
REMARK H PARENT 11 15 9 17 72 38 42 49
REMARK Flexibility Score: inf
ROOT
ATOM      1  C   UNL A   1      38.514  23.792  26.141  1.00  0.00     0.275 C 
ENDROOT
BRANCH   1   2
ATOM      2  C   UNL A   1      36.991  23.798  25.996  1.00  0.00     0.275 C 
BRANCH   2   3
ATOM      3  O   UNL A   1      36.358  22.501  26.045  1.00  0.00    -0.459 OA
BRANCH   3   4
ATOM      4  C   UNL A   1      36.031  21.689  25.011  1.00  0.00     0.330 C 
ATOM      5  O   UNL A   1      36.116  22.088  23.853  1.00  0.00    -0.247 OA
BRANCH   4   6
ATOM      6  C   UNL A   1      35.391  20.388  25.260  1.00  0.00     0.094 C 
ATOM      7  C   UNL A   1      34.533  19.735  24.467  1.00  0.00     0.016 C 
BRANCH   7   8
ATOM      8  C   UNL A   1      34.115  18.356  24.745  1.00  0.00    -0.021 A 
ATOM      9  C   UNL A   1      32.778  18.006  24.987  1.00  0.00     0.012 A 
ATOM     10  C   UNL A   1      35.102  17.359  24.770  1.00  0.00     0.058 A 
ATOM     11  C   UNL A   1      32.426  16.676  25.251  1.00  0.00     0.051 A 
ATOM     12  C   UNL A   1      34.743  16.046  25.033  1.00  0.00     0.157 A 
ATOM     13  C   UNL A   1      33.416  15.702  25.267  1.00  0.00     0.157 A 
BRANCH  12  14
ATOM     14  O   UNL A   1      35.713  15.085  25.063  1.00  0.00    -0.504 OA
ATOM     15  H   UNL A   1      35.550  14.267  25.491  1.00  0.00     0.293 HD
ENDBRANCH  12  14
BRANCH  13  16
ATOM     16  O   UNL A   1      33.136  14.386  25.507  1.00  0.00    -0.504 OA
ATOM     17  H   UNL A   1      33.040  14.079  26.387  1.00  0.00     0.293 HD
ENDBRANCH  13  16
ENDBRANCH   7   8
ENDBRANCH   4   6
ENDBRANCH   3   4
ENDBRANCH   2   3
ENDBRANCH   1   2
BRANCH   1  18
ATOM     18  O   UNL A   1      38.964  24.448  27.335  1.00  0.00    -0.458 OA
BRANCH  18  19
ATOM     19  C   UNL A   1      39.743  25.539  27.123  1.00  0.00     0.338 C 
ATOM     20  O   UNL A   1      40.330  25.819  26.091  1.00  0.00    -0.246 OA
BRANCH  19  21
ATOM     21  C   UNL A   1      39.674  26.452  28.288  1.00  0.00     0.060 A 
ATOM     22  C   UNL A   1      40.442  27.622  28.239  1.00  0.00     0.016 A 
ATOM     23  C   UNL A   1      38.877  26.184  29.405  1.00  0.00     0.016 A 
ATOM     24  C   UNL A   1      40.435  28.512  29.314  1.00  0.00     0.010 A 
ATOM     25  C   UNL A   1      38.873  27.077  30.484  1.00  0.00     0.010 A 
ATOM     26  C   UNL A   1      39.669  28.235  30.454  1.00  0.00    -0.014 A 
BRANCH  26  27
ATOM     27  C   UNL A   1      39.782  29.107  31.651  1.00  0.00     0.031 A 
ATOM     28  C   UNL A   1      40.912  28.889  32.620  1.00  0.00     0.074 A 
ATOM     29  C   UNL A   1      38.902  30.103  31.863  1.00  0.00     0.049 A 
ATOM     30  N   UNL A   1      41.205  29.554  33.709  1.00  0.00    -0.248 NA
ATOM     31  C   UNL A   1      41.831  27.779  32.324  1.00  0.00     0.031 C 
ATOM     32  C   UNL A   1      37.780  30.445  30.990  1.00  0.00     0.029 A 
ATOM     33  N   UNL A   1      38.822  31.017  32.886  1.00  0.00    -0.354 N 
ATOM     34  C   UNL A   1      42.344  28.948  34.225  1.00  0.00     0.074 A 
ATOM     35  C   UNL A   1      42.667  27.839  33.351  1.00  0.00     0.031 C 
ATOM     36  C   UNL A   1      37.122  31.493  31.516  1.00  0.00     0.029 A 
ATOM     37  C   UNL A   1      37.762  31.883  32.773  1.00  0.00     0.049 A 
ATOM     38  H   UNL A   1      39.463  31.047  33.633  1.00  0.00     0.167 HD
ATOM     39  C   UNL A   1      43.065  29.285  35.321  1.00  0.00     0.031 A 
ATOM     40  C   UNL A   1      37.347  32.873  33.589  1.00  0.00     0.031 A 
ATOM     41  C   UNL A   1      42.742  30.372  36.206  1.00  0.00     0.049 A 
ATOM     42  C   UNL A   1      38.124  33.185  34.842  1.00  0.00     0.074 A 
ATOM     43  C   UNL A   1      43.429  30.797  37.332  1.00  0.00     0.029 A 
ATOM     44  N   UNL A   1      41.638  31.200  36.076  1.00  0.00    -0.354 N 
ATOM     45  N   UNL A   1      39.223  32.628  35.291  1.00  0.00    -0.248 NA
ATOM     46  C   UNL A   1      37.609  34.270  35.692  1.00  0.00     0.031 C 
ATOM     47  C   UNL A   1      42.709  31.846  37.913  1.00  0.00     0.029 A 
ATOM     48  C   UNL A   1      41.608  32.114  37.117  1.00  0.00     0.049 A 
ATOM     49  H   UNL A   1      40.974  31.147  35.352  1.00  0.00     0.167 HD
ATOM     50  C   UNL A   1      39.548  33.317  36.457  1.00  0.00     0.074 A 
ATOM     51  C   UNL A   1      38.534  34.333  36.640  1.00  0.00     0.031 C 
ATOM     52  C   UNL A   1      40.597  33.126  37.295  1.00  0.00     0.031 A 
BRANCH  39  53
ATOM     53  C   UNL A   1      44.272  28.445  35.642  1.00  0.00    -0.014 A 
ATOM     54  C   UNL A   1      45.568  28.877  35.305  1.00  0.00     0.010 A 
ATOM     55  C   UNL A   1      44.111  27.226  36.326  1.00  0.00     0.010 A 
ATOM     56  C   UNL A   1      46.678  28.087  35.613  1.00  0.00     0.020 A 
ATOM     57  C   UNL A   1      45.221  26.446  36.658  1.00  0.00     0.020 A 
ATOM     58  C   UNL A   1      46.497  26.873  36.284  1.00  0.00     0.054 A 
BRANCH  58  59
ATOM     59  S   UNL A   1      47.957  25.876  36.688  1.00  0.00     0.124 S 
ATOM     60  O   UNL A   1      49.034  26.668  36.097  1.00  0.00    -0.237 OA
ATOM     61  O   UNL A   1      47.930  25.842  38.148  1.00  0.00    -0.237 OA
ATOM     62  O   UNL A   1      47.694  24.597  36.033  1.00  0.00    -0.744 OA
ENDBRANCH  58  59
ENDBRANCH  39  53
BRANCH  40  63
ATOM     63  C   UNL A   1      36.119  33.645  33.255  1.00  0.00    -0.014 A 
ATOM     64  C   UNL A   1      34.843  33.103  33.486  1.00  0.00     0.010 A 
ATOM     65  C   UNL A   1      36.227  34.928  32.687  1.00  0.00     0.010 A 
ATOM     66  C   UNL A   1      33.696  33.822  33.137  1.00  0.00     0.020 A 
ATOM     67  C   UNL A   1      35.083  35.659  32.361  1.00  0.00     0.020 A 
ATOM     68  C   UNL A   1      33.824  35.096  32.577  1.00  0.00     0.054 A 
BRANCH  68  69
ATOM     69  S   UNL A   1      32.323  36.032  32.170  1.00  0.00     0.124 S 
ATOM     70  O   UNL A   1      31.270  35.114  32.591  1.00  0.00    -0.237 OA
ATOM     71  O   UNL A   1      32.475  37.239  32.980  1.00  0.00    -0.237 OA
ATOM     72  O   UNL A   1      32.435  36.241  30.729  1.00  0.00    -0.744 OA
ENDBRANCH  68  69
ENDBRANCH  40  63
BRANCH  52  73
ATOM     73  C   UNL A   1      40.735  34.056  38.473  1.00  0.00    -0.014 A 
ATOM     74  C   UNL A   1      41.414  35.282  38.362  1.00  0.00     0.010 A 
ATOM     75  C   UNL A   1      40.115  33.726  39.692  1.00  0.00     0.010 A 
ATOM     76  C   UNL A   1      41.493  36.149  39.458  1.00  0.00     0.020 A 
ATOM     77  C   UNL A   1      40.169  34.599  40.781  1.00  0.00     0.020 A 
ATOM     78  C   UNL A   1      40.869  35.802  40.661  1.00  0.00     0.054 A 
BRANCH  78  79
ATOM     79  S   UNL A   1      40.941  36.965  42.051  1.00  0.00     0.124 S 
ATOM     80  O   UNL A   1      42.083  37.800  41.692  1.00  0.00    -0.237 OA
ATOM     81  O   UNL A   1      39.638  37.622  41.989  1.00  0.00    -0.237 OA
ATOM     82  O   UNL A   1      41.142  36.102  43.214  1.00  0.00    -0.744 OA
ENDBRANCH  78  79
ENDBRANCH  52  73
ENDBRANCH  26  27
ENDBRANCH  19  21
ENDBRANCH  18  19
ENDBRANCH   1  18
TORSDOF 17
ENDMDL
