MODEL 1
REMARK VINA RESULT:     -11.3      0.000      0.000
REMARK SMILES O=C(OCCOC(=O)c1cc2ncoc2cn1)c1ccc(-c2c3nc(c(-c4ccc(S(=O)(=O)[O-])cc4)c4ccc([nH]4)c(-c4ccc(S(=O)(=O)[O-])cc4)c4nc(c(-c5ccc(S(=O)(=O)[O-])cc5)c5ccc2[nH]5)C=C4)C=C3)cc1
REMARK SMILES IDX 3 1 2 2 1 3 18 4 19 5 77 6 20 7 76 8 21 9 22 10 23 11 70 12
REMARK SMILES IDX 24 13 75 14 69 15 71 16 25 17 74 18 68 19 67 20 26 22 56 23
REMARK SMILES IDX 37 24 55 25 38 26 41 27 54 28 72 29 39 30 40 31 53 33 73 34
REMARK SMILES IDX 42 35 27 36 28 37 36 38 29 39 35 40 30 41 31 42 32 43 33 44
REMARK SMILES IDX 34 45 57 46 58 47 66 48 59 49 65 50 60 51 61 52 62 53 63 54
REMARK SMILES IDX 64 55 43 56 44 57 52 58 45 59 51 60 46 61 47 62 48 63 49 64
REMARK SMILES IDX 50 65 4 66 5 67 6 68 7 69 8 70 9 71 10 72 17 73 11 74 16 75
REMARK SMILES IDX 12 76 15 77 13 78 14 79
REMARK H PARENT 71 21 41 32
REMARK Flexibility Score: inf
ROOT
ATOM      1  O   UNL A   1      45.083  20.544  24.661  1.00  0.00    -0.458 OA
ENDROOT
BRANCH   1   2
ATOM      2  C   UNL A   1      44.437  21.684  24.283  1.00  0.00     0.338 C 
ATOM      3  O   UNL A   1      44.500  22.137  23.148  1.00  0.00    -0.246 OA
BRANCH   2   4
ATOM      4  C   UNL A   1      43.848  22.476  25.371  1.00  0.00     0.060 A 
ATOM      5  C   UNL A   1      42.848  23.367  24.997  1.00  0.00     0.016 A 
ATOM      6  C   UNL A   1      44.433  22.523  26.640  1.00  0.00     0.016 A 
ATOM      7  C   UNL A   1      42.648  24.480  25.788  1.00  0.00     0.010 A 
ATOM      8  C   UNL A   1      44.219  23.639  27.438  1.00  0.00     0.010 A 
ATOM      9  C   UNL A   1      43.395  24.661  26.965  1.00  0.00    -0.014 A 
BRANCH   9  10
ATOM     10  C   UNL A   1      43.091  25.867  27.738  1.00  0.00     0.031 A 
ATOM     11  C   UNL A   1      44.162  26.890  27.625  1.00  0.00     0.074 A 
ATOM     12  C   UNL A   1      41.955  26.123  28.413  1.00  0.00     0.049 A 
ATOM     13  N   UNL A   1      44.855  27.448  28.564  1.00  0.00    -0.248 NA
ATOM     14  C   UNL A   1      44.620  27.195  26.256  1.00  0.00     0.031 C 
ATOM     15  C   UNL A   1      40.714  25.348  28.399  1.00  0.00     0.029 A 
ATOM     16  N   UNL A   1      41.632  27.219  29.168  1.00  0.00    -0.354 N 
ATOM     17  C   UNL A   1      45.732  28.300  27.902  1.00  0.00     0.074 A 
ATOM     18  C   UNL A   1      45.674  27.963  26.503  1.00  0.00     0.031 C 
ATOM     19  C   UNL A   1      39.714  26.110  28.897  1.00  0.00     0.029 A 
ATOM     20  C   UNL A   1      40.266  27.371  29.365  1.00  0.00     0.049 A 
ATOM     21  H   UNL A   1      42.304  27.839  29.535  1.00  0.00     0.167 HD
ATOM     22  C   UNL A   1      46.276  29.397  28.487  1.00  0.00     0.031 A 
ATOM     23  C   UNL A   1      39.625  28.492  29.778  1.00  0.00     0.031 A 
ATOM     24  C   UNL A   1      46.240  29.347  29.916  1.00  0.00     0.049 A 
ATOM     25  C   UNL A   1      40.606  29.381  30.444  1.00  0.00     0.074 A 
ATOM     26  C   UNL A   1      46.860  28.578  30.877  1.00  0.00     0.029 A 
ATOM     27  N   UNL A   1      45.189  29.986  30.524  1.00  0.00    -0.354 N 
ATOM     28  N   UNL A   1      41.165  29.129  31.593  1.00  0.00    -0.248 NA
ATOM     29  C   UNL A   1      41.199  30.477  29.689  1.00  0.00     0.031 C 
ATOM     30  C   UNL A   1      45.965  28.540  31.981  1.00  0.00     0.029 A 
ATOM     31  C   UNL A   1      44.836  29.298  31.659  1.00  0.00     0.049 A 
ATOM     32  H   UNL A   1      44.757  30.807  30.198  1.00  0.00     0.167 HD
ATOM     33  C   UNL A   1      42.399  29.751  31.528  1.00  0.00     0.074 A 
ATOM     34  C   UNL A   1      42.297  30.686  30.420  1.00  0.00     0.031 C 
ATOM     35  C   UNL A   1      43.481  29.243  32.184  1.00  0.00     0.031 A 
BRANCH  22  36
ATOM     36  C   UNL A   1      46.508  30.661  27.703  1.00  0.00    -0.014 A 
ATOM     37  C   UNL A   1      45.443  31.518  27.342  1.00  0.00     0.010 A 
ATOM     38  C   UNL A   1      47.812  31.142  27.495  1.00  0.00     0.010 A 
ATOM     39  C   UNL A   1      45.649  32.746  26.723  1.00  0.00     0.020 A 
ATOM     40  C   UNL A   1      48.033  32.406  26.923  1.00  0.00     0.020 A 
ATOM     41  C   UNL A   1      46.947  33.187  26.521  1.00  0.00     0.054 A 
BRANCH  41  42
ATOM     42  S   UNL A   1      47.167  34.833  25.808  1.00  0.00     0.124 S 
ATOM     43  O   UNL A   1      46.900  35.694  26.958  1.00  0.00    -0.237 OA
ATOM     44  O   UNL A   1      48.557  34.799  25.359  1.00  0.00    -0.237 OA
ATOM     45  O   UNL A   1      46.170  34.879  24.743  1.00  0.00    -0.744 OA
ENDBRANCH  41  42
ENDBRANCH  22  36
BRANCH  23  46
ATOM     46  C   UNL A   1      38.302  28.999  29.326  1.00  0.00    -0.014 A 
ATOM     47  C   UNL A   1      38.112  29.391  27.985  1.00  0.00     0.010 A 
ATOM     48  C   UNL A   1      37.332  29.392  30.269  1.00  0.00     0.010 A 
ATOM     49  C   UNL A   1      37.050  30.220  27.614  1.00  0.00     0.020 A 
ATOM     50  C   UNL A   1      36.270  30.235  29.906  1.00  0.00     0.020 A 
ATOM     51  C   UNL A   1      36.163  30.675  28.587  1.00  0.00     0.054 A 
BRANCH  51  52
ATOM     52  S   UNL A   1      34.950  31.937  28.107  1.00  0.00     0.124 S 
ATOM     53  O   UNL A   1      34.084  31.192  27.196  1.00  0.00    -0.237 OA
ATOM     54  O   UNL A   1      34.348  32.298  29.388  1.00  0.00    -0.237 OA
ATOM     55  O   UNL A   1      35.761  32.980  27.486  1.00  0.00    -0.744 OA
ENDBRANCH  51  52
ENDBRANCH  23  46
BRANCH  35  56
ATOM     56  C   UNL A   1      43.252  28.341  33.377  1.00  0.00    -0.014 A 
ATOM     57  C   UNL A   1      43.333  26.952  33.157  1.00  0.00     0.010 A 
ATOM     58  C   UNL A   1      42.825  28.796  34.638  1.00  0.00     0.010 A 
ATOM     59  C   UNL A   1      42.957  26.043  34.148  1.00  0.00     0.020 A 
ATOM     60  C   UNL A   1      42.475  27.887  35.648  1.00  0.00     0.020 A 
ATOM     61  C   UNL A   1      42.516  26.517  35.384  1.00  0.00     0.054 A 
BRANCH  61  62
ATOM     62  S   UNL A   1      41.979  25.306  36.623  1.00  0.00     0.124 S 
ATOM     63  O   UNL A   1      40.857  25.993  37.258  1.00  0.00    -0.237 OA
ATOM     64  O   UNL A   1      41.617  24.147  35.809  1.00  0.00    -0.237 OA
ATOM     65  O   UNL A   1      43.156  25.120  37.469  1.00  0.00    -0.744 OA
ENDBRANCH  61  62
ENDBRANCH  35  56
ENDBRANCH   9  10
ENDBRANCH   2   4
ENDBRANCH   1   2
BRANCH   1  66
ATOM     66  C   UNL A   1      44.596  19.190  24.470  1.00  0.00     0.275 C 
BRANCH  66  67
ATOM     67  C   UNL A   1      43.552  18.659  25.468  1.00  0.00     0.275 C 
BRANCH  67  68
ATOM     68  O   UNL A   1      42.269  19.271  25.354  1.00  0.00    -0.457 OA
BRANCH  68  69
ATOM     69  C   UNL A   1      41.647  19.604  26.513  1.00  0.00     0.357 C 
ATOM     70  O   UNL A   1      42.145  19.661  27.616  1.00  0.00    -0.244 OA
BRANCH  69  71
ATOM     71  C   UNL A   1      40.302  20.138  26.169  1.00  0.00     0.150 A 
ATOM     72  C   UNL A   1      40.060  21.463  26.514  1.00  0.00     0.068 A 
ATOM     73  N   UNL A   1      39.458  19.346  25.443  1.00  0.00    -0.245 NA
ATOM     74  C   UNL A   1      38.860  21.987  26.040  1.00  0.00     0.113 A 
ATOM     75  C   UNL A   1      38.266  19.854  25.025  1.00  0.00     0.161 A 
ATOM     76  N   UNL A   1      38.335  23.251  26.141  1.00  0.00    -0.216 NA
ATOM     77  C   UNL A   1      38.000  21.178  25.314  1.00  0.00     0.172 A 
ATOM     78  C   UNL A   1      37.200  23.160  25.482  1.00  0.00     0.309 A 
ATOM     79  O   UNL A   1      36.920  21.934  24.955  1.00  0.00    -0.442 OA
ENDBRANCH  69  71
ENDBRANCH  68  69
ENDBRANCH  67  68
ENDBRANCH  66  67
ENDBRANCH   1  66
TORSDOF 14
ENDMDL
MODEL 2
REMARK VINA RESULT:     -10.7      4.267     11.568
REMARK SMILES O=C(OCCOC(=O)c1cc2ncoc2cn1)c1ccc(-c2c3nc(c(-c4ccc(S(=O)(=O)[O-])cc4)c4ccc([nH]4)c(-c4ccc(S(=O)(=O)[O-])cc4)c4nc(c(-c5ccc(S(=O)(=O)[O-])cc5)c5ccc2[nH]5)C=C4)C=C3)cc1
REMARK SMILES IDX 3 1 2 2 1 3 18 4 19 5 77 6 20 7 76 8 21 9 22 10 23 11 70 12
REMARK SMILES IDX 24 13 75 14 69 15 71 16 25 17 74 18 68 19 67 20 26 22 56 23
REMARK SMILES IDX 37 24 55 25 38 26 41 27 54 28 72 29 39 30 40 31 53 33 73 34
REMARK SMILES IDX 42 35 27 36 28 37 36 38 29 39 35 40 30 41 31 42 32 43 33 44
REMARK SMILES IDX 34 45 57 46 58 47 66 48 59 49 65 50 60 51 61 52 62 53 63 54
REMARK SMILES IDX 64 55 43 56 44 57 52 58 45 59 51 60 46 61 47 62 48 63 49 64
REMARK SMILES IDX 50 65 4 66 5 67 6 68 7 69 8 70 9 71 10 72 17 73 11 74 16 75
REMARK SMILES IDX 12 76 15 77 13 78 14 79
REMARK H PARENT 71 21 41 32
REMARK Flexibility Score: inf
ROOT
ATOM      1  O   UNL A   1      39.882  33.106  33.083  1.00  0.00    -0.458 OA
ENDROOT
BRANCH   1   2
ATOM      2  C   UNL A   1      40.159  33.456  31.795  1.00  0.00     0.338 C 
ATOM      3  O   UNL A   1      39.909  34.564  31.339  1.00  0.00    -0.246 OA
BRANCH   2   4
ATOM      4  C   UNL A   1      40.561  32.357  30.907  1.00  0.00     0.060 A 
ATOM      5  C   UNL A   1      39.785  31.205  30.982  1.00  0.00     0.016 A 
ATOM      6  C   UNL A   1      41.786  32.371  30.235  1.00  0.00     0.016 A 
ATOM      7  C   UNL A   1      40.376  30.006  30.639  1.00  0.00     0.010 A 
ATOM      8  C   UNL A   1      42.372  31.163  29.879  1.00  0.00     0.010 A 
ATOM      9  C   UNL A   1      41.700  29.974  30.169  1.00  0.00    -0.014 A 
BRANCH   9  10
ATOM     10  C   UNL A   1      42.224  28.653  29.817  1.00  0.00     0.031 A 
ATOM     11  C   UNL A   1      43.177  28.137  30.834  1.00  0.00     0.074 A 
ATOM     12  C   UNL A   1      41.856  27.897  28.766  1.00  0.00     0.049 A 
ATOM     13  N   UNL A   1      44.406  27.767  30.682  1.00  0.00    -0.248 NA
ATOM     14  C   UNL A   1      42.724  28.213  32.237  1.00  0.00     0.031 C 
ATOM     15  C   UNL A   1      40.752  28.137  27.836  1.00  0.00     0.029 A 
ATOM     16  N   UNL A   1      42.330  26.671  28.381  1.00  0.00    -0.354 N 
ATOM     17  C   UNL A   1      44.831  27.407  31.956  1.00  0.00     0.074 A 
ATOM     18  C   UNL A   1      43.835  27.878  32.883  1.00  0.00     0.031 C 
ATOM     19  C   UNL A   1      40.485  26.994  27.166  1.00  0.00     0.029 A 
ATOM     20  C   UNL A   1      41.468  25.987  27.534  1.00  0.00     0.049 A 
ATOM     21  H   UNL A   1      43.198  26.310  28.675  1.00  0.00     0.167 HD
ATOM     22  C   UNL A   1      45.845  26.532  32.175  1.00  0.00     0.031 A 
ATOM     23  C   UNL A   1      41.495  24.662  27.245  1.00  0.00     0.031 A 
ATOM     24  C   UNL A   1      46.706  26.376  31.043  1.00  0.00     0.049 A 
ATOM     25  C   UNL A   1      42.840  24.134  27.571  1.00  0.00     0.074 A 
ATOM     26  C   UNL A   1      47.604  27.188  30.386  1.00  0.00     0.029 A 
ATOM     27  N   UNL A   1      46.443  25.311  30.218  1.00  0.00    -0.354 N 
ATOM     28  N   UNL A   1      43.924  24.425  26.911  1.00  0.00    -0.248 NA
ATOM     29  C   UNL A   1      43.049  23.456  28.844  1.00  0.00     0.031 C 
ATOM     30  C   UNL A   1      47.621  26.738  29.038  1.00  0.00     0.029 A 
ATOM     31  C   UNL A   1      46.742  25.657  28.923  1.00  0.00     0.049 A 
ATOM     32  H   UNL A   1      46.096  24.438  30.509  1.00  0.00     0.167 HD
ATOM     33  C   UNL A   1      44.941  24.333  27.844  1.00  0.00     0.074 A 
ATOM     34  C   UNL A   1      44.373  23.585  28.954  1.00  0.00     0.031 C 
ATOM     35  C   UNL A   1      46.049  25.123  27.762  1.00  0.00     0.031 A 
BRANCH  22  36
ATOM     36  C   UNL A   1      45.802  25.567  33.329  1.00  0.00    -0.014 A 
ATOM     37  C   UNL A   1      45.047  24.374  33.273  1.00  0.00     0.010 A 
ATOM     38  C   UNL A   1      46.685  25.712  34.413  1.00  0.00     0.010 A 
ATOM     39  C   UNL A   1      45.089  23.414  34.278  1.00  0.00     0.020 A 
ATOM     40  C   UNL A   1      46.778  24.723  35.406  1.00  0.00     0.020 A 
ATOM     41  C   UNL A   1      45.961  23.592  35.340  1.00  0.00     0.054 A 
BRANCH  41  42
ATOM     42  S   UNL A   1      46.057  22.271  36.570  1.00  0.00     0.124 S 
ATOM     43  O   UNL A   1      45.414  22.892  37.726  1.00  0.00    -0.237 OA
ATOM     44  O   UNL A   1      45.301  21.193  35.934  1.00  0.00    -0.237 OA
ATOM     45  O   UNL A   1      47.491  22.030  36.701  1.00  0.00    -0.744 OA
ENDBRANCH  41  42
ENDBRANCH  22  36
BRANCH  23  46
ATOM     46  C   UNL A   1      40.334  23.755  27.040  1.00  0.00    -0.014 A 
ATOM     47  C   UNL A   1      40.541  22.399  26.720  1.00  0.00     0.010 A 
ATOM     48  C   UNL A   1      39.044  24.287  26.847  1.00  0.00     0.010 A 
ATOM     49  C   UNL A   1      39.530  21.626  26.143  1.00  0.00     0.020 A 
ATOM     50  C   UNL A   1      38.027  23.521  26.256  1.00  0.00     0.020 A 
ATOM     51  C   UNL A   1      38.293  22.207  25.870  1.00  0.00     0.054 A 
BRANCH  51  52
ATOM     52  S   UNL A   1      37.096  21.244  24.904  1.00  0.00     0.124 S 
ATOM     53  O   UNL A   1      36.932  22.075  23.714  1.00  0.00    -0.237 OA
ATOM     54  O   UNL A   1      37.802  19.983  24.695  1.00  0.00    -0.237 OA
ATOM     55  O   UNL A   1      35.928  21.165  25.778  1.00  0.00    -0.744 OA
ENDBRANCH  51  52
ENDBRANCH  23  46
BRANCH  35  56
ATOM     56  C   UNL A   1      46.430  25.704  26.419  1.00  0.00    -0.014 A 
ATOM     57  C   UNL A   1      47.412  25.018  25.676  1.00  0.00     0.010 A 
ATOM     58  C   UNL A   1      45.979  26.948  25.941  1.00  0.00     0.010 A 
ATOM     59  C   UNL A   1      47.959  25.573  24.518  1.00  0.00     0.020 A 
ATOM     60  C   UNL A   1      46.504  27.498  24.762  1.00  0.00     0.020 A 
ATOM     61  C   UNL A   1      47.512  26.818  24.076  1.00  0.00     0.054 A 
BRANCH  61  62
ATOM     62  S   UNL A   1      48.290  27.533  22.602  1.00  0.00     0.124 S 
ATOM     63  O   UNL A   1      48.519  26.353  21.771  1.00  0.00    -0.237 OA
ATOM     64  O   UNL A   1      47.266  28.452  22.107  1.00  0.00    -0.237 OA
ATOM     65  O   UNL A   1      49.497  28.177  23.116  1.00  0.00    -0.744 OA
ENDBRANCH  61  62
ENDBRANCH  35  56
ENDBRANCH   9  10
ENDBRANCH   2   4
ENDBRANCH   1   2
BRANCH   1  66
ATOM     66  C   UNL A   1      39.707  34.024  34.193  1.00  0.00     0.275 C 
BRANCH  66  67
ATOM     67  C   UNL A   1      38.319  34.088  34.855  1.00  0.00     0.275 C 
BRANCH  67  68
ATOM     68  O   UNL A   1      37.324  34.737  34.067  1.00  0.00    -0.457 OA
BRANCH  68  69
ATOM     69  C   UNL A   1      36.064  34.238  34.144  1.00  0.00     0.357 C 
ATOM     70  O   UNL A   1      35.647  33.436  34.951  1.00  0.00    -0.244 OA
BRANCH  69  71
ATOM     71  C   UNL A   1      35.206  35.032  33.224  1.00  0.00     0.150 A 
ATOM     72  C   UNL A   1      34.888  34.433  32.010  1.00  0.00     0.068 A 
ATOM     73  N   UNL A   1      34.698  36.217  33.674  1.00  0.00    -0.245 NA
ATOM     74  C   UNL A   1      33.957  35.122  31.237  1.00  0.00     0.113 A 
ATOM     75  C   UNL A   1      33.824  36.906  32.890  1.00  0.00     0.161 A 
ATOM     76  N   UNL A   1      33.382  34.801  30.033  1.00  0.00    -0.216 NA
ATOM     77  C   UNL A   1      33.452  36.331  31.691  1.00  0.00     0.172 A 
ATOM     78  C   UNL A   1      32.565  35.808  29.810  1.00  0.00     0.309 A 
ATOM     79  O   UNL A   1      32.553  36.780  30.766  1.00  0.00    -0.442 OA
ENDBRANCH  69  71
ENDBRANCH  68  69
ENDBRANCH  67  68
ENDBRANCH  66  67
ENDBRANCH   1  66
TORSDOF 14
ENDMDL
MODEL 3
REMARK VINA RESULT:     -10.7      2.016      3.632
REMARK SMILES O=C(OCCOC(=O)c1cc2ncoc2cn1)c1ccc(-c2c3nc(c(-c4ccc(S(=O)(=O)[O-])cc4)c4ccc([nH]4)c(-c4ccc(S(=O)(=O)[O-])cc4)c4nc(c(-c5ccc(S(=O)(=O)[O-])cc5)c5ccc2[nH]5)C=C4)C=C3)cc1
REMARK SMILES IDX 3 1 2 2 1 3 18 4 19 5 77 6 20 7 76 8 21 9 22 10 23 11 70 12
REMARK SMILES IDX 24 13 75 14 69 15 71 16 25 17 74 18 68 19 67 20 26 22 56 23
REMARK SMILES IDX 37 24 55 25 38 26 41 27 54 28 72 29 39 30 40 31 53 33 73 34
REMARK SMILES IDX 42 35 27 36 28 37 36 38 29 39 35 40 30 41 31 42 32 43 33 44
REMARK SMILES IDX 34 45 57 46 58 47 66 48 59 49 65 50 60 51 61 52 62 53 63 54
REMARK SMILES IDX 64 55 43 56 44 57 52 58 45 59 51 60 46 61 47 62 48 63 49 64
REMARK SMILES IDX 50 65 4 66 5 67 6 68 7 69 8 70 9 71 10 72 17 73 11 74 16 75
REMARK SMILES IDX 12 76 15 77 13 78 14 79
REMARK H PARENT 71 21 41 32
REMARK Flexibility Score: inf
ROOT
ATOM      1  O   UNL A   1      41.373  20.902  26.501  1.00  0.00    -0.458 OA
ENDROOT
BRANCH   1   2
ATOM      2  C   UNL A   1      40.299  21.726  26.336  1.00  0.00     0.338 C 
ATOM      3  O   UNL A   1      39.247  21.353  25.836  1.00  0.00    -0.246 OA
BRANCH   2   4
ATOM      4  C   UNL A   1      40.549  23.154  26.574  1.00  0.00     0.060 A 
ATOM      5  C   UNL A   1      41.785  23.468  27.126  1.00  0.00     0.016 A 
ATOM      6  C   UNL A   1      39.520  24.098  26.499  1.00  0.00     0.016 A 
ATOM      7  C   UNL A   1      41.886  24.630  27.864  1.00  0.00     0.010 A 
ATOM      8  C   UNL A   1      39.631  25.272  27.232  1.00  0.00     0.010 A 
ATOM      9  C   UNL A   1      40.782  25.491  27.990  1.00  0.00    -0.014 A 
BRANCH   9  10
ATOM     10  C   UNL A   1      41.002  26.704  28.779  1.00  0.00     0.031 A 
ATOM     11  C   UNL A   1      42.175  27.480  28.300  1.00  0.00     0.074 A 
ATOM     12  C   UNL A   1      40.218  27.172  29.769  1.00  0.00     0.049 A 
ATOM     13  N   UNL A   1      43.231  27.842  28.953  1.00  0.00    -0.248 NA
ATOM     14  C   UNL A   1      42.232  27.731  26.847  1.00  0.00     0.031 C 
ATOM     15  C   UNL A   1      38.902  26.679  30.173  1.00  0.00     0.029 A 
ATOM     16  N   UNL A   1      40.392  28.283  30.550  1.00  0.00    -0.354 N 
ATOM     17  C   UNL A   1      44.015  28.513  28.021  1.00  0.00     0.074 A 
ATOM     18  C   UNL A   1      43.449  28.247  26.723  1.00  0.00     0.031 C 
ATOM     19  C   UNL A   1      38.296  27.618  30.935  1.00  0.00     0.029 A 
ATOM     20  C   UNL A   1      39.223  28.715  31.163  1.00  0.00     0.049 A 
ATOM     21  H   UNL A   1      41.261  28.732  30.666  1.00  0.00     0.167 HD
ATOM     22  C   UNL A   1      44.936  29.447  28.366  1.00  0.00     0.031 A 
ATOM     23  C   UNL A   1      39.000  29.931  31.720  1.00  0.00     0.031 A 
ATOM     24  C   UNL A   1      45.343  29.353  29.736  1.00  0.00     0.049 A 
ATOM     25  C   UNL A   1      40.306  30.565  32.012  1.00  0.00     0.074 A 
ATOM     26  C   UNL A   1      46.055  28.435  30.477  1.00  0.00     0.029 A 
ATOM     27  N   UNL A   1      44.699  30.178  30.622  1.00  0.00    -0.354 N 
ATOM     28  N   UNL A   1      41.132  30.159  32.934  1.00  0.00    -0.248 NA
ATOM     29  C   UNL A   1      40.851  31.537  31.073  1.00  0.00     0.031 C 
ATOM     30  C   UNL A   1      45.567  28.547  31.807  1.00  0.00     0.029 A 
ATOM     31  C   UNL A   1      44.583  29.540  31.832  1.00  0.00     0.049 A 
ATOM     32  H   UNL A   1      44.372  31.084  30.422  1.00  0.00     0.167 HD
ATOM     33  C   UNL A   1      42.385  30.506  32.463  1.00  0.00     0.074 A 
ATOM     34  C   UNL A   1      42.141  31.481  31.412  1.00  0.00     0.031 C 
ATOM     35  C   UNL A   1      43.484  29.755  32.760  1.00  0.00     0.031 A 
BRANCH  22  36
ATOM     36  C   UNL A   1      45.174  30.660  27.508  1.00  0.00    -0.014 A 
ATOM     37  C   UNL A   1      44.124  31.538  27.157  1.00  0.00     0.010 A 
ATOM     38  C   UNL A   1      46.482  31.078  27.211  1.00  0.00     0.010 A 
ATOM     39  C   UNL A   1      44.342  32.725  26.466  1.00  0.00     0.020 A 
ATOM     40  C   UNL A   1      46.720  32.302  26.564  1.00  0.00     0.020 A 
ATOM     41  C   UNL A   1      45.644  33.105  26.177  1.00  0.00     0.054 A 
BRANCH  41  42
ATOM     42  S   UNL A   1      45.886  34.704  25.370  1.00  0.00     0.124 S 
ATOM     43  O   UNL A   1      47.323  34.691  25.109  1.00  0.00    -0.237 OA
ATOM     44  O   UNL A   1      45.031  34.593  24.190  1.00  0.00    -0.237 OA
ATOM     45  O   UNL A   1      45.437  35.664  26.375  1.00  0.00    -0.744 OA
ENDBRANCH  41  42
ENDBRANCH  22  36
BRANCH  23  46
ATOM     46  C   UNL A   1      37.742  30.724  31.691  1.00  0.00    -0.014 A 
ATOM     47  C   UNL A   1      37.404  31.480  30.551  1.00  0.00     0.010 A 
ATOM     48  C   UNL A   1      37.042  30.988  32.885  1.00  0.00     0.010 A 
ATOM     49  C   UNL A   1      36.475  32.521  30.618  1.00  0.00     0.020 A 
ATOM     50  C   UNL A   1      36.117  32.041  32.964  1.00  0.00     0.020 A 
ATOM     51  C   UNL A   1      35.872  32.826  31.836  1.00  0.00     0.054 A 
BRANCH  51  52
ATOM     52  S   UNL A   1      34.862  34.330  31.933  1.00  0.00     0.124 S 
ATOM     53  O   UNL A   1      35.727  35.225  32.697  1.00  0.00    -0.237 OA
ATOM     54  O   UNL A   1      34.685  34.680  30.526  1.00  0.00    -0.237 OA
ATOM     55  O   UNL A   1      33.651  33.891  32.621  1.00  0.00    -0.744 OA
ENDBRANCH  51  52
ENDBRANCH  23  46
BRANCH  35  56
ATOM     56  C   UNL A   1      43.456  28.880  33.993  1.00  0.00    -0.014 A 
ATOM     57  C   UNL A   1      43.169  27.514  33.805  1.00  0.00     0.010 A 
ATOM     58  C   UNL A   1      43.552  29.369  35.309  1.00  0.00     0.010 A 
ATOM     59  C   UNL A   1      42.940  26.669  34.893  1.00  0.00     0.020 A 
ATOM     60  C   UNL A   1      43.352  28.519  36.407  1.00  0.00     0.020 A 
ATOM     61  C   UNL A   1      43.019  27.181  36.189  1.00  0.00     0.054 A 
BRANCH  61  62
ATOM     62  S   UNL A   1      42.655  26.067  37.573  1.00  0.00     0.124 S 
ATOM     63  O   UNL A   1      43.516  26.596  38.628  1.00  0.00    -0.237 OA
ATOM     64  O   UNL A   1      41.222  26.267  37.783  1.00  0.00    -0.237 OA
ATOM     65  O   UNL A   1      43.024  24.746  37.071  1.00  0.00    -0.744 OA
ENDBRANCH  61  62
ENDBRANCH  35  56
ENDBRANCH   9  10
ENDBRANCH   2   4
ENDBRANCH   1   2
BRANCH   1  66
ATOM     66  C   UNL A   1      41.422  19.493  26.155  1.00  0.00     0.275 C 
BRANCH  66  67
ATOM     67  C   UNL A   1      42.806  18.867  25.907  1.00  0.00     0.275 C 
BRANCH  67  68
ATOM     68  O   UNL A   1      43.362  19.163  24.628  1.00  0.00    -0.457 OA
BRANCH  68  69
ATOM     69  C   UNL A   1      44.671  19.518  24.600  1.00  0.00     0.357 C 
ATOM     70  O   UNL A   1      45.602  18.837  24.228  1.00  0.00    -0.244 OA
BRANCH  69  71
ATOM     71  C   UNL A   1      44.750  20.980  24.865  1.00  0.00     0.150 A 
ATOM     72  C   UNL A   1      45.778  21.396  25.704  1.00  0.00     0.068 A 
ATOM     73  N   UNL A   1      43.903  21.807  24.186  1.00  0.00    -0.245 NA
ATOM     74  C   UNL A   1      45.930  22.777  25.810  1.00  0.00     0.113 A 
ATOM     75  C   UNL A   1      44.031  23.155  24.332  1.00  0.00     0.161 A 
ATOM     76  N   UNL A   1      46.859  23.524  26.491  1.00  0.00    -0.216 NA
ATOM     77  C   UNL A   1      45.062  23.615  25.127  1.00  0.00     0.172 A 
ATOM     78  C   UNL A   1      46.523  24.762  26.198  1.00  0.00     0.309 A 
ATOM     79  O   UNL A   1      45.441  24.903  25.381  1.00  0.00    -0.442 OA
ENDBRANCH  69  71
ENDBRANCH  68  69
ENDBRANCH  67  68
ENDBRANCH  66  67
ENDBRANCH   1  66
TORSDOF 14
ENDMDL
