MODEL 1
REMARK VINA RESULT:     -11.6      0.000      0.000
REMARK SMILES CC1=C(C(=O)OCCOC(=O)c2ccc(-c3c4nc(c(-c5ccc(S(=O)(=O)[O-])cc5)c5ccc([nH]5)c(-c5ccc(S(=O)(=O)[O-])cc5)c5nc(c(-c6ccc(S(=O)(=O)[O-])cc6)c6ccc3[nH]6)C=C5)C=C4)cc2)N2C(=O)[C@H](NC(=O)c3c(Cl)c(C(F)(F)F)nn3C)[C@@H]2SC1
REMARK SMILES IDX 7 1 6 2 4 3 5 4 3 5 1 6 2 7 92 8 72 9 91 10 73 11 90 12
REMARK SMILES IDX 74 13 75 14 76 15 77 16 78 18 79 19 80 20 88 21 81 22 82 23
REMARK SMILES IDX 87 24 89 25 83 26 84 27 85 28 86 29 8 30 9 31 10 32 11 33
REMARK SMILES IDX 12 34 13 35 71 36 14 37 70 38 15 39 16 40 17 41 64 42 18 43
REMARK SMILES IDX 69 44 63 45 65 46 19 47 68 48 62 49 61 50 20 52 50 53 31 54
REMARK SMILES IDX 49 55 32 56 35 57 48 58 66 59 33 60 34 61 47 63 67 64 36 65
REMARK SMILES IDX 21 66 22 67 30 68 23 69 29 70 24 71 25 72 26 73 27 74 28 75
REMARK SMILES IDX 51 76 52 77 60 78 53 79 59 80 54 81 55 82 56 83 57 84 58 85
REMARK SMILES IDX 37 86 38 87 46 88 39 89 45 90 40 91 41 92 42 93 43 94 44 95
REMARK H PARENT 76 17 65 51 35 62
REMARK Flexibility Score: inf
ROOT
ATOM      1  C   UNL A   1      33.568  30.225  27.348  1.00  0.00     0.275 C 
ENDROOT
BRANCH   1   2
ATOM      2  O   UNL A   1      32.785  29.830  26.202  1.00  0.00    -0.457 OA
BRANCH   2   3
ATOM      3  C   UNL A   1      31.987  28.736  26.341  1.00  0.00     0.355 C 
ATOM      4  O   UNL A   1      31.380  28.453  27.359  1.00  0.00    -0.244 OA
BRANCH   3   5
ATOM      5  C   UNL A   1      31.872  27.968  25.036  1.00  0.00     0.131 C 
ATOM      6  C   UNL A   1      30.209  29.591  24.023  1.00  0.00     0.043 C 
ATOM      7  C   UNL A   1      31.075  28.351  24.001  1.00  0.00    -0.032 C 
ATOM      8  C   UNL A   1      30.981  27.615  22.669  1.00  0.00     0.105 C 
ATOM      9  N   UNL A   1      32.602  26.818  24.911  1.00  0.00    -0.289 N 
ATOM     10  S   UNL A   1      32.305  26.406  22.354  1.00  0.00    -0.129 SA
ATOM     11  C   UNL A   1      33.643  26.175  25.492  1.00  0.00     0.253 C 
ATOM     12  C   UNL A   1      32.208  25.745  24.024  1.00  0.00     0.181 C 
ATOM     13  O   UNL A   1      34.427  26.461  26.358  1.00  0.00    -0.272 OA
ATOM     14  C   UNL A   1      33.388  24.919  24.595  1.00  0.00     0.206 C 
BRANCH  14  15
ATOM     15  N   UNL A   1      34.483  24.484  23.706  1.00  0.00    -0.336 N 
ATOM     16  C   UNL A   1      34.880  23.197  23.397  1.00  0.00     0.271 C 
ATOM     17  H   UNL A   1      34.997  25.205  23.276  1.00  0.00     0.164 HD
ATOM     18  O   UNL A   1      35.945  23.072  22.796  1.00  0.00    -0.267 OA
BRANCH  16  19
ATOM     19  C   UNL A   1      34.046  22.073  23.752  1.00  0.00     0.145 A 
ATOM     20  C   UNL A   1      34.380  20.945  24.488  1.00  0.00     0.104 A 
ATOM     21  N   UNL A   1      32.793  21.793  23.275  1.00  0.00    -0.261 N 
ATOM     22  Cl  UNL A   1      35.865  20.597  25.231  1.00  0.00    -0.079 Cl
ATOM     23  C   UNL A   1      33.237  20.102  24.485  1.00  0.00     0.185 A 
ATOM     24  N   UNL A   1      32.239  20.686  23.789  1.00  0.00    -0.166 NA
ATOM     25  C   UNL A   1      32.050  22.474  22.242  1.00  0.00     0.174 C 
BRANCH  23  26
ATOM     26  C   UNL A   1      33.103  18.737  25.109  1.00  0.00     0.436 C 
ATOM     27  F   UNL A   1      32.977  18.812  26.461  1.00  0.00    -0.164 F 
ATOM     28  F   UNL A   1      32.027  18.071  24.638  1.00  0.00    -0.164 F 
ATOM     29  F   UNL A   1      34.190  17.951  24.875  1.00  0.00    -0.164 F 
ENDBRANCH  23  26
ENDBRANCH  16  19
ENDBRANCH  14  15
ENDBRANCH   3   5
ENDBRANCH   2   3
ENDBRANCH   1   2
BRANCH   1  30
ATOM     30  C   UNL A   1      35.053  29.910  27.140  1.00  0.00     0.275 C 
BRANCH  30  31
ATOM     31  O   UNL A   1      35.567  29.082  28.200  1.00  0.00    -0.458 OA
BRANCH  31  32
ATOM     32  C   UNL A   1      36.183  29.765  29.193  1.00  0.00     0.338 C 
ATOM     33  O   UNL A   1      35.654  30.281  30.166  1.00  0.00    -0.246 OA
BRANCH  32  34
ATOM     34  C   UNL A   1      37.643  29.613  29.087  1.00  0.00     0.060 A 
ATOM     35  C   UNL A   1      38.153  29.661  27.793  1.00  0.00     0.016 A 
ATOM     36  C   UNL A   1      38.490  29.332  30.159  1.00  0.00     0.016 A 
ATOM     37  C   UNL A   1      39.499  29.427  27.556  1.00  0.00     0.010 A 
ATOM     38  C   UNL A   1      39.854  29.086  29.913  1.00  0.00     0.010 A 
ATOM     39  C   UNL A   1      40.366  29.118  28.603  1.00  0.00    -0.014 A 
BRANCH  39  40
ATOM     40  C   UNL A   1      41.745  28.694  28.240  1.00  0.00     0.031 A 
ATOM     41  C   UNL A   1      42.867  29.694  28.335  1.00  0.00     0.074 A 
ATOM     42  C   UNL A   1      42.029  27.398  27.985  1.00  0.00     0.049 A 
ATOM     43  N   UNL A   1      44.138  29.540  28.075  1.00  0.00    -0.248 NA
ATOM     44  C   UNL A   1      42.509  31.043  28.802  1.00  0.00     0.031 C 
ATOM     45  C   UNL A   1      41.062  26.299  28.004  1.00  0.00     0.029 A 
ATOM     46  N   UNL A   1      43.222  26.783  27.689  1.00  0.00    -0.354 N 
ATOM     47  C   UNL A   1      44.730  30.773  28.319  1.00  0.00     0.074 A 
ATOM     48  C   UNL A   1      43.673  31.671  28.733  1.00  0.00     0.031 C 
ATOM     49  C   UNL A   1      41.701  25.148  27.733  1.00  0.00     0.029 A 
ATOM     50  C   UNL A   1      43.108  25.430  27.463  1.00  0.00     0.049 A 
ATOM     51  H   UNL A   1      44.078  27.265  27.642  1.00  0.00     0.167 HD
ATOM     52  C   UNL A   1      46.033  31.128  28.205  1.00  0.00     0.031 A 
ATOM     53  C   UNL A   1      44.024  24.521  27.063  1.00  0.00     0.031 A 
ATOM     54  C   UNL A   1      47.082  30.231  27.792  1.00  0.00     0.049 A 
ATOM     55  C   UNL A   1      45.448  24.963  26.831  1.00  0.00     0.074 A 
ATOM     56  C   UNL A   1      48.429  30.505  27.626  1.00  0.00     0.029 A 
ATOM     57  N   UNL A   1      46.909  28.889  27.485  1.00  0.00    -0.354 N 
ATOM     58  N   UNL A   1      45.976  26.155  26.976  1.00  0.00    -0.248 NA
ATOM     59  C   UNL A   1      46.403  23.936  26.395  1.00  0.00     0.031 C 
ATOM     60  C   UNL A   1      49.056  29.350  27.146  1.00  0.00     0.029 A 
ATOM     61  C   UNL A   1      48.118  28.331  27.097  1.00  0.00     0.049 A 
ATOM     62  H   UNL A   1      46.053  28.405  27.533  1.00  0.00     0.167 HD
ATOM     63  C   UNL A   1      47.332  26.012  26.704  1.00  0.00     0.074 A 
ATOM     64  C   UNL A   1      47.542  24.616  26.376  1.00  0.00     0.031 C 
ATOM     65  C   UNL A   1      48.315  26.947  26.737  1.00  0.00     0.031 A 
BRANCH  52  66
ATOM     66  C   UNL A   1      46.380  32.576  28.450  1.00  0.00    -0.014 A 
ATOM     67  C   UNL A   1      46.205  33.563  27.463  1.00  0.00     0.010 A 
ATOM     68  C   UNL A   1      46.883  32.954  29.709  1.00  0.00     0.010 A 
ATOM     69  C   UNL A   1      46.569  34.889  27.716  1.00  0.00     0.020 A 
ATOM     70  C   UNL A   1      47.216  34.284  29.979  1.00  0.00     0.020 A 
ATOM     71  C   UNL A   1      47.076  35.240  28.973  1.00  0.00     0.054 A 
BRANCH  71  72
ATOM     72  S   UNL A   1      47.535  36.968  29.276  1.00  0.00     0.124 S 
ATOM     73  O   UNL A   1      48.712  37.123  28.424  1.00  0.00    -0.237 OA
ATOM     74  O   UNL A   1      46.345  37.696  28.842  1.00  0.00    -0.237 OA
ATOM     75  O   UNL A   1      47.798  37.012  30.713  1.00  0.00    -0.744 OA
ENDBRANCH  71  72
ENDBRANCH  52  66
BRANCH  53  76
ATOM     76  C   UNL A   1      43.620  23.103  26.825  1.00  0.00    -0.014 A 
ATOM     77  C   UNL A   1      42.828  22.402  27.752  1.00  0.00     0.010 A 
ATOM     78  C   UNL A   1      44.049  22.437  25.663  1.00  0.00     0.010 A 
ATOM     79  C   UNL A   1      42.491  21.063  27.533  1.00  0.00     0.020 A 
ATOM     80  C   UNL A   1      43.687  21.108  25.422  1.00  0.00     0.020 A 
ATOM     81  C   UNL A   1      42.921  20.424  26.367  1.00  0.00     0.054 A 
BRANCH  81  82
ATOM     82  S   UNL A   1      42.445  18.696  26.086  1.00  0.00     0.124 S 
ATOM     83  O   UNL A   1      41.036  18.821  25.726  1.00  0.00    -0.237 OA
ATOM     84  O   UNL A   1      43.341  18.293  25.003  1.00  0.00    -0.237 OA
ATOM     85  O   UNL A   1      42.706  18.054  27.372  1.00  0.00    -0.744 OA
ENDBRANCH  81  82
ENDBRANCH  53  76
BRANCH  65  86
ATOM     86  C   UNL A   1      49.718  26.490  26.424  1.00  0.00    -0.014 A 
ATOM     87  C   UNL A   1      50.276  26.649  25.142  1.00  0.00     0.010 A 
ATOM     88  C   UNL A   1      50.505  25.916  27.441  1.00  0.00     0.010 A 
ATOM     89  C   UNL A   1      51.570  26.194  24.870  1.00  0.00     0.020 A 
ATOM     90  C   UNL A   1      51.812  25.494  27.184  1.00  0.00     0.020 A 
ATOM     91  C   UNL A   1      52.329  25.617  25.893  1.00  0.00     0.054 A 
BRANCH  91  92
ATOM     92  S   UNL A   1      54.011  25.050  25.517  1.00  0.00     0.124 S 
ATOM     93  O   UNL A   1      53.822  23.608  25.377  1.00  0.00    -0.237 OA
ATOM     94  O   UNL A   1      54.321  25.765  24.282  1.00  0.00    -0.237 OA
ATOM     95  O   UNL A   1      54.788  25.465  26.683  1.00  0.00    -0.744 OA
ENDBRANCH  91  92
ENDBRANCH  65  86
ENDBRANCH  39  40
ENDBRANCH  32  34
ENDBRANCH  31  32
ENDBRANCH  30  31
ENDBRANCH   1  30
TORSDOF 17
ENDMDL
MODEL 2
REMARK VINA RESULT:     -11.5      3.103      9.116
REMARK SMILES CC1=C(C(=O)OCCOC(=O)c2ccc(-c3c4nc(c(-c5ccc(S(=O)(=O)[O-])cc5)c5ccc([nH]5)c(-c5ccc(S(=O)(=O)[O-])cc5)c5nc(c(-c6ccc(S(=O)(=O)[O-])cc6)c6ccc3[nH]6)C=C5)C=C4)cc2)N2C(=O)[C@H](NC(=O)c3c(Cl)c(C(F)(F)F)nn3C)[C@@H]2SC1
REMARK SMILES IDX 7 1 6 2 4 3 5 4 3 5 1 6 2 7 92 8 72 9 91 10 73 11 90 12
REMARK SMILES IDX 74 13 75 14 76 15 77 16 78 18 79 19 80 20 88 21 81 22 82 23
REMARK SMILES IDX 87 24 89 25 83 26 84 27 85 28 86 29 8 30 9 31 10 32 11 33
REMARK SMILES IDX 12 34 13 35 71 36 14 37 70 38 15 39 16 40 17 41 64 42 18 43
REMARK SMILES IDX 69 44 63 45 65 46 19 47 68 48 62 49 61 50 20 52 50 53 31 54
REMARK SMILES IDX 49 55 32 56 35 57 48 58 66 59 33 60 34 61 47 63 67 64 36 65
REMARK SMILES IDX 21 66 22 67 30 68 23 69 29 70 24 71 25 72 26 73 27 74 28 75
REMARK SMILES IDX 51 76 52 77 60 78 53 79 59 80 54 81 55 82 56 83 57 84 58 85
REMARK SMILES IDX 37 86 38 87 46 88 39 89 45 90 40 91 41 92 42 93 43 94 44 95
REMARK H PARENT 76 17 65 51 35 62
REMARK Flexibility Score: inf
ROOT
ATOM      1  C   UNL A   1      38.137  21.762  25.747  1.00  0.00     0.275 C 
ENDROOT
BRANCH   1   2
ATOM      2  O   UNL A   1      36.733  21.445  25.636  1.00  0.00    -0.457 OA
BRANCH   2   3
ATOM      3  C   UNL A   1      36.059  21.967  24.575  1.00  0.00     0.355 C 
ATOM      4  O   UNL A   1      36.562  22.197  23.488  1.00  0.00    -0.244 OA
BRANCH   3   5
ATOM      5  C   UNL A   1      34.583  22.134  24.886  1.00  0.00     0.131 C 
ATOM      6  C   UNL A   1      34.069  19.665  24.627  1.00  0.00     0.043 C 
ATOM      7  C   UNL A   1      33.694  21.103  24.907  1.00  0.00    -0.032 C 
ATOM      8  C   UNL A   1      32.217  21.247  25.260  1.00  0.00     0.105 C 
ATOM      9  N   UNL A   1      34.128  23.398  25.142  1.00  0.00    -0.289 N 
ATOM     10  S   UNL A   1      31.760  22.815  26.064  1.00  0.00    -0.129 SA
ATOM     11  C   UNL A   1      34.594  24.630  25.457  1.00  0.00     0.253 C 
ATOM     12  C   UNL A   1      32.751  23.784  24.918  1.00  0.00     0.181 C 
ATOM     13  O   UNL A   1      35.677  25.071  25.736  1.00  0.00    -0.272 OA
ATOM     14  C   UNL A   1      33.160  25.233  25.286  1.00  0.00     0.206 C 
BRANCH  14  15
ATOM     15  N   UNL A   1      32.555  25.894  26.459  1.00  0.00    -0.336 N 
ATOM     16  C   UNL A   1      31.675  26.958  26.488  1.00  0.00     0.271 C 
ATOM     17  H   UNL A   1      32.813  25.528  27.337  1.00  0.00     0.164 HD
ATOM     18  O   UNL A   1      31.462  27.476  27.582  1.00  0.00    -0.267 OA
BRANCH  16  19
ATOM     19  C   UNL A   1      31.028  27.401  25.275  1.00  0.00     0.145 A 
ATOM     20  C   UNL A   1      31.033  28.665  24.703  1.00  0.00     0.104 A 
ATOM     21  N   UNL A   1      30.115  26.707  24.527  1.00  0.00    -0.261 N 
ATOM     22  Cl  UNL A   1      31.855  30.045  25.249  1.00  0.00    -0.079 Cl
ATOM     23  C   UNL A   1      30.183  28.602  23.567  1.00  0.00     0.185 A 
ATOM     24  N   UNL A   1      29.686  27.354  23.435  1.00  0.00    -0.166 NA
ATOM     25  C   UNL A   1      29.499  25.433  24.813  1.00  0.00     0.174 C 
BRANCH  23  26
ATOM     26  C   UNL A   1      29.819  29.726  22.631  1.00  0.00     0.436 C 
ATOM     27  F   UNL A   1      28.792  29.382  21.808  1.00  0.00    -0.164 F 
ATOM     28  F   UNL A   1      29.448  30.839  23.300  1.00  0.00    -0.164 F 
ATOM     29  F   UNL A   1      30.852  30.078  21.817  1.00  0.00    -0.164 F 
ENDBRANCH  23  26
ENDBRANCH  16  19
ENDBRANCH  14  15
ENDBRANCH   3   5
ENDBRANCH   2   3
ENDBRANCH   1   2
BRANCH   1  30
ATOM     30  C   UNL A   1      39.006  20.525  25.494  1.00  0.00     0.275 C 
BRANCH  30  31
ATOM     31  O   UNL A   1      39.862  20.247  26.618  1.00  0.00    -0.458 OA
BRANCH  31  32
ATOM     32  C   UNL A   1      41.156  20.022  26.293  1.00  0.00     0.338 C 
ATOM     33  O   UNL A   1      41.617  19.022  25.763  1.00  0.00    -0.246 OA
BRANCH  32  34
ATOM     34  C   UNL A   1      41.942  21.258  26.444  1.00  0.00     0.060 A 
ATOM     35  C   UNL A   1      42.056  21.733  27.746  1.00  0.00     0.016 A 
ATOM     36  C   UNL A   1      42.465  21.997  25.384  1.00  0.00     0.016 A 
ATOM     37  C   UNL A   1      42.683  22.944  28.003  1.00  0.00     0.010 A 
ATOM     38  C   UNL A   1      43.093  23.229  25.647  1.00  0.00     0.010 A 
ATOM     39  C   UNL A   1      43.193  23.719  26.963  1.00  0.00    -0.014 A 
BRANCH  39  40
ATOM     40  C   UNL A   1      43.674  25.084  27.307  1.00  0.00     0.031 A 
ATOM     41  C   UNL A   1      45.112  25.442  27.036  1.00  0.00     0.074 A 
ATOM     42  C   UNL A   1      42.812  26.045  27.701  1.00  0.00     0.049 A 
ATOM     43  N   UNL A   1      45.739  26.569  27.250  1.00  0.00    -0.248 NA
ATOM     44  C   UNL A   1      45.949  24.396  26.427  1.00  0.00     0.031 C 
ATOM     45  C   UNL A   1      41.367  25.873  27.863  1.00  0.00     0.029 A 
ATOM     46  N   UNL A   1      43.023  27.367  28.010  1.00  0.00    -0.354 N 
ATOM     47  C   UNL A   1      47.047  26.364  26.830  1.00  0.00     0.074 A 
ATOM     48  C   UNL A   1      47.128  24.996  26.363  1.00  0.00     0.031 C 
ATOM     49  C   UNL A   1      40.825  27.044  28.239  1.00  0.00     0.029 A 
ATOM     50  C   UNL A   1      41.885  28.035  28.404  1.00  0.00     0.049 A 
ATOM     51  H   UNL A   1      43.906  27.798  27.957  1.00  0.00     0.167 HD
ATOM     52  C   UNL A   1      48.088  27.231  26.837  1.00  0.00     0.031 A 
ATOM     53  C   UNL A   1      41.714  29.293  28.865  1.00  0.00     0.031 A 
ATOM     54  C   UNL A   1      48.003  28.592  27.303  1.00  0.00     0.049 A 
ATOM     55  C   UNL A   1      42.909  30.208  28.972  1.00  0.00     0.074 A 
ATOM     56  C   UNL A   1      49.010  29.540  27.368  1.00  0.00     0.029 A 
ATOM     57  N   UNL A   1      46.851  29.202  27.778  1.00  0.00    -0.354 N 
ATOM     58  N   UNL A   1      44.161  29.970  28.658  1.00  0.00    -0.248 NA
ATOM     59  C   UNL A   1      42.669  31.564  29.482  1.00  0.00     0.031 C 
ATOM     60  C   UNL A   1      48.484  30.698  27.953  1.00  0.00     0.029 A 
ATOM     61  C   UNL A   1      47.130  30.502  28.171  1.00  0.00     0.049 A 
ATOM     62  H   UNL A   1      45.966  28.774  27.830  1.00  0.00     0.167 HD
ATOM     63  C   UNL A   1      44.846  31.160  28.880  1.00  0.00     0.074 A 
ATOM     64  C   UNL A   1      43.869  32.115  29.362  1.00  0.00     0.031 C 
ATOM     65  C   UNL A   1      46.160  31.439  28.685  1.00  0.00     0.031 A 
BRANCH  52  66
ATOM     66  C   UNL A   1      49.433  26.703  26.401  1.00  0.00    -0.014 A 
ATOM     67  C   UNL A   1      49.893  26.835  25.078  1.00  0.00     0.010 A 
ATOM     68  C   UNL A   1      50.259  26.072  27.350  1.00  0.00     0.010 A 
ATOM     69  C   UNL A   1      51.131  26.303  24.704  1.00  0.00     0.020 A 
ATOM     70  C   UNL A   1      51.512  25.571  26.990  1.00  0.00     0.020 A 
ATOM     71  C   UNL A   1      51.932  25.672  25.662  1.00  0.00     0.054 A 
BRANCH  71  72
ATOM     72  S   UNL A   1      53.536  24.998  25.152  1.00  0.00     0.124 S 
ATOM     73  O   UNL A   1      54.425  25.507  26.195  1.00  0.00    -0.237 OA
ATOM     74  O   UNL A   1      53.300  23.557  25.176  1.00  0.00    -0.237 OA
ATOM     75  O   UNL A   1      53.748  25.570  23.824  1.00  0.00    -0.744 OA
ENDBRANCH  71  72
ENDBRANCH  52  66
BRANCH  53  76
ATOM     76  C   UNL A   1      40.361  29.758  29.293  1.00  0.00    -0.014 A 
ATOM     77  C   UNL A   1      39.403  30.181  28.354  1.00  0.00     0.010 A 
ATOM     78  C   UNL A   1      40.031  29.797  30.659  1.00  0.00     0.010 A 
ATOM     79  C   UNL A   1      38.154  30.651  28.773  1.00  0.00     0.020 A 
ATOM     80  C   UNL A   1      38.772  30.233  31.082  1.00  0.00     0.020 A 
ATOM     81  C   UNL A   1      37.845  30.671  30.136  1.00  0.00     0.054 A 
BRANCH  81  82
ATOM     82  S   UNL A   1      36.207  31.254  30.656  1.00  0.00     0.124 S 
ATOM     83  O   UNL A   1      35.398  30.992  29.469  1.00  0.00    -0.237 OA
ATOM     84  O   UNL A   1      35.923  30.408  31.813  1.00  0.00    -0.237 OA
ATOM     85  O   UNL A   1      36.425  32.665  30.963  1.00  0.00    -0.744 OA
ENDBRANCH  81  82
ENDBRANCH  53  76
BRANCH  65  86
ATOM     86  C   UNL A   1      46.621  32.845  28.982  1.00  0.00    -0.014 A 
ATOM     87  C   UNL A   1      47.190  33.187  30.222  1.00  0.00     0.010 A 
ATOM     88  C   UNL A   1      46.509  33.837  27.989  1.00  0.00     0.010 A 
ATOM     89  C   UNL A   1      47.587  34.502  30.482  1.00  0.00     0.020 A 
ATOM     90  C   UNL A   1      46.940  35.145  28.231  1.00  0.00     0.020 A 
ATOM     91  C   UNL A   1      47.457  35.473  29.485  1.00  0.00     0.054 A 
BRANCH  91  92
ATOM     92  S   UNL A   1      47.994  37.169  29.843  1.00  0.00     0.124 S 
ATOM     93  O   UNL A   1      48.232  37.702  28.504  1.00  0.00    -0.237 OA
ATOM     94  O   UNL A   1      46.843  37.727  30.546  1.00  0.00    -0.237 OA
ATOM     95  O   UNL A   1      49.191  36.990  30.663  1.00  0.00    -0.744 OA
ENDBRANCH  91  92
ENDBRANCH  65  86
ENDBRANCH  39  40
ENDBRANCH  32  34
ENDBRANCH  31  32
ENDBRANCH  30  31
ENDBRANCH   1  30
TORSDOF 17
ENDMDL
MODEL 3
REMARK VINA RESULT:     -11.4      3.124      8.632
REMARK SMILES CC1=C(C(=O)OCCOC(=O)c2ccc(-c3c4nc(c(-c5ccc(S(=O)(=O)[O-])cc5)c5ccc([nH]5)c(-c5ccc(S(=O)(=O)[O-])cc5)c5nc(c(-c6ccc(S(=O)(=O)[O-])cc6)c6ccc3[nH]6)C=C5)C=C4)cc2)N2C(=O)[C@H](NC(=O)c3c(Cl)c(C(F)(F)F)nn3C)[C@@H]2SC1
REMARK SMILES IDX 7 1 6 2 4 3 5 4 3 5 1 6 2 7 92 8 72 9 91 10 73 11 90 12
REMARK SMILES IDX 74 13 75 14 76 15 77 16 78 18 79 19 80 20 88 21 81 22 82 23
REMARK SMILES IDX 87 24 89 25 83 26 84 27 85 28 86 29 8 30 9 31 10 32 11 33
REMARK SMILES IDX 12 34 13 35 71 36 14 37 70 38 15 39 16 40 17 41 64 42 18 43
REMARK SMILES IDX 69 44 63 45 65 46 19 47 68 48 62 49 61 50 20 52 50 53 31 54
REMARK SMILES IDX 49 55 32 56 35 57 48 58 66 59 33 60 34 61 47 63 67 64 36 65
REMARK SMILES IDX 21 66 22 67 30 68 23 69 29 70 24 71 25 72 26 73 27 74 28 75
REMARK SMILES IDX 51 76 52 77 60 78 53 79 59 80 54 81 55 82 56 83 57 84 58 85
REMARK SMILES IDX 37 86 38 87 46 88 39 89 45 90 40 91 41 92 42 93 43 94 44 95
REMARK H PARENT 76 17 65 51 35 62
REMARK Flexibility Score: inf
ROOT
ATOM      1  C   UNL A   1      37.955  20.622  25.089  1.00  0.00     0.275 C 
ENDROOT
BRANCH   1   2
ATOM      2  O   UNL A   1      36.606  21.031  25.401  1.00  0.00    -0.457 OA
BRANCH   2   3
ATOM      3  C   UNL A   1      35.977  21.837  24.502  1.00  0.00     0.355 C 
ATOM      4  O   UNL A   1      36.511  22.313  23.514  1.00  0.00    -0.244 OA
BRANCH   3   5
ATOM      5  C   UNL A   1      34.503  21.988  24.833  1.00  0.00     0.131 C 
ATOM      6  C   UNL A   1      34.023  19.507  24.627  1.00  0.00     0.043 C 
ATOM      7  C   UNL A   1      33.630  20.944  24.886  1.00  0.00    -0.032 C 
ATOM      8  C   UNL A   1      32.157  21.073  25.259  1.00  0.00     0.105 C 
ATOM      9  N   UNL A   1      34.032  23.250  25.072  1.00  0.00    -0.289 N 
ATOM     10  S   UNL A   1      31.687  22.649  26.040  1.00  0.00    -0.129 SA
ATOM     11  C   UNL A   1      34.483  24.495  25.357  1.00  0.00     0.253 C 
ATOM     12  C   UNL A   1      32.647  23.611  24.862  1.00  0.00     0.181 C 
ATOM     13  O   UNL A   1      35.564  24.957  25.611  1.00  0.00    -0.272 OA
ATOM     14  C   UNL A   1      33.038  25.072  25.196  1.00  0.00     0.206 C 
BRANCH  14  15
ATOM     15  N   UNL A   1      32.441  25.746  26.366  1.00  0.00    -0.336 N 
ATOM     16  C   UNL A   1      31.596  26.838  26.391  1.00  0.00     0.271 C 
ATOM     17  H   UNL A   1      32.676  25.367  27.244  1.00  0.00     0.164 HD
ATOM     18  O   UNL A   1      31.386  27.357  27.485  1.00  0.00    -0.267 OA
BRANCH  16  19
ATOM     19  C   UNL A   1      30.979  27.309  25.173  1.00  0.00     0.145 A 
ATOM     20  C   UNL A   1      30.991  28.587  24.634  1.00  0.00     0.104 A 
ATOM     21  N   UNL A   1      30.090  26.629  24.382  1.00  0.00    -0.261 N 
ATOM     22  Cl  UNL A   1      31.790  29.957  25.238  1.00  0.00    -0.079 Cl
ATOM     23  C   UNL A   1      30.172  28.550  23.474  1.00  0.00     0.185 A 
ATOM     24  N   UNL A   1      29.686  27.302  23.296  1.00  0.00    -0.166 NA
ATOM     25  C   UNL A   1      29.475  25.345  24.618  1.00  0.00     0.174 C 
BRANCH  23  26
ATOM     26  C   UNL A   1      29.826  29.695  22.558  1.00  0.00     0.436 C 
ATOM     27  F   UNL A   1      28.693  29.447  21.849  1.00  0.00    -0.164 F 
ATOM     28  F   UNL A   1      29.634  30.845  23.240  1.00  0.00    -0.164 F 
ATOM     29  F   UNL A   1      30.801  29.937  21.638  1.00  0.00    -0.164 F 
ENDBRANCH  23  26
ENDBRANCH  16  19
ENDBRANCH  14  15
ENDBRANCH   3   5
ENDBRANCH   2   3
ENDBRANCH   1   2
BRANCH   1  30
ATOM     30  C   UNL A   1      38.978  21.419  25.906  1.00  0.00     0.275 C 
BRANCH  30  31
ATOM     31  O   UNL A   1      39.669  20.576  26.846  1.00  0.00    -0.458 OA
BRANCH  31  32
ATOM     32  C   UNL A   1      40.916  20.216  26.463  1.00  0.00     0.338 C 
ATOM     33  O   UNL A   1      41.254  19.151  25.969  1.00  0.00    -0.246 OA
BRANCH  32  34
ATOM     34  C   UNL A   1      41.815  21.381  26.496  1.00  0.00     0.060 A 
ATOM     35  C   UNL A   1      42.074  21.896  27.763  1.00  0.00     0.016 A 
ATOM     36  C   UNL A   1      42.315  22.028  25.366  1.00  0.00     0.016 A 
ATOM     37  C   UNL A   1      42.821  23.055  27.915  1.00  0.00     0.010 A 
ATOM     38  C   UNL A   1      43.066  23.208  25.524  1.00  0.00     0.010 A 
ATOM     39  C   UNL A   1      43.312  23.739  26.804  1.00  0.00    -0.014 A 
BRANCH  39  40
ATOM     40  C   UNL A   1      43.936  25.068  27.046  1.00  0.00     0.031 A 
ATOM     41  C   UNL A   1      43.098  26.172  27.634  1.00  0.00     0.074 A 
ATOM     42  C   UNL A   1      45.266  25.247  26.899  1.00  0.00     0.049 A 
ATOM     43  N   UNL A   1      43.436  27.399  27.933  1.00  0.00    -0.248 NA
ATOM     44  C   UNL A   1      41.698  25.843  27.945  1.00  0.00     0.031 C 
ATOM     45  C   UNL A   1      46.219  24.219  26.476  1.00  0.00     0.029 A 
ATOM     46  N   UNL A   1      46.051  26.354  27.118  1.00  0.00    -0.354 N 
ATOM     47  C   UNL A   1      42.290  27.999  28.439  1.00  0.00     0.074 A 
ATOM     48  C   UNL A   1      41.240  27.003  28.392  1.00  0.00     0.031 C 
ATOM     49  C   UNL A   1      47.456  24.744  26.469  1.00  0.00     0.029 A 
ATOM     50  C   UNL A   1      47.382  26.159  26.827  1.00  0.00     0.049 A 
ATOM     51  H   UNL A   1      45.695  27.209  27.451  1.00  0.00     0.167 HD
ATOM     52  C   UNL A   1      42.123  29.264  28.895  1.00  0.00     0.031 A 
ATOM     53  C   UNL A   1      48.422  27.020  26.826  1.00  0.00     0.031 A 
ATOM     54  C   UNL A   1      43.171  30.252  28.940  1.00  0.00     0.049 A 
ATOM     55  C   UNL A   1      48.191  28.455  27.230  1.00  0.00     0.074 A 
ATOM     56  C   UNL A   1      43.093  31.566  29.367  1.00  0.00     0.029 A 
ATOM     57  N   UNL A   1      44.486  30.038  28.550  1.00  0.00    -0.354 N 
ATOM     58  N   UNL A   1      47.079  29.034  27.619  1.00  0.00    -0.248 NA
ATOM     59  C   UNL A   1      49.355  29.351  27.210  1.00  0.00     0.031 C 
ATOM     60  C   UNL A   1      44.340  32.168  29.165  1.00  0.00     0.029 A 
ATOM     61  C   UNL A   1      45.219  31.206  28.694  1.00  0.00     0.049 A 
ATOM     62  H   UNL A   1      44.845  29.183  28.219  1.00  0.00     0.167 HD
ATOM     63  C   UNL A   1      47.419  30.343  27.941  1.00  0.00     0.074 A 
ATOM     64  C   UNL A   1      48.841  30.474  27.694  1.00  0.00     0.031 C 
ATOM     65  C   UNL A   1      46.629  31.340  28.413  1.00  0.00     0.031 A 
BRANCH  52  66
ATOM     66  C   UNL A   1      40.731  29.674  29.305  1.00  0.00    -0.014 A 
ATOM     67  C   UNL A   1      40.426  30.067  30.622  1.00  0.00     0.010 A 
ATOM     68  C   UNL A   1      39.707  29.680  28.339  1.00  0.00     0.010 A 
ATOM     69  C   UNL A   1      39.116  30.409  30.972  1.00  0.00     0.020 A 
ATOM     70  C   UNL A   1      38.405  30.055  28.676  1.00  0.00     0.020 A 
ATOM     71  C   UNL A   1      38.113  30.398  29.997  1.00  0.00     0.054 A 
BRANCH  71  72
ATOM     72  S   UNL A   1      36.424  30.853  30.478  1.00  0.00     0.124 S 
ATOM     73  O   UNL A   1      35.708  30.742  29.208  1.00  0.00    -0.237 OA
ATOM     74  O   UNL A   1      36.092  29.841  31.477  1.00  0.00    -0.237 OA
ATOM     75  O   UNL A   1      36.564  32.213  30.995  1.00  0.00    -0.744 OA
ENDBRANCH  71  72
ENDBRANCH  52  66
BRANCH  53  76
ATOM     76  C   UNL A   1      49.778  26.560  26.400  1.00  0.00    -0.014 A 
ATOM     77  C   UNL A   1      50.670  25.968  27.312  1.00  0.00     0.010 A 
ATOM     78  C   UNL A   1      50.191  26.733  25.066  1.00  0.00     0.010 A 
ATOM     79  C   UNL A   1      51.950  25.579  26.906  1.00  0.00     0.020 A 
ATOM     80  C   UNL A   1      51.457  26.314  24.647  1.00  0.00     0.020 A 
ATOM     81  C   UNL A   1      52.335  25.751  25.574  1.00  0.00     0.054 A 
BRANCH  81  82
ATOM     82  S   UNL A   1      53.989  25.209  25.060  1.00  0.00     0.124 S 
ATOM     83  O   UNL A   1      54.172  25.934  23.806  1.00  0.00    -0.237 OA
ATOM     84  O   UNL A   1      54.826  25.649  26.173  1.00  0.00    -0.237 OA
ATOM     85  O   UNL A   1      53.851  23.761  24.928  1.00  0.00    -0.744 OA
ENDBRANCH  81  82
ENDBRANCH  53  76
BRANCH  65  86
ATOM     86  C   UNL A   1      47.287  32.665  28.710  1.00  0.00    -0.014 A 
ATOM     87  C   UNL A   1      47.351  33.688  27.746  1.00  0.00     0.010 A 
ATOM     88  C   UNL A   1      47.827  32.902  29.988  1.00  0.00     0.010 A 
ATOM     89  C   UNL A   1      47.988  34.899  28.037  1.00  0.00     0.020 A 
ATOM     90  C   UNL A   1      48.432  34.124  30.296  1.00  0.00     0.020 A 
ATOM     91  C   UNL A   1      48.527  35.107  29.310  1.00  0.00     0.054 A 
BRANCH  91  92
ATOM     92  S   UNL A   1      49.335  36.692  29.666  1.00  0.00     0.124 S 
ATOM     93  O   UNL A   1      50.411  36.715  28.678  1.00  0.00    -0.237 OA
ATOM     94  O   UNL A   1      48.260  37.656  29.446  1.00  0.00    -0.237 OA
ATOM     95  O   UNL A   1      49.769  36.558  31.055  1.00  0.00    -0.744 OA
ENDBRANCH  91  92
ENDBRANCH  65  86
ENDBRANCH  39  40
ENDBRANCH  32  34
ENDBRANCH  31  32
ENDBRANCH  30  31
ENDBRANCH   1  30
TORSDOF 17
ENDMDL
