MODEL 1
REMARK VINA RESULT:     -11.9      0.000      0.000
REMARK SMILES Cc1ccc(Nc2c(Cl)cc(Cl)cc2Cl)c(CC(=O)OCCOC(=O)c2ccc(-c3c4nc(c(-c5ccc(S(=O)(=O)[O-])cc5)c5ccc([nH]5)c(-c5ccc(S(=O)(=O)[O-])cc5)c5nc(c(-c6ccc(S(=O)(=O)[O-])cc6)c6ccc3[nH]6)C=C5)C=C4)cc2)c1
REMARK SMILES IDX 21 1 20 2 18 3 19 4 17 5 16 6 1 7 2 8 3 9 86 10 4 11 5 12
REMARK SMILES IDX 6 13 7 15 8 16 14 17 9 18 10 19 13 20 15 21 11 22 12 23
REMARK SMILES IDX 22 24 23 25 24 26 25 27 26 28 27 29 85 30 28 31 84 32 29 33
REMARK SMILES IDX 30 34 31 35 78 36 32 37 83 38 77 39 79 40 33 41 82 42 76 43
REMARK SMILES IDX 75 44 34 46 64 47 45 48 63 49 46 50 49 51 62 52 80 53 47 54
REMARK SMILES IDX 48 55 61 57 81 58 50 59 35 60 36 61 44 62 37 63 43 64 38 65
REMARK SMILES IDX 39 66 40 67 41 68 42 69 65 70 66 71 74 72 67 73 73 74 68 75
REMARK SMILES IDX 69 76 70 77 71 78 72 79 51 80 52 81 60 82 53 83 59 84 54 85
REMARK SMILES IDX 55 86 56 87 57 88 58 89
REMARK H PARENT 6 14 79 45 49 56
REMARK Flexibility Score: inf
ROOT
ATOM      1  C   UNL A   1      34.020  29.183  27.427  1.00  0.00     0.274 C 
ENDROOT
BRANCH   1   2
ATOM      2  O   UNL A   1      34.341  28.154  26.492  1.00  0.00    -0.462 OA
BRANCH   2   3
ATOM      3  C   UNL A   1      33.539  28.113  25.407  1.00  0.00     0.310 C 
ATOM      4  O   UNL A   1      33.953  28.173  24.254  1.00  0.00    -0.252 OA
BRANCH   3   5
ATOM      5  C   UNL A   1      32.096  27.995  25.862  1.00  0.00     0.160 C 
BRANCH   5   6
ATOM      6  C   UNL A   1      31.166  28.133  24.689  1.00  0.00    -0.013 A 
ATOM      7  C   UNL A   1      29.213  31.101  23.415  1.00  0.00     0.044 C 
ATOM      8  C   UNL A   1      29.685  29.692  23.581  1.00  0.00    -0.051 A 
ATOM      9  C   UNL A   1      28.950  28.606  23.102  1.00  0.00     0.005 A 
ATOM     10  C   UNL A   1      30.805  29.447  24.361  1.00  0.00     0.009 A 
ATOM     11  C   UNL A   1      29.364  27.290  23.351  1.00  0.00     0.026 A 
ATOM     12  C   UNL A   1      30.501  27.022  24.112  1.00  0.00     0.042 A 
BRANCH  12  13
ATOM     13  N   UNL A   1      30.865  25.702  24.439  1.00  0.00    -0.353 N 
ATOM     14  H   UNL A   1      30.138  25.174  24.842  1.00  0.00     0.167 HD
BRANCH  13  15
ATOM     15  C   UNL A   1      32.086  24.988  24.297  1.00  0.00     0.076 A 
ATOM     16  C   UNL A   1      32.832  25.024  23.103  1.00  0.00     0.067 A 
ATOM     17  C   UNL A   1      32.727  24.450  25.436  1.00  0.00     0.067 A 
ATOM     18  Cl  UNL A   1      32.185  25.686  21.640  1.00  0.00    -0.082 Cl
ATOM     19  C   UNL A   1      34.137  24.516  23.045  1.00  0.00     0.043 A 
ATOM     20  C   UNL A   1      34.055  24.010  25.399  1.00  0.00     0.043 A 
ATOM     21  Cl  UNL A   1      31.864  24.159  26.904  1.00  0.00    -0.082 Cl
ATOM     22  C   UNL A   1      34.746  24.032  24.198  1.00  0.00     0.044 A 
ATOM     23  Cl  UNL A   1      36.350  23.411  24.125  1.00  0.00    -0.084 Cl
ENDBRANCH  13  15
ENDBRANCH  12  13
ENDBRANCH   5   6
ENDBRANCH   3   5
ENDBRANCH   2   3
ENDBRANCH   1   2
BRANCH   1  24
ATOM     24  C   UNL A   1      35.143  30.245  27.535  1.00  0.00     0.275 C 
BRANCH  24  25
ATOM     25  O   UNL A   1      35.747  30.469  28.861  1.00  0.00    -0.458 OA
BRANCH  25  26
ATOM     26  C   UNL A   1      36.592  29.752  29.672  1.00  0.00     0.338 C 
ATOM     27  O   UNL A   1      36.195  29.372  30.773  1.00  0.00    -0.246 OA
BRANCH  26  28
ATOM     28  C   UNL A   1      37.750  29.056  29.074  1.00  0.00     0.060 A 
ATOM     29  C   UNL A   1      38.350  29.455  27.862  1.00  0.00     0.016 A 
ATOM     30  C   UNL A   1      38.428  28.204  29.890  1.00  0.00     0.016 A 
ATOM     31  C   UNL A   1      39.665  29.056  27.594  1.00  0.00     0.010 A 
ATOM     32  C   UNL A   1      39.781  28.283  29.874  1.00  0.00     0.010 A 
ATOM     33  C   UNL A   1      40.380  28.490  28.648  1.00  0.00    -0.014 A 
BRANCH  33  34
ATOM     34  C   UNL A   1      41.619  27.732  28.607  1.00  0.00     0.031 A 
ATOM     35  C   UNL A   1      41.599  26.330  28.216  1.00  0.00     0.074 A 
ATOM     36  C   UNL A   1      42.733  28.488  28.788  1.00  0.00     0.049 A 
ATOM     37  N   UNL A   1      41.999  25.356  28.956  1.00  0.00    -0.248 NA
ATOM     38  C   UNL A   1      41.079  25.915  26.911  1.00  0.00     0.031 C 
ATOM     39  C   UNL A   1      44.145  28.198  28.666  1.00  0.00     0.029 A 
ATOM     40  N   UNL A   1      42.753  29.816  29.204  1.00  0.00    -0.354 N 
ATOM     41  C   UNL A   1      42.201  24.318  28.073  1.00  0.00     0.074 A 
ATOM     42  C   UNL A   1      41.391  24.612  26.907  1.00  0.00     0.031 C 
ATOM     43  C   UNL A   1      44.836  29.174  29.303  1.00  0.00     0.029 A 
ATOM     44  C   UNL A   1      43.900  30.140  29.883  1.00  0.00     0.049 A 
ATOM     45  H   UNL A   1      42.024  30.453  29.028  1.00  0.00     0.167 HD
ATOM     46  C   UNL A   1      43.336  23.564  28.140  1.00  0.00     0.031 A 
ATOM     47  C   UNL A   1      43.710  30.462  31.198  1.00  0.00     0.031 A 
ATOM     48  C   UNL A   1      44.317  24.194  29.031  1.00  0.00     0.049 A 
ATOM     49  C   UNL A   1      43.955  29.238  32.051  1.00  0.00     0.074 A 
ATOM     50  C   UNL A   1      45.472  24.913  28.764  1.00  0.00     0.029 A 
ATOM     51  N   UNL A   1      43.991  24.472  30.357  1.00  0.00    -0.354 N 
ATOM     52  N   UNL A   1      44.041  28.029  31.566  1.00  0.00    -0.248 NA
ATOM     53  C   UNL A   1      44.210  29.277  33.484  1.00  0.00     0.031 C 
ATOM     54  C   UNL A   1      45.793  25.682  29.914  1.00  0.00     0.029 A 
ATOM     55  C   UNL A   1      44.837  25.435  30.882  1.00  0.00     0.049 A 
ATOM     56  H   UNL A   1      43.258  24.042  30.853  1.00  0.00     0.167 HD
ATOM     57  C   UNL A   1      44.436  27.160  32.537  1.00  0.00     0.074 A 
ATOM     58  C   UNL A   1      44.517  27.989  33.730  1.00  0.00     0.031 C 
ATOM     59  C   UNL A   1      44.703  25.846  32.278  1.00  0.00     0.031 A 
BRANCH  46  60
ATOM     60  C   UNL A   1      43.674  22.523  27.097  1.00  0.00    -0.014 A 
ATOM     61  C   UNL A   1      44.844  22.631  26.323  1.00  0.00     0.010 A 
ATOM     62  C   UNL A   1      42.882  21.372  26.886  1.00  0.00     0.010 A 
ATOM     63  C   UNL A   1      45.182  21.681  25.350  1.00  0.00     0.020 A 
ATOM     64  C   UNL A   1      43.199  20.422  25.900  1.00  0.00     0.020 A 
ATOM     65  C   UNL A   1      44.354  20.582  25.139  1.00  0.00     0.054 A 
BRANCH  65  66
ATOM     66  S   UNL A   1      44.833  19.358  23.889  1.00  0.00     0.124 S 
ATOM     67  O   UNL A   1      44.456  20.017  22.641  1.00  0.00    -0.237 OA
ATOM     68  O   UNL A   1      46.268  19.222  24.120  1.00  0.00    -0.237 OA
ATOM     69  O   UNL A   1      44.033  18.183  24.231  1.00  0.00    -0.744 OA
ENDBRANCH  65  66
ENDBRANCH  46  60
BRANCH  47  70
ATOM     70  C   UNL A   1      42.679  31.553  31.393  1.00  0.00    -0.014 A 
ATOM     71  C   UNL A   1      42.756  32.640  30.490  1.00  0.00     0.010 A 
ATOM     72  C   UNL A   1      41.466  31.388  32.098  1.00  0.00     0.010 A 
ATOM     73  C   UNL A   1      41.636  33.422  30.176  1.00  0.00     0.020 A 
ATOM     74  C   UNL A   1      40.339  32.195  31.803  1.00  0.00     0.020 A 
ATOM     75  C   UNL A   1      40.418  33.158  30.793  1.00  0.00     0.054 A 
BRANCH  75  76
ATOM     76  S   UNL A   1      38.927  33.916  30.062  1.00  0.00     0.124 S 
ATOM     77  O   UNL A   1      39.478  35.005  29.264  1.00  0.00    -0.237 OA
ATOM     78  O   UNL A   1      38.367  32.793  29.309  1.00  0.00    -0.237 OA
ATOM     79  O   UNL A   1      38.142  34.316  31.222  1.00  0.00    -0.744 OA
ENDBRANCH  75  76
ENDBRANCH  47  70
BRANCH  59  80
ATOM     80  C   UNL A   1      44.982  24.799  33.319  1.00  0.00    -0.014 A 
ATOM     81  C   UNL A   1      44.049  23.842  33.731  1.00  0.00     0.010 A 
ATOM     82  C   UNL A   1      46.302  24.682  33.819  1.00  0.00     0.010 A 
ATOM     83  C   UNL A   1      44.398  22.852  34.654  1.00  0.00     0.020 A 
ATOM     84  C   UNL A   1      46.678  23.662  34.688  1.00  0.00     0.020 A 
ATOM     85  C   UNL A   1      45.710  22.771  35.127  1.00  0.00     0.054 A 
BRANCH  85  86
ATOM     86  S   UNL A   1      46.163  21.453  36.274  1.00  0.00     0.124 S 
ATOM     87  O   UNL A   1      45.724  22.010  37.550  1.00  0.00    -0.237 OA
ATOM     88  O   UNL A   1      45.387  20.315  35.784  1.00  0.00    -0.237 OA
ATOM     89  O   UNL A   1      47.608  21.332  36.104  1.00  0.00    -0.744 OA
ENDBRANCH  85  86
ENDBRANCH  59  80
ENDBRANCH  33  34
ENDBRANCH  26  28
ENDBRANCH  25  26
ENDBRANCH  24  25
ENDBRANCH   1  24
TORSDOF 17
ENDMDL
MODEL 2
REMARK VINA RESULT:     -11.9      2.382      4.251
REMARK SMILES Cc1ccc(Nc2c(Cl)cc(Cl)cc2Cl)c(CC(=O)OCCOC(=O)c2ccc(-c3c4nc(c(-c5ccc(S(=O)(=O)[O-])cc5)c5ccc([nH]5)c(-c5ccc(S(=O)(=O)[O-])cc5)c5nc(c(-c6ccc(S(=O)(=O)[O-])cc6)c6ccc3[nH]6)C=C5)C=C4)cc2)c1
REMARK SMILES IDX 21 1 20 2 18 3 19 4 17 5 16 6 1 7 2 8 3 9 86 10 4 11 5 12
REMARK SMILES IDX 6 13 7 15 8 16 14 17 9 18 10 19 13 20 15 21 11 22 12 23
REMARK SMILES IDX 22 24 23 25 24 26 25 27 26 28 27 29 85 30 28 31 84 32 29 33
REMARK SMILES IDX 30 34 31 35 78 36 32 37 83 38 77 39 79 40 33 41 82 42 76 43
REMARK SMILES IDX 75 44 34 46 64 47 45 48 63 49 46 50 49 51 62 52 80 53 47 54
REMARK SMILES IDX 48 55 61 57 81 58 50 59 35 60 36 61 44 62 37 63 43 64 38 65
REMARK SMILES IDX 39 66 40 67 41 68 42 69 65 70 66 71 74 72 67 73 73 74 68 75
REMARK SMILES IDX 69 76 70 77 71 78 72 79 51 80 52 81 60 82 53 83 59 84 54 85
REMARK SMILES IDX 55 86 56 87 57 88 58 89
REMARK H PARENT 6 14 79 45 49 56
REMARK Flexibility Score: inf
ROOT
ATOM      1  C   UNL A   1      31.885  28.714  26.758  1.00  0.00     0.274 C 
ENDROOT
BRANCH   1   2
ATOM      2  O   UNL A   1      32.708  27.648  27.229  1.00  0.00    -0.462 OA
BRANCH   2   3
ATOM      3  C   UNL A   1      32.620  26.510  26.508  1.00  0.00     0.310 C 
ATOM      4  O   UNL A   1      31.664  25.745  26.562  1.00  0.00    -0.252 OA
BRANCH   3   5
ATOM      5  C   UNL A   1      33.873  26.361  25.665  1.00  0.00     0.160 C 
BRANCH   5   6
ATOM      6  C   UNL A   1      33.901  25.009  25.007  1.00  0.00    -0.013 A 
ATOM      7  C   UNL A   1      35.631  21.806  26.004  1.00  0.00     0.044 C 
ATOM      8  C   UNL A   1      34.879  22.803  25.183  1.00  0.00    -0.051 A 
ATOM      9  C   UNL A   1      34.732  22.662  23.802  1.00  0.00     0.005 A 
ATOM     10  C   UNL A   1      34.444  23.975  25.782  1.00  0.00     0.009 A 
ATOM     11  C   UNL A   1      34.104  23.656  23.039  1.00  0.00     0.026 A 
ATOM     12  C   UNL A   1      33.637  24.831  23.626  1.00  0.00     0.042 A 
BRANCH  12  13
ATOM     13  N   UNL A   1      33.090  25.868  22.847  1.00  0.00    -0.353 N 
ATOM     14  H   UNL A   1      33.476  25.938  21.944  1.00  0.00     0.167 HD
BRANCH  13  15
ATOM     15  C   UNL A   1      32.083  26.834  23.120  1.00  0.00     0.076 A 
ATOM     16  C   UNL A   1      32.339  28.217  23.034  1.00  0.00     0.067 A 
ATOM     17  C   UNL A   1      30.730  26.439  23.211  1.00  0.00     0.067 A 
ATOM     18  Cl  UNL A   1      33.947  28.841  22.885  1.00  0.00    -0.082 Cl
ATOM     19  C   UNL A   1      31.297  29.153  23.074  1.00  0.00     0.043 A 
ATOM     20  C   UNL A   1      29.684  27.367  23.176  1.00  0.00     0.043 A 
ATOM     21  Cl  UNL A   1      30.289  24.799  23.527  1.00  0.00    -0.082 Cl
ATOM     22  C   UNL A   1      29.977  28.722  23.123  1.00  0.00     0.044 A 
ATOM     23  Cl  UNL A   1      28.698  29.873  23.168  1.00  0.00    -0.084 Cl
ENDBRANCH  13  15
ENDBRANCH  12  13
ENDBRANCH   5   6
ENDBRANCH   3   5
ENDBRANCH   2   3
ENDBRANCH   1   2
BRANCH   1  24
ATOM     24  C   UNL A   1      32.605  30.083  26.826  1.00  0.00     0.275 C 
BRANCH  24  25
ATOM     25  O   UNL A   1      33.934  30.125  27.464  1.00  0.00    -0.458 OA
BRANCH  25  26
ATOM     26  C   UNL A   1      34.624  31.058  28.200  1.00  0.00     0.338 C 
ATOM     27  O   UNL A   1      34.016  32.001  28.704  1.00  0.00    -0.246 OA
BRANCH  26  28
ATOM     28  C   UNL A   1      35.941  30.700  28.766  1.00  0.00     0.060 A 
ATOM     29  C   UNL A   1      36.104  29.782  29.825  1.00  0.00     0.016 A 
ATOM     30  C   UNL A   1      37.029  31.042  28.025  1.00  0.00     0.016 A 
ATOM     31  C   UNL A   1      37.349  29.167  30.003  1.00  0.00     0.010 A 
ATOM     32  C   UNL A   1      37.992  30.100  27.875  1.00  0.00     0.010 A 
ATOM     33  C   UNL A   1      38.281  29.322  28.978  1.00  0.00    -0.014 A 
BRANCH  33  34
ATOM     34  C   UNL A   1      39.711  29.064  28.998  1.00  0.00     0.031 A 
ATOM     35  C   UNL A   1      40.219  27.764  28.585  1.00  0.00     0.074 A 
ATOM     36  C   UNL A   1      40.465  30.164  29.254  1.00  0.00     0.049 A 
ATOM     37  N   UNL A   1      40.908  26.974  29.332  1.00  0.00    -0.248 NA
ATOM     38  C   UNL A   1      39.949  27.235  27.245  1.00  0.00     0.031 C 
ATOM     39  C   UNL A   1      41.890  30.408  29.210  1.00  0.00     0.029 A 
ATOM     40  N   UNL A   1      39.983  31.394  29.691  1.00  0.00    -0.354 N 
ATOM     41  C   UNL A   1      41.515  26.111  28.446  1.00  0.00     0.074 A 
ATOM     42  C   UNL A   1      40.712  26.134  27.240  1.00  0.00     0.031 C 
ATOM     43  C   UNL A   1      42.149  31.545  29.901  1.00  0.00     0.029 A 
ATOM     44  C   UNL A   1      40.899  32.086  30.440  1.00  0.00     0.049 A 
ATOM     45  H   UNL A   1      39.082  31.731  29.482  1.00  0.00     0.167 HD
ATOM     46  C   UNL A   1      42.841  25.815  28.569  1.00  0.00     0.031 A 
ATOM     47  C   UNL A   1      40.542  32.272  31.746  1.00  0.00     0.031 A 
ATOM     48  C   UNL A   1      43.483  26.725  29.525  1.00  0.00     0.049 A 
ATOM     49  C   UNL A   1      41.171  31.190  32.593  1.00  0.00     0.074 A 
ATOM     50  C   UNL A   1      44.311  27.821  29.336  1.00  0.00     0.029 A 
ATOM     51  N   UNL A   1      43.014  26.820  30.833  1.00  0.00    -0.354 N 
ATOM     52  N   UNL A   1      41.713  30.110  32.096  1.00  0.00    -0.248 NA
ATOM     53  C   UNL A   1      41.325  31.268  34.039  1.00  0.00     0.031 C 
ATOM     54  C   UNL A   1      44.275  28.614  30.515  1.00  0.00     0.029 A 
ATOM     55  C   UNL A   1      43.427  28.005  31.421  1.00  0.00     0.049 A 
ATOM     56  H   UNL A   1      42.463  26.138  31.279  1.00  0.00     0.167 HD
ATOM     57  C   UNL A   1      42.348  29.409  33.076  1.00  0.00     0.074 A 
ATOM     58  C   UNL A   1      42.066  30.169  34.283  1.00  0.00     0.031 C 
ATOM     59  C   UNL A   1      43.085  28.290  32.813  1.00  0.00     0.031 A 
BRANCH  46  60
ATOM     60  C   UNL A   1      43.584  25.004  27.531  1.00  0.00    -0.014 A 
ATOM     61  C   UNL A   1      43.674  23.604  27.639  1.00  0.00     0.010 A 
ATOM     62  C   UNL A   1      44.167  25.587  26.383  1.00  0.00     0.010 A 
ATOM     63  C   UNL A   1      44.355  22.828  26.692  1.00  0.00     0.020 A 
ATOM     64  C   UNL A   1      44.870  24.822  25.437  1.00  0.00     0.020 A 
ATOM     65  C   UNL A   1      44.955  23.442  25.596  1.00  0.00     0.054 A 
BRANCH  65  66
ATOM     66  S   UNL A   1      45.809  22.406  24.376  1.00  0.00     0.124 S 
ATOM     67  O   UNL A   1      46.407  21.365  25.209  1.00  0.00    -0.237 OA
ATOM     68  O   UNL A   1      44.712  21.970  23.517  1.00  0.00    -0.237 OA
ATOM     69  O   UNL A   1      46.764  23.320  23.752  1.00  0.00    -0.744 OA
ENDBRANCH  65  66
ENDBRANCH  46  60
BRANCH  47  70
ATOM     70  C   UNL A   1      39.177  32.910  31.898  1.00  0.00    -0.014 A 
ATOM     71  C   UNL A   1      38.098  32.013  32.085  1.00  0.00     0.010 A 
ATOM     72  C   UNL A   1      38.961  34.258  32.257  1.00  0.00     0.010 A 
ATOM     73  C   UNL A   1      36.924  32.395  32.747  1.00  0.00     0.020 A 
ATOM     74  C   UNL A   1      37.764  34.655  32.902  1.00  0.00     0.020 A 
ATOM     75  C   UNL A   1      36.787  33.702  33.204  1.00  0.00     0.054 A 
BRANCH  75  76
ATOM     76  S   UNL A   1      35.448  34.036  34.398  1.00  0.00     0.124 S 
ATOM     77  O   UNL A   1      34.385  33.145  33.947  1.00  0.00    -0.237 OA
ATOM     78  O   UNL A   1      36.087  33.676  35.664  1.00  0.00    -0.237 OA
ATOM     79  O   UNL A   1      35.191  35.461  34.236  1.00  0.00    -0.744 OA
ENDBRANCH  75  76
ENDBRANCH  47  70
BRANCH  59  80
ATOM     80  C   UNL A   1      43.673  27.379  33.853  1.00  0.00    -0.014 A 
ATOM     81  C   UNL A   1      44.943  27.553  34.414  1.00  0.00     0.010 A 
ATOM     82  C   UNL A   1      42.851  26.364  34.401  1.00  0.00     0.010 A 
ATOM     83  C   UNL A   1      45.398  26.708  35.429  1.00  0.00     0.020 A 
ATOM     84  C   UNL A   1      43.270  25.559  35.456  1.00  0.00     0.020 A 
ATOM     85  C   UNL A   1      44.559  25.716  35.942  1.00  0.00     0.054 A 
BRANCH  85  86
ATOM     86  S   UNL A   1      45.139  24.670  37.293  1.00  0.00     0.124 S 
ATOM     87  O   UNL A   1      44.944  23.334  36.736  1.00  0.00    -0.237 OA
ATOM     88  O   UNL A   1      46.530  25.087  37.453  1.00  0.00    -0.237 OA
ATOM     89  O   UNL A   1      44.258  25.023  38.403  1.00  0.00    -0.744 OA
ENDBRANCH  85  86
ENDBRANCH  59  80
ENDBRANCH  33  34
ENDBRANCH  26  28
ENDBRANCH  25  26
ENDBRANCH  24  25
ENDBRANCH   1  24
TORSDOF 17
ENDMDL
MODEL 3
REMARK VINA RESULT:     -11.8      3.858     10.791
REMARK SMILES Cc1ccc(Nc2c(Cl)cc(Cl)cc2Cl)c(CC(=O)OCCOC(=O)c2ccc(-c3c4nc(c(-c5ccc(S(=O)(=O)[O-])cc5)c5ccc([nH]5)c(-c5ccc(S(=O)(=O)[O-])cc5)c5nc(c(-c6ccc(S(=O)(=O)[O-])cc6)c6ccc3[nH]6)C=C5)C=C4)cc2)c1
REMARK SMILES IDX 21 1 20 2 18 3 19 4 17 5 16 6 1 7 2 8 3 9 86 10 4 11 5 12
REMARK SMILES IDX 6 13 7 15 8 16 14 17 9 18 10 19 13 20 15 21 11 22 12 23
REMARK SMILES IDX 22 24 23 25 24 26 25 27 26 28 27 29 85 30 28 31 84 32 29 33
REMARK SMILES IDX 30 34 31 35 78 36 32 37 83 38 77 39 79 40 33 41 82 42 76 43
REMARK SMILES IDX 75 44 34 46 64 47 45 48 63 49 46 50 49 51 62 52 80 53 47 54
REMARK SMILES IDX 48 55 61 57 81 58 50 59 35 60 36 61 44 62 37 63 43 64 38 65
REMARK SMILES IDX 39 66 40 67 41 68 42 69 65 70 66 71 74 72 67 73 73 74 68 75
REMARK SMILES IDX 69 76 70 77 71 78 72 79 51 80 52 81 60 82 53 83 59 84 54 85
REMARK SMILES IDX 55 86 56 87 57 88 58 89
REMARK H PARENT 6 14 79 45 49 56
REMARK Flexibility Score: inf
ROOT
ATOM      1  C   UNL A   1      37.683  23.834  25.877  1.00  0.00     0.274 C 
ENDROOT
BRANCH   1   2
ATOM      2  O   UNL A   1      37.480  22.818  24.895  1.00  0.00    -0.462 OA
BRANCH   2   3
ATOM      3  C   UNL A   1      36.356  22.966  24.161  1.00  0.00     0.310 C 
ATOM      4  O   UNL A   1      36.333  22.913  22.937  1.00  0.00    -0.252 OA
BRANCH   3   5
ATOM      5  C   UNL A   1      35.184  23.209  25.094  1.00  0.00     0.160 C 
BRANCH   5   6
ATOM      6  C   UNL A   1      33.990  22.409  24.652  1.00  0.00    -0.013 A 
ATOM      7  C   UNL A   1      33.438  18.679  24.478  1.00  0.00     0.044 C 
ATOM      8  C   UNL A   1      33.222  20.145  24.282  1.00  0.00    -0.051 A 
ATOM      9  C   UNL A   1      32.325  20.638  23.332  1.00  0.00     0.005 A 
ATOM     10  C   UNL A   1      34.041  21.041  24.952  1.00  0.00     0.009 A 
ATOM     11  C   UNL A   1      32.207  22.016  23.099  1.00  0.00     0.026 A 
ATOM     12  C   UNL A   1      33.003  22.935  23.782  1.00  0.00     0.042 A 
BRANCH  12  13
ATOM     13  N   UNL A   1      32.951  24.309  23.482  1.00  0.00    -0.353 N 
ATOM     14  H   UNL A   1      33.834  24.726  23.354  1.00  0.00     0.167 HD
BRANCH  13  15
ATOM     15  C   UNL A   1      31.861  25.209  23.330  1.00  0.00     0.076 A 
ATOM     16  C   UNL A   1      30.979  25.492  24.391  1.00  0.00     0.067 A 
ATOM     17  C   UNL A   1      31.796  26.057  22.201  1.00  0.00     0.067 A 
ATOM     18  Cl  UNL A   1      30.972  24.557  25.848  1.00  0.00    -0.082 Cl
ATOM     19  C   UNL A   1      30.057  26.545  24.310  1.00  0.00     0.043 A 
ATOM     20  C   UNL A   1      30.929  27.153  22.148  1.00  0.00     0.043 A 
ATOM     21  Cl  UNL A   1      32.672  25.701  20.755  1.00  0.00    -0.082 Cl
ATOM     22  C   UNL A   1      30.053  27.381  23.198  1.00  0.00     0.044 A 
ATOM     23  Cl  UNL A   1      28.923  28.676  23.101  1.00  0.00    -0.084 Cl
ENDBRANCH  13  15
ENDBRANCH  12  13
ENDBRANCH   5   6
ENDBRANCH   3   5
ENDBRANCH   2   3
ENDBRANCH   1   2
BRANCH   1  24
ATOM     24  C   UNL A   1      38.897  23.529  26.789  1.00  0.00     0.275 C 
BRANCH  24  25
ATOM     25  O   UNL A   1      40.169  24.209  26.483  1.00  0.00    -0.458 OA
BRANCH  25  26
ATOM     26  C   UNL A   1      40.569  25.520  26.397  1.00  0.00     0.338 C 
ATOM     27  O   UNL A   1      41.057  25.935  25.346  1.00  0.00    -0.246 OA
BRANCH  26  28
ATOM     28  C   UNL A   1      40.009  26.510  27.340  1.00  0.00     0.060 A 
ATOM     29  C   UNL A   1      39.354  26.153  28.536  1.00  0.00     0.016 A 
ATOM     30  C   UNL A   1      40.422  27.796  27.180  1.00  0.00     0.016 A 
ATOM     31  C   UNL A   1      39.255  27.100  29.564  1.00  0.00     0.010 A 
ATOM     32  C   UNL A   1      40.783  28.470  28.299  1.00  0.00     0.010 A 
ATOM     33  C   UNL A   1      40.020  28.258  29.429  1.00  0.00    -0.014 A 
BRANCH  33  34
ATOM     34  C   UNL A   1      39.910  29.512  30.153  1.00  0.00     0.031 A 
ATOM     35  C   UNL A   1      38.815  30.426  29.860  1.00  0.00     0.074 A 
ATOM     36  C   UNL A   1      40.785  29.630  31.186  1.00  0.00     0.049 A 
ATOM     37  N   UNL A   1      38.960  31.636  29.447  1.00  0.00    -0.248 NA
ATOM     38  C   UNL A   1      37.419  30.004  29.998  1.00  0.00     0.031 C 
ATOM     39  C   UNL A   1      40.923  30.602  32.248  1.00  0.00     0.029 A 
ATOM     40  N   UNL A   1      41.858  28.781  31.440  1.00  0.00    -0.354 N 
ATOM     41  C   UNL A   1      37.746  32.233  29.710  1.00  0.00     0.074 A 
ATOM     42  C   UNL A   1      36.775  31.161  29.794  1.00  0.00     0.031 C 
ATOM     43  C   UNL A   1      42.159  30.471  32.788  1.00  0.00     0.029 A 
ATOM     44  C   UNL A   1      42.890  29.412  32.087  1.00  0.00     0.049 A 
ATOM     45  H   UNL A   1      41.873  27.831  31.185  1.00  0.00     0.167 HD
ATOM     46  C   UNL A   1      37.695  33.463  30.298  1.00  0.00     0.031 A 
ATOM     47  C   UNL A   1      44.043  29.508  31.361  1.00  0.00     0.031 A 
ATOM     48  C   UNL A   1      39.016  33.842  30.811  1.00  0.00     0.049 A 
ATOM     49  C   UNL A   1      44.093  30.858  30.681  1.00  0.00     0.074 A 
ATOM     50  C   UNL A   1      39.532  33.860  32.098  1.00  0.00     0.029 A 
ATOM     51  N   UNL A   1      40.116  33.898  29.957  1.00  0.00    -0.354 N 
ATOM     52  N   UNL A   1      43.062  31.654  30.586  1.00  0.00    -0.248 NA
ATOM     53  C   UNL A   1      45.305  31.457  30.141  1.00  0.00     0.031 C 
ATOM     54  C   UNL A   1      40.950  33.849  32.008  1.00  0.00     0.029 A 
ATOM     55  C   UNL A   1      41.301  33.826  30.671  1.00  0.00     0.049 A 
ATOM     56  H   UNL A   1      40.057  33.978  28.978  1.00  0.00     0.167 HD
ATOM     57  C   UNL A   1      43.445  32.860  30.084  1.00  0.00     0.074 A 
ATOM     58  C   UNL A   1      44.862  32.685  29.807  1.00  0.00     0.031 C 
ATOM     59  C   UNL A   1      42.582  33.914  29.975  1.00  0.00     0.031 A 
BRANCH  46  60
ATOM     60  C   UNL A   1      36.393  34.085  30.751  1.00  0.00    -0.014 A 
ATOM     61  C   UNL A   1      35.338  34.292  29.843  1.00  0.00     0.010 A 
ATOM     62  C   UNL A   1      36.143  34.430  32.098  1.00  0.00     0.010 A 
ATOM     63  C   UNL A   1      34.121  34.865  30.235  1.00  0.00     0.020 A 
ATOM     64  C   UNL A   1      34.934  35.024  32.501  1.00  0.00     0.020 A 
ATOM     65  C   UNL A   1      33.926  35.234  31.563  1.00  0.00     0.054 A 
BRANCH  65  66
ATOM     66  S   UNL A   1      32.331  35.951  32.043  1.00  0.00     0.124 S 
ATOM     67  O   UNL A   1      31.665  34.829  32.701  1.00  0.00    -0.237 OA
ATOM     68  O   UNL A   1      32.733  37.046  32.921  1.00  0.00    -0.237 OA
ATOM     69  O   UNL A   1      31.738  36.359  30.771  1.00  0.00    -0.744 OA
ENDBRANCH  65  66
ENDBRANCH  46  60
BRANCH  47  70
ATOM     70  C   UNL A   1      44.518  28.171  30.831  1.00  0.00    -0.014 A 
ATOM     71  C   UNL A   1      44.625  27.135  31.789  1.00  0.00     0.010 A 
ATOM     72  C   UNL A   1      44.471  27.789  29.473  1.00  0.00     0.010 A 
ATOM     73  C   UNL A   1      44.523  25.783  31.432  1.00  0.00     0.020 A 
ATOM     74  C   UNL A   1      44.395  26.422  29.105  1.00  0.00     0.020 A 
ATOM     75  C   UNL A   1      44.350  25.436  30.095  1.00  0.00     0.054 A 
BRANCH  75  76
ATOM     76  S   UNL A   1      43.818  23.728  29.735  1.00  0.00     0.124 S 
ATOM     77  O   UNL A   1      42.558  23.927  29.028  1.00  0.00    -0.237 OA
ATOM     78  O   UNL A   1      44.934  23.239  28.924  1.00  0.00    -0.237 OA
ATOM     79  O   UNL A   1      43.716  23.116  31.053  1.00  0.00    -0.744 OA
ENDBRANCH  75  76
ENDBRANCH  47  70
BRANCH  59  80
ATOM     80  C   UNL A   1      42.888  35.213  29.285  1.00  0.00    -0.014 A 
ATOM     81  C   UNL A   1      42.628  35.455  27.932  1.00  0.00     0.010 A 
ATOM     82  C   UNL A   1      43.337  36.303  30.069  1.00  0.00     0.010 A 
ATOM     83  C   UNL A   1      42.873  36.711  27.370  1.00  0.00     0.020 A 
ATOM     84  C   UNL A   1      43.522  37.575  29.535  1.00  0.00     0.020 A 
ATOM     85  C   UNL A   1      43.319  37.762  28.176  1.00  0.00     0.054 A 
BRANCH  85  86
ATOM     86  S   UNL A   1      43.575  39.394  27.451  1.00  0.00     0.124 S 
ATOM     87  O   UNL A   1      44.185  40.119  28.562  1.00  0.00    -0.237 OA
ATOM     88  O   UNL A   1      44.461  39.113  26.323  1.00  0.00    -0.237 OA
ATOM     89  O   UNL A   1      42.228  39.822  27.084  1.00  0.00    -0.744 OA
ENDBRANCH  85  86
ENDBRANCH  59  80
ENDBRANCH  33  34
ENDBRANCH  26  28
ENDBRANCH  25  26
ENDBRANCH  24  25
ENDBRANCH   1  24
TORSDOF 17
ENDMDL
