MODEL 1
REMARK VINA RESULT:     -12.5      0.000      0.000
REMARK SMILES Cc1ccc(C)c(-n2nc(C)c(/C=C(/C#N)C(=O)OCCOC(=O)c3ccc(-c4c5nc(c(-c6ccc(S(=O)(=O)[O-])cc6)c6ccc([nH]6)c(-c6ccc(S(=O)(=O)[O-])cc6)c6nc(c(-c7ccc(S(=O)(=O)[O-])cc7)c7ccc4[nH]7)C=C6)C=C5)cc3)c2Cl)c1
REMARK SMILES IDX 21 1 20 2 19 3 17 4 18 5 14 6 13 7 12 8 8 9 9 10 85 11 10 12
REMARK SMILES IDX 86 13 11 14 7 15 1 16 2 17 3 18 87 19 4 20 5 21 6 22 15 23
REMARK SMILES IDX 16 24 22 25 23 26 24 27 25 28 26 29 84 30 27 31 83 32 28 33
REMARK SMILES IDX 29 34 30 35 77 36 31 37 82 38 76 39 78 40 32 41 81 42 75 43
REMARK SMILES IDX 74 44 33 46 63 47 44 48 62 49 45 50 48 51 61 52 79 53 46 54
REMARK SMILES IDX 47 55 60 57 80 58 49 59 34 60 35 61 43 62 36 63 42 64 37 65
REMARK SMILES IDX 38 66 39 67 40 68 41 69 64 70 65 71 73 72 66 73 72 74 67 75
REMARK SMILES IDX 68 76 69 77 70 78 71 79 50 80 51 81 59 82 52 83 58 84 53 85
REMARK SMILES IDX 54 86 55 87 56 88 57 89
REMARK H PARENT 78 45 48 56
REMARK Flexibility Score: inf
ROOT
ATOM      1  C   UNL A   1      32.413  29.662  26.677  1.00  0.00     0.275 C 
ENDROOT
BRANCH   1   2
ATOM      2  C   UNL A   1      31.765  28.273  26.556  1.00  0.00     0.275 C 
BRANCH   2   3
ATOM      3  O   UNL A   1      31.303  28.028  25.208  1.00  0.00    -0.458 OA
BRANCH   3   4
ATOM      4  C   UNL A   1      31.988  27.064  24.537  1.00  0.00     0.349 C 
ATOM      5  O   UNL A   1      33.185  27.127  24.274  1.00  0.00    -0.245 OA
BRANCH   4   6
ATOM      6  C   UNL A   1      31.114  26.207  23.715  1.00  0.00     0.138 C 
ATOM      7  C   UNL A   1      30.869  24.874  23.667  1.00  0.00     0.040 C 
BRANCH   7   8
ATOM      8  C   UNL A   1      31.149  23.618  24.431  1.00  0.00     0.037 A 
ATOM      9  N   UNL A   1      32.184  21.601  24.682  1.00  0.00    -0.221 N 
ATOM     10  N   UNL A   1      31.231  21.622  25.598  1.00  0.00    -0.171 NA
ATOM     11  C   UNL A   1      32.166  22.768  23.955  1.00  0.00     0.140 A 
ATOM     12  C   UNL A   1      30.784  22.878  25.647  1.00  0.00     0.069 A 
ATOM     13  Cl  UNL A   1      33.229  22.903  22.615  1.00  0.00    -0.061 Cl
ATOM     14  C   UNL A   1      30.132  23.039  26.980  1.00  0.00     0.069 C 
BRANCH   9  15
ATOM     15  C   UNL A   1      33.075  20.502  24.767  1.00  0.00     0.069 A 
ATOM     16  C   UNL A   1      33.331  17.033  23.199  1.00  0.00     0.044 C 
ATOM     17  C   UNL A   1      33.663  18.284  23.958  1.00  0.00    -0.049 A 
ATOM     18  C   UNL A   1      34.968  18.473  24.426  1.00  0.00     0.004 A 
ATOM     19  C   UNL A   1      32.704  19.290  24.160  1.00  0.00     0.032 A 
ATOM     20  C   UNL A   1      35.337  19.671  25.034  1.00  0.00     0.006 A 
ATOM     21  C   UNL A   1      34.412  20.714  25.186  1.00  0.00    -0.025 A 
ATOM     22  C   UNL A   1      34.927  22.007  25.771  1.00  0.00     0.047 C 
ENDBRANCH   9  15
ENDBRANCH   7   8
BRANCH   6  23
ATOM     23  C   UNL A   1      30.598  27.317  22.812  1.00  0.00     0.107 C 
ATOM     24  N   UNL A   1      30.170  28.236  22.063  1.00  0.00    -0.192 NA
ENDBRANCH   6  23
ENDBRANCH   4   6
ENDBRANCH   3   4
ENDBRANCH   2   3
ENDBRANCH   1   2
BRANCH   1  25
ATOM     25  O   UNL A   1      33.493  29.816  27.618  1.00  0.00    -0.458 OA
BRANCH  25  26
ATOM     26  C   UNL A   1      34.082  31.037  27.662  1.00  0.00     0.338 C 
ATOM     27  O   UNL A   1      33.473  32.058  27.866  1.00  0.00    -0.246 OA
BRANCH  26  28
ATOM     28  C   UNL A   1      35.576  30.855  27.674  1.00  0.00     0.060 A 
ATOM     29  C   UNL A   1      36.423  31.781  28.317  1.00  0.00     0.016 A 
ATOM     30  C   UNL A   1      36.077  29.612  27.317  1.00  0.00     0.016 A 
ATOM     31  C   UNL A   1      37.727  31.467  28.658  1.00  0.00     0.010 A 
ATOM     32  C   UNL A   1      37.306  29.239  27.799  1.00  0.00     0.010 A 
ATOM     33  C   UNL A   1      38.132  30.164  28.447  1.00  0.00    -0.014 A 
BRANCH  33  34
ATOM     34  C   UNL A   1      39.402  29.719  28.986  1.00  0.00     0.031 A 
ATOM     35  C   UNL A   1      39.540  29.673  30.472  1.00  0.00     0.074 A 
ATOM     36  C   UNL A   1      40.298  29.180  28.139  1.00  0.00     0.049 A 
ATOM     37  N   UNL A   1      40.381  30.332  31.201  1.00  0.00    -0.248 NA
ATOM     38  C   UNL A   1      38.594  28.864  31.259  1.00  0.00     0.031 C 
ATOM     39  C   UNL A   1      40.131  28.953  26.695  1.00  0.00     0.029 A 
ATOM     40  N   UNL A   1      41.469  28.562  28.411  1.00  0.00    -0.354 N 
ATOM     41  C   UNL A   1      40.251  29.835  32.497  1.00  0.00     0.074 A 
ATOM     42  C   UNL A   1      39.032  29.066  32.505  1.00  0.00     0.031 C 
ATOM     43  C   UNL A   1      41.005  28.014  26.288  1.00  0.00     0.029 A 
ATOM     44  C   UNL A   1      41.915  27.745  27.381  1.00  0.00     0.049 A 
ATOM     45  H   UNL A   1      41.958  28.680  29.257  1.00  0.00     0.167 HD
ATOM     46  C   UNL A   1      41.297  29.873  33.374  1.00  0.00     0.031 A 
ATOM     47  C   UNL A   1      42.957  26.885  27.422  1.00  0.00     0.031 A 
ATOM     48  C   UNL A   1      42.323  30.783  32.925  1.00  0.00     0.049 A 
ATOM     49  C   UNL A   1      43.849  27.356  28.505  1.00  0.00     0.074 A 
ATOM     50  C   UNL A   1      42.378  32.127  32.621  1.00  0.00     0.029 A 
ATOM     51  N   UNL A   1      43.430  30.215  32.342  1.00  0.00    -0.354 N 
ATOM     52  N   UNL A   1      44.456  28.511  28.471  1.00  0.00    -0.248 NA
ATOM     53  C   UNL A   1      43.720  26.762  29.825  1.00  0.00     0.031 C 
ATOM     54  C   UNL A   1      43.238  32.208  31.485  1.00  0.00     0.029 A 
ATOM     55  C   UNL A   1      43.728  30.928  31.212  1.00  0.00     0.049 A 
ATOM     56  H   UNL A   1      43.924  29.432  32.678  1.00  0.00     0.167 HD
ATOM     57  C   UNL A   1      44.367  28.994  29.769  1.00  0.00     0.074 A 
ATOM     58  C   UNL A   1      44.031  27.822  30.577  1.00  0.00     0.031 C 
ATOM     59  C   UNL A   1      44.299  30.338  30.018  1.00  0.00     0.031 A 
BRANCH  46  60
ATOM     60  C   UNL A   1      41.618  28.762  34.359  1.00  0.00    -0.014 A 
ATOM     61  C   UNL A   1      41.895  29.113  35.701  1.00  0.00     0.010 A 
ATOM     62  C   UNL A   1      41.967  27.456  33.964  1.00  0.00     0.010 A 
ATOM     63  C   UNL A   1      42.591  28.247  36.557  1.00  0.00     0.020 A 
ATOM     64  C   UNL A   1      42.623  26.569  34.824  1.00  0.00     0.020 A 
ATOM     65  C   UNL A   1      42.969  26.986  36.102  1.00  0.00     0.054 A 
BRANCH  65  66
ATOM     66  S   UNL A   1      43.972  25.922  37.171  1.00  0.00     0.124 S 
ATOM     67  O   UNL A   1      43.545  24.591  36.753  1.00  0.00    -0.237 OA
ATOM     68  O   UNL A   1      45.331  26.299  36.794  1.00  0.00    -0.237 OA
ATOM     69  O   UNL A   1      43.571  26.319  38.518  1.00  0.00    -0.744 OA
ENDBRANCH  65  66
ENDBRANCH  46  60
BRANCH  47  70
ATOM     70  C   UNL A   1      43.041  25.555  26.784  1.00  0.00    -0.014 A 
ATOM     71  C   UNL A   1      43.336  25.432  25.418  1.00  0.00     0.010 A 
ATOM     72  C   UNL A   1      43.099  24.390  27.582  1.00  0.00     0.010 A 
ATOM     73  C   UNL A   1      43.747  24.204  24.879  1.00  0.00     0.020 A 
ATOM     74  C   UNL A   1      43.501  23.160  27.050  1.00  0.00     0.020 A 
ATOM     75  C   UNL A   1      43.850  23.080  25.705  1.00  0.00     0.054 A 
BRANCH  75  76
ATOM     76  S   UNL A   1      44.566  21.550  25.038  1.00  0.00     0.124 S 
ATOM     77  O   UNL A   1      43.577  20.549  25.428  1.00  0.00    -0.237 OA
ATOM     78  O   UNL A   1      44.649  21.834  23.609  1.00  0.00    -0.237 OA
ATOM     79  O   UNL A   1      45.855  21.446  25.722  1.00  0.00    -0.744 OA
ENDBRANCH  75  76
ENDBRANCH  47  70
BRANCH  59  80
ATOM     80  C   UNL A   1      44.652  31.297  28.901  1.00  0.00    -0.014 A 
ATOM     81  C   UNL A   1      43.811  31.594  27.811  1.00  0.00     0.010 A 
ATOM     82  C   UNL A   1      45.850  32.022  29.035  1.00  0.00     0.010 A 
ATOM     83  C   UNL A   1      44.184  32.554  26.856  1.00  0.00     0.020 A 
ATOM     84  C   UNL A   1      46.218  32.992  28.101  1.00  0.00     0.020 A 
ATOM     85  C   UNL A   1      45.393  33.242  27.006  1.00  0.00     0.054 A 
BRANCH  85  86
ATOM     86  S   UNL A   1      45.879  34.479  25.770  1.00  0.00     0.124 S 
ATOM     87  O   UNL A   1      47.294  34.183  25.562  1.00  0.00    -0.237 OA
ATOM     88  O   UNL A   1      45.001  34.178  24.643  1.00  0.00    -0.237 OA
ATOM     89  O   UNL A   1      45.608  35.757  26.430  1.00  0.00    -0.744 OA
ENDBRANCH  85  86
ENDBRANCH  59  80
ENDBRANCH  33  34
ENDBRANCH  26  28
ENDBRANCH  25  26
ENDBRANCH   1  25
TORSDOF 17
ENDMDL
MODEL 2
REMARK VINA RESULT:     -12.5      1.539      2.413
REMARK SMILES Cc1ccc(C)c(-n2nc(C)c(/C=C(/C#N)C(=O)OCCOC(=O)c3ccc(-c4c5nc(c(-c6ccc(S(=O)(=O)[O-])cc6)c6ccc([nH]6)c(-c6ccc(S(=O)(=O)[O-])cc6)c6nc(c(-c7ccc(S(=O)(=O)[O-])cc7)c7ccc4[nH]7)C=C6)C=C5)cc3)c2Cl)c1
REMARK SMILES IDX 21 1 20 2 19 3 17 4 18 5 14 6 13 7 12 8 8 9 9 10 85 11 10 12
REMARK SMILES IDX 86 13 11 14 7 15 1 16 2 17 3 18 87 19 4 20 5 21 6 22 15 23
REMARK SMILES IDX 16 24 22 25 23 26 24 27 25 28 26 29 84 30 27 31 83 32 28 33
REMARK SMILES IDX 29 34 30 35 77 36 31 37 82 38 76 39 78 40 32 41 81 42 75 43
REMARK SMILES IDX 74 44 33 46 63 47 44 48 62 49 45 50 48 51 61 52 79 53 46 54
REMARK SMILES IDX 47 55 60 57 80 58 49 59 34 60 35 61 43 62 36 63 42 64 37 65
REMARK SMILES IDX 38 66 39 67 40 68 41 69 64 70 65 71 73 72 66 73 72 74 67 75
REMARK SMILES IDX 68 76 69 77 70 78 71 79 50 80 51 81 59 82 52 83 58 84 53 85
REMARK SMILES IDX 54 86 55 87 56 88 57 89
REMARK H PARENT 78 45 48 56
REMARK Flexibility Score: inf
ROOT
ATOM      1  C   UNL A   1      32.250  29.687  26.906  1.00  0.00     0.275 C 
ENDROOT
BRANCH   1   2
ATOM      2  C   UNL A   1      32.115  29.789  25.378  1.00  0.00     0.275 C 
BRANCH   2   3
ATOM      3  O   UNL A   1      31.181  28.809  24.870  1.00  0.00    -0.458 OA
BRANCH   3   4
ATOM      4  C   UNL A   1      30.511  29.188  23.749  1.00  0.00     0.349 C 
ATOM      5  O   UNL A   1      30.150  30.338  23.518  1.00  0.00    -0.245 OA
BRANCH   4   6
ATOM      6  C   UNL A   1      29.811  28.067  23.094  1.00  0.00     0.138 C 
ATOM      7  C   UNL A   1      30.214  26.932  22.471  1.00  0.00     0.040 C 
BRANCH   7   8
ATOM      8  C   UNL A   1      31.446  26.114  22.242  1.00  0.00     0.037 A 
ATOM      9  N   UNL A   1      33.162  24.806  22.984  1.00  0.00    -0.221 N 
ATOM     10  N   UNL A   1      33.488  25.144  21.748  1.00  0.00    -0.171 NA
ATOM     11  C   UNL A   1      31.956  25.371  23.325  1.00  0.00     0.140 A 
ATOM     12  C   UNL A   1      32.396  25.686  21.206  1.00  0.00     0.069 A 
ATOM     13  Cl  UNL A   1      31.401  25.182  24.939  1.00  0.00    -0.061 Cl
ATOM     14  C   UNL A   1      32.563  25.576  19.727  1.00  0.00     0.069 C 
BRANCH   9  15
ATOM     15  C   UNL A   1      34.011  23.845  23.588  1.00  0.00     0.069 A 
ATOM     16  C   UNL A   1      36.906  23.896  26.072  1.00  0.00     0.044 C 
ATOM     17  C   UNL A   1      35.802  23.416  25.177  1.00  0.00    -0.049 A 
ATOM     18  C   UNL A   1      35.413  22.072  25.233  1.00  0.00     0.004 A 
ATOM     19  C   UNL A   1      35.118  24.298  24.325  1.00  0.00     0.032 A 
ATOM     20  C   UNL A   1      34.318  21.620  24.499  1.00  0.00     0.006 A 
ATOM     21  C   UNL A   1      33.581  22.499  23.693  1.00  0.00    -0.025 A 
ATOM     22  C   UNL A   1      32.358  21.939  23.009  1.00  0.00     0.047 C 
ENDBRANCH   9  15
ENDBRANCH   7   8
BRANCH   6  23
ATOM     23  C   UNL A   1      28.408  28.636  23.251  1.00  0.00     0.107 C 
ATOM     24  N   UNL A   1      27.246  29.107  23.382  1.00  0.00    -0.192 NA
ENDBRANCH   6  23
ENDBRANCH   4   6
ENDBRANCH   3   4
ENDBRANCH   2   3
ENDBRANCH   1   2
BRANCH   1  25
ATOM     25  O   UNL A   1      33.579  29.712  27.462  1.00  0.00    -0.458 OA
BRANCH  25  26
ATOM     26  C   UNL A   1      34.122  30.939  27.666  1.00  0.00     0.338 C 
ATOM     27  O   UNL A   1      33.476  31.901  28.000  1.00  0.00    -0.246 OA
BRANCH  26  28
ATOM     28  C   UNL A   1      35.622  30.811  27.659  1.00  0.00     0.060 A 
ATOM     29  C   UNL A   1      36.442  31.755  28.311  1.00  0.00     0.016 A 
ATOM     30  C   UNL A   1      36.164  29.595  27.271  1.00  0.00     0.016 A 
ATOM     31  C   UNL A   1      37.760  31.483  28.632  1.00  0.00     0.010 A 
ATOM     32  C   UNL A   1      37.412  29.258  27.733  1.00  0.00     0.010 A 
ATOM     33  C   UNL A   1      38.211  30.200  28.391  1.00  0.00    -0.014 A 
BRANCH  33  34
ATOM     34  C   UNL A   1      39.502  29.792  28.907  1.00  0.00     0.031 A 
ATOM     35  C   UNL A   1      39.677  29.779  30.390  1.00  0.00     0.074 A 
ATOM     36  C   UNL A   1      40.387  29.253  28.049  1.00  0.00     0.049 A 
ATOM     37  N   UNL A   1      40.522  30.471  31.084  1.00  0.00    -0.248 NA
ATOM     38  C   UNL A   1      38.767  28.969  31.216  1.00  0.00     0.031 C 
ATOM     39  C   UNL A   1      40.190  28.993  26.615  1.00  0.00     0.029 A 
ATOM     40  N   UNL A   1      41.578  28.665  28.304  1.00  0.00    -0.354 N 
ATOM     41  C   UNL A   1      40.433  29.998  32.393  1.00  0.00     0.074 A 
ATOM     42  C   UNL A   1      39.231  29.205  32.447  1.00  0.00     0.031 C 
ATOM     43  C   UNL A   1      41.073  28.063  26.205  1.00  0.00     0.029 A 
ATOM     44  C   UNL A   1      42.015  27.835  27.281  1.00  0.00     0.049 A 
ATOM     45  H   UNL A   1      42.085  28.810  29.136  1.00  0.00     0.167 HD
ATOM     46  C   UNL A   1      41.500  30.075  33.242  1.00  0.00     0.031 A 
ATOM     47  C   UNL A   1      43.075  26.998  27.314  1.00  0.00     0.031 A 
ATOM     48  C   UNL A   1      42.495  30.996  32.750  1.00  0.00     0.049 A 
ATOM     49  C   UNL A   1      43.984  27.508  28.364  1.00  0.00     0.074 A 
ATOM     50  C   UNL A   1      42.516  32.334  32.418  1.00  0.00     0.029 A 
ATOM     51  N   UNL A   1      43.600  30.438  32.151  1.00  0.00    -0.354 N 
ATOM     52  N   UNL A   1      44.566  28.675  28.292  1.00  0.00    -0.248 NA
ATOM     53  C   UNL A   1      43.898  26.940  29.699  1.00  0.00     0.031 C 
ATOM     54  C   UNL A   1      43.345  32.409  31.259  1.00  0.00     0.029 A 
ATOM     55  C   UNL A   1      43.855  31.133  31.000  1.00  0.00     0.049 A 
ATOM     56  H   UNL A   1      44.117  29.673  32.491  1.00  0.00     0.167 HD
ATOM     57  C   UNL A   1      44.498  29.183  29.581  1.00  0.00     0.074 A 
ATOM     58  C   UNL A   1      44.206  28.021  30.421  1.00  0.00     0.031 C 
ATOM     59  C   UNL A   1      44.409  30.530  29.804  1.00  0.00     0.031 A 
BRANCH  46  60
ATOM     60  C   UNL A   1      41.867  28.992  34.242  1.00  0.00    -0.014 A 
ATOM     61  C   UNL A   1      42.266  27.728  33.749  1.00  0.00     0.010 A 
ATOM     62  C   UNL A   1      41.533  29.058  35.609  1.00  0.00     0.010 A 
ATOM     63  C   UNL A   1      42.216  26.578  34.549  1.00  0.00     0.020 A 
ATOM     64  C   UNL A   1      41.522  27.924  36.428  1.00  0.00     0.020 A 
ATOM     65  C   UNL A   1      41.823  26.684  35.881  1.00  0.00     0.054 A 
BRANCH  65  66
ATOM     66  S   UNL A   1      41.644  25.179  36.874  1.00  0.00     0.124 S 
ATOM     67  O   UNL A   1      40.407  25.446  37.600  1.00  0.00    -0.237 OA
ATOM     68  O   UNL A   1      41.565  24.141  35.849  1.00  0.00    -0.237 OA
ATOM     69  O   UNL A   1      42.859  25.159  37.683  1.00  0.00    -0.744 OA
ENDBRANCH  65  66
ENDBRANCH  46  60
BRANCH  47  70
ATOM     70  C   UNL A   1      43.171  25.656  26.701  1.00  0.00    -0.014 A 
ATOM     71  C   UNL A   1      43.567  25.506  25.364  1.00  0.00     0.010 A 
ATOM     72  C   UNL A   1      43.134  24.502  27.516  1.00  0.00     0.010 A 
ATOM     73  C   UNL A   1      43.984  24.259  24.874  1.00  0.00     0.020 A 
ATOM     74  C   UNL A   1      43.541  23.254  27.032  1.00  0.00     0.020 A 
ATOM     75  C   UNL A   1      43.991  23.145  25.719  1.00  0.00     0.054 A 
BRANCH  75  76
ATOM     76  S   UNL A   1      44.714  21.586  25.130  1.00  0.00     0.124 S 
ATOM     77  O   UNL A   1      43.808  20.591  25.696  1.00  0.00    -0.237 OA
ATOM     78  O   UNL A   1      44.659  21.739  23.679  1.00  0.00    -0.237 OA
ATOM     79  O   UNL A   1      46.060  21.593  25.700  1.00  0.00    -0.744 OA
ENDBRANCH  75  76
ENDBRANCH  47  70
BRANCH  59  80
ATOM     80  C   UNL A   1      44.715  31.472  28.660  1.00  0.00    -0.014 A 
ATOM     81  C   UNL A   1      43.841  31.732  27.586  1.00  0.00     0.010 A 
ATOM     82  C   UNL A   1      45.902  32.222  28.748  1.00  0.00     0.010 A 
ATOM     83  C   UNL A   1      44.171  32.679  26.603  1.00  0.00     0.020 A 
ATOM     84  C   UNL A   1      46.227  33.179  27.786  1.00  0.00     0.020 A 
ATOM     85  C   UNL A   1      45.370  33.391  26.707  1.00  0.00     0.054 A 
BRANCH  85  86
ATOM     86  S   UNL A   1      45.801  34.612  25.435  1.00  0.00     0.124 S 
ATOM     87  O   UNL A   1      45.439  35.876  26.072  1.00  0.00    -0.237 OA
ATOM     88  O   UNL A   1      47.231  34.391  25.241  1.00  0.00    -0.237 OA
ATOM     89  O   UNL A   1      44.965  34.236  24.294  1.00  0.00    -0.744 OA
ENDBRANCH  85  86
ENDBRANCH  59  80
ENDBRANCH  33  34
ENDBRANCH  26  28
ENDBRANCH  25  26
ENDBRANCH   1  25
TORSDOF 17
ENDMDL
MODEL 3
REMARK VINA RESULT:     -12.2      2.934      9.334
REMARK SMILES Cc1ccc(C)c(-n2nc(C)c(/C=C(/C#N)C(=O)OCCOC(=O)c3ccc(-c4c5nc(c(-c6ccc(S(=O)(=O)[O-])cc6)c6ccc([nH]6)c(-c6ccc(S(=O)(=O)[O-])cc6)c6nc(c(-c7ccc(S(=O)(=O)[O-])cc7)c7ccc4[nH]7)C=C6)C=C5)cc3)c2Cl)c1
REMARK SMILES IDX 21 1 20 2 19 3 17 4 18 5 14 6 13 7 12 8 8 9 9 10 85 11 10 12
REMARK SMILES IDX 86 13 11 14 7 15 1 16 2 17 3 18 87 19 4 20 5 21 6 22 15 23
REMARK SMILES IDX 16 24 22 25 23 26 24 27 25 28 26 29 84 30 27 31 83 32 28 33
REMARK SMILES IDX 29 34 30 35 77 36 31 37 82 38 76 39 78 40 32 41 81 42 75 43
REMARK SMILES IDX 74 44 33 46 63 47 44 48 62 49 45 50 48 51 61 52 79 53 46 54
REMARK SMILES IDX 47 55 60 57 80 58 49 59 34 60 35 61 43 62 36 63 42 64 37 65
REMARK SMILES IDX 38 66 39 67 40 68 41 69 64 70 65 71 73 72 66 73 72 74 67 75
REMARK SMILES IDX 68 76 69 77 70 78 71 79 50 80 51 81 59 82 52 83 58 84 53 85
REMARK SMILES IDX 54 86 55 87 56 88 57 89
REMARK H PARENT 78 45 48 56
REMARK Flexibility Score: inf
ROOT
ATOM      1  C   UNL A   1      37.284  21.314  25.487  1.00  0.00     0.275 C 
ENDROOT
BRANCH   1   2
ATOM      2  C   UNL A   1      35.967  21.520  24.720  1.00  0.00     0.275 C 
BRANCH   2   3
ATOM      3  O   UNL A   1      34.852  20.939  25.432  1.00  0.00    -0.458 OA
BRANCH   3   4
ATOM      4  C   UNL A   1      34.355  19.799  24.881  1.00  0.00     0.349 C 
ATOM      5  O   UNL A   1      35.038  18.825  24.580  1.00  0.00    -0.245 OA
BRANCH   4   6
ATOM      6  C   UNL A   1      33.059  20.007  24.207  1.00  0.00     0.138 C 
ATOM      7  C   UNL A   1      32.312  21.098  23.907  1.00  0.00     0.040 C 
BRANCH   7   8
ATOM      8  C   UNL A   1      32.396  22.592  23.904  1.00  0.00     0.037 A 
ATOM      9  N   UNL A   1      32.208  24.623  24.926  1.00  0.00    -0.221 N 
ATOM     10  N   UNL A   1      32.292  24.888  23.633  1.00  0.00    -0.171 NA
ATOM     11  C   UNL A   1      32.255  23.265  25.133  1.00  0.00     0.140 A 
ATOM     12  C   UNL A   1      32.660  23.751  23.039  1.00  0.00     0.069 A 
ATOM     13  Cl  UNL A   1      32.021  22.682  26.731  1.00  0.00    -0.061 Cl
ATOM     14  C   UNL A   1      33.262  24.138  21.730  1.00  0.00     0.069 C 
BRANCH   9  15
ATOM     15  C   UNL A   1      32.256  25.757  25.775  1.00  0.00     0.069 A 
ATOM     16  C   UNL A   1      34.733  28.571  26.481  1.00  0.00     0.044 C 
ATOM     17  C   UNL A   1      33.484  27.740  26.464  1.00  0.00    -0.049 A 
ATOM     18  C   UNL A   1      32.301  28.274  26.990  1.00  0.00     0.004 A 
ATOM     19  C   UNL A   1      33.467  26.461  25.885  1.00  0.00     0.032 A 
ATOM     20  C   UNL A   1      31.101  27.575  26.887  1.00  0.00     0.006 A 
ATOM     21  C   UNL A   1      31.049  26.325  26.253  1.00  0.00    -0.025 A 
ATOM     22  C   UNL A   1      29.690  25.686  26.108  1.00  0.00     0.047 C 
ENDBRANCH   9  15
ENDBRANCH   7   8
BRANCH   6  23
ATOM     23  C   UNL A   1      32.738  18.533  24.011  1.00  0.00     0.107 C 
ATOM     24  N   UNL A   1      32.471  17.312  23.849  1.00  0.00    -0.192 NA
ENDBRANCH   6  23
ENDBRANCH   4   6
ENDBRANCH   3   4
ENDBRANCH   2   3
ENDBRANCH   1   2
BRANCH   1  25
ATOM     25  O   UNL A   1      38.239  22.392  25.478  1.00  0.00    -0.458 OA
BRANCH  25  26
ATOM     26  C   UNL A   1      39.420  22.154  26.103  1.00  0.00     0.338 C 
ATOM     27  O   UNL A   1      40.213  21.328  25.724  1.00  0.00    -0.246 OA
BRANCH  26  28
ATOM     28  C   UNL A   1      39.652  23.232  27.126  1.00  0.00     0.060 A 
ATOM     29  C   UNL A   1      40.838  23.278  27.889  1.00  0.00     0.016 A 
ATOM     30  C   UNL A   1      38.828  24.346  27.088  1.00  0.00     0.016 A 
ATOM     31  C   UNL A   1      41.238  24.423  28.554  1.00  0.00     0.010 A 
ATOM     32  C   UNL A   1      39.300  25.528  27.603  1.00  0.00     0.010 A 
ATOM     33  C   UNL A   1      40.486  25.562  28.347  1.00  0.00    -0.014 A 
BRANCH  33  34
ATOM     34  C   UNL A   1      40.977  26.836  28.832  1.00  0.00     0.031 A 
ATOM     35  C   UNL A   1      42.144  27.438  28.122  1.00  0.00     0.074 A 
ATOM     36  C   UNL A   1      40.238  27.498  29.740  1.00  0.00     0.049 A 
ATOM     37  N   UNL A   1      43.305  27.717  28.621  1.00  0.00    -0.248 NA
ATOM     38  C   UNL A   1      42.054  27.696  26.675  1.00  0.00     0.031 C 
ATOM     39  C   UNL A   1      38.940  27.088  30.298  1.00  0.00     0.029 A 
ATOM     40  N   UNL A   1      40.397  28.749  30.227  1.00  0.00    -0.354 N 
ATOM     41  C   UNL A   1      43.999  28.417  27.634  1.00  0.00     0.074 A 
ATOM     42  C   UNL A   1      43.254  28.225  26.416  1.00  0.00     0.031 C 
ATOM     43  C   UNL A   1      38.309  28.168  30.798  1.00  0.00     0.029 A 
ATOM     44  C   UNL A   1      39.241  29.276  30.788  1.00  0.00     0.049 A 
ATOM     45  H   UNL A   1      41.249  29.240  30.186  1.00  0.00     0.167 HD
ATOM     46  C   UNL A   1      44.972  29.316  27.963  1.00  0.00     0.031 A 
ATOM     47  C   UNL A   1      39.049  30.546  31.205  1.00  0.00     0.031 A 
ATOM     48  C   UNL A   1      45.404  29.144  29.329  1.00  0.00     0.049 A 
ATOM     49  C   UNL A   1      40.391  31.108  31.479  1.00  0.00     0.074 A 
ATOM     50  C   UNL A   1      45.949  28.112  30.063  1.00  0.00     0.029 A 
ATOM     51  N   UNL A   1      44.909  30.042  30.243  1.00  0.00    -0.354 N 
ATOM     52  N   UNL A   1      41.180  30.637  32.406  1.00  0.00    -0.248 NA
ATOM     53  C   UNL A   1      41.048  31.885  30.442  1.00  0.00     0.031 C 
ATOM     54  C   UNL A   1      45.330  28.210  31.345  1.00  0.00     0.029 A 
ATOM     55  C   UNL A   1      44.511  29.344  31.351  1.00  0.00     0.049 A 
ATOM     56  H   UNL A   1      44.851  31.018  30.124  1.00  0.00     0.167 HD
ATOM     57  C   UNL A   1      42.445  30.657  31.837  1.00  0.00     0.074 A 
ATOM     58  C   UNL A   1      42.319  31.558  30.691  1.00  0.00     0.031 C 
ATOM     59  C   UNL A   1      43.389  29.729  32.183  1.00  0.00     0.031 A 
BRANCH  46  60
ATOM     60  C   UNL A   1      45.188  30.633  27.237  1.00  0.00    -0.014 A 
ATOM     61  C   UNL A   1      46.506  30.987  26.864  1.00  0.00     0.010 A 
ATOM     62  C   UNL A   1      44.224  31.659  27.195  1.00  0.00     0.010 A 
ATOM     63  C   UNL A   1      46.858  32.315  26.585  1.00  0.00     0.020 A 
ATOM     64  C   UNL A   1      44.556  32.980  26.874  1.00  0.00     0.020 A 
ATOM     65  C   UNL A   1      45.880  33.307  26.613  1.00  0.00     0.054 A 
BRANCH  65  66
ATOM     66  S   UNL A   1      46.364  35.035  26.371  1.00  0.00     0.124 S 
ATOM     67  O   UNL A   1      47.078  34.970  25.100  1.00  0.00    -0.237 OA
ATOM     68  O   UNL A   1      45.072  35.716  26.337  1.00  0.00    -0.237 OA
ATOM     69  O   UNL A   1      47.186  35.326  27.542  1.00  0.00    -0.744 OA
ENDBRANCH  65  66
ENDBRANCH  46  60
BRANCH  47  70
ATOM     70  C   UNL A   1      37.813  31.348  31.083  1.00  0.00    -0.014 A 
ATOM     71  C   UNL A   1      36.714  31.100  31.919  1.00  0.00     0.010 A 
ATOM     72  C   UNL A   1      37.815  32.541  30.325  1.00  0.00     0.010 A 
ATOM     73  C   UNL A   1      35.685  32.045  32.050  1.00  0.00     0.020 A 
ATOM     74  C   UNL A   1      36.788  33.483  30.445  1.00  0.00     0.020 A 
ATOM     75  C   UNL A   1      35.741  33.242  31.330  1.00  0.00     0.054 A 
BRANCH  75  76
ATOM     76  S   UNL A   1      34.507  34.535  31.655  1.00  0.00     0.124 S 
ATOM     77  O   UNL A   1      34.168  34.985  30.308  1.00  0.00    -0.237 OA
ATOM     78  O   UNL A   1      33.459  33.803  32.360  1.00  0.00    -0.237 OA
ATOM     79  O   UNL A   1      35.234  35.509  32.469  1.00  0.00    -0.744 OA
ENDBRANCH  75  76
ENDBRANCH  47  70
BRANCH  59  80
ATOM     80  C   UNL A   1      43.156  28.892  33.423  1.00  0.00    -0.014 A 
ATOM     81  C   UNL A   1      43.593  29.245  34.715  1.00  0.00     0.010 A 
ATOM     82  C   UNL A   1      42.347  27.752  33.282  1.00  0.00     0.010 A 
ATOM     83  C   UNL A   1      43.270  28.448  35.826  1.00  0.00     0.020 A 
ATOM     84  C   UNL A   1      42.004  26.966  34.384  1.00  0.00     0.020 A 
ATOM     85  C   UNL A   1      42.481  27.306  35.648  1.00  0.00     0.054 A 
BRANCH  85  86
ATOM     86  S   UNL A   1      42.066  26.273  37.082  1.00  0.00     0.124 S 
ATOM     87  O   UNL A   1      40.755  26.783  37.473  1.00  0.00    -0.237 OA
ATOM     88  O   UNL A   1      42.076  24.923  36.525  1.00  0.00    -0.237 OA
ATOM     89  O   UNL A   1      43.143  26.548  38.034  1.00  0.00    -0.744 OA
ENDBRANCH  85  86
ENDBRANCH  59  80
ENDBRANCH  33  34
ENDBRANCH  26  28
ENDBRANCH  25  26
ENDBRANCH   1  25
TORSDOF 17
ENDMDL
