MODEL 1
REMARK VINA RESULT:     -11.7      0.000      0.000
REMARK SMILES COc1ccc(CCN2C(=O)C[C@@H](C(=O)OCCOC(=O)c3ccc(-c4c5nc(c(-c6ccc(S(=O)(=O)[O-])cc6)c6ccc([nH]6)c(-c6ccc(S(=O)(=O)[O-])cc6)c6nc(c(-c7ccc(S(=O)(=O)[O-])cc7)c7ccc4[nH]7)C=C6)C=C5)cc3)S/C2=[NH+]\c2ccc(F)cc2)cc1OC
REMARK SMILES IDX 17 1 16 2 14 3 15 4 13 5 9 6 10 7 83 8 11 9 12 10 82 11
REMARK SMILES IDX 84 12 8 14 7 15 6 16 3 17 4 18 93 19 5 20 92 21 2 22 1 23
REMARK SMILES IDX 94 24 95 25 85 26 86 27 91 28 87 29 90 30 88 31 89 32 18 33
REMARK SMILES IDX 19 34 20 35 21 36 22 37 23 38 81 39 24 40 80 41 25 42 26 43
REMARK SMILES IDX 27 44 74 45 28 46 79 47 73 48 75 49 29 50 78 51 72 52 71 53
REMARK SMILES IDX 30 55 60 56 41 57 59 58 42 59 45 60 58 61 76 62 43 63 44 64
REMARK SMILES IDX 57 66 77 67 46 68 31 69 32 70 40 71 33 72 39 73 34 74 35 75
REMARK SMILES IDX 36 76 37 77 38 78 61 79 62 80 70 81 63 82 69 83 64 84 65 85
REMARK SMILES IDX 66 86 67 87 68 88 47 89 48 90 56 91 49 92 55 93 50 94 51 95
REMARK SMILES IDX 52 96 53 97 54 98
REMARK H PARENT 84 13 75 54 45 65
REMARK Flexibility Score: inf
ROOT
ATOM      1  C   UNL A   1      37.248  23.000  25.249  1.00  0.00     0.274 C 
ENDROOT
BRANCH   1   2
ATOM      2  O   UNL A   1      36.409  24.145  25.508  1.00  0.00    -0.461 OA
BRANCH   2   3
ATOM      3  C   UNL A   1      35.167  24.134  24.935  1.00  0.00     0.320 C 
ATOM      4  O   UNL A   1      34.954  23.941  23.745  1.00  0.00    -0.251 OA
BRANCH   3   5
ATOM      5  C   UNL A   1      34.056  24.456  25.932  1.00  0.00     0.180 C 
ATOM      6  N   UNL A   1      31.250  25.386  26.080  1.00  0.00    -0.191 N 
ATOM      7  C   UNL A   1      31.583  24.044  26.186  1.00  0.00     0.311 C 
ATOM      8  C   UNL A   1      32.105  26.460  26.304  1.00  0.00     0.319 C 
ATOM      9  O   UNL A   1      30.828  23.205  26.679  1.00  0.00    -0.247 OA
ATOM     10  C   UNL A   1      32.873  23.612  25.569  1.00  0.00     0.155 C 
ATOM     11  S   UNL A   1      33.796  26.234  25.999  1.00  0.00    -0.022 SA
ATOM     12  N   UNL A   1      31.599  27.607  26.648  1.00  0.00    -0.235 N 
ATOM     13  H   UNL A   1      30.623  27.694  26.743  1.00  0.00     0.313 HD
BRANCH   6  14
ATOM     14  C   UNL A   1      29.834  25.671  25.835  1.00  0.00     0.251 C 
BRANCH  14  15
ATOM     15  C   UNL A   1      29.502  25.644  24.324  1.00  0.00     0.082 C 
BRANCH  15  16
ATOM     16  C   UNL A   1      29.360  27.011  23.681  1.00  0.00    -0.040 A 
ATOM     17  C   UNL A   1      29.086  29.605  22.580  1.00  0.00     0.160 A 
ATOM     18  C   UNL A   1      27.967  28.896  23.021  1.00  0.00     0.051 A 
ATOM     19  C   UNL A   1      30.349  28.997  22.656  1.00  0.00     0.160 A 
ATOM     20  C   UNL A   1      28.100  27.600  23.528  1.00  0.00     0.008 A 
ATOM     21  C   UNL A   1      30.480  27.725  23.238  1.00  0.00     0.054 A 
BRANCH  17  22
ATOM     22  O   UNL A   1      29.007  30.902  22.146  1.00  0.00    -0.493 OA
ATOM     23  C   UNL A   1      28.349  31.110  20.902  1.00  0.00     0.278 C 
ENDBRANCH  17  22
BRANCH  19  24
ATOM     24  O   UNL A   1      31.534  29.535  22.218  1.00  0.00    -0.493 OA
ATOM     25  C   UNL A   1      32.716  28.878  22.670  1.00  0.00     0.278 C 
ENDBRANCH  19  24
ENDBRANCH  15  16
ENDBRANCH  14  15
ENDBRANCH   6  14
BRANCH  12  26
ATOM     26  C   UNL A   1      32.417  28.725  26.888  1.00  0.00     0.125 A 
ATOM     27  C   UNL A   1      33.731  28.568  27.350  1.00  0.00     0.055 A 
ATOM     28  C   UNL A   1      31.910  30.015  26.695  1.00  0.00     0.055 A 
ATOM     29  C   UNL A   1      34.544  29.685  27.568  1.00  0.00     0.043 A 
ATOM     30  C   UNL A   1      32.719  31.132  26.913  1.00  0.00     0.043 A 
ATOM     31  C   UNL A   1      34.030  30.956  27.340  1.00  0.00     0.123 A 
ATOM     32  F   UNL A   1      34.806  32.029  27.540  1.00  0.00    -0.207 F 
ENDBRANCH  12  26
ENDBRANCH   3   5
ENDBRANCH   2   3
ENDBRANCH   1   2
BRANCH   1  33
ATOM     33  C   UNL A   1      38.482  23.044  26.145  1.00  0.00     0.275 C 
BRANCH  33  34
ATOM     34  O   UNL A   1      38.839  24.417  26.367  1.00  0.00    -0.458 OA
BRANCH  34  35
ATOM     35  C   UNL A   1      40.147  24.658  26.600  1.00  0.00     0.338 C 
ATOM     36  O   UNL A   1      41.109  24.163  26.030  1.00  0.00    -0.246 OA
BRANCH  35  37
ATOM     37  C   UNL A   1      40.250  25.645  27.685  1.00  0.00     0.060 A 
ATOM     38  C   UNL A   1      39.342  25.598  28.743  1.00  0.00     0.016 A 
ATOM     39  C   UNL A   1      41.203  26.656  27.622  1.00  0.00     0.016 A 
ATOM     40  C   UNL A   1      39.332  26.593  29.709  1.00  0.00     0.010 A 
ATOM     41  C   UNL A   1      41.248  27.612  28.639  1.00  0.00     0.010 A 
ATOM     42  C   UNL A   1      40.296  27.603  29.675  1.00  0.00    -0.014 A 
BRANCH  42  43
ATOM     43  C   UNL A   1      40.278  28.678  30.696  1.00  0.00     0.031 A 
ATOM     44  C   UNL A   1      41.264  28.636  31.829  1.00  0.00     0.074 A 
ATOM     45  C   UNL A   1      39.399  29.694  30.596  1.00  0.00     0.049 A 
ATOM     46  N   UNL A   1      41.312  29.371  32.907  1.00  0.00    -0.248 NA
ATOM     47  C   UNL A   1      42.334  27.628  31.737  1.00  0.00     0.031 C 
ATOM     48  C   UNL A   1      38.444  29.889  29.500  1.00  0.00     0.029 A 
ATOM     49  N   UNL A   1      39.168  30.759  31.429  1.00  0.00    -0.354 N 
ATOM     50  C   UNL A   1      42.382  28.884  33.648  1.00  0.00     0.074 A 
ATOM     51  C   UNL A   1      42.957  27.791  32.895  1.00  0.00     0.031 C 
ATOM     52  C   UNL A   1      37.749  31.016  29.719  1.00  0.00     0.029 A 
ATOM     53  C   UNL A   1      38.150  31.580  31.003  1.00  0.00     0.049 A 
ATOM     54  H   UNL A   1      39.681  30.920  32.254  1.00  0.00     0.167 HD
ATOM     55  C   UNL A   1      42.836  29.309  34.850  1.00  0.00     0.031 A 
ATOM     56  C   UNL A   1      37.577  32.642  31.600  1.00  0.00     0.031 A 
ATOM     57  C   UNL A   1      42.266  30.411  35.579  1.00  0.00     0.049 A 
ATOM     58  C   UNL A   1      38.059  33.058  32.961  1.00  0.00     0.074 A 
ATOM     59  C   UNL A   1      42.640  30.914  36.813  1.00  0.00     0.029 A 
ATOM     60  N   UNL A   1      41.210  31.191  35.131  1.00  0.00    -0.354 N 
ATOM     61  N   UNL A   1      39.027  32.545  33.682  1.00  0.00    -0.248 NA
ATOM     62  C   UNL A   1      37.363  34.185  33.594  1.00  0.00     0.031 C 
ATOM     63  C   UNL A   1      41.784  31.976  37.127  1.00  0.00     0.029 A 
ATOM     64  C   UNL A   1      40.911  32.165  36.069  1.00  0.00     0.049 A 
ATOM     65  H   UNL A   1      40.742  31.069  34.274  1.00  0.00     0.167 HD
ATOM     66  C   UNL A   1      39.066  33.296  34.850  1.00  0.00     0.074 A 
ATOM     67  C   UNL A   1      38.036  34.309  34.731  1.00  0.00     0.031 C 
ATOM     68  C   UNL A   1      39.880  33.160  35.927  1.00  0.00     0.031 A 
BRANCH  55  69
ATOM     69  C   UNL A   1      43.973  28.545  35.471  1.00  0.00    -0.014 A 
ATOM     70  C   UNL A   1      45.309  28.947  35.295  1.00  0.00     0.010 A 
ATOM     71  C   UNL A   1      43.696  27.418  36.266  1.00  0.00     0.010 A 
ATOM     72  C   UNL A   1      46.349  28.214  35.873  1.00  0.00     0.020 A 
ATOM     73  C   UNL A   1      44.731  26.696  36.864  1.00  0.00     0.020 A 
ATOM     74  C   UNL A   1      46.053  27.089  36.651  1.00  0.00     0.054 A 
BRANCH  74  75
ATOM     75  S   UNL A   1      47.419  26.168  37.412  1.00  0.00     0.124 S 
ATOM     76  O   UNL A   1      48.097  27.211  38.178  1.00  0.00    -0.237 OA
ATOM     77  O   UNL A   1      46.725  25.158  38.205  1.00  0.00    -0.237 OA
ATOM     78  O   UNL A   1      48.166  25.650  36.268  1.00  0.00    -0.744 OA
ENDBRANCH  74  75
ENDBRANCH  55  69
BRANCH  56  79
ATOM     79  C   UNL A   1      36.454  33.355  30.931  1.00  0.00    -0.014 A 
ATOM     80  C   UNL A   1      35.182  33.396  31.525  1.00  0.00     0.010 A 
ATOM     81  C   UNL A   1      36.658  34.012  29.704  1.00  0.00     0.010 A 
ATOM     82  C   UNL A   1      34.130  34.075  30.900  1.00  0.00     0.020 A 
ATOM     83  C   UNL A   1      35.618  34.714  29.090  1.00  0.00     0.020 A 
ATOM     84  C   UNL A   1      34.357  34.732  29.687  1.00  0.00     0.054 A 
BRANCH  84  85
ATOM     85  S   UNL A   1      32.996  35.658  28.922  1.00  0.00     0.124 S 
ATOM     86  O   UNL A   1      32.365  34.639  28.092  1.00  0.00    -0.237 OA
ATOM     87  O   UNL A   1      32.223  36.102  30.080  1.00  0.00    -0.237 OA
ATOM     88  O   UNL A   1      33.679  36.726  28.194  1.00  0.00    -0.744 OA
ENDBRANCH  84  85
ENDBRANCH  56  79
BRANCH  68  89
ATOM     89  C   UNL A   1      39.709  34.152  37.043  1.00  0.00    -0.014 A 
ATOM     90  C   UNL A   1      39.034  33.804  38.226  1.00  0.00     0.010 A 
ATOM     91  C   UNL A   1      40.276  35.434  36.922  1.00  0.00     0.010 A 
ATOM     92  C   UNL A   1      38.905  34.733  39.260  1.00  0.00     0.020 A 
ATOM     93  C   UNL A   1      40.168  36.357  37.964  1.00  0.00     0.020 A 
ATOM     94  C   UNL A   1      39.471  36.005  39.122  1.00  0.00     0.054 A 
BRANCH  94  95
ATOM     95  S   UNL A   1      39.328  37.181  40.495  1.00  0.00     0.124 S 
ATOM     96  O   UNL A   1      38.565  36.412  41.474  1.00  0.00    -0.237 OA
ATOM     97  O   UNL A   1      40.722  37.440  40.846  1.00  0.00    -0.237 OA
ATOM     98  O   UNL A   1      38.620  38.315  39.905  1.00  0.00    -0.744 OA
ENDBRANCH  94  95
ENDBRANCH  68  89
ENDBRANCH  42  43
ENDBRANCH  35  37
ENDBRANCH  34  35
ENDBRANCH  33  34
ENDBRANCH   1  33
TORSDOF 20
ENDMDL
MODEL 2
REMARK VINA RESULT:     -11.6      2.765      4.520
REMARK SMILES COc1ccc(CCN2C(=O)C[C@@H](C(=O)OCCOC(=O)c3ccc(-c4c5nc(c(-c6ccc(S(=O)(=O)[O-])cc6)c6ccc([nH]6)c(-c6ccc(S(=O)(=O)[O-])cc6)c6nc(c(-c7ccc(S(=O)(=O)[O-])cc7)c7ccc4[nH]7)C=C6)C=C5)cc3)S/C2=[NH+]\c2ccc(F)cc2)cc1OC
REMARK SMILES IDX 17 1 16 2 14 3 15 4 13 5 9 6 10 7 83 8 11 9 12 10 82 11
REMARK SMILES IDX 84 12 8 14 7 15 6 16 3 17 4 18 93 19 5 20 92 21 2 22 1 23
REMARK SMILES IDX 94 24 95 25 85 26 86 27 91 28 87 29 90 30 88 31 89 32 18 33
REMARK SMILES IDX 19 34 20 35 21 36 22 37 23 38 81 39 24 40 80 41 25 42 26 43
REMARK SMILES IDX 27 44 74 45 28 46 79 47 73 48 75 49 29 50 78 51 72 52 71 53
REMARK SMILES IDX 30 55 60 56 41 57 59 58 42 59 45 60 58 61 76 62 43 63 44 64
REMARK SMILES IDX 57 66 77 67 46 68 31 69 32 70 40 71 33 72 39 73 34 74 35 75
REMARK SMILES IDX 36 76 37 77 38 78 61 79 62 80 70 81 63 82 69 83 64 84 65 85
REMARK SMILES IDX 66 86 67 87 68 88 47 89 48 90 56 91 49 92 55 93 50 94 51 95
REMARK SMILES IDX 52 96 53 97 54 98
REMARK H PARENT 84 13 75 54 45 65
REMARK Flexibility Score: inf
ROOT
ATOM      1  C   UNL A   1      39.204  21.709  26.428  1.00  0.00     0.274 C 
ENDROOT
BRANCH   1   2
ATOM      2  O   UNL A   1      38.347  21.756  25.269  1.00  0.00    -0.461 OA
BRANCH   2   3
ATOM      3  C   UNL A   1      37.179  22.455  25.401  1.00  0.00     0.320 C 
ATOM      4  O   UNL A   1      36.914  23.191  26.342  1.00  0.00    -0.251 OA
BRANCH   3   5
ATOM      5  C   UNL A   1      36.192  22.172  24.270  1.00  0.00     0.180 C 
ATOM      6  N   UNL A   1      33.318  22.340  23.584  1.00  0.00    -0.191 N 
ATOM      7  C   UNL A   1      34.228  23.299  23.166  1.00  0.00     0.311 C 
ATOM      8  C   UNL A   1      33.624  21.042  23.979  1.00  0.00     0.319 C 
ATOM      9  O   UNL A   1      34.006  24.069  22.230  1.00  0.00    -0.247 OA
ATOM     10  C   UNL A   1      35.475  23.453  23.973  1.00  0.00     0.155 C 
ATOM     11  S   UNL A   1      35.175  20.750  24.692  1.00  0.00    -0.022 SA
ATOM     12  N   UNL A   1      32.711  20.122  23.879  1.00  0.00    -0.235 N 
ATOM     13  H   UNL A   1      31.823  20.361  23.526  1.00  0.00     0.313 HD
BRANCH   6  14
ATOM     14  C   UNL A   1      31.906  22.711  23.466  1.00  0.00     0.251 C 
BRANCH  14  15
ATOM     15  C   UNL A   1      31.319  23.150  24.830  1.00  0.00     0.082 C 
BRANCH  15  16
ATOM     16  C   UNL A   1      31.309  24.650  25.062  1.00  0.00    -0.040 A 
ATOM     17  C   UNL A   1      31.393  27.452  25.462  1.00  0.00     0.160 A 
ATOM     18  C   UNL A   1      31.962  26.582  26.394  1.00  0.00     0.051 A 
ATOM     19  C   UNL A   1      30.743  26.915  24.339  1.00  0.00     0.160 A 
ATOM     20  C   UNL A   1      31.886  25.197  26.214  1.00  0.00     0.008 A 
ATOM     21  C   UNL A   1      30.739  25.525  24.130  1.00  0.00     0.054 A 
BRANCH  17  22
ATOM     22  O   UNL A   1      31.510  28.812  25.564  1.00  0.00    -0.493 OA
ATOM     23  C   UNL A   1      31.955  29.314  26.818  1.00  0.00     0.278 C 
ENDBRANCH  17  22
BRANCH  19  24
ATOM     24  O   UNL A   1      30.090  27.627  23.363  1.00  0.00    -0.493 OA
ATOM     25  C   UNL A   1      28.667  27.570  23.402  1.00  0.00     0.278 C 
ENDBRANCH  19  24
ENDBRANCH  15  16
ENDBRANCH  14  15
ENDBRANCH   6  14
BRANCH  12  26
ATOM     26  C   UNL A   1      32.965  18.794  24.262  1.00  0.00     0.125 A 
ATOM     27  C   UNL A   1      32.660  18.349  25.556  1.00  0.00     0.055 A 
ATOM     28  C   UNL A   1      33.559  17.907  23.357  1.00  0.00     0.055 A 
ATOM     29  C   UNL A   1      32.898  17.020  25.923  1.00  0.00     0.043 A 
ATOM     30  C   UNL A   1      33.798  16.580  23.722  1.00  0.00     0.043 A 
ATOM     31  C   UNL A   1      33.459  16.148  24.999  1.00  0.00     0.123 A 
ATOM     32  F   UNL A   1      33.683  14.874  25.342  1.00  0.00    -0.207 F 
ENDBRANCH  12  26
ENDBRANCH   3   5
ENDBRANCH   2   3
ENDBRANCH   1   2
BRANCH   1  33
ATOM     33  C   UNL A   1      40.448  22.561  26.193  1.00  0.00     0.275 C 
BRANCH  33  34
ATOM     34  O   UNL A   1      40.158  23.913  26.580  1.00  0.00    -0.458 OA
BRANCH  34  35
ATOM     35  C   UNL A   1      41.178  24.791  26.471  1.00  0.00     0.338 C 
ATOM     36  O   UNL A   1      42.119  24.747  25.693  1.00  0.00    -0.246 OA
BRANCH  35  37
ATOM     37  C   UNL A   1      40.981  25.854  27.467  1.00  0.00     0.060 A 
ATOM     38  C   UNL A   1      41.787  26.992  27.423  1.00  0.00     0.016 A 
ATOM     39  C   UNL A   1      40.043  25.696  28.482  1.00  0.00     0.016 A 
ATOM     40  C   UNL A   1      41.713  27.948  28.426  1.00  0.00     0.010 A 
ATOM     41  C   UNL A   1      39.910  26.699  29.446  1.00  0.00     0.010 A 
ATOM     42  C   UNL A   1      40.762  27.818  29.440  1.00  0.00    -0.014 A 
BRANCH  42  43
ATOM     43  C   UNL A   1      40.691  28.829  30.523  1.00  0.00     0.031 A 
ATOM     44  C   UNL A   1      41.663  28.756  31.665  1.00  0.00     0.074 A 
ATOM     45  C   UNL A   1      39.774  29.815  30.471  1.00  0.00     0.049 A 
ATOM     46  N   UNL A   1      41.669  29.426  32.786  1.00  0.00    -0.248 NA
ATOM     47  C   UNL A   1      42.772  27.796  31.530  1.00  0.00     0.031 C 
ATOM     48  C   UNL A   1      38.826  30.040  29.374  1.00  0.00     0.029 A 
ATOM     49  N   UNL A   1      39.492  30.819  31.362  1.00  0.00    -0.354 N 
ATOM     50  C   UNL A   1      42.748  28.936  33.512  1.00  0.00     0.074 A 
ATOM     51  C   UNL A   1      43.374  27.912  32.704  1.00  0.00     0.031 C 
ATOM     52  C   UNL A   1      38.086  31.125  29.649  1.00  0.00     0.029 A 
ATOM     53  C   UNL A   1      38.449  31.625  30.970  1.00  0.00     0.049 A 
ATOM     54  H   UNL A   1      39.989  30.949  32.202  1.00  0.00     0.167 HD
ATOM     55  C   UNL A   1      43.171  29.305  34.744  1.00  0.00     0.031 A 
ATOM     56  C   UNL A   1      37.828  32.628  31.620  1.00  0.00     0.031 A 
ATOM     57  C   UNL A   1      42.550  30.339  35.528  1.00  0.00     0.049 A 
ATOM     58  C   UNL A   1      38.277  32.979  33.011  1.00  0.00     0.074 A 
ATOM     59  C   UNL A   1      42.889  30.781  36.796  1.00  0.00     0.029 A 
ATOM     60  N   UNL A   1      41.471  31.105  35.112  1.00  0.00    -0.354 N 
ATOM     61  N   UNL A   1      39.256  32.460  33.714  1.00  0.00    -0.248 NA
ATOM     62  C   UNL A   1      37.531  34.040  33.700  1.00  0.00     0.031 C 
ATOM     63  C   UNL A   1      41.990  31.790  37.159  1.00  0.00     0.029 A 
ATOM     64  C   UNL A   1      41.123  32.009  36.101  1.00  0.00     0.049 A 
ATOM     65  H   UNL A   1      41.018  31.017  34.242  1.00  0.00     0.167 HD
ATOM     66  C   UNL A   1      39.252  33.141  34.925  1.00  0.00     0.074 A 
ATOM     67  C   UNL A   1      38.185  34.120  34.851  1.00  0.00     0.031 C 
ATOM     68  C   UNL A   1      40.056  32.972  36.004  1.00  0.00     0.031 A 
BRANCH  55  69
ATOM     69  C   UNL A   1      44.329  28.549  35.335  1.00  0.00    -0.014 A 
ATOM     70  C   UNL A   1      44.130  27.396  36.115  1.00  0.00     0.010 A 
ATOM     71  C   UNL A   1      45.641  28.988  35.082  1.00  0.00     0.010 A 
ATOM     72  C   UNL A   1      45.221  26.717  36.662  1.00  0.00     0.020 A 
ATOM     73  C   UNL A   1      46.737  28.298  35.608  1.00  0.00     0.020 A 
ATOM     74  C   UNL A   1      46.519  27.175  36.409  1.00  0.00     0.054 A 
BRANCH  74  75
ATOM     75  S   UNL A   1      47.922  26.263  37.109  1.00  0.00     0.124 S 
ATOM     76  O   UNL A   1      48.916  26.374  36.045  1.00  0.00    -0.237 OA
ATOM     77  O   UNL A   1      48.220  27.012  38.327  1.00  0.00    -0.237 OA
ATOM     78  O   UNL A   1      47.388  24.919  37.325  1.00  0.00    -0.744 OA
ENDBRANCH  74  75
ENDBRANCH  55  69
BRANCH  56  79
ATOM     79  C   UNL A   1      36.688  33.337  30.979  1.00  0.00    -0.014 A 
ATOM     80  C   UNL A   1      36.901  34.169  29.867  1.00  0.00     0.010 A 
ATOM     81  C   UNL A   1      35.379  33.168  31.466  1.00  0.00     0.010 A 
ATOM     82  C   UNL A   1      35.826  34.827  29.259  1.00  0.00     0.020 A 
ATOM     83  C   UNL A   1      34.300  33.801  30.846  1.00  0.00     0.020 A 
ATOM     84  C   UNL A   1      34.532  34.636  29.751  1.00  0.00     0.054 A 
BRANCH  84  85
ATOM     85  S   UNL A   1      33.143  35.449  28.912  1.00  0.00     0.124 S 
ATOM     86  O   UNL A   1      33.829  36.407  28.051  1.00  0.00    -0.237 OA
ATOM     87  O   UNL A   1      32.489  34.336  28.227  1.00  0.00    -0.237 OA
ATOM     88  O   UNL A   1      32.375  36.030  30.011  1.00  0.00    -0.744 OA
ENDBRANCH  84  85
ENDBRANCH  56  79
BRANCH  68  89
ATOM     89  C   UNL A   1      39.834  33.888  37.174  1.00  0.00    -0.014 A 
ATOM     90  C   UNL A   1      40.483  35.133  37.255  1.00  0.00     0.010 A 
ATOM     91  C   UNL A   1      38.923  33.517  38.180  1.00  0.00     0.010 A 
ATOM     92  C   UNL A   1      40.246  35.979  38.340  1.00  0.00     0.020 A 
ATOM     93  C   UNL A   1      38.667  34.371  39.254  1.00  0.00     0.020 A 
ATOM     94  C   UNL A   1      39.340  35.592  39.334  1.00  0.00     0.054 A 
BRANCH  94  95
ATOM     95  S   UNL A   1      39.015  36.726  40.712  1.00  0.00     0.124 S 
ATOM     96  O   UNL A   1      38.260  37.790  40.056  1.00  0.00    -0.237 OA
ATOM     97  O   UNL A   1      38.254  35.895  41.641  1.00  0.00    -0.237 OA
ATOM     98  O   UNL A   1      40.350  37.101  41.172  1.00  0.00    -0.744 OA
ENDBRANCH  94  95
ENDBRANCH  68  89
ENDBRANCH  42  43
ENDBRANCH  35  37
ENDBRANCH  34  35
ENDBRANCH  33  34
ENDBRANCH   1  33
TORSDOF 20
ENDMDL
MODEL 3
REMARK VINA RESULT:     -11.4      2.803      3.492
REMARK SMILES COc1ccc(CCN2C(=O)C[C@@H](C(=O)OCCOC(=O)c3ccc(-c4c5nc(c(-c6ccc(S(=O)(=O)[O-])cc6)c6ccc([nH]6)c(-c6ccc(S(=O)(=O)[O-])cc6)c6nc(c(-c7ccc(S(=O)(=O)[O-])cc7)c7ccc4[nH]7)C=C6)C=C5)cc3)S/C2=[NH+]\c2ccc(F)cc2)cc1OC
REMARK SMILES IDX 17 1 16 2 14 3 15 4 13 5 9 6 10 7 83 8 11 9 12 10 82 11
REMARK SMILES IDX 84 12 8 14 7 15 6 16 3 17 4 18 93 19 5 20 92 21 2 22 1 23
REMARK SMILES IDX 94 24 95 25 85 26 86 27 91 28 87 29 90 30 88 31 89 32 18 33
REMARK SMILES IDX 19 34 20 35 21 36 22 37 23 38 81 39 24 40 80 41 25 42 26 43
REMARK SMILES IDX 27 44 74 45 28 46 79 47 73 48 75 49 29 50 78 51 72 52 71 53
REMARK SMILES IDX 30 55 60 56 41 57 59 58 42 59 45 60 58 61 76 62 43 63 44 64
REMARK SMILES IDX 57 66 77 67 46 68 31 69 32 70 40 71 33 72 39 73 34 74 35 75
REMARK SMILES IDX 36 76 37 77 38 78 61 79 62 80 70 81 63 82 69 83 64 84 65 85
REMARK SMILES IDX 66 86 67 87 68 88 47 89 48 90 56 91 49 92 55 93 50 94 51 95
REMARK SMILES IDX 52 96 53 97 54 98
REMARK H PARENT 84 13 75 54 45 65
REMARK Flexibility Score: inf
ROOT
ATOM      1  C   UNL A   1      36.719  22.906  23.764  1.00  0.00     0.274 C 
ENDROOT
BRANCH   1   2
ATOM      2  O   UNL A   1      35.975  24.040  24.257  1.00  0.00    -0.461 OA
BRANCH   2   3
ATOM      3  C   UNL A   1      34.668  24.130  23.865  1.00  0.00     0.320 C 
ATOM      4  O   UNL A   1      34.289  24.096  22.701  1.00  0.00    -0.251 OA
BRANCH   3   5
ATOM      5  C   UNL A   1      33.714  24.346  25.038  1.00  0.00     0.180 C 
ATOM      6  N   UNL A   1      30.978  25.270  25.682  1.00  0.00    -0.191 N 
ATOM      7  C   UNL A   1      31.294  23.923  25.593  1.00  0.00     0.311 C 
ATOM      8  C   UNL A   1      31.879  26.308  25.898  1.00  0.00     0.319 C 
ATOM      9  O   UNL A   1      30.597  23.038  26.093  1.00  0.00    -0.247 OA
ATOM     10  C   UNL A   1      32.475  23.554  24.757  1.00  0.00     0.155 C 
ATOM     11  S   UNL A   1      33.504  26.107  25.335  1.00  0.00    -0.022 SA
ATOM     12  N   UNL A   1      31.450  27.412  26.433  1.00  0.00    -0.235 N 
ATOM     13  H   UNL A   1      30.499  27.494  26.674  1.00  0.00     0.313 HD
BRANCH   6  14
ATOM     14  C   UNL A   1      29.548  25.589  25.673  1.00  0.00     0.251 C 
BRANCH  14  15
ATOM     15  C   UNL A   1      28.988  25.644  24.231  1.00  0.00     0.082 C 
BRANCH  15  16
ATOM     16  C   UNL A   1      28.819  27.043  23.670  1.00  0.00    -0.040 A 
ATOM     17  C   UNL A   1      28.492  29.692  22.722  1.00  0.00     0.160 A 
ATOM     18  C   UNL A   1      27.388  28.934  23.115  1.00  0.00     0.051 A 
ATOM     19  C   UNL A   1      29.768  29.107  22.768  1.00  0.00     0.160 A 
ATOM     20  C   UNL A   1      27.546  27.613  23.546  1.00  0.00     0.008 A 
ATOM     21  C   UNL A   1      29.925  27.805  23.274  1.00  0.00     0.054 A 
BRANCH  17  22
ATOM     22  O   UNL A   1      28.388  31.010  22.366  1.00  0.00    -0.493 OA
ATOM     23  C   UNL A   1      28.222  31.275  20.978  1.00  0.00     0.278 C 
ENDBRANCH  17  22
BRANCH  19  24
ATOM     24  O   UNL A   1      30.943  29.694  22.369  1.00  0.00    -0.493 OA
ATOM     25  C   UNL A   1      32.115  28.896  22.513  1.00  0.00     0.278 C 
ENDBRANCH  19  24
ENDBRANCH  15  16
ENDBRANCH  14  15
ENDBRANCH   6  14
BRANCH  12  26
ATOM     26  C   UNL A   1      32.317  28.492  26.676  1.00  0.00     0.125 A 
ATOM     27  C   UNL A   1      31.940  29.803  26.349  1.00  0.00     0.055 A 
ATOM     28  C   UNL A   1      33.585  28.262  27.220  1.00  0.00     0.055 A 
ATOM     29  C   UNL A   1      32.801  30.874  26.611  1.00  0.00     0.043 A 
ATOM     30  C   UNL A   1      34.446  29.330  27.482  1.00  0.00     0.043 A 
ATOM     31  C   UNL A   1      34.043  30.625  27.182  1.00  0.00     0.123 A 
ATOM     32  F   UNL A   1      34.867  31.647  27.442  1.00  0.00    -0.207 F 
ENDBRANCH  12  26
ENDBRANCH   3   5
ENDBRANCH   2   3
ENDBRANCH   1   2
BRANCH   1  33
ATOM     33  C   UNL A   1      37.124  22.003  24.924  1.00  0.00     0.275 C 
BRANCH  33  34
ATOM     34  O   UNL A   1      37.562  22.825  26.016  1.00  0.00    -0.458 OA
BRANCH  34  35
ATOM     35  C   UNL A   1      38.894  22.858  26.235  1.00  0.00     0.338 C 
ATOM     36  O   UNL A   1      39.715  21.994  25.964  1.00  0.00    -0.246 OA
BRANCH  35  37
ATOM     37  C   UNL A   1      39.227  24.140  26.874  1.00  0.00     0.060 A 
ATOM     38  C   UNL A   1      39.983  25.079  26.173  1.00  0.00     0.016 A 
ATOM     39  C   UNL A   1      38.845  24.385  28.189  1.00  0.00     0.016 A 
ATOM     40  C   UNL A   1      40.423  26.238  26.796  1.00  0.00     0.010 A 
ATOM     41  C   UNL A   1      39.216  25.590  28.791  1.00  0.00     0.010 A 
ATOM     42  C   UNL A   1      40.030  26.513  28.108  1.00  0.00    -0.014 A 
BRANCH  42  43
ATOM     43  C   UNL A   1      40.511  27.742  28.783  1.00  0.00     0.031 A 
ATOM     44  C   UNL A   1      41.916  27.791  29.313  1.00  0.00     0.074 A 
ATOM     45  C   UNL A   1      39.701  28.812  28.901  1.00  0.00     0.049 A 
ATOM     46  N   UNL A   1      42.477  28.690  30.076  1.00  0.00    -0.248 NA
ATOM     47  C   UNL A   1      42.802  26.676  28.940  1.00  0.00     0.031 C 
ATOM     48  C   UNL A   1      38.343  28.916  28.358  1.00  0.00     0.029 A 
ATOM     49  N   UNL A   1      39.904  30.022  29.515  1.00  0.00    -0.354 N 
ATOM     50  C   UNL A   1      43.765  28.227  30.318  1.00  0.00     0.074 A 
ATOM     51  C   UNL A   1      43.902  26.968  29.619  1.00  0.00     0.031 C 
ATOM     52  C   UNL A   1      37.847  30.130  28.643  1.00  0.00     0.029 A 
ATOM     53  C   UNL A   1      38.816  30.860  29.454  1.00  0.00     0.049 A 
ATOM     54  H   UNL A   1      40.750  30.266  29.957  1.00  0.00     0.167 HD
ATOM     55  C   UNL A   1      44.740  28.802  31.061  1.00  0.00     0.031 A 
ATOM     56  C   UNL A   1      38.606  32.062  30.022  1.00  0.00     0.031 A 
ATOM     57  C   UNL A   1      44.597  30.065  31.734  1.00  0.00     0.049 A 
ATOM     58  C   UNL A   1      39.681  32.652  30.892  1.00  0.00     0.074 A 
ATOM     59  C   UNL A   1      45.517  30.729  32.526  1.00  0.00     0.029 A 
ATOM     60  N   UNL A   1      43.464  30.863  31.680  1.00  0.00    -0.354 N 
ATOM     61  N   UNL A   1      40.870  32.171  31.169  1.00  0.00    -0.248 NA
ATOM     62  C   UNL A   1      39.382  33.937  31.536  1.00  0.00     0.031 C 
ATOM     63  C   UNL A   1      44.925  31.913  32.981  1.00  0.00     0.029 A 
ATOM     64  C   UNL A   1      43.656  32.009  32.434  1.00  0.00     0.049 A 
ATOM     65  H   UNL A   1      42.643  30.646  31.181  1.00  0.00     0.167 HD
ATOM     66  C   UNL A   1      41.467  33.101  32.009  1.00  0.00     0.074 A 
ATOM     67  C   UNL A   1      40.515  34.181  32.181  1.00  0.00     0.031 C 
ATOM     68  C   UNL A   1      42.692  33.068  32.589  1.00  0.00     0.031 A 
BRANCH  55  69
ATOM     69  C   UNL A   1      46.028  28.040  31.223  1.00  0.00    -0.014 A 
ATOM     70  C   UNL A   1      46.339  27.374  32.421  1.00  0.00     0.010 A 
ATOM     71  C   UNL A   1      46.930  27.972  30.145  1.00  0.00     0.010 A 
ATOM     72  C   UNL A   1      47.546  26.682  32.550  1.00  0.00     0.020 A 
ATOM     73  C   UNL A   1      48.127  27.262  30.263  1.00  0.00     0.020 A 
ATOM     74  C   UNL A   1      48.436  26.634  31.471  1.00  0.00     0.054 A 
BRANCH  74  75
ATOM     75  S   UNL A   1      49.986  25.710  31.655  1.00  0.00     0.124 S 
ATOM     76  O   UNL A   1      50.200  25.208  30.299  1.00  0.00    -0.237 OA
ATOM     77  O   UNL A   1      50.924  26.737  32.099  1.00  0.00    -0.237 OA
ATOM     78  O   UNL A   1      49.665  24.691  32.653  1.00  0.00    -0.744 OA
ENDBRANCH  74  75
ENDBRANCH  55  69
BRANCH  56  79
ATOM     79  C   UNL A   1      37.309  32.764  29.822  1.00  0.00    -0.014 A 
ATOM     80  C   UNL A   1      36.246  32.565  30.719  1.00  0.00     0.010 A 
ATOM     81  C   UNL A   1      37.136  33.649  28.742  1.00  0.00     0.010 A 
ATOM     82  C   UNL A   1      35.031  33.233  30.536  1.00  0.00     0.020 A 
ATOM     83  C   UNL A   1      35.934  34.338  28.570  1.00  0.00     0.020 A 
ATOM     84  C   UNL A   1      34.884  34.117  29.463  1.00  0.00     0.054 A 
BRANCH  84  85
ATOM     85  S   UNL A   1      33.321  35.020  29.276  1.00  0.00     0.124 S 
ATOM     86  O   UNL A   1      33.779  36.330  28.825  1.00  0.00    -0.237 OA
ATOM     87  O   UNL A   1      32.608  34.221  28.282  1.00  0.00    -0.237 OA
ATOM     88  O   UNL A   1      32.746  34.985  30.619  1.00  0.00    -0.744 OA
ENDBRANCH  84  85
ENDBRANCH  56  79
BRANCH  68  89
ATOM     89  C   UNL A   1      43.082  34.248  33.434  1.00  0.00    -0.014 A 
ATOM     90  C   UNL A   1      42.890  34.238  34.827  1.00  0.00     0.010 A 
ATOM     91  C   UNL A   1      43.695  35.360  32.829  1.00  0.00     0.010 A 
ATOM     92  C   UNL A   1      43.279  35.336  35.597  1.00  0.00     0.020 A 
ATOM     93  C   UNL A   1      44.106  36.449  33.600  1.00  0.00     0.020 A 
ATOM     94  C   UNL A   1      43.883  36.435  34.979  1.00  0.00     0.054 A 
BRANCH  94  95
ATOM     95  S   UNL A   1      44.420  37.832  36.004  1.00  0.00     0.124 S 
ATOM     96  O   UNL A   1      43.679  37.602  37.240  1.00  0.00    -0.237 OA
ATOM     97  O   UNL A   1      45.865  37.633  36.090  1.00  0.00    -0.237 OA
ATOM     98  O   UNL A   1      44.004  39.003  35.236  1.00  0.00    -0.744 OA
ENDBRANCH  94  95
ENDBRANCH  68  89
ENDBRANCH  42  43
ENDBRANCH  35  37
ENDBRANCH  34  35
ENDBRANCH  33  34
ENDBRANCH   1  33
TORSDOF 20
ENDMDL
