MODEL 1
REMARK VINA RESULT:     -10.2      0.000      0.000
REMARK SMILES C[C@H]1[C@@H]([NH2+]C[C@H]2CC[C@@H](C(=O)OCCOC(=O)c3ccc(-c4c5nc(c(-c6ccc(S(=O)(=O)[O-])cc6)c6ccc([nH]6)c(-c6ccc(S(=O)(=O)[O-])cc6)c6nc(c(-c7ccc(S(=O)(=O)[O-])cc7)c7ccc4[nH]7)C=C6)C=C5)cc3)CC2)CCC[C@@H]1C
REMARK SMILES IDX 13 1 12 2 10 3 11 4 9 5 6 6 7 7 79 8 8 9 78 10 5 11 4 12
REMARK SMILES IDX 3 15 1 16 2 17 83 18 80 19 82 20 84 21 81 22 14 23 15 24
REMARK SMILES IDX 16 25 17 26 18 27 19 28 77 29 20 30 76 31 21 32 22 33 23 34
REMARK SMILES IDX 70 35 24 36 75 37 69 38 71 39 25 40 74 41 68 42 67 43 26 45
REMARK SMILES IDX 56 46 37 47 55 48 38 49 41 50 54 51 72 52 39 53 40 54 53 56
REMARK SMILES IDX 73 57 42 58 27 59 28 60 36 61 29 62 35 63 30 64 31 65 32 66
REMARK SMILES IDX 33 67 34 68 57 69 58 70 66 71 59 72 65 73 60 74 61 75 62 76
REMARK SMILES IDX 63 77 64 78 43 79 44 80 52 81 45 82 51 83 46 84 47 85 48 86
REMARK SMILES IDX 49 87 50 88
REMARK H PARENT 4 13 4 14 71 44 41 55
REMARK Flexibility Score: inf
ROOT
ATOM      1  C   UNL A   1      31.771  29.979  25.625  1.00  0.00     0.274 C 
ENDROOT
BRANCH   1   2
ATOM      2  O   UNL A   1      31.725  28.540  25.622  1.00  0.00    -0.462 OA
BRANCH   2   3
ATOM      3  C   UNL A   1      31.025  27.962  24.611  1.00  0.00     0.309 C 
ATOM      4  O   UNL A   1      29.805  27.852  24.580  1.00  0.00    -0.252 OA
BRANCH   3   5
ATOM      5  C   UNL A   1      31.922  27.407  23.516  1.00  0.00     0.099 C 
ATOM      6  C   UNL A   1      33.116  25.127  22.003  1.00  0.00     0.044 C 
ATOM      7  C   UNL A   1      31.955  25.975  21.447  1.00  0.00     0.010 C 
ATOM      8  C   UNL A   1      33.977  26.024  22.911  1.00  0.00     0.010 C 
ATOM      9  C   UNL A   1      31.086  26.563  22.556  1.00  0.00     0.016 C 
ATOM     10  C   UNL A   1      33.165  26.669  24.038  1.00  0.00     0.016 C 
BRANCH   6  11
ATOM     11  C   UNL A   1      32.659  23.862  22.772  1.00  0.00     0.264 C 
BRANCH  11  12
ATOM     12  N   UNL A   1      33.788  23.069  23.252  1.00  0.00    -0.343 N 
ATOM     13  H   UNL A   1      33.787  22.177  22.758  1.00  0.00     0.346 HD
ATOM     14  H   UNL A   1      34.629  23.618  23.074  1.00  0.00     0.346 HD
BRANCH  12  15
ATOM     15  C   UNL A   1      33.760  22.796  24.697  1.00  0.00     0.185 C 
ATOM     16  C   UNL A   1      36.075  23.832  24.939  1.00  0.00     0.014 C 
ATOM     17  C   UNL A   1      35.213  22.594  25.217  1.00  0.00     0.047 C 
ATOM     18  C   UNL A   1      35.847  21.287  24.659  1.00  0.00    -0.006 C 
ATOM     19  C   UNL A   1      32.925  21.553  25.068  1.00  0.00     0.065 C 
ATOM     20  C   UNL A   1      34.960  20.069  24.971  1.00  0.00     0.004 C 
ATOM     21  C   UNL A   1      37.254  21.032  25.206  1.00  0.00     0.008 C 
ATOM     22  C   UNL A   1      33.517  20.257  24.519  1.00  0.00     0.006 C 
ENDBRANCH  12  15
ENDBRANCH  11  12
ENDBRANCH   6  11
ENDBRANCH   3   5
ENDBRANCH   2   3
ENDBRANCH   1   2
BRANCH   1  23
ATOM     23  C   UNL A   1      32.440  30.504  26.897  1.00  0.00     0.275 C 
BRANCH  23  24
ATOM     24  O   UNL A   1      33.840  30.171  26.924  1.00  0.00    -0.458 OA
BRANCH  24  25
ATOM     25  C   UNL A   1      34.561  30.814  27.872  1.00  0.00     0.338 C 
ATOM     26  O   UNL A   1      34.208  31.761  28.554  1.00  0.00    -0.246 OA
BRANCH  25  27
ATOM     27  C   UNL A   1      35.844  30.127  28.073  1.00  0.00     0.060 A 
ATOM     28  C   UNL A   1      36.115  29.606  29.339  1.00  0.00     0.016 A 
ATOM     29  C   UNL A   1      36.823  30.118  27.081  1.00  0.00     0.016 A 
ATOM     30  C   UNL A   1      37.374  29.100  29.638  1.00  0.00     0.010 A 
ATOM     31  C   UNL A   1      38.089  29.598  27.378  1.00  0.00     0.010 A 
ATOM     32  C   UNL A   1      38.378  29.113  28.667  1.00  0.00    -0.014 A 
BRANCH  32  33
ATOM     33  C   UNL A   1      39.759  28.728  29.047  1.00  0.00     0.031 A 
ATOM     34  C   UNL A   1      40.596  29.687  29.846  1.00  0.00     0.074 A 
ATOM     35  C   UNL A   1      40.237  27.509  28.736  1.00  0.00     0.049 A 
ATOM     36  N   UNL A   1      41.849  29.588  30.207  1.00  0.00    -0.248 NA
ATOM     37  C   UNL A   1      39.933  30.921  30.301  1.00  0.00     0.031 C 
ATOM     38  C   UNL A   1      39.495  26.459  28.035  1.00  0.00     0.029 A 
ATOM     39  N   UNL A   1      41.463  26.944  28.983  1.00  0.00    -0.354 N 
ATOM     40  C   UNL A   1      42.137  30.760  30.899  1.00  0.00     0.074 A 
ATOM     41  C   UNL A   1      40.928  31.555  30.905  1.00  0.00     0.031 C 
ATOM     42  C   UNL A   1      40.278  25.374  27.919  1.00  0.00     0.029 A 
ATOM     43  C   UNL A   1      41.588  25.667  28.492  1.00  0.00     0.049 A 
ATOM     44  H   UNL A   1      42.183  27.410  29.464  1.00  0.00     0.167 HD
ATOM     45  C   UNL A   1      43.304  31.139  31.473  1.00  0.00     0.031 A 
ATOM     46  C   UNL A   1      42.649  24.836  28.483  1.00  0.00     0.031 A 
ATOM     47  C   UNL A   1      44.500  30.341  31.474  1.00  0.00     0.049 A 
ATOM     48  C   UNL A   1      43.945  25.295  29.094  1.00  0.00     0.074 A 
ATOM     49  C   UNL A   1      45.744  30.650  31.992  1.00  0.00     0.029 A 
ATOM     50  N   UNL A   1      44.593  29.062  30.946  1.00  0.00    -0.354 N 
ATOM     51  N   UNL A   1      44.221  26.435  29.682  1.00  0.00    -0.248 NA
ATOM     52  C   UNL A   1      45.073  24.355  29.037  1.00  0.00     0.031 C 
ATOM     53  C   UNL A   1      46.598  29.566  31.756  1.00  0.00     0.029 A 
ATOM     54  C   UNL A   1      45.873  28.567  31.128  1.00  0.00     0.049 A 
ATOM     55  H   UNL A   1      43.858  28.578  30.506  1.00  0.00     0.167 HD
ATOM     56  C   UNL A   1      45.549  26.340  30.084  1.00  0.00     0.074 A 
ATOM     57  C   UNL A   1      46.015  25.028  29.683  1.00  0.00     0.031 C 
ATOM     58  C   UNL A   1      46.313  27.256  30.728  1.00  0.00     0.031 A 
BRANCH  45  59
ATOM     59  C   UNL A   1      43.345  32.504  32.102  1.00  0.00    -0.014 A 
ATOM     60  C   UNL A   1      43.161  32.676  33.485  1.00  0.00     0.010 A 
ATOM     61  C   UNL A   1      43.577  33.631  31.295  1.00  0.00     0.010 A 
ATOM     62  C   UNL A   1      43.166  33.957  34.043  1.00  0.00     0.020 A 
ATOM     63  C   UNL A   1      43.604  34.913  31.852  1.00  0.00     0.020 A 
ATOM     64  C   UNL A   1      43.377  35.068  33.221  1.00  0.00     0.054 A 
BRANCH  64  65
ATOM     65  S   UNL A   1      43.381  36.723  33.965  1.00  0.00     0.124 S 
ATOM     66  O   UNL A   1      42.015  36.826  34.472  1.00  0.00    -0.237 OA
ATOM     67  O   UNL A   1      44.423  36.620  34.983  1.00  0.00    -0.237 OA
ATOM     68  O   UNL A   1      43.697  37.604  32.844  1.00  0.00    -0.744 OA
ENDBRANCH  64  65
ENDBRANCH  45  59
BRANCH  46  69
ATOM     69  C   UNL A   1      42.537  23.495  27.852  1.00  0.00    -0.014 A 
ATOM     70  C   UNL A   1      42.807  23.323  26.483  1.00  0.00     0.010 A 
ATOM     71  C   UNL A   1      42.165  22.380  28.623  1.00  0.00     0.010 A 
ATOM     72  C   UNL A   1      42.692  22.061  25.893  1.00  0.00     0.020 A 
ATOM     73  C   UNL A   1      42.073  21.112  28.042  1.00  0.00     0.020 A 
ATOM     74  C   UNL A   1      42.325  20.963  26.677  1.00  0.00     0.054 A 
BRANCH  74  75
ATOM     75  S   UNL A   1      42.234  19.321  25.908  1.00  0.00     0.124 S 
ATOM     76  O   UNL A   1      42.722  18.459  26.980  1.00  0.00    -0.237 OA
ATOM     77  O   UNL A   1      40.814  19.194  25.591  1.00  0.00    -0.237 OA
ATOM     78  O   UNL A   1      43.114  19.441  24.748  1.00  0.00    -0.744 OA
ENDBRANCH  74  75
ENDBRANCH  46  69
BRANCH  58  79
ATOM     79  C   UNL A   1      47.717  26.851  31.080  1.00  0.00    -0.014 A 
ATOM     80  C   UNL A   1      48.018  26.269  32.324  1.00  0.00     0.010 A 
ATOM     81  C   UNL A   1      48.744  27.028  30.135  1.00  0.00     0.010 A 
ATOM     82  C   UNL A   1      49.331  25.902  32.630  1.00  0.00     0.020 A 
ATOM     83  C   UNL A   1      50.054  26.644  30.431  1.00  0.00     0.020 A 
ATOM     84  C   UNL A   1      50.342  26.099  31.684  1.00  0.00     0.054 A 
BRANCH  84  85
ATOM     85  S   UNL A   1      52.037  25.593  32.088  1.00  0.00     0.124 S 
ATOM     86  O   UNL A   1      52.790  26.124  30.955  1.00  0.00    -0.237 OA
ATOM     87  O   UNL A   1      52.277  26.254  33.369  1.00  0.00    -0.237 OA
ATOM     88  O   UNL A   1      51.954  24.136  32.154  1.00  0.00    -0.744 OA
ENDBRANCH  84  85
ENDBRANCH  58  79
ENDBRANCH  32  33
ENDBRANCH  25  27
ENDBRANCH  24  25
ENDBRANCH  23  24
ENDBRANCH   1  23
TORSDOF 17
ENDMDL
MODEL 2
REMARK VINA RESULT:     -10.2      3.391      4.394
REMARK SMILES C[C@H]1[C@@H]([NH2+]C[C@H]2CC[C@@H](C(=O)OCCOC(=O)c3ccc(-c4c5nc(c(-c6ccc(S(=O)(=O)[O-])cc6)c6ccc([nH]6)c(-c6ccc(S(=O)(=O)[O-])cc6)c6nc(c(-c7ccc(S(=O)(=O)[O-])cc7)c7ccc4[nH]7)C=C6)C=C5)cc3)CC2)CCC[C@@H]1C
REMARK SMILES IDX 13 1 12 2 10 3 11 4 9 5 6 6 7 7 79 8 8 9 78 10 5 11 4 12
REMARK SMILES IDX 3 15 1 16 2 17 83 18 80 19 82 20 84 21 81 22 14 23 15 24
REMARK SMILES IDX 16 25 17 26 18 27 19 28 77 29 20 30 76 31 21 32 22 33 23 34
REMARK SMILES IDX 70 35 24 36 75 37 69 38 71 39 25 40 74 41 68 42 67 43 26 45
REMARK SMILES IDX 56 46 37 47 55 48 38 49 41 50 54 51 72 52 39 53 40 54 53 56
REMARK SMILES IDX 73 57 42 58 27 59 28 60 36 61 29 62 35 63 30 64 31 65 32 66
REMARK SMILES IDX 33 67 34 68 57 69 58 70 66 71 59 72 65 73 60 74 61 75 62 76
REMARK SMILES IDX 63 77 64 78 43 79 44 80 52 81 45 82 51 83 46 84 47 85 48 86
REMARK SMILES IDX 49 87 50 88
REMARK H PARENT 4 13 4 14 71 44 41 55
REMARK Flexibility Score: inf
ROOT
ATOM      1  C   UNL A   1      33.959  30.640  27.545  1.00  0.00     0.274 C 
ENDROOT
BRANCH   1   2
ATOM      2  O   UNL A   1      32.679  29.981  27.541  1.00  0.00    -0.462 OA
BRANCH   2   3
ATOM      3  C   UNL A   1      31.882  30.221  26.467  1.00  0.00     0.309 C 
ATOM      4  O   UNL A   1      31.514  31.333  26.106  1.00  0.00    -0.252 OA
BRANCH   3   5
ATOM      5  C   UNL A   1      31.438  28.947  25.766  1.00  0.00     0.099 C 
ATOM      6  C   UNL A   1      31.950  26.175  24.784  1.00  0.00     0.044 C 
ATOM      7  C   UNL A   1      31.134  26.466  26.059  1.00  0.00     0.010 C 
ATOM      8  C   UNL A   1      31.752  27.347  23.805  1.00  0.00     0.010 C 
ATOM      9  C   UNL A   1      31.559  27.769  26.731  1.00  0.00     0.016 C 
ATOM     10  C   UNL A   1      32.137  28.695  24.421  1.00  0.00     0.016 C 
BRANCH   6  11
ATOM     11  C   UNL A   1      33.459  25.937  25.043  1.00  0.00     0.264 C 
BRANCH  11  12
ATOM     12  N   UNL A   1      33.772  24.523  25.225  1.00  0.00    -0.343 N 
ATOM     13  H   UNL A   1      34.325  24.424  26.077  1.00  0.00     0.346 HD
ATOM     14  H   UNL A   1      32.882  24.028  25.273  1.00  0.00     0.346 HD
BRANCH  12  15
ATOM     15  C   UNL A   1      34.528  23.926  24.114  1.00  0.00     0.185 C 
ATOM     16  C   UNL A   1      32.375  22.935  23.180  1.00  0.00     0.014 C 
ATOM     17  C   UNL A   1      33.810  22.632  23.631  1.00  0.00     0.047 C 
ATOM     18  C   UNL A   1      33.874  21.504  24.700  1.00  0.00    -0.006 C 
ATOM     19  C   UNL A   1      35.984  23.572  24.484  1.00  0.00     0.065 C 
ATOM     20  C   UNL A   1      35.329  21.222  25.114  1.00  0.00     0.004 C 
ATOM     21  C   UNL A   1      33.229  20.200  24.224  1.00  0.00     0.008 C 
ATOM     22  C   UNL A   1      36.076  22.478  25.545  1.00  0.00     0.006 C 
ENDBRANCH  12  15
ENDBRANCH  11  12
ENDBRANCH   6  11
ENDBRANCH   3   5
ENDBRANCH   2   3
ENDBRANCH   1   2
BRANCH   1  23
ATOM     23  C   UNL A   1      35.100  29.621  27.573  1.00  0.00     0.275 C 
BRANCH  23  24
ATOM     24  O   UNL A   1      36.333  30.232  27.997  1.00  0.00    -0.458 OA
BRANCH  24  25
ATOM     25  C   UNL A   1      36.944  29.619  29.038  1.00  0.00     0.338 C 
ATOM     26  O   UNL A   1      36.470  29.371  30.133  1.00  0.00    -0.246 OA
BRANCH  25  27
ATOM     27  C   UNL A   1      38.279  29.161  28.629  1.00  0.00     0.060 A 
ATOM     28  C   UNL A   1      39.134  28.675  29.619  1.00  0.00     0.016 A 
ATOM     29  C   UNL A   1      38.737  29.337  27.324  1.00  0.00     0.016 A 
ATOM     30  C   UNL A   1      40.462  28.390  29.325  1.00  0.00     0.010 A 
ATOM     31  C   UNL A   1      40.072  29.040  27.024  1.00  0.00     0.010 A 
ATOM     32  C   UNL A   1      40.948  28.592  28.030  1.00  0.00    -0.014 A 
BRANCH  32  33
ATOM     33  C   UNL A   1      42.400  28.446  27.770  1.00  0.00     0.031 A 
ATOM     34  C   UNL A   1      43.325  29.585  28.100  1.00  0.00     0.074 A 
ATOM     35  C   UNL A   1      42.896  27.285  27.304  1.00  0.00     0.049 A 
ATOM     36  N   UNL A   1      44.608  29.700  27.873  1.00  0.00    -0.248 NA
ATOM     37  C   UNL A   1      42.725  30.747  28.776  1.00  0.00     0.031 C 
ATOM     38  C   UNL A   1      42.114  26.080  27.022  1.00  0.00     0.029 A 
ATOM     39  N   UNL A   1      44.185  26.928  26.995  1.00  0.00    -0.354 N 
ATOM     40  C   UNL A   1      44.962  30.959  28.344  1.00  0.00     0.074 A 
ATOM     41  C   UNL A   1      43.759  31.570  28.868  1.00  0.00     0.031 C 
ATOM     42  C   UNL A   1      42.942  25.112  26.593  1.00  0.00     0.029 A 
ATOM     43  C   UNL A   1      44.300  25.642  26.524  1.00  0.00     0.049 A 
ATOM     44  H   UNL A   1      44.952  27.534  27.101  1.00  0.00     0.167 HD
ATOM     45  C   UNL A   1      46.180  31.553  28.338  1.00  0.00     0.031 A 
ATOM     46  C   UNL A   1      45.377  24.975  26.064  1.00  0.00     0.031 A 
ATOM     47  C   UNL A   1      47.375  30.939  27.827  1.00  0.00     0.049 A 
ATOM     48  C   UNL A   1      46.711  25.669  26.032  1.00  0.00     0.074 A 
ATOM     49  C   UNL A   1      48.649  31.470  27.737  1.00  0.00     0.029 A 
ATOM     50  N   UNL A   1      47.446  29.644  27.336  1.00  0.00    -0.354 N 
ATOM     51  N   UNL A   1      47.016  26.886  26.416  1.00  0.00    -0.248 NA
ATOM     52  C   UNL A   1      47.845  24.900  25.502  1.00  0.00     0.031 C 
ATOM     53  C   UNL A   1      49.488  30.504  27.170  1.00  0.00     0.029 A 
ATOM     54  C   UNL A   1      48.743  29.357  26.945  1.00  0.00     0.049 A 
ATOM     55  H   UNL A   1      46.687  29.021  27.275  1.00  0.00     0.167 HD
ATOM     56  C   UNL A   1      48.383  27.021  26.194  1.00  0.00     0.074 A 
ATOM     57  C   UNL A   1      48.845  25.758  25.654  1.00  0.00     0.031 C 
ATOM     58  C   UNL A   1      49.183  28.092  26.417  1.00  0.00     0.031 A 
BRANCH  45  59
ATOM     59  C   UNL A   1      46.257  32.962  28.858  1.00  0.00    -0.014 A 
ATOM     60  C   UNL A   1      46.051  34.065  28.012  1.00  0.00     0.010 A 
ATOM     61  C   UNL A   1      46.538  33.183  30.218  1.00  0.00     0.010 A 
ATOM     62  C   UNL A   1      46.165  35.367  28.509  1.00  0.00     0.020 A 
ATOM     63  C   UNL A   1      46.632  34.482  30.724  1.00  0.00     0.020 A 
ATOM     64  C   UNL A   1      46.465  35.567  29.860  1.00  0.00     0.054 A 
BRANCH  64  65
ATOM     65  S   UNL A   1      46.608  37.264  30.486  1.00  0.00     0.124 S 
ATOM     66  O   UNL A   1      48.036  37.525  30.318  1.00  0.00    -0.237 OA
ATOM     67  O   UNL A   1      45.723  38.014  29.599  1.00  0.00    -0.237 OA
ATOM     68  O   UNL A   1      46.154  37.159  31.871  1.00  0.00    -0.744 OA
ENDBRANCH  64  65
ENDBRANCH  45  59
BRANCH  46  69
ATOM     69  C   UNL A   1      45.233  23.580  25.573  1.00  0.00    -0.014 A 
ATOM     70  C   UNL A   1      45.340  22.494  26.458  1.00  0.00     0.010 A 
ATOM     71  C   UNL A   1      44.981  23.332  24.211  1.00  0.00     0.010 A 
ATOM     72  C   UNL A   1      45.212  21.183  25.989  1.00  0.00     0.020 A 
ATOM     73  C   UNL A   1      44.828  22.024  23.742  1.00  0.00     0.020 A 
ATOM     74  C   UNL A   1      44.958  20.957  24.633  1.00  0.00     0.054 A 
BRANCH  74  75
ATOM     75  S   UNL A   1      44.740  19.252  24.048  1.00  0.00     0.124 S 
ATOM     76  O   UNL A   1      44.508  19.450  22.622  1.00  0.00    -0.237 OA
ATOM     77  O   UNL A   1      46.011  18.627  24.402  1.00  0.00    -0.237 OA
ATOM     78  O   UNL A   1      43.588  18.778  24.813  1.00  0.00    -0.744 OA
ENDBRANCH  74  75
ENDBRANCH  46  69
BRANCH  58  79
ATOM     79  C   UNL A   1      50.647  27.927  26.121  1.00  0.00    -0.014 A 
ATOM     80  C   UNL A   1      51.539  27.456  27.101  1.00  0.00     0.010 A 
ATOM     81  C   UNL A   1      51.129  28.218  24.833  1.00  0.00     0.010 A 
ATOM     82  C   UNL A   1      52.897  27.313  26.804  1.00  0.00     0.020 A 
ATOM     83  C   UNL A   1      52.482  28.057  24.527  1.00  0.00     0.020 A 
ATOM     84  C   UNL A   1      53.361  27.621  25.521  1.00  0.00     0.054 A 
BRANCH  84  85
ATOM     85  S   UNL A   1      55.123  27.404  25.145  1.00  0.00     0.124 S 
ATOM     86  O   UNL A   1      55.103  26.244  24.259  1.00  0.00    -0.237 OA
ATOM     87  O   UNL A   1      55.479  28.672  24.513  1.00  0.00    -0.237 OA
ATOM     88  O   UNL A   1      55.728  27.179  26.456  1.00  0.00    -0.744 OA
ENDBRANCH  84  85
ENDBRANCH  58  79
ENDBRANCH  32  33
ENDBRANCH  25  27
ENDBRANCH  24  25
ENDBRANCH  23  24
ENDBRANCH   1  23
TORSDOF 17
ENDMDL
MODEL 3
REMARK VINA RESULT:     -10.1      4.116     10.515
REMARK SMILES C[C@H]1[C@@H]([NH2+]C[C@H]2CC[C@@H](C(=O)OCCOC(=O)c3ccc(-c4c5nc(c(-c6ccc(S(=O)(=O)[O-])cc6)c6ccc([nH]6)c(-c6ccc(S(=O)(=O)[O-])cc6)c6nc(c(-c7ccc(S(=O)(=O)[O-])cc7)c7ccc4[nH]7)C=C6)C=C5)cc3)CC2)CCC[C@@H]1C
REMARK SMILES IDX 13 1 12 2 10 3 11 4 9 5 6 6 7 7 79 8 8 9 78 10 5 11 4 12
REMARK SMILES IDX 3 15 1 16 2 17 83 18 80 19 82 20 84 21 81 22 14 23 15 24
REMARK SMILES IDX 16 25 17 26 18 27 19 28 77 29 20 30 76 31 21 32 22 33 23 34
REMARK SMILES IDX 70 35 24 36 75 37 69 38 71 39 25 40 74 41 68 42 67 43 26 45
REMARK SMILES IDX 56 46 37 47 55 48 38 49 41 50 54 51 72 52 39 53 40 54 53 56
REMARK SMILES IDX 73 57 42 58 27 59 28 60 36 61 29 62 35 63 30 64 31 65 32 66
REMARK SMILES IDX 33 67 34 68 57 69 58 70 66 71 59 72 65 73 60 74 61 75 62 76
REMARK SMILES IDX 63 77 64 78 43 79 44 80 52 81 45 82 51 83 46 84 47 85 48 86
REMARK SMILES IDX 49 87 50 88
REMARK H PARENT 4 13 4 14 71 44 41 55
REMARK Flexibility Score: inf
ROOT
ATOM      1  C   UNL A   1      39.610  21.732  26.171  1.00  0.00     0.274 C 
ENDROOT
BRANCH   1   2
ATOM      2  O   UNL A   1      38.447  21.947  25.350  1.00  0.00    -0.462 OA
BRANCH   2   3
ATOM      3  C   UNL A   1      37.743  20.838  25.003  1.00  0.00     0.309 C 
ATOM      4  O   UNL A   1      38.226  19.722  24.856  1.00  0.00    -0.252 OA
BRANCH   3   5
ATOM      5  C   UNL A   1      36.270  21.128  24.759  1.00  0.00     0.099 C 
ATOM      6  C   UNL A   1      33.858  22.867  25.020  1.00  0.00     0.044 C 
ATOM      7  C   UNL A   1      34.666  22.760  23.711  1.00  0.00     0.010 C 
ATOM      8  C   UNL A   1      33.958  21.523  25.762  1.00  0.00     0.010 C 
ATOM      9  C   UNL A   1      36.133  22.426  23.965  1.00  0.00     0.016 C 
ATOM     10  C   UNL A   1      35.408  21.109  26.032  1.00  0.00     0.016 C 
BRANCH   6  11
ATOM     11  C   UNL A   1      34.306  24.028  25.943  1.00  0.00     0.264 C 
BRANCH  11  12
ATOM     12  N   UNL A   1      34.260  25.321  25.267  1.00  0.00    -0.343 N 
ATOM     13  H   UNL A   1      34.738  26.006  25.853  1.00  0.00     0.346 HD
ATOM     14  H   UNL A   1      34.709  25.195  24.360  1.00  0.00     0.346 HD
BRANCH  12  15
ATOM     15  C   UNL A   1      32.899  25.813  25.001  1.00  0.00     0.185 C 
ATOM     16  C   UNL A   1      33.430  25.937  22.512  1.00  0.00     0.014 C 
ATOM     17  C   UNL A   1      32.910  26.711  23.730  1.00  0.00     0.047 C 
ATOM     18  C   UNL A   1      33.685  28.039  23.970  1.00  0.00    -0.006 C 
ATOM     19  C   UNL A   1      32.301  26.621  26.171  1.00  0.00     0.065 C 
ATOM     20  C   UNL A   1      33.124  28.790  25.190  1.00  0.00     0.004 C 
ATOM     21  C   UNL A   1      33.656  28.969  22.754  1.00  0.00     0.008 C 
ATOM     22  C   UNL A   1      33.054  27.921  26.439  1.00  0.00     0.006 C 
ENDBRANCH  12  15
ENDBRANCH  11  12
ENDBRANCH   6  11
ENDBRANCH   3   5
ENDBRANCH   2   3
ENDBRANCH   1   2
BRANCH   1  23
ATOM     23  C   UNL A   1      39.738  22.822  27.236  1.00  0.00     0.275 C 
BRANCH  23  24
ATOM     24  O   UNL A   1      41.083  23.331  27.301  1.00  0.00    -0.458 OA
BRANCH  24  25
ATOM     25  C   UNL A   1      41.282  24.500  26.649  1.00  0.00     0.338 C 
ATOM     26  O   UNL A   1      41.622  24.651  25.488  1.00  0.00    -0.246 OA
BRANCH  25  27
ATOM     27  C   UNL A   1      40.909  25.624  27.519  1.00  0.00     0.060 A 
ATOM     28  C   UNL A   1      41.767  26.723  27.571  1.00  0.00     0.016 A 
ATOM     29  C   UNL A   1      39.813  25.542  28.376  1.00  0.00     0.016 A 
ATOM     30  C   UNL A   1      41.559  27.735  28.500  1.00  0.00     0.010 A 
ATOM     31  C   UNL A   1      39.596  26.567  29.305  1.00  0.00     0.010 A 
ATOM     32  C   UNL A   1      40.485  27.655  29.389  1.00  0.00    -0.014 A 
BRANCH  32  33
ATOM     33  C   UNL A   1      40.371  28.652  30.481  1.00  0.00     0.031 A 
ATOM     34  C   UNL A   1      41.321  28.579  31.645  1.00  0.00     0.074 A 
ATOM     35  C   UNL A   1      39.472  29.649  30.404  1.00  0.00     0.049 A 
ATOM     36  N   UNL A   1      41.341  29.292  32.741  1.00  0.00    -0.248 NA
ATOM     37  C   UNL A   1      42.391  27.571  31.561  1.00  0.00     0.031 C 
ATOM     38  C   UNL A   1      38.550  29.876  29.289  1.00  0.00     0.029 A 
ATOM     39  N   UNL A   1      39.194  30.668  31.280  1.00  0.00    -0.354 N 
ATOM     40  C   UNL A   1      42.400  28.797  33.494  1.00  0.00     0.074 A 
ATOM     41  C   UNL A   1      42.997  27.722  32.730  1.00  0.00     0.031 C 
ATOM     42  C   UNL A   1      37.817  30.972  29.545  1.00  0.00     0.029 A 
ATOM     43  C   UNL A   1      38.182  31.496  30.857  1.00  0.00     0.049 A 
ATOM     44  H   UNL A   1      39.674  30.793  32.129  1.00  0.00     0.167 HD
ATOM     45  C   UNL A   1      42.833  29.199  34.713  1.00  0.00     0.031 A 
ATOM     46  C   UNL A   1      37.598  32.543  31.472  1.00  0.00     0.031 A 
ATOM     47  C   UNL A   1      42.245  30.275  35.463  1.00  0.00     0.049 A 
ATOM     48  C   UNL A   1      38.072  32.948  32.841  1.00  0.00     0.074 A 
ATOM     49  C   UNL A   1      42.583  30.735  36.724  1.00  0.00     0.029 A 
ATOM     50  N   UNL A   1      41.206  31.074  35.011  1.00  0.00    -0.354 N 
ATOM     51  N   UNL A   1      39.029  32.424  33.570  1.00  0.00    -0.248 NA
ATOM     52  C   UNL A   1      37.385  34.084  33.470  1.00  0.00     0.031 C 
ATOM     53  C   UNL A   1      41.732  31.800  37.044  1.00  0.00     0.029 A 
ATOM     54  C   UNL A   1      40.892  32.027  35.966  1.00  0.00     0.049 A 
ATOM     55  H   UNL A   1      40.758  30.979  34.140  1.00  0.00     0.167 HD
ATOM     56  C   UNL A   1      39.072  33.180  34.736  1.00  0.00     0.074 A 
ATOM     57  C   UNL A   1      38.055  34.204  34.609  1.00  0.00     0.031 C 
ATOM     58  C   UNL A   1      39.882  33.041  35.815  1.00  0.00     0.031 A 
BRANCH  45  59
ATOM     59  C   UNL A   1      43.971  28.430  35.324  1.00  0.00    -0.014 A 
ATOM     60  C   UNL A   1      45.307  28.819  35.124  1.00  0.00     0.010 A 
ATOM     61  C   UNL A   1      43.697  27.300  36.115  1.00  0.00     0.010 A 
ATOM     62  C   UNL A   1      46.351  28.067  35.670  1.00  0.00     0.020 A 
ATOM     63  C   UNL A   1      44.736  26.557  36.681  1.00  0.00     0.020 A 
ATOM     64  C   UNL A   1      46.059  26.935  36.436  1.00  0.00     0.054 A 
BRANCH  64  65
ATOM     65  S   UNL A   1      47.428  25.972  37.138  1.00  0.00     0.124 S 
ATOM     66  O   UNL A   1      47.538  26.543  38.479  1.00  0.00    -0.237 OA
ATOM     67  O   UNL A   1      46.927  24.602  37.078  1.00  0.00    -0.237 OA
ATOM     68  O   UNL A   1      48.546  26.262  36.244  1.00  0.00    -0.744 OA
ENDBRANCH  64  65
ENDBRANCH  45  59
BRANCH  46  69
ATOM     69  C   UNL A   1      36.483  33.267  30.807  1.00  0.00    -0.014 A 
ATOM     70  C   UNL A   1      35.203  33.295  31.385  1.00  0.00     0.010 A 
ATOM     71  C   UNL A   1      36.702  33.940  29.592  1.00  0.00     0.010 A 
ATOM     72  C   UNL A   1      34.155  33.971  30.751  1.00  0.00     0.020 A 
ATOM     73  C   UNL A   1      35.664  34.637  28.967  1.00  0.00     0.020 A 
ATOM     74  C   UNL A   1      34.393  34.637  29.545  1.00  0.00     0.054 A 
BRANCH  74  75
ATOM     75  S   UNL A   1      33.037  35.556  28.762  1.00  0.00     0.124 S 
ATOM     76  O   UNL A   1      32.390  34.519  27.966  1.00  0.00    -0.237 OA
ATOM     77  O   UNL A   1      32.275  36.042  29.910  1.00  0.00    -0.237 OA
ATOM     78  O   UNL A   1      33.729  36.594  28.000  1.00  0.00    -0.744 OA
ENDBRANCH  74  75
ENDBRANCH  46  69
BRANCH  58  79
ATOM     79  C   UNL A   1      39.730  34.049  36.920  1.00  0.00    -0.014 A 
ATOM     80  C   UNL A   1      38.994  33.752  38.080  1.00  0.00     0.010 A 
ATOM     81  C   UNL A   1      40.361  35.301  36.804  1.00  0.00     0.010 A 
ATOM     82  C   UNL A   1      38.864  34.706  39.093  1.00  0.00     0.020 A 
ATOM     83  C   UNL A   1      40.249  36.248  37.824  1.00  0.00     0.020 A 
ATOM     84  C   UNL A   1      39.486  35.950  38.955  1.00  0.00     0.054 A 
BRANCH  84  85
ATOM     85  S   UNL A   1      39.329  37.167  40.292  1.00  0.00     0.124 S 
ATOM     86  O   UNL A   1      38.529  36.438  41.273  1.00  0.00    -0.237 OA
ATOM     87  O   UNL A   1      40.718  37.414  40.672  1.00  0.00    -0.237 OA
ATOM     88  O   UNL A   1      38.656  38.295  39.652  1.00  0.00    -0.744 OA
ENDBRANCH  84  85
ENDBRANCH  58  79
ENDBRANCH  32  33
ENDBRANCH  25  27
ENDBRANCH  24  25
ENDBRANCH  23  24
ENDBRANCH   1  23
TORSDOF 17
ENDMDL
