MODEL 1
REMARK VINA RESULT:     -11.3      0.000      0.000
REMARK SMILES Cc1ccc(Cl)c(Nc2ccccc2C(=O)N[C@@H](C)C(=O)OCCOC(=O)c2ccc(-c3c4nc(c(-c5ccc(S(=O)(=O)[O-])cc5)c5ccc([nH]5)c(-c5ccc(S(=O)(=O)[O-])cc5)c5nc(c(-c6ccc(S(=O)(=O)[O-])cc6)c6ccc3[nH]6)C=C5)C=C4)cc2)c1Cl
REMARK SMILES IDX 23 1 22 2 20 3 21 4 18 5 19 6 17 7 15 8 16 9 14 11 9 12
REMARK SMILES IDX 10 13 11 14 13 15 12 16 8 17 7 19 1 20 2 21 3 22 88 23 4 24
REMARK SMILES IDX 89 25 5 26 6 27 24 28 25 29 26 30 27 31 28 32 29 33 87 34
REMARK SMILES IDX 30 35 86 36 31 37 32 38 33 39 80 40 34 41 85 42 79 43 81 44
REMARK SMILES IDX 35 45 84 46 78 47 77 48 36 50 66 51 47 52 65 53 48 54 51 55
REMARK SMILES IDX 64 56 82 57 49 58 50 59 63 61 83 62 52 63 37 64 38 65 46 66
REMARK SMILES IDX 39 67 45 68 40 69 41 70 42 71 43 72 44 73 67 74 68 75 76 76
REMARK SMILES IDX 69 77 75 78 70 79 71 80 72 81 73 82 74 83 53 84 54 85 62 86
REMARK SMILES IDX 55 87 61 88 56 89 57 90 58 91 59 92 60 93
REMARK H PARENT 17 10 8 18 81 49 51 60
REMARK Flexibility Score: inf
ROOT
ATOM      1  C   UNL A   1      31.685  28.288  27.580  1.00  0.00     0.274 C 
ENDROOT
BRANCH   1   2
ATOM      2  O   UNL A   1      31.157  27.067  26.915  1.00  0.00    -0.461 OA
BRANCH   2   3
ATOM      3  C   UNL A   1      31.831  26.300  25.979  1.00  0.00     0.328 C 
ATOM      4  O   UNL A   1      32.749  26.726  25.310  1.00  0.00    -0.250 OA
BRANCH   3   5
ATOM      5  C   UNL A   1      31.259  24.779  25.863  1.00  0.00     0.189 C 
ATOM      6  C   UNL A   1      29.753  24.767  26.124  1.00  0.00     0.043 C 
BRANCH   5   7
ATOM      7  N   UNL A   1      31.957  23.841  26.799  1.00  0.00    -0.339 N 
ATOM      8  C   UNL A   1      32.641  22.642  26.907  1.00  0.00     0.254 C 
ATOM      9  O   UNL A   1      32.825  22.390  28.115  1.00  0.00    -0.269 OA
ATOM     10  H   UNL A   1      31.912  24.236  27.699  1.00  0.00     0.164 HD
BRANCH   8  11
ATOM     11  C   UNL A   1      33.213  21.582  25.938  1.00  0.00     0.063 A 
ATOM     12  C   UNL A   1      34.532  21.202  25.590  1.00  0.00     0.051 A 
ATOM     13  C   UNL A   1      34.800  20.129  24.687  1.00  0.00     0.027 A 
ATOM     14  C   UNL A   1      33.792  19.301  24.234  1.00  0.00     0.002 A 
ATOM     15  C   UNL A   1      32.214  20.723  25.395  1.00  0.00     0.016 A 
ATOM     16  C   UNL A   1      32.494  19.590  24.604  1.00  0.00     0.001 A 
BRANCH  12  17
ATOM     17  N   UNL A   1      35.656  21.483  26.362  1.00  0.00    -0.352 N 
ATOM     18  H   UNL A   1      35.617  21.295  27.327  1.00  0.00     0.167 HD
BRANCH  17  19
ATOM     19  C   UNL A   1      36.846  22.022  25.830  1.00  0.00     0.077 A 
ATOM     20  C   UNL A   1      40.573  21.170  26.323  1.00  0.00     0.046 C 
ATOM     21  C   UNL A   1      39.269  21.883  26.126  1.00  0.00    -0.030 A 
ATOM     22  C   UNL A   1      39.212  23.232  26.358  1.00  0.00     0.006 A 
ATOM     23  C   UNL A   1      38.075  21.293  25.753  1.00  0.00     0.069 A 
ATOM     24  C   UNL A   1      38.051  23.993  26.098  1.00  0.00     0.023 A 
ATOM     25  Cl  UNL A   1      38.150  19.686  25.121  1.00  0.00    -0.082 Cl
ATOM     26  C   UNL A   1      36.860  23.401  25.813  1.00  0.00     0.066 A 
ATOM     27  Cl  UNL A   1      35.431  24.371  25.757  1.00  0.00    -0.082 Cl
ENDBRANCH  17  19
ENDBRANCH  12  17
ENDBRANCH   8  11
ENDBRANCH   5   7
ENDBRANCH   3   5
ENDBRANCH   2   3
ENDBRANCH   1   2
BRANCH   1  28
ATOM     28  C   UNL A   1      31.786  29.726  26.821  1.00  0.00     0.275 C 
BRANCH  28  29
ATOM     29  O   UNL A   1      33.107  30.269  26.417  1.00  0.00    -0.458 OA
BRANCH  29  30
ATOM     30  C   UNL A   1      33.664  31.308  27.168  1.00  0.00     0.338 C 
ATOM     31  O   UNL A   1      33.040  32.314  27.473  1.00  0.00    -0.246 OA
BRANCH  30  32
ATOM     32  C   UNL A   1      35.046  31.008  27.790  1.00  0.00     0.060 A 
ATOM     33  C   UNL A   1      35.346  29.780  28.357  1.00  0.00     0.016 A 
ATOM     34  C   UNL A   1      36.012  32.016  28.004  1.00  0.00     0.016 A 
ATOM     35  C   UNL A   1      36.434  29.638  29.259  1.00  0.00     0.010 A 
ATOM     36  C   UNL A   1      37.224  31.787  28.753  1.00  0.00     0.010 A 
ATOM     37  C   UNL A   1      37.476  30.572  29.408  1.00  0.00    -0.014 A 
BRANCH  37  38
ATOM     38  C   UNL A   1      38.790  30.178  30.116  1.00  0.00     0.031 A 
ATOM     39  C   UNL A   1      39.834  29.186  29.571  1.00  0.00     0.074 A 
ATOM     40  C   UNL A   1      39.095  30.705  31.336  1.00  0.00     0.049 A 
ATOM     41  N   UNL A   1      40.827  28.591  30.208  1.00  0.00    -0.248 NA
ATOM     42  C   UNL A   1      39.787  28.840  28.146  1.00  0.00     0.031 C 
ATOM     43  C   UNL A   1      38.314  31.707  32.065  1.00  0.00     0.029 A 
ATOM     44  N   UNL A   1      40.155  30.465  32.200  1.00  0.00    -0.354 N 
ATOM     45  C   UNL A   1      41.483  27.775  29.282  1.00  0.00     0.074 A 
ATOM     46  C   UNL A   1      40.796  27.980  28.022  1.00  0.00     0.031 C 
ATOM     47  C   UNL A   1      38.946  32.062  33.184  1.00  0.00     0.029 A 
ATOM     48  C   UNL A   1      40.061  31.156  33.391  1.00  0.00     0.049 A 
ATOM     49  H   UNL A   1      40.901  29.861  31.984  1.00  0.00     0.167 HD
ATOM     50  C   UNL A   1      42.533  26.920  29.455  1.00  0.00     0.031 A 
ATOM     51  C   UNL A   1      40.668  31.035  34.589  1.00  0.00     0.031 A 
ATOM     52  C   UNL A   1      43.250  26.704  30.696  1.00  0.00     0.049 A 
ATOM     53  C   UNL A   1      41.685  29.970  34.822  1.00  0.00     0.074 A 
ATOM     54  C   UNL A   1      44.313  25.840  30.940  1.00  0.00     0.029 A 
ATOM     55  N   UNL A   1      42.991  27.339  31.898  1.00  0.00    -0.354 N 
ATOM     56  N   UNL A   1      42.193  29.125  33.964  1.00  0.00    -0.248 NA
ATOM     57  C   UNL A   1      42.179  29.814  36.198  1.00  0.00     0.031 C 
ATOM     58  C   UNL A   1      44.646  25.906  32.298  1.00  0.00     0.029 A 
ATOM     59  C   UNL A   1      43.837  26.856  32.890  1.00  0.00     0.049 A 
ATOM     60  H   UNL A   1      42.305  28.034  32.031  1.00  0.00     0.167 HD
ATOM     61  C   UNL A   1      43.065  28.331  34.697  1.00  0.00     0.074 A 
ATOM     62  C   UNL A   1      43.036  28.812  36.062  1.00  0.00     0.031 C 
ATOM     63  C   UNL A   1      43.812  27.291  34.261  1.00  0.00     0.031 A 
BRANCH  50  64
ATOM     64  C   UNL A   1      42.962  26.049  28.288  1.00  0.00    -0.014 A 
ATOM     65  C   UNL A   1      43.999  26.420  27.415  1.00  0.00     0.010 A 
ATOM     66  C   UNL A   1      42.401  24.760  28.159  1.00  0.00     0.010 A 
ATOM     67  C   UNL A   1      44.440  25.536  26.417  1.00  0.00     0.020 A 
ATOM     68  C   UNL A   1      42.853  23.868  27.179  1.00  0.00     0.020 A 
ATOM     69  C   UNL A   1      43.859  24.268  26.301  1.00  0.00     0.054 A 
BRANCH  69  70
ATOM     70  S   UNL A   1      44.458  23.135  25.013  1.00  0.00     0.124 S 
ATOM     71  O   UNL A   1      45.055  22.064  25.807  1.00  0.00    -0.237 OA
ATOM     72  O   UNL A   1      43.235  22.779  24.298  1.00  0.00    -0.237 OA
ATOM     73  O   UNL A   1      45.407  23.944  24.251  1.00  0.00    -0.744 OA
ENDBRANCH  69  70
ENDBRANCH  50  64
BRANCH  51  74
ATOM     74  C   UNL A   1      40.182  31.872  35.726  1.00  0.00    -0.014 A 
ATOM     75  C   UNL A   1      39.010  31.536  36.420  1.00  0.00     0.010 A 
ATOM     76  C   UNL A   1      40.948  32.975  36.158  1.00  0.00     0.010 A 
ATOM     77  C   UNL A   1      38.628  32.273  37.546  1.00  0.00     0.020 A 
ATOM     78  C   UNL A   1      40.591  33.685  37.303  1.00  0.00     0.020 A 
ATOM     79  C   UNL A   1      39.429  33.331  37.989  1.00  0.00     0.054 A 
BRANCH  79  80
ATOM     80  S   UNL A   1      38.986  34.192  39.522  1.00  0.00     0.124 S 
ATOM     81  O   UNL A   1      38.899  35.578  39.077  1.00  0.00    -0.237 OA
ATOM     82  O   UNL A   1      37.719  33.561  39.886  1.00  0.00    -0.237 OA
ATOM     83  O   UNL A   1      40.100  33.886  40.417  1.00  0.00    -0.744 OA
ENDBRANCH  79  80
ENDBRANCH  51  74
BRANCH  63  84
ATOM     84  C   UNL A   1      44.684  26.599  35.273  1.00  0.00    -0.014 A 
ATOM     85  C   UNL A   1      44.157  25.609  36.122  1.00  0.00     0.010 A 
ATOM     86  C   UNL A   1      46.042  26.942  35.386  1.00  0.00     0.010 A 
ATOM     87  C   UNL A   1      44.967  24.992  37.082  1.00  0.00     0.020 A 
ATOM     88  C   UNL A   1      46.861  26.313  36.329  1.00  0.00     0.020 A 
ATOM     89  C   UNL A   1      46.314  25.350  37.181  1.00  0.00     0.054 A 
BRANCH  89  90
ATOM     90  S   UNL A   1      47.352  24.516  38.414  1.00  0.00     0.124 S 
ATOM     91  O   UNL A   1      48.485  25.429  38.527  1.00  0.00    -0.237 OA
ATOM     92  O   UNL A   1      46.476  24.454  39.581  1.00  0.00    -0.237 OA
ATOM     93  O   UNL A   1      47.651  23.224  37.800  1.00  0.00    -0.744 OA
ENDBRANCH  89  90
ENDBRANCH  63  84
ENDBRANCH  37  38
ENDBRANCH  30  32
ENDBRANCH  29  30
ENDBRANCH  28  29
ENDBRANCH   1  28
TORSDOF 18
ENDMDL
MODEL 2
REMARK VINA RESULT:     -10.7      2.221      3.491
REMARK SMILES Cc1ccc(Cl)c(Nc2ccccc2C(=O)N[C@@H](C)C(=O)OCCOC(=O)c2ccc(-c3c4nc(c(-c5ccc(S(=O)(=O)[O-])cc5)c5ccc([nH]5)c(-c5ccc(S(=O)(=O)[O-])cc5)c5nc(c(-c6ccc(S(=O)(=O)[O-])cc6)c6ccc3[nH]6)C=C5)C=C4)cc2)c1Cl
REMARK SMILES IDX 23 1 22 2 20 3 21 4 18 5 19 6 17 7 15 8 16 9 14 11 9 12
REMARK SMILES IDX 10 13 11 14 13 15 12 16 8 17 7 19 1 20 2 21 3 22 88 23 4 24
REMARK SMILES IDX 89 25 5 26 6 27 24 28 25 29 26 30 27 31 28 32 29 33 87 34
REMARK SMILES IDX 30 35 86 36 31 37 32 38 33 39 80 40 34 41 85 42 79 43 81 44
REMARK SMILES IDX 35 45 84 46 78 47 77 48 36 50 66 51 47 52 65 53 48 54 51 55
REMARK SMILES IDX 64 56 82 57 49 58 50 59 63 61 83 62 52 63 37 64 38 65 46 66
REMARK SMILES IDX 39 67 45 68 40 69 41 70 42 71 43 72 44 73 67 74 68 75 76 76
REMARK SMILES IDX 69 77 75 78 70 79 71 80 72 81 73 82 74 83 53 84 54 85 62 86
REMARK SMILES IDX 55 87 61 88 56 89 57 90 58 91 59 92 60 93
REMARK H PARENT 17 10 8 18 81 49 51 60
REMARK Flexibility Score: inf
ROOT
ATOM      1  C   UNL A   1      31.404  31.213  26.148  1.00  0.00     0.274 C 
ENDROOT
BRANCH   1   2
ATOM      2  O   UNL A   1      31.533  29.745  25.951  1.00  0.00    -0.461 OA
BRANCH   2   3
ATOM      3  C   UNL A   1      32.091  28.854  26.852  1.00  0.00     0.328 C 
ATOM      4  O   UNL A   1      31.497  28.436  27.825  1.00  0.00    -0.250 OA
BRANCH   3   5
ATOM      5  C   UNL A   1      33.621  28.438  26.481  1.00  0.00     0.189 C 
ATOM      6  C   UNL A   1      34.603  29.293  27.281  1.00  0.00     0.043 C 
BRANCH   5   7
ATOM      7  N   UNL A   1      33.899  28.561  25.014  1.00  0.00    -0.339 N 
ATOM      8  C   UNL A   1      34.023  27.874  23.818  1.00  0.00     0.254 C 
ATOM      9  O   UNL A   1      34.446  28.659  22.945  1.00  0.00    -0.269 OA
ATOM     10  H   UNL A   1      34.055  29.514  24.824  1.00  0.00     0.164 HD
BRANCH   8  11
ATOM     11  C   UNL A   1      33.774  26.433  23.318  1.00  0.00     0.063 A 
ATOM     12  C   UNL A   1      33.822  25.168  23.951  1.00  0.00     0.051 A 
ATOM     13  C   UNL A   1      33.488  23.962  23.264  1.00  0.00     0.027 A 
ATOM     14  C   UNL A   1      32.942  23.983  21.995  1.00  0.00     0.002 A 
ATOM     15  C   UNL A   1      33.255  26.384  21.991  1.00  0.00     0.016 A 
ATOM     16  C   UNL A   1      32.810  25.203  21.363  1.00  0.00     0.001 A 
BRANCH  12  17
ATOM     17  N   UNL A   1      33.755  24.980  25.328  1.00  0.00    -0.352 N 
ATOM     18  H   UNL A   1      33.379  25.703  25.879  1.00  0.00     0.167 HD
BRANCH  17  19
ATOM     19  C   UNL A   1      34.199  23.806  25.972  1.00  0.00     0.077 A 
ATOM     20  C   UNL A   1      36.747  21.078  25.009  1.00  0.00     0.046 C 
ATOM     21  C   UNL A   1      35.552  21.818  25.531  1.00  0.00    -0.030 A 
ATOM     22  C   UNL A   1      34.423  21.109  25.849  1.00  0.00     0.006 A 
ATOM     23  C   UNL A   1      35.460  23.187  25.699  1.00  0.00     0.069 A 
ATOM     24  C   UNL A   1      33.294  21.715  26.441  1.00  0.00     0.023 A 
ATOM     25  Cl  UNL A   1      36.933  24.090  25.645  1.00  0.00    -0.082 Cl
ATOM     26  C   UNL A   1      33.175  23.068  26.527  1.00  0.00     0.066 A 
ATOM     27  Cl  UNL A   1      31.667  23.749  27.026  1.00  0.00    -0.082 Cl
ENDBRANCH  17  19
ENDBRANCH  12  17
ENDBRANCH   8  11
ENDBRANCH   5   7
ENDBRANCH   3   5
ENDBRANCH   2   3
ENDBRANCH   1   2
BRANCH   1  28
ATOM     28  C   UNL A   1      32.212  32.017  27.311  1.00  0.00     0.275 C 
BRANCH  28  29
ATOM     29  O   UNL A   1      32.546  33.453  27.136  1.00  0.00    -0.458 OA
BRANCH  29  30
ATOM     30  C   UNL A   1      33.054  34.162  28.228  1.00  0.00     0.338 C 
ATOM     31  O   UNL A   1      32.415  35.024  28.814  1.00  0.00    -0.246 OA
BRANCH  30  32
ATOM     32  C   UNL A   1      34.387  33.631  28.800  1.00  0.00     0.060 A 
ATOM     33  C   UNL A   1      34.429  32.743  29.861  1.00  0.00     0.016 A 
ATOM     34  C   UNL A   1      35.638  34.167  28.418  1.00  0.00     0.016 A 
ATOM     35  C   UNL A   1      35.615  32.574  30.625  1.00  0.00     0.010 A 
ATOM     36  C   UNL A   1      36.870  33.815  29.081  1.00  0.00     0.010 A 
ATOM     37  C   UNL A   1      36.896  32.992  30.217  1.00  0.00    -0.014 A 
BRANCH  37  38
ATOM     38  C   UNL A   1      38.161  32.447  30.915  1.00  0.00     0.031 A 
ATOM     39  C   UNL A   1      39.000  31.251  30.431  1.00  0.00     0.074 A 
ATOM     40  C   UNL A   1      38.606  33.020  32.069  1.00  0.00     0.049 A 
ATOM     41  N   UNL A   1      39.913  30.556  31.088  1.00  0.00    -0.248 NA
ATOM     42  C   UNL A   1      38.828  30.795  29.047  1.00  0.00     0.031 C 
ATOM     43  C   UNL A   1      38.036  34.198  32.726  1.00  0.00     0.029 A 
ATOM     44  N   UNL A   1      39.653  32.682  32.916  1.00  0.00    -0.354 N 
ATOM     45  C   UNL A   1      40.381  29.564  30.221  1.00  0.00     0.074 A 
ATOM     46  C   UNL A   1      39.676  29.771  28.971  1.00  0.00     0.031 C 
ATOM     47  C   UNL A   1      38.771  34.538  33.786  1.00  0.00     0.029 A 
ATOM     48  C   UNL A   1      39.731  33.481  34.039  1.00  0.00     0.049 A 
ATOM     49  H   UNL A   1      40.279  31.945  32.733  1.00  0.00     0.167 HD
ATOM     50  C   UNL A   1      41.284  28.564  30.438  1.00  0.00     0.031 A 
ATOM     51  C   UNL A   1      40.368  33.365  35.223  1.00  0.00     0.031 A 
ATOM     52  C   UNL A   1      42.015  28.340  31.669  1.00  0.00     0.049 A 
ATOM     53  C   UNL A   1      41.207  32.168  35.521  1.00  0.00     0.074 A 
ATOM     54  C   UNL A   1      42.933  27.336  31.958  1.00  0.00     0.029 A 
ATOM     55  N   UNL A   1      41.922  29.112  32.814  1.00  0.00    -0.354 N 
ATOM     56  N   UNL A   1      41.528  31.179  34.729  1.00  0.00    -0.248 NA
ATOM     57  C   UNL A   1      41.735  32.053  36.888  1.00  0.00     0.031 C 
ATOM     58  C   UNL A   1      43.338  27.462  33.292  1.00  0.00     0.029 A 
ATOM     59  C   UNL A   1      42.725  28.582  33.818  1.00  0.00     0.049 A 
ATOM     60  H   UNL A   1      41.366  29.920  32.904  1.00  0.00     0.167 HD
ATOM     61  C   UNL A   1      42.293  30.318  35.504  1.00  0.00     0.074 A 
ATOM     62  C   UNL A   1      42.409  30.913  36.818  1.00  0.00     0.031 C 
ATOM     63  C   UNL A   1      42.838  29.134  35.143  1.00  0.00     0.031 A 
BRANCH  50  64
ATOM     64  C   UNL A   1      41.508  27.535  29.344  1.00  0.00    -0.014 A 
ATOM     65  C   UNL A   1      42.659  27.536  28.537  1.00  0.00     0.010 A 
ATOM     66  C   UNL A   1      40.603  26.459  29.228  1.00  0.00     0.010 A 
ATOM     67  C   UNL A   1      42.880  26.501  27.614  1.00  0.00     0.020 A 
ATOM     68  C   UNL A   1      40.831  25.415  28.324  1.00  0.00     0.020 A 
ATOM     69  C   UNL A   1      41.960  25.451  27.508  1.00  0.00     0.054 A 
BRANCH  69  70
ATOM     70  S   UNL A   1      42.277  24.115  26.317  1.00  0.00     0.124 S 
ATOM     71  O   UNL A   1      40.964  23.484  26.215  1.00  0.00    -0.237 OA
ATOM     72  O   UNL A   1      42.719  24.838  25.127  1.00  0.00    -0.237 OA
ATOM     73  O   UNL A   1      43.306  23.306  26.966  1.00  0.00    -0.744 OA
ENDBRANCH  69  70
ENDBRANCH  50  64
BRANCH  51  74
ATOM     74  C   UNL A   1      40.081  34.366  36.291  1.00  0.00    -0.014 A 
ATOM     75  C   UNL A   1      39.094  34.126  37.259  1.00  0.00     0.010 A 
ATOM     76  C   UNL A   1      40.860  35.539  36.376  1.00  0.00     0.010 A 
ATOM     77  C   UNL A   1      38.912  35.030  38.311  1.00  0.00     0.020 A 
ATOM     78  C   UNL A   1      40.707  36.420  37.445  1.00  0.00     0.020 A 
ATOM     79  C   UNL A   1      39.730  36.162  38.406  1.00  0.00     0.054 A 
BRANCH  79  80
ATOM     80  S   UNL A   1      39.564  37.253  39.844  1.00  0.00     0.124 S 
ATOM     81  O   UNL A   1      39.241  36.307  40.906  1.00  0.00    -0.237 OA
ATOM     82  O   UNL A   1      40.885  37.873  39.927  1.00  0.00    -0.237 OA
ATOM     83  O   UNL A   1      38.485  38.161  39.459  1.00  0.00    -0.744 OA
ENDBRANCH  79  80
ENDBRANCH  51  74
BRANCH  63  84
ATOM     84  C   UNL A   1      43.633  28.396  36.186  1.00  0.00    -0.014 A 
ATOM     85  C   UNL A   1      44.931  28.813  36.533  1.00  0.00     0.010 A 
ATOM     86  C   UNL A   1      43.083  27.272  36.827  1.00  0.00     0.010 A 
ATOM     87  C   UNL A   1      45.675  28.103  37.482  1.00  0.00     0.020 A 
ATOM     88  C   UNL A   1      43.815  26.572  37.791  1.00  0.00     0.020 A 
ATOM     89  C   UNL A   1      45.112  26.985  38.103  1.00  0.00     0.054 A 
BRANCH  89  90
ATOM     90  S   UNL A   1      46.086  26.097  39.352  1.00  0.00     0.124 S 
ATOM     91  O   UNL A   1      45.829  26.885  40.555  1.00  0.00    -0.237 OA
ATOM     92  O   UNL A   1      45.489  24.764  39.335  1.00  0.00    -0.237 OA
ATOM     93  O   UNL A   1      47.453  26.167  38.841  1.00  0.00    -0.744 OA
ENDBRANCH  89  90
ENDBRANCH  63  84
ENDBRANCH  37  38
ENDBRANCH  30  32
ENDBRANCH  29  30
ENDBRANCH  28  29
ENDBRANCH   1  28
TORSDOF 18
ENDMDL
MODEL 3
REMARK VINA RESULT:     -10.7      5.538      8.524
REMARK SMILES Cc1ccc(Cl)c(Nc2ccccc2C(=O)N[C@@H](C)C(=O)OCCOC(=O)c2ccc(-c3c4nc(c(-c5ccc(S(=O)(=O)[O-])cc5)c5ccc([nH]5)c(-c5ccc(S(=O)(=O)[O-])cc5)c5nc(c(-c6ccc(S(=O)(=O)[O-])cc6)c6ccc3[nH]6)C=C5)C=C4)cc2)c1Cl
REMARK SMILES IDX 23 1 22 2 20 3 21 4 18 5 19 6 17 7 15 8 16 9 14 11 9 12
REMARK SMILES IDX 10 13 11 14 13 15 12 16 8 17 7 19 1 20 2 21 3 22 88 23 4 24
REMARK SMILES IDX 89 25 5 26 6 27 24 28 25 29 26 30 27 31 28 32 29 33 87 34
REMARK SMILES IDX 30 35 86 36 31 37 32 38 33 39 80 40 34 41 85 42 79 43 81 44
REMARK SMILES IDX 35 45 84 46 78 47 77 48 36 50 66 51 47 52 65 53 48 54 51 55
REMARK SMILES IDX 64 56 82 57 49 58 50 59 63 61 83 62 52 63 37 64 38 65 46 66
REMARK SMILES IDX 39 67 45 68 40 69 41 70 42 71 43 72 44 73 67 74 68 75 76 76
REMARK SMILES IDX 69 77 75 78 70 79 71 80 72 81 73 82 74 83 53 84 54 85 62 86
REMARK SMILES IDX 55 87 61 88 56 89 57 90 58 91 59 92 60 93
REMARK H PARENT 17 10 8 18 81 49 51 60
REMARK Flexibility Score: inf
ROOT
ATOM      1  C   UNL A   1      34.800  32.996  29.872  1.00  0.00     0.274 C 
ENDROOT
BRANCH   1   2
ATOM      2  O   UNL A   1      34.094  32.219  28.819  1.00  0.00    -0.461 OA
BRANCH   2   3
ATOM      3  C   UNL A   1      34.670  31.272  27.989  1.00  0.00     0.328 C 
ATOM      4  O   UNL A   1      35.816  30.894  28.111  1.00  0.00    -0.250 OA
BRANCH   3   5
ATOM      5  C   UNL A   1      33.658  30.729  26.833  1.00  0.00     0.189 C 
ATOM      6  C   UNL A   1      32.223  31.140  27.162  1.00  0.00     0.043 C 
BRANCH   5   7
ATOM      7  N   UNL A   1      33.747  29.244  26.658  1.00  0.00    -0.339 N 
ATOM      8  C   UNL A   1      33.309  28.158  25.919  1.00  0.00     0.254 C 
ATOM      9  O   UNL A   1      33.713  27.111  26.464  1.00  0.00    -0.269 OA
ATOM     10  H   UNL A   1      34.367  28.904  27.342  1.00  0.00     0.164 HD
BRANCH   8  11
ATOM     11  C   UNL A   1      32.479  27.932  24.635  1.00  0.00     0.063 A 
ATOM     12  C   UNL A   1      32.391  26.858  23.716  1.00  0.00     0.051 A 
ATOM     13  C   UNL A   1      31.485  26.874  22.613  1.00  0.00     0.027 A 
ATOM     14  C   UNL A   1      30.531  27.863  22.479  1.00  0.00     0.002 A 
ATOM     15  C   UNL A   1      31.506  28.949  24.411  1.00  0.00     0.016 A 
ATOM     16  C   UNL A   1      30.532  28.898  23.394  1.00  0.00     0.001 A 
BRANCH  12  17
ATOM     17  N   UNL A   1      32.801  25.557  23.994  1.00  0.00    -0.352 N 
ATOM     18  H   UNL A   1      33.762  25.387  24.119  1.00  0.00     0.167 HD
BRANCH  17  19
ATOM     19  C   UNL A   1      31.907  24.471  24.105  1.00  0.00     0.077 A 
ATOM     20  C   UNL A   1      30.026  22.905  27.084  1.00  0.00     0.046 C 
ATOM     21  C   UNL A   1      30.792  23.123  25.813  1.00  0.00    -0.030 A 
ATOM     22  C   UNL A   1      31.418  22.054  25.227  1.00  0.00     0.006 A 
ATOM     23  C   UNL A   1      30.962  24.335  25.172  1.00  0.00     0.069 A 
ATOM     24  C   UNL A   1      32.071  22.154  23.980  1.00  0.00     0.023 A 
ATOM     25  Cl  UNL A   1      29.934  25.638  25.657  1.00  0.00    -0.082 Cl
ATOM     26  C   UNL A   1      32.308  23.359  23.394  1.00  0.00     0.066 A 
ATOM     27  Cl  UNL A   1      33.330  23.432  22.003  1.00  0.00    -0.082 Cl
ENDBRANCH  17  19
ENDBRANCH  12  17
ENDBRANCH   8  11
ENDBRANCH   5   7
ENDBRANCH   3   5
ENDBRANCH   2   3
ENDBRANCH   1   2
BRANCH   1  28
ATOM     28  C   UNL A   1      35.174  32.365  31.326  1.00  0.00     0.275 C 
BRANCH  28  29
ATOM     29  O   UNL A   1      36.228  31.327  31.444  1.00  0.00    -0.458 OA
BRANCH  29  30
ATOM     30  C   UNL A   1      37.435  31.663  32.064  1.00  0.00     0.338 C 
ATOM     31  O   UNL A   1      37.495  32.101  33.204  1.00  0.00    -0.246 OA
BRANCH  30  32
ATOM     32  C   UNL A   1      38.711  31.232  31.307  1.00  0.00     0.060 A 
ATOM     33  C   UNL A   1      38.785  31.247  29.925  1.00  0.00     0.016 A 
ATOM     34  C   UNL A   1      39.799  30.609  31.958  1.00  0.00     0.016 A 
ATOM     35  C   UNL A   1      39.775  30.494  29.239  1.00  0.00     0.010 A 
ATOM     36  C   UNL A   1      40.909  30.032  31.239  1.00  0.00     0.010 A 
ATOM     37  C   UNL A   1      40.932  29.961  29.838  1.00  0.00    -0.014 A 
BRANCH  37  38
ATOM     38  C   UNL A   1      42.121  29.492  28.972  1.00  0.00     0.031 A 
ATOM     39  C   UNL A   1      42.305  28.074  28.402  1.00  0.00     0.074 A 
ATOM     40  C   UNL A   1      43.132  30.357  28.671  1.00  0.00     0.049 A 
ATOM     41  N   UNL A   1      43.391  27.516  27.896  1.00  0.00    -0.248 NA
ATOM     42  C   UNL A   1      41.139  27.184  28.361  1.00  0.00     0.031 C 
ATOM     43  C   UNL A   1      43.194  31.774  29.035  1.00  0.00     0.029 A 
ATOM     44  N   UNL A   1      44.325  30.171  27.987  1.00  0.00    -0.354 N 
ATOM     45  C   UNL A   1      43.052  26.211  27.526  1.00  0.00     0.074 A 
ATOM     46  C   UNL A   1      41.642  26.070  27.833  1.00  0.00     0.031 C 
ATOM     47  C   UNL A   1      44.279  32.341  28.507  1.00  0.00     0.029 A 
ATOM     48  C   UNL A   1      45.125  31.296  27.960  1.00  0.00     0.049 A 
ATOM     49  H   UNL A   1      44.576  29.320  27.561  1.00  0.00     0.167 HD
ATOM     50  C   UNL A   1      43.829  25.216  27.009  1.00  0.00     0.031 A 
ATOM     51  C   UNL A   1      46.426  31.507  27.676  1.00  0.00     0.031 A 
ATOM     52  C   UNL A   1      45.236  25.329  26.678  1.00  0.00     0.049 A 
ATOM     53  C   UNL A   1      47.315  30.373  27.291  1.00  0.00     0.074 A 
ATOM     54  C   UNL A   1      46.083  24.353  26.165  1.00  0.00     0.029 A 
ATOM     55  N   UNL A   1      46.009  26.468  26.823  1.00  0.00    -0.354 N 
ATOM     56  N   UNL A   1      46.996  29.124  27.077  1.00  0.00    -0.248 NA
ATOM     57  C   UNL A   1      48.748  30.671  27.153  1.00  0.00     0.031 C 
ATOM     58  C   UNL A   1      47.376  24.882  26.066  1.00  0.00     0.029 A 
ATOM     59  C   UNL A   1      47.324  26.206  26.456  1.00  0.00     0.049 A 
ATOM     60  H   UNL A   1      45.675  27.338  27.142  1.00  0.00     0.167 HD
ATOM     61  C   UNL A   1      48.192  28.482  26.781  1.00  0.00     0.074 A 
ATOM     62  C   UNL A   1      49.236  29.484  26.819  1.00  0.00     0.031 C 
ATOM     63  C   UNL A   1      48.390  27.171  26.511  1.00  0.00     0.031 A 
BRANCH  50  64
ATOM     64  C   UNL A   1      43.220  23.838  26.824  1.00  0.00    -0.014 A 
ATOM     65  C   UNL A   1      42.862  23.337  25.560  1.00  0.00     0.010 A 
ATOM     66  C   UNL A   1      43.141  22.974  27.938  1.00  0.00     0.010 A 
ATOM     67  C   UNL A   1      42.407  22.017  25.420  1.00  0.00     0.020 A 
ATOM     68  C   UNL A   1      42.708  21.650  27.799  1.00  0.00     0.020 A 
ATOM     69  C   UNL A   1      42.326  21.183  26.542  1.00  0.00     0.054 A 
BRANCH  69  70
ATOM     70  S   UNL A   1      41.749  19.473  26.333  1.00  0.00     0.124 S 
ATOM     71  O   UNL A   1      42.514  19.037  25.166  1.00  0.00    -0.237 OA
ATOM     72  O   UNL A   1      42.123  18.846  27.598  1.00  0.00    -0.237 OA
ATOM     73  O   UNL A   1      40.311  19.614  26.114  1.00  0.00    -0.744 OA
ENDBRANCH  69  70
ENDBRANCH  50  64
BRANCH  51  74
ATOM     74  C   UNL A   1      47.001  32.862  27.922  1.00  0.00    -0.014 A 
ATOM     75  C   UNL A   1      47.552  33.198  29.167  1.00  0.00     0.010 A 
ATOM     76  C   UNL A   1      47.060  33.797  26.867  1.00  0.00     0.010 A 
ATOM     77  C   UNL A   1      48.178  34.437  29.345  1.00  0.00     0.020 A 
ATOM     78  C   UNL A   1      47.718  35.015  27.030  1.00  0.00     0.020 A 
ATOM     79  C   UNL A   1      48.271  35.329  28.271  1.00  0.00     0.054 A 
BRANCH  79  80
ATOM     80  S   UNL A   1      49.196  36.874  28.485  1.00  0.00     0.124 S 
ATOM     81  O   UNL A   1      49.501  36.850  29.910  1.00  0.00    -0.237 OA
ATOM     82  O   UNL A   1      50.336  36.688  27.589  1.00  0.00    -0.237 OA
ATOM     83  O   UNL A   1      48.246  37.900  28.060  1.00  0.00    -0.744 OA
ENDBRANCH  79  80
ENDBRANCH  51  74
BRANCH  63  84
ATOM     84  C   UNL A   1      49.800  26.736  26.218  1.00  0.00    -0.014 A 
ATOM     85  C   UNL A   1      50.331  26.838  24.919  1.00  0.00     0.010 A 
ATOM     86  C   UNL A   1      50.605  26.214  27.245  1.00  0.00     0.010 A 
ATOM     87  C   UNL A   1      51.633  26.402  24.648  1.00  0.00     0.020 A 
ATOM     88  C   UNL A   1      51.914  25.796  26.984  1.00  0.00     0.020 A 
ATOM     89  C   UNL A   1      52.415  25.881  25.682  1.00  0.00     0.054 A 
BRANCH  89  90
ATOM     90  S   UNL A   1      54.111  25.348  25.313  1.00  0.00     0.124 S 
ATOM     91  O   UNL A   1      53.915  23.954  24.927  1.00  0.00    -0.237 OA
ATOM     92  O   UNL A   1      54.502  26.251  24.233  1.00  0.00    -0.237 OA
ATOM     93  O   UNL A   1      54.821  25.553  26.574  1.00  0.00    -0.744 OA
ENDBRANCH  89  90
ENDBRANCH  63  84
ENDBRANCH  37  38
ENDBRANCH  30  32
ENDBRANCH  29  30
ENDBRANCH  28  29
ENDBRANCH   1  28
TORSDOF 18
ENDMDL
