MODEL 1
REMARK VINA RESULT:     -10.4      0.000      0.000
REMARK SMILES CCOc1cc(OCC)cc(-c2ccc([C@@H](C)C(=O)OCCOC(=O)c3ccc(-c4c5nc(c(-c6ccc(S(=O)(=O)[O-])cc6)c6ccc([nH]6)c(-c6ccc(S(=O)(=O)[O-])cc6)c6nc(c(-c7ccc(S(=O)(=O)[O-])cc7)c7ccc4[nH]7)C=C6)C=C5)cc3)cc2F)c1
REMARK SMILES IDX 21 1 20 2 18 3 19 4 16 5 17 6 15 7 12 8 13 9 87 10 14 11
REMARK SMILES IDX 86 12 88 13 11 14 4 15 5 16 89 17 6 18 10 19 3 20 2 21 1 22
REMARK SMILES IDX 7 23 8 24 9 25 22 26 23 27 24 28 25 29 26 30 27 31 85 32
REMARK SMILES IDX 28 33 84 34 29 35 30 36 31 37 78 38 32 39 83 40 77 41 79 42
REMARK SMILES IDX 33 43 82 44 76 45 75 46 34 48 64 49 45 50 63 51 46 52 49 53
REMARK SMILES IDX 62 54 80 55 47 56 48 57 61 59 81 60 50 61 35 62 36 63 44 64
REMARK SMILES IDX 37 65 43 66 38 67 39 68 40 69 41 70 42 71 65 72 66 73 74 74
REMARK SMILES IDX 67 75 73 76 68 77 69 78 70 79 71 80 72 81 51 82 52 83 60 84
REMARK SMILES IDX 53 85 59 86 54 87 55 88 56 89 57 90 58 91
REMARK H PARENT 79 47 49 58
REMARK Flexibility Score: inf
ROOT
ATOM      1  C   UNL A   1      34.707  33.042  32.569  1.00  0.00     0.274 C 
ENDROOT
BRANCH   1   2
ATOM      2  O   UNL A   1      34.276  32.510  31.301  1.00  0.00    -0.462 OA
BRANCH   2   3
ATOM      3  C   UNL A   1      34.247  33.373  30.251  1.00  0.00     0.313 C 
ATOM      4  O   UNL A   1      33.514  34.354  30.187  1.00  0.00    -0.252 OA
BRANCH   3   5
ATOM      5  C   UNL A   1      35.175  32.977  29.107  1.00  0.00     0.126 C 
ATOM      6  C   UNL A   1      35.430  34.182  28.203  1.00  0.00     0.025 C 
BRANCH   5   7
ATOM      7  C   UNL A   1      34.765  31.744  28.315  1.00  0.00    -0.031 A 
ATOM      8  C   UNL A   1      33.933  29.448  26.855  1.00  0.00     0.018 A 
ATOM      9  C   UNL A   1      35.138  29.457  27.579  1.00  0.00     0.012 A 
ATOM     10  C   UNL A   1      33.172  30.619  26.858  1.00  0.00     0.131 A 
ATOM     11  C   UNL A   1      35.544  30.581  28.301  1.00  0.00     0.005 A 
ATOM     12  C   UNL A   1      33.567  31.744  27.582  1.00  0.00     0.044 A 
ATOM     13  F   UNL A   1      32.006  30.674  26.196  1.00  0.00    -0.206 F 
BRANCH   8  14
ATOM     14  C   UNL A   1      33.479  28.222  26.186  1.00  0.00    -0.008 A 
ATOM     15  C   UNL A   1      33.432  26.703  24.297  1.00  0.00     0.123 A 
ATOM     16  C   UNL A   1      32.569  25.850  24.986  1.00  0.00     0.092 A 
ATOM     17  C   UNL A   1      33.866  27.892  24.882  1.00  0.00     0.055 A 
ATOM     18  C   UNL A   1      32.144  26.174  26.274  1.00  0.00     0.123 A 
ATOM     19  C   UNL A   1      32.609  27.349  26.864  1.00  0.00     0.055 A 
BRANCH  15  20
ATOM     20  O   UNL A   1      33.728  26.395  22.998  1.00  0.00    -0.494 OA
BRANCH  20  21
ATOM     21  C   UNL A   1      32.626  26.565  22.099  1.00  0.00     0.226 C 
ATOM     22  C   UNL A   1      32.621  25.511  21.004  1.00  0.00     0.049 C 
ENDBRANCH  20  21
ENDBRANCH  15  20
BRANCH  18  23
ATOM     23  O   UNL A   1      31.303  25.276  26.875  1.00  0.00    -0.494 OA
BRANCH  23  24
ATOM     24  C   UNL A   1      31.488  23.893  26.563  1.00  0.00     0.226 C 
ATOM     25  C   UNL A   1      30.241  23.085  26.887  1.00  0.00     0.049 C 
ENDBRANCH  23  24
ENDBRANCH  18  23
ENDBRANCH   8  14
ENDBRANCH   5   7
ENDBRANCH   3   5
ENDBRANCH   2   3
ENDBRANCH   1   2
BRANCH   1  26
ATOM     26  C   UNL A   1      35.982  32.350  33.055  1.00  0.00     0.275 C 
BRANCH  26  27
ATOM     27  O   UNL A   1      36.852  32.033  31.953  1.00  0.00    -0.458 OA
BRANCH  27  28
ATOM     28  C   UNL A   1      37.048  30.711  31.745  1.00  0.00     0.338 C 
ATOM     29  O   UNL A   1      36.223  29.818  31.833  1.00  0.00    -0.246 OA
BRANCH  28  30
ATOM     30  C   UNL A   1      38.414  30.487  31.247  1.00  0.00     0.060 A 
ATOM     31  C   UNL A   1      38.634  30.624  29.877  1.00  0.00     0.016 A 
ATOM     32  C   UNL A   1      39.440  30.056  32.089  1.00  0.00     0.016 A 
ATOM     33  C   UNL A   1      39.867  30.293  29.327  1.00  0.00     0.010 A 
ATOM     34  C   UNL A   1      40.690  29.745  31.539  1.00  0.00     0.010 A 
ATOM     35  C   UNL A   1      40.903  29.841  30.152  1.00  0.00    -0.014 A 
BRANCH  35  36
ATOM     36  C   UNL A   1      42.187  29.426  29.535  1.00  0.00     0.031 A 
ATOM     37  C   UNL A   1      43.342  30.385  29.484  1.00  0.00     0.074 A 
ATOM     38  C   UNL A   1      42.330  28.169  29.073  1.00  0.00     0.049 A 
ATOM     39  N   UNL A   1      44.539  30.208  28.984  1.00  0.00    -0.248 NA
ATOM     40  C   UNL A   1      43.126  31.715  30.072  1.00  0.00     0.031 C 
ATOM     41  C   UNL A   1      41.295  27.133  29.105  1.00  0.00     0.029 A 
ATOM     42  N   UNL A   1      43.409  27.545  28.500  1.00  0.00    -0.354 N 
ATOM     43  C   UNL A   1      45.212  31.408  29.178  1.00  0.00     0.074 A 
ATOM     44  C   UNL A   1      44.285  32.311  29.828  1.00  0.00     0.031 C 
ATOM     45  C   UNL A   1      41.795  25.999  28.588  1.00  0.00     0.029 A 
ATOM     46  C   UNL A   1      43.169  26.237  28.154  1.00  0.00     0.049 A 
ATOM     47  H   UNL A   1      44.273  27.992  28.349  1.00  0.00     0.167 HD
ATOM     48  C   UNL A   1      46.486  31.729  28.847  1.00  0.00     0.031 A 
ATOM     49  C   UNL A   1      43.960  25.334  27.543  1.00  0.00     0.031 A 
ATOM     50  C   UNL A   1      47.409  30.829  28.206  1.00  0.00     0.049 A 
ATOM     51  C   UNL A   1      45.359  25.726  27.156  1.00  0.00     0.074 A 
ATOM     52  C   UNL A   1      48.723  31.061  27.837  1.00  0.00     0.029 A 
ATOM     53  N   UNL A   1      47.117  29.523  27.844  1.00  0.00    -0.354 N 
ATOM     54  N   UNL A   1      45.976  26.868  27.341  1.00  0.00    -0.248 NA
ATOM     55  C   UNL A   1      46.169  24.704  26.478  1.00  0.00     0.031 C 
ATOM     56  C   UNL A   1      49.213  29.907  27.214  1.00  0.00     0.029 A 
ATOM     57  C   UNL A   1      48.219  28.942  27.238  1.00  0.00     0.049 A 
ATOM     58  H   UNL A   1      46.254  29.075  27.994  1.00  0.00     0.167 HD
ATOM     59  C   UNL A   1      47.250  26.699  26.815  1.00  0.00     0.074 A 
ATOM     60  C   UNL A   1      47.324  25.338  26.322  1.00  0.00     0.031 C 
ATOM     61  C   UNL A   1      48.270  27.590  26.744  1.00  0.00     0.031 A 
BRANCH  48  62
ATOM     62  C   UNL A   1      46.942  33.133  29.138  1.00  0.00    -0.014 A 
ATOM     63  C   UNL A   1      46.743  34.174  28.215  1.00  0.00     0.010 A 
ATOM     64  C   UNL A   1      47.556  33.419  30.372  1.00  0.00     0.010 A 
ATOM     65  C   UNL A   1      47.183  35.469  28.503  1.00  0.00     0.020 A 
ATOM     66  C   UNL A   1      47.978  34.717  30.673  1.00  0.00     0.020 A 
ATOM     67  C   UNL A   1      47.805  35.731  29.728  1.00  0.00     0.054 A 
BRANCH  67  68
ATOM     68  S   UNL A   1      48.357  37.421  30.088  1.00  0.00     0.124 S 
ATOM     69  O   UNL A   1      49.281  37.676  28.987  1.00  0.00    -0.237 OA
ATOM     70  O   UNL A   1      47.111  38.184  30.052  1.00  0.00    -0.237 OA
ATOM     71  O   UNL A   1      48.976  37.310  31.407  1.00  0.00    -0.744 OA
ENDBRANCH  67  68
ENDBRANCH  48  62
BRANCH  49  72
ATOM     72  C   UNL A   1      43.436  23.975  27.243  1.00  0.00    -0.014 A 
ATOM     73  C   UNL A   1      43.497  22.953  28.206  1.00  0.00     0.010 A 
ATOM     74  C   UNL A   1      42.858  23.703  25.990  1.00  0.00     0.010 A 
ATOM     75  C   UNL A   1      42.999  21.679  27.916  1.00  0.00     0.020 A 
ATOM     76  C   UNL A   1      42.337  22.438  25.706  1.00  0.00     0.020 A 
ATOM     77  C   UNL A   1      42.421  21.430  26.667  1.00  0.00     0.054 A 
BRANCH  77  78
ATOM     78  S   UNL A   1      41.723  19.790  26.330  1.00  0.00     0.124 S 
ATOM     79  O   UNL A   1      42.494  19.367  25.165  1.00  0.00    -0.237 OA
ATOM     80  O   UNL A   1      41.998  19.064  27.568  1.00  0.00    -0.237 OA
ATOM     81  O   UNL A   1      40.310  20.067  26.082  1.00  0.00    -0.744 OA
ENDBRANCH  77  78
ENDBRANCH  49  72
BRANCH  61  82
ATOM     82  C   UNL A   1      49.556  27.112  26.127  1.00  0.00    -0.014 A 
ATOM     83  C   UNL A   1      50.577  26.558  26.919  1.00  0.00     0.010 A 
ATOM     84  C   UNL A   1      49.733  27.193  24.734  1.00  0.00     0.010 A 
ATOM     85  C   UNL A   1      51.770  26.128  26.332  1.00  0.00     0.020 A 
ATOM     86  C   UNL A   1      50.916  26.743  24.142  1.00  0.00     0.020 A 
ATOM     87  C   UNL A   1      51.935  26.230  24.947  1.00  0.00     0.054 A 
BRANCH  87  88
ATOM     88  S   UNL A   1      53.482  25.646  24.202  1.00  0.00     0.124 S 
ATOM     89  O   UNL A   1      53.244  25.884  22.782  1.00  0.00    -0.237 OA
ATOM     90  O   UNL A   1      54.486  26.507  24.823  1.00  0.00    -0.237 OA
ATOM     91  O   UNL A   1      53.547  24.242  24.598  1.00  0.00    -0.744 OA
ENDBRANCH  87  88
ENDBRANCH  61  82
ENDBRANCH  35  36
ENDBRANCH  28  30
ENDBRANCH  27  28
ENDBRANCH  26  27
ENDBRANCH   1  26
TORSDOF 20
ENDMDL
MODEL 2
REMARK VINA RESULT:     -10.3      2.905      9.571
REMARK SMILES CCOc1cc(OCC)cc(-c2ccc([C@@H](C)C(=O)OCCOC(=O)c3ccc(-c4c5nc(c(-c6ccc(S(=O)(=O)[O-])cc6)c6ccc([nH]6)c(-c6ccc(S(=O)(=O)[O-])cc6)c6nc(c(-c7ccc(S(=O)(=O)[O-])cc7)c7ccc4[nH]7)C=C6)C=C5)cc3)cc2F)c1
REMARK SMILES IDX 21 1 20 2 18 3 19 4 16 5 17 6 15 7 12 8 13 9 87 10 14 11
REMARK SMILES IDX 86 12 88 13 11 14 4 15 5 16 89 17 6 18 10 19 3 20 2 21 1 22
REMARK SMILES IDX 7 23 8 24 9 25 22 26 23 27 24 28 25 29 26 30 27 31 85 32
REMARK SMILES IDX 28 33 84 34 29 35 30 36 31 37 78 38 32 39 83 40 77 41 79 42
REMARK SMILES IDX 33 43 82 44 76 45 75 46 34 48 64 49 45 50 63 51 46 52 49 53
REMARK SMILES IDX 62 54 80 55 47 56 48 57 61 59 81 60 50 61 35 62 36 63 44 64
REMARK SMILES IDX 37 65 43 66 38 67 39 68 40 69 41 70 42 71 65 72 66 73 74 74
REMARK SMILES IDX 67 75 73 76 68 77 69 78 70 79 71 80 72 81 51 82 52 83 60 84
REMARK SMILES IDX 53 85 59 86 54 87 55 88 56 89 57 90 58 91
REMARK H PARENT 79 47 49 58
REMARK Flexibility Score: inf
ROOT
ATOM      1  C   UNL A   1      42.726  18.645  26.502  1.00  0.00     0.274 C 
ENDROOT
BRANCH   1   2
ATOM      2  O   UNL A   1      41.830  19.706  26.121  1.00  0.00    -0.462 OA
BRANCH   2   3
ATOM      3  C   UNL A   1      41.225  20.391  27.128  1.00  0.00     0.313 C 
ATOM      4  O   UNL A   1      40.787  19.869  28.148  1.00  0.00    -0.252 OA
BRANCH   3   5
ATOM      5  C   UNL A   1      41.076  21.884  26.850  1.00  0.00     0.126 C 
ATOM      6  C   UNL A   1      41.681  22.689  27.999  1.00  0.00     0.025 C 
BRANCH   5   7
ATOM      7  C   UNL A   1      39.673  22.357  26.496  1.00  0.00    -0.031 A 
ATOM      8  C   UNL A   1      37.058  23.212  25.773  1.00  0.00     0.018 A 
ATOM      9  C   UNL A   1      37.930  24.052  26.488  1.00  0.00     0.012 A 
ATOM     10  C   UNL A   1      37.515  21.931  25.454  1.00  0.00     0.131 A 
ATOM     11  C   UNL A   1      39.217  23.635  26.838  1.00  0.00     0.005 A 
ATOM     12  C   UNL A   1      38.801  21.510  25.794  1.00  0.00     0.044 A 
ATOM     13  F   UNL A   1      36.736  21.084  24.763  1.00  0.00    -0.206 F 
BRANCH   8  14
ATOM     14  C   UNL A   1      35.749  23.708  25.330  1.00  0.00    -0.008 A 
ATOM     15  C   UNL A   1      34.262  24.627  23.649  1.00  0.00     0.123 A 
ATOM     16  C   UNL A   1      33.209  24.633  24.564  1.00  0.00     0.092 A 
ATOM     17  C   UNL A   1      35.530  24.191  24.034  1.00  0.00     0.055 A 
ATOM     18  C   UNL A   1      33.412  24.187  25.869  1.00  0.00     0.123 A 
ATOM     19  C   UNL A   1      34.674  23.722  26.237  1.00  0.00     0.055 A 
BRANCH  15  20
ATOM     20  O   UNL A   1      34.039  25.177  22.417  1.00  0.00    -0.494 OA
BRANCH  20  21
ATOM     21  C   UNL A   1      32.704  24.988  21.933  1.00  0.00     0.226 C 
ATOM     22  C   UNL A   1      32.540  25.503  20.512  1.00  0.00     0.049 C 
ENDBRANCH  20  21
ENDBRANCH  15  20
BRANCH  18  23
ATOM     23  O   UNL A   1      32.320  24.224  26.695  1.00  0.00    -0.494 OA
BRANCH  23  24
ATOM     24  C   UNL A   1      31.031  24.115  26.085  1.00  0.00     0.226 C 
ATOM     25  C   UNL A   1      30.336  22.827  26.497  1.00  0.00     0.049 C 
ENDBRANCH  23  24
ENDBRANCH  18  23
ENDBRANCH   8  14
ENDBRANCH   5   7
ENDBRANCH   3   5
ENDBRANCH   2   3
ENDBRANCH   1   2
BRANCH   1  26
ATOM     26  C   UNL A   1      43.679  18.287  25.360  1.00  0.00     0.275 C 
BRANCH  26  27
ATOM     27  O   UNL A   1      44.778  19.214  25.291  1.00  0.00    -0.458 OA
BRANCH  27  28
ATOM     28  C   UNL A   1      44.677  20.146  24.317  1.00  0.00     0.338 C 
ATOM     29  O   UNL A   1      44.464  19.958  23.132  1.00  0.00    -0.246 OA
BRANCH  28  30
ATOM     30  C   UNL A   1      44.728  21.490  24.913  1.00  0.00     0.060 A 
ATOM     31  C   UNL A   1      44.488  22.579  24.076  1.00  0.00     0.016 A 
ATOM     32  C   UNL A   1      45.100  21.689  26.243  1.00  0.00     0.016 A 
ATOM     33  C   UNL A   1      44.655  23.876  24.545  1.00  0.00     0.010 A 
ATOM     34  C   UNL A   1      45.248  22.996  26.723  1.00  0.00     0.010 A 
ATOM     35  C   UNL A   1      45.047  24.097  25.870  1.00  0.00    -0.014 A 
BRANCH  35  36
ATOM     36  C   UNL A   1      45.290  25.487  26.328  1.00  0.00     0.031 A 
ATOM     37  C   UNL A   1      46.661  26.089  26.211  1.00  0.00     0.074 A 
ATOM     38  C   UNL A   1      44.264  26.224  26.795  1.00  0.00     0.049 A 
ATOM     39  N   UNL A   1      47.069  27.284  26.558  1.00  0.00    -0.248 NA
ATOM     40  C   UNL A   1      47.710  25.241  25.625  1.00  0.00     0.031 C 
ATOM     41  C   UNL A   1      42.878  25.764  26.918  1.00  0.00     0.029 A 
ATOM     42  N   UNL A   1      44.226  27.521  27.240  1.00  0.00    -0.354 N 
ATOM     43  C   UNL A   1      48.424  27.325  26.254  1.00  0.00     0.074 A 
ATOM     44  C   UNL A   1      48.773  26.030  25.708  1.00  0.00     0.031 C 
ATOM     45  C   UNL A   1      42.125  26.769  27.391  1.00  0.00     0.029 A 
ATOM     46  C   UNL A   1      42.976  27.929  27.642  1.00  0.00     0.049 A 
ATOM     47  H   UNL A   1      45.019  28.105  27.270  1.00  0.00     0.167 HD
ATOM     48  C   UNL A   1      49.298  28.348  26.414  1.00  0.00     0.031 A 
ATOM     49  C   UNL A   1      42.565  29.099  28.167  1.00  0.00     0.031 A 
ATOM     50  C   UNL A   1      48.949  29.636  26.951  1.00  0.00     0.049 A 
ATOM     51  C   UNL A   1      43.562  30.207  28.365  1.00  0.00     0.074 A 
ATOM     52  C   UNL A   1      49.765  30.738  27.145  1.00  0.00     0.029 A 
ATOM     53  N   UNL A   1      47.680  29.999  27.376  1.00  0.00    -0.354 N 
ATOM     54  N   UNL A   1      44.842  30.225  28.077  1.00  0.00    -0.248 NA
ATOM     55  C   UNL A   1      43.057  31.454  28.956  1.00  0.00     0.031 C 
ATOM     56  C   UNL A   1      48.996  31.755  27.726  1.00  0.00     0.029 A 
ATOM     57  C   UNL A   1      47.693  31.301  27.849  1.00  0.00     0.049 A 
ATOM     58  H   UNL A   1      46.887  29.417  27.346  1.00  0.00     0.167 HD
ATOM     59  C   UNL A   1      45.292  31.488  28.441  1.00  0.00     0.074 A 
ATOM     60  C   UNL A   1      44.145  32.212  28.950  1.00  0.00     0.031 C 
ATOM     61  C   UNL A   1      46.545  32.002  28.363  1.00  0.00     0.031 A 
BRANCH  48  62
ATOM     62  C   UNL A   1      50.733  28.095  26.036  1.00  0.00    -0.014 A 
ATOM     63  C   UNL A   1      51.654  27.581  26.965  1.00  0.00     0.010 A 
ATOM     64  C   UNL A   1      51.157  28.350  24.718  1.00  0.00     0.010 A 
ATOM     65  C   UNL A   1      52.985  27.362  26.594  1.00  0.00     0.020 A 
ATOM     66  C   UNL A   1      52.481  28.112  24.338  1.00  0.00     0.020 A 
ATOM     67  C   UNL A   1      53.391  27.637  25.284  1.00  0.00     0.054 A 
BRANCH  67  68
ATOM     68  S   UNL A   1      55.118  27.334  24.820  1.00  0.00     0.124 S 
ATOM     69  O   UNL A   1      55.339  28.356  23.801  1.00  0.00    -0.237 OA
ATOM     70  O   UNL A   1      55.833  27.537  26.079  1.00  0.00    -0.237 OA
ATOM     71  O   UNL A   1      55.109  25.958  24.329  1.00  0.00    -0.744 OA
ENDBRANCH  67  68
ENDBRANCH  48  62
BRANCH  49  72
ATOM     72  C   UNL A   1      41.142  29.273  28.560  1.00  0.00    -0.014 A 
ATOM     73  C   UNL A   1      40.781  29.408  29.912  1.00  0.00     0.010 A 
ATOM     74  C   UNL A   1      40.138  29.319  27.575  1.00  0.00     0.010 A 
ATOM     75  C   UNL A   1      39.440  29.575  30.271  1.00  0.00     0.020 A 
ATOM     76  C   UNL A   1      38.801  29.510  27.930  1.00  0.00     0.020 A 
ATOM     77  C   UNL A   1      38.459  29.626  29.278  1.00  0.00     0.054 A 
BRANCH  77  78
ATOM     78  S   UNL A   1      36.732  29.906  29.758  1.00  0.00     0.124 S 
ATOM     79  O   UNL A   1      36.008  29.391  28.599  1.00  0.00    -0.237 OA
ATOM     80  O   UNL A   1      36.608  29.118  30.982  1.00  0.00    -0.237 OA
ATOM     81  O   UNL A   1      36.663  31.353  29.950  1.00  0.00    -0.744 OA
ENDBRANCH  77  78
ENDBRANCH  49  72
BRANCH  61  82
ATOM     82  C   UNL A   1      46.731  33.422  28.821  1.00  0.00    -0.014 A 
ATOM     83  C   UNL A   1      47.084  33.713  30.151  1.00  0.00     0.010 A 
ATOM     84  C   UNL A   1      46.578  34.477  27.904  1.00  0.00     0.010 A 
ATOM     85  C   UNL A   1      47.243  35.039  30.565  1.00  0.00     0.020 A 
ATOM     86  C   UNL A   1      46.757  35.802  28.309  1.00  0.00     0.020 A 
ATOM     87  C   UNL A   1      47.071  36.075  29.642  1.00  0.00     0.054 A 
BRANCH  87  88
ATOM     88  S   UNL A   1      47.303  37.788  30.193  1.00  0.00     0.124 S 
ATOM     89  O   UNL A   1      48.707  37.792  30.591  1.00  0.00    -0.237 OA
ATOM     90  O   UNL A   1      46.987  38.561  28.994  1.00  0.00    -0.237 OA
ATOM     91  O   UNL A   1      46.345  37.930  31.287  1.00  0.00    -0.744 OA
ENDBRANCH  87  88
ENDBRANCH  61  82
ENDBRANCH  35  36
ENDBRANCH  28  30
ENDBRANCH  27  28
ENDBRANCH  26  27
ENDBRANCH   1  26
TORSDOF 20
ENDMDL
MODEL 3
REMARK VINA RESULT:     -10.1      0.666      8.087
REMARK SMILES CCOc1cc(OCC)cc(-c2ccc([C@@H](C)C(=O)OCCOC(=O)c3ccc(-c4c5nc(c(-c6ccc(S(=O)(=O)[O-])cc6)c6ccc([nH]6)c(-c6ccc(S(=O)(=O)[O-])cc6)c6nc(c(-c7ccc(S(=O)(=O)[O-])cc7)c7ccc4[nH]7)C=C6)C=C5)cc3)cc2F)c1
REMARK SMILES IDX 21 1 20 2 18 3 19 4 16 5 17 6 15 7 12 8 13 9 87 10 14 11
REMARK SMILES IDX 86 12 88 13 11 14 4 15 5 16 89 17 6 18 10 19 3 20 2 21 1 22
REMARK SMILES IDX 7 23 8 24 9 25 22 26 23 27 24 28 25 29 26 30 27 31 85 32
REMARK SMILES IDX 28 33 84 34 29 35 30 36 31 37 78 38 32 39 83 40 77 41 79 42
REMARK SMILES IDX 33 43 82 44 76 45 75 46 34 48 64 49 45 50 63 51 46 52 49 53
REMARK SMILES IDX 62 54 80 55 47 56 48 57 61 59 81 60 50 61 35 62 36 63 44 64
REMARK SMILES IDX 37 65 43 66 38 67 39 68 40 69 41 70 42 71 65 72 66 73 74 74
REMARK SMILES IDX 67 75 73 76 68 77 69 78 70 79 71 80 72 81 51 82 52 83 60 84
REMARK SMILES IDX 53 85 59 86 54 87 55 88 56 89 57 90 58 91
REMARK H PARENT 79 47 49 58
REMARK Flexibility Score: inf
ROOT
ATOM      1  C   UNL A   1      35.267  33.184  32.335  1.00  0.00     0.274 C 
ENDROOT
BRANCH   1   2
ATOM      2  O   UNL A   1      34.547  32.609  31.229  1.00  0.00    -0.462 OA
BRANCH   2   3
ATOM      3  C   UNL A   1      34.191  33.452  30.222  1.00  0.00     0.313 C 
ATOM      4  O   UNL A   1      33.335  34.324  30.326  1.00  0.00    -0.252 OA
BRANCH   3   5
ATOM      5  C   UNL A   1      34.915  33.176  28.908  1.00  0.00     0.126 C 
ATOM      6  C   UNL A   1      34.785  34.383  27.980  1.00  0.00     0.025 C 
BRANCH   5   7
ATOM      7  C   UNL A   1      34.549  31.874  28.209  1.00  0.00    -0.031 A 
ATOM      8  C   UNL A   1      33.801  29.448  26.926  1.00  0.00     0.018 A 
ATOM      9  C   UNL A   1      35.045  29.582  27.568  1.00  0.00     0.012 A 
ATOM     10  C   UNL A   1      32.957  30.561  26.918  1.00  0.00     0.131 A 
ATOM     11  C   UNL A   1      35.410  30.771  28.204  1.00  0.00     0.005 A 
ATOM     12  C   UNL A   1      33.312  31.749  27.556  1.00  0.00     0.044 A 
ATOM     13  F   UNL A   1      31.751  30.495  26.332  1.00  0.00    -0.206 F 
BRANCH   8  14
ATOM     14  C   UNL A   1      33.399  28.157  26.352  1.00  0.00    -0.008 A 
ATOM     15  C   UNL A   1      33.665  26.340  24.768  1.00  0.00     0.123 A 
ATOM     16  C   UNL A   1      32.567  25.679  25.322  1.00  0.00     0.092 A 
ATOM     17  C   UNL A   1      34.064  27.581  25.263  1.00  0.00     0.055 A 
ATOM     18  C   UNL A   1      31.870  26.249  26.386  1.00  0.00     0.123 A 
ATOM     19  C   UNL A   1      32.296  27.474  26.896  1.00  0.00     0.055 A 
BRANCH  15  20
ATOM     20  O   UNL A   1      34.243  25.793  23.657  1.00  0.00    -0.494 OA
BRANCH  20  21
ATOM     21  C   UNL A   1      33.304  25.225  22.737  1.00  0.00     0.226 C 
ATOM     22  C   UNL A   1      32.982  26.178  21.597  1.00  0.00     0.049 C 
ENDBRANCH  20  21
ENDBRANCH  15  20
BRANCH  18  23
ATOM     23  O   UNL A   1      30.811  25.527  26.867  1.00  0.00    -0.494 OA
BRANCH  23  24
ATOM     24  C   UNL A   1      30.336  24.443  26.065  1.00  0.00     0.226 C 
ATOM     25  C   UNL A   1      30.224  23.163  26.879  1.00  0.00     0.049 C 
ENDBRANCH  23  24
ENDBRANCH  18  23
ENDBRANCH   8  14
ENDBRANCH   5   7
ENDBRANCH   3   5
ENDBRANCH   2   3
ENDBRANCH   1   2
BRANCH   1  26
ATOM     26  C   UNL A   1      36.693  32.634  32.413  1.00  0.00     0.275 C 
BRANCH  26  27
ATOM     27  O   UNL A   1      36.994  31.809  31.273  1.00  0.00    -0.458 OA
BRANCH  27  28
ATOM     28  C   UNL A   1      37.177  30.498  31.552  1.00  0.00     0.338 C 
ATOM     29  O   UNL A   1      36.427  29.762  32.170  1.00  0.00    -0.246 OA
BRANCH  28  30
ATOM     30  C   UNL A   1      38.388  30.014  30.873  1.00  0.00     0.060 A 
ATOM     31  C   UNL A   1      39.434  29.548  31.670  1.00  0.00     0.016 A 
ATOM     32  C   UNL A   1      38.539  30.103  29.489  1.00  0.00     0.016 A 
ATOM     33  C   UNL A   1      40.653  29.206  31.098  1.00  0.00     0.010 A 
ATOM     34  C   UNL A   1      39.760  29.736  28.910  1.00  0.00     0.010 A 
ATOM     35  C   UNL A   1      40.832  29.307  29.714  1.00  0.00    -0.014 A 
BRANCH  35  36
ATOM     36  C   UNL A   1      42.163  29.005  29.134  1.00  0.00     0.031 A 
ATOM     37  C   UNL A   1      42.444  27.645  28.562  1.00  0.00     0.074 A 
ATOM     38  C   UNL A   1      43.099  29.972  29.071  1.00  0.00     0.049 A 
ATOM     39  N   UNL A   1      43.544  27.191  28.016  1.00  0.00    -0.248 NA
ATOM     40  C   UNL A   1      41.347  26.667  28.607  1.00  0.00     0.031 C 
ATOM     41  C   UNL A   1      42.930  31.345  29.555  1.00  0.00     0.029 A 
ATOM     42  N   UNL A   1      44.372  29.952  28.561  1.00  0.00    -0.354 N 
ATOM     43  C   UNL A   1      43.281  25.871  27.672  1.00  0.00     0.074 A 
ATOM     44  C   UNL A   1      41.920  25.592  28.084  1.00  0.00     0.031 C 
ATOM     45  C   UNL A   1      44.052  32.038  29.304  1.00  0.00     0.029 A 
ATOM     46  C   UNL A   1      45.031  31.152  28.679  1.00  0.00     0.049 A 
ATOM     47  H   UNL A   1      44.776  29.153  28.150  1.00  0.00     0.167 HD
ATOM     48  C   UNL A   1      44.095  24.974  27.066  1.00  0.00     0.031 A 
ATOM     49  C   UNL A   1      46.287  31.497  28.337  1.00  0.00     0.031 A 
ATOM     50  C   UNL A   1      45.444  25.254  26.651  1.00  0.00     0.049 A 
ATOM     51  C   UNL A   1      47.182  30.473  27.696  1.00  0.00     0.074 A 
ATOM     52  C   UNL A   1      46.346  24.411  26.024  1.00  0.00     0.029 A 
ATOM     53  N   UNL A   1      46.086  26.472  26.818  1.00  0.00    -0.354 N 
ATOM     54  N   UNL A   1      46.917  29.227  27.384  1.00  0.00    -0.248 NA
ATOM     55  C   UNL A   1      48.547  30.903  27.360  1.00  0.00     0.031 C 
ATOM     56  C   UNL A   1      47.547  25.108  25.847  1.00  0.00     0.029 A 
ATOM     57  C   UNL A   1      47.378  26.398  26.322  1.00  0.00     0.049 A 
ATOM     58  H   UNL A   1      45.684  27.271  27.227  1.00  0.00     0.167 HD
ATOM     59  C   UNL A   1      48.077  28.728  26.803  1.00  0.00     0.074 A 
ATOM     60  C   UNL A   1      49.039  29.812  26.789  1.00  0.00     0.031 C 
ATOM     61  C   UNL A   1      48.325  27.483  26.326  1.00  0.00     0.031 A 
BRANCH  48  62
ATOM     62  C   UNL A   1      43.555  23.586  26.853  1.00  0.00    -0.014 A 
ATOM     63  C   UNL A   1      43.344  23.073  25.561  1.00  0.00     0.010 A 
ATOM     64  C   UNL A   1      43.281  22.771  27.967  1.00  0.00     0.010 A 
ATOM     65  C   UNL A   1      42.833  21.783  25.386  1.00  0.00     0.020 A 
ATOM     66  C   UNL A   1      42.791  21.473  27.796  1.00  0.00     0.020 A 
ATOM     67  C   UNL A   1      42.552  20.994  26.506  1.00  0.00     0.054 A 
BRANCH  67  68
ATOM     68  S   UNL A   1      41.902  19.319  26.258  1.00  0.00     0.124 S 
ATOM     69  O   UNL A   1      42.350  18.639  27.470  1.00  0.00    -0.237 OA
ATOM     70  O   UNL A   1      40.461  19.542  26.159  1.00  0.00    -0.237 OA
ATOM     71  O   UNL A   1      42.545  18.877  25.022  1.00  0.00    -0.744 OA
ENDBRANCH  67  68
ENDBRANCH  48  62
BRANCH  49  72
ATOM     72  C   UNL A   1      46.777  32.874  28.613  1.00  0.00    -0.014 A 
ATOM     73  C   UNL A   1      46.679  33.881  27.637  1.00  0.00     0.010 A 
ATOM     74  C   UNL A   1      47.333  33.186  29.867  1.00  0.00     0.010 A 
ATOM     75  C   UNL A   1      47.139  35.173  27.908  1.00  0.00     0.020 A 
ATOM     76  C   UNL A   1      47.771  34.482  30.148  1.00  0.00     0.020 A 
ATOM     77  C   UNL A   1      47.681  35.466  29.162  1.00  0.00     0.054 A 
BRANCH  77  78
ATOM     78  S   UNL A   1      48.216  37.163  29.517  1.00  0.00     0.124 S 
ATOM     79  O   UNL A   1      49.649  37.090  29.253  1.00  0.00    -0.237 OA
ATOM     80  O   UNL A   1      47.436  37.950  28.566  1.00  0.00    -0.237 OA
ATOM     81  O   UNL A   1      47.844  37.350  30.919  1.00  0.00    -0.744 OA
ENDBRANCH  77  78
ENDBRANCH  49  72
BRANCH  61  82
ATOM     82  C   UNL A   1      49.684  27.237  25.731  1.00  0.00    -0.014 A 
ATOM     83  C   UNL A   1      49.931  27.472  24.367  1.00  0.00     0.010 A 
ATOM     84  C   UNL A   1      50.734  26.790  26.553  1.00  0.00     0.010 A 
ATOM     85  C   UNL A   1      51.196  27.228  23.827  1.00  0.00     0.020 A 
ATOM     86  C   UNL A   1      52.006  26.566  26.020  1.00  0.00     0.020 A 
ATOM     87  C   UNL A   1      52.225  26.770  24.656  1.00  0.00     0.054 A 
BRANCH  87  88
ATOM     88  S   UNL A   1      53.866  26.479  23.940  1.00  0.00     0.124 S 
ATOM     89  O   UNL A   1      53.544  26.199  22.545  1.00  0.00    -0.237 OA
ATOM     90  O   UNL A   1      54.555  27.744  24.185  1.00  0.00    -0.237 OA
ATOM     91  O   UNL A   1      54.377  25.343  24.703  1.00  0.00    -0.744 OA
ENDBRANCH  87  88
ENDBRANCH  61  82
ENDBRANCH  35  36
ENDBRANCH  28  30
ENDBRANCH  27  28
ENDBRANCH  26  27
ENDBRANCH   1  26
TORSDOF 20
ENDMDL
