MODEL 1
REMARK VINA RESULT:      -8.2      0.000      0.000
REMARK SMILES [NH3+][C@@H](Cc1c[nH]c2ccccc12)C(=O)N[C@@H](CS)C(=O)N[C@@H](CO)C(=O)OCCOC(=O)c1ccc(-c2c3nc(c(-c4ccc(S(=O)(=O)[O-])cc4)c4ccc([nH]4)c(-c4ccc(S(=O)(=O)[O-])cc4)c4nc(c(-c5ccc(S(=O)(=O)[O-])cc5)c5ccc2[nH]5)C=C4)C=C3)cc1
REMARK SMILES IDX 27 1 25 2 26 3 22 4 21 5 19 6 20 7 16 9 15 10 13 11 14 12
REMARK SMILES IDX 2 14 1 15 3 19 4 20 5 21 12 22 6 23 7 24 11 25 8 27 10 28
REMARK SMILES IDX 9 29 17 30 18 31 23 33 24 34 28 36 29 37 30 38 31 39 32 40
REMARK SMILES IDX 33 41 34 42 92 43 35 44 91 45 36 46 37 47 38 48 85 49 39 50
REMARK SMILES IDX 90 51 84 52 86 53 40 54 89 55 83 56 82 57 41 59 71 60 52 61
REMARK SMILES IDX 70 62 53 63 56 64 69 65 87 66 54 67 55 68 68 70 88 71 57 72
REMARK SMILES IDX 42 73 43 74 51 75 44 76 50 77 45 78 46 79 47 80 48 81 49 82
REMARK SMILES IDX 72 83 73 84 81 85 74 86 80 87 75 88 76 89 77 90 78 91 79 92
REMARK SMILES IDX 58 93 59 94 67 95 60 96 66 97 61 98 62 99 63 100 64 101
REMARK SMILES IDX 65 102
REMARK H PARENT 21 8 15 13 1 16 1 17 1 18 6 26 18 32 24 35 86 58 56 69
REMARK Flexibility Score: inf
ROOT
ATOM      1  O   UNL A   1      44.555  23.719  25.285  1.00  0.00    -0.460 OA
ENDROOT
BRANCH   1   2
ATOM      2  C   UNL A   1      45.803  23.516  25.795  1.00  0.00     0.331 C 
ATOM      3  O   UNL A   1      46.391  22.441  25.803  1.00  0.00    -0.250 OA
BRANCH   2   4
ATOM      4  C   UNL A   1      46.382  24.791  26.422  1.00  0.00     0.218 C 
BRANCH   4   5
ATOM      5  N   UNL A   1      47.490  24.537  27.352  1.00  0.00    -0.339 N 
ATOM      6  C   UNL A   1      48.764  24.998  27.360  1.00  0.00     0.244 C 
ATOM      7  O   UNL A   1      49.610  24.153  27.680  1.00  0.00    -0.273 OA
ATOM      8  H   UNL A   1      47.270  23.929  28.095  1.00  0.00     0.164 HD
BRANCH   6   9
ATOM      9  C   UNL A   1      49.180  26.438  26.942  1.00  0.00     0.181 C 
BRANCH   9  10
ATOM     10  N   UNL A   1      49.397  27.298  28.102  1.00  0.00    -0.338 N 
ATOM     11  C   UNL A   1      48.702  28.370  28.572  1.00  0.00     0.279 C 
ATOM     12  O   UNL A   1      49.155  28.896  29.598  1.00  0.00    -0.268 OA
ATOM     13  H   UNL A   1      50.188  27.062  28.639  1.00  0.00     0.164 HD
BRANCH  11  14
ATOM     14  C   UNL A   1      47.420  28.952  27.918  1.00  0.00     0.275 C 
BRANCH  14  15
ATOM     15  N   UNL A   1      47.640  29.259  26.488  1.00  0.00    -0.347 N 
ATOM     16  H   UNL A   1      46.763  29.146  25.978  1.00  0.00     0.345 HD
ATOM     17  H   UNL A   1      48.338  28.622  26.107  1.00  0.00     0.345 HD
ATOM     18  H   UNL A   1      47.967  30.220  26.393  1.00  0.00     0.345 HD
ENDBRANCH  14  15
BRANCH  14  19
ATOM     19  C   UNL A   1      46.099  28.239  28.304  1.00  0.00     0.113 C 
BRANCH  19  20
ATOM     20  C   UNL A   1      44.826  28.985  28.031  1.00  0.00    -0.016 A 
ATOM     21  C   UNL A   1      44.357  30.066  28.752  1.00  0.00     0.087 A 
ATOM     22  C   UNL A   1      43.840  28.713  27.022  1.00  0.00     0.003 A 
ATOM     23  N   UNL A   1      43.073  30.328  28.352  1.00  0.00    -0.361 N 
ATOM     24  C   UNL A   1      42.718  29.487  27.324  1.00  0.00     0.046 A 
ATOM     25  C   UNL A   1      43.763  27.823  25.931  1.00  0.00     0.010 A 
ATOM     26  H   UNL A   1      42.490  31.016  28.744  1.00  0.00     0.166 HD
ATOM     27  C   UNL A   1      41.497  29.348  26.652  1.00  0.00     0.026 A 
ATOM     28  C   UNL A   1      42.560  27.694  25.227  1.00  0.00     0.001 A 
ATOM     29  C   UNL A   1      41.438  28.430  25.600  1.00  0.00     0.002 A 
ENDBRANCH  19  20
ENDBRANCH  14  19
ENDBRANCH  11  14
ENDBRANCH   9  10
BRANCH   9  30
ATOM     30  C   UNL A   1      50.212  26.534  25.811  1.00  0.00     0.101 C 
BRANCH  30  31
ATOM     31  S   UNL A   1      51.944  26.510  26.384  1.00  0.00    -0.177 SA
ATOM     32  H   UNL A   1      52.564  27.659  26.003  1.00  0.00     0.102 HD
ENDBRANCH  30  31
ENDBRANCH   9  30
ENDBRANCH   6   9
ENDBRANCH   4   5
BRANCH   4  33
ATOM     33  C   UNL A   1      46.879  25.694  25.281  1.00  0.00     0.193 C 
BRANCH  33  34
ATOM     34  O   UNL A   1      47.023  24.946  24.065  1.00  0.00    -0.394 OA
ATOM     35  H   UNL A   1      46.284  25.148  23.471  1.00  0.00     0.210 HD
ENDBRANCH  33  34
ENDBRANCH   4  33
ENDBRANCH   2   4
ENDBRANCH   1   2
BRANCH   1  36
ATOM     36  C   UNL A   1      43.788  22.540  24.959  1.00  0.00     0.274 C 
BRANCH  36  37
ATOM     37  C   UNL A   1      42.767  22.283  26.062  1.00  0.00     0.275 C 
BRANCH  37  38
ATOM     38  O   UNL A   1      41.873  23.407  26.113  1.00  0.00    -0.458 OA
BRANCH  38  39
ATOM     39  C   UNL A   1      40.918  23.380  27.073  1.00  0.00     0.338 C 
ATOM     40  O   UNL A   1      40.175  22.450  27.334  1.00  0.00    -0.246 OA
BRANCH  39  41
ATOM     41  C   UNL A   1      40.927  24.665  27.814  1.00  0.00     0.060 A 
ATOM     42  C   UNL A   1      42.123  25.328  28.068  1.00  0.00     0.016 A 
ATOM     43  C   UNL A   1      39.739  25.172  28.348  1.00  0.00     0.016 A 
ATOM     44  C   UNL A   1      42.135  26.440  28.913  1.00  0.00     0.010 A 
ATOM     45  C   UNL A   1      39.754  26.347  29.119  1.00  0.00     0.010 A 
ATOM     46  C   UNL A   1      40.960  26.991  29.448  1.00  0.00    -0.014 A 
BRANCH  46  47
ATOM     47  C   UNL A   1      40.995  28.191  30.358  1.00  0.00     0.031 A 
ATOM     48  C   UNL A   1      42.072  28.333  31.415  1.00  0.00     0.074 A 
ATOM     49  C   UNL A   1      40.089  29.192  30.259  1.00  0.00     0.049 A 
ATOM     50  N   UNL A   1      42.086  29.084  32.489  1.00  0.00    -0.248 NA
ATOM     51  C   UNL A   1      43.284  27.512  31.254  1.00  0.00     0.031 C 
ATOM     52  C   UNL A   1      39.024  29.296  29.260  1.00  0.00     0.029 A 
ATOM     53  N   UNL A   1      39.927  30.333  31.017  1.00  0.00    -0.354 N 
ATOM     54  C   UNL A   1      43.251  28.757  33.177  1.00  0.00     0.074 A 
ATOM     55  C   UNL A   1      43.934  27.755  32.386  1.00  0.00     0.031 C 
ATOM     56  C   UNL A   1      38.383  30.461  29.408  1.00  0.00     0.029 A 
ATOM     57  C   UNL A   1      38.860  31.109  30.622  1.00  0.00     0.049 A 
ATOM     58  H   UNL A   1      40.517  30.572  31.767  1.00  0.00     0.167 HD
ATOM     59  C   UNL A   1      43.700  29.237  34.365  1.00  0.00     0.031 A 
ATOM     60  C   UNL A   1      38.243  32.158  31.203  1.00  0.00     0.031 A 
ATOM     61  C   UNL A   1      43.067  30.302  35.103  1.00  0.00     0.049 A 
ATOM     62  C   UNL A   1      38.700  32.628  32.549  1.00  0.00     0.074 A 
ATOM     63  C   UNL A   1      43.457  30.864  36.308  1.00  0.00     0.029 A 
ATOM     64  N   UNL A   1      41.933  30.987  34.697  1.00  0.00    -0.354 N 
ATOM     65  N   UNL A   1      39.711  32.203  33.267  1.00  0.00    -0.248 NA
ATOM     66  C   UNL A   1      37.902  33.684  33.188  1.00  0.00     0.031 C 
ATOM     67  C   UNL A   1      42.534  31.859  36.651  1.00  0.00     0.029 A 
ATOM     68  C   UNL A   1      41.598  31.951  35.635  1.00  0.00     0.049 A 
ATOM     69  H   UNL A   1      41.436  30.814  33.864  1.00  0.00     0.167 HD
ATOM     70  C   UNL A   1      39.664  32.933  34.448  1.00  0.00     0.074 A 
ATOM     71  C   UNL A   1      38.543  33.844  34.339  1.00  0.00     0.031 C 
ATOM     72  C   UNL A   1      40.474  32.843  35.530  1.00  0.00     0.031 A 
BRANCH  59  73
ATOM     73  C   UNL A   1      44.905  28.583  34.991  1.00  0.00    -0.014 A 
ATOM     74  C   UNL A   1      46.208  29.075  34.803  1.00  0.00     0.010 A 
ATOM     75  C   UNL A   1      44.708  27.494  35.865  1.00  0.00     0.010 A 
ATOM     76  C   UNL A   1      47.292  28.472  35.455  1.00  0.00     0.020 A 
ATOM     77  C   UNL A   1      45.783  26.905  36.536  1.00  0.00     0.020 A 
ATOM     78  C   UNL A   1      47.072  27.390  36.315  1.00  0.00     0.054 A 
BRANCH  78  79
ATOM     79  S   UNL A   1      48.490  26.647  37.169  1.00  0.00     0.124 S 
ATOM     80  O   UNL A   1      48.966  25.685  36.178  1.00  0.00    -0.237 OA
ATOM     81  O   UNL A   1      49.365  27.794  37.400  1.00  0.00    -0.237 OA
ATOM     82  O   UNL A   1      47.904  26.063  38.373  1.00  0.00    -0.744 OA
ENDBRANCH  78  79
ENDBRANCH  59  73
BRANCH  60  83
ATOM     83  C   UNL A   1      37.024  32.728  30.563  1.00  0.00    -0.014 A 
ATOM     84  C   UNL A   1      35.740  32.353  30.986  1.00  0.00     0.010 A 
ATOM     85  C   UNL A   1      37.157  33.715  29.565  1.00  0.00     0.010 A 
ATOM     86  C   UNL A   1      34.610  32.976  30.442  1.00  0.00     0.020 A 
ATOM     87  C   UNL A   1      36.037  34.365  29.049  1.00  0.00     0.020 A 
ATOM     88  C   UNL A   1      34.767  33.989  29.490  1.00  0.00     0.054 A 
BRANCH  88  89
ATOM     89  S   UNL A   1      33.303  34.876  28.889  1.00  0.00     0.124 S 
ATOM     90  O   UNL A   1      32.780  33.954  27.887  1.00  0.00    -0.237 OA
ATOM     91  O   UNL A   1      32.497  35.020  30.099  1.00  0.00    -0.237 OA
ATOM     92  O   UNL A   1      33.853  36.126  28.368  1.00  0.00    -0.744 OA
ENDBRANCH  88  89
ENDBRANCH  60  83
BRANCH  72  93
ATOM     93  C   UNL A   1      40.189  33.770  36.678  1.00  0.00    -0.014 A 
ATOM     94  C   UNL A   1      40.867  34.995  36.803  1.00  0.00     0.010 A 
ATOM     95  C   UNL A   1      39.210  33.425  37.627  1.00  0.00     0.010 A 
ATOM     96  C   UNL A   1      40.589  35.849  37.872  1.00  0.00     0.020 A 
ATOM     97  C   UNL A   1      38.914  34.286  38.686  1.00  0.00     0.020 A 
ATOM     98  C   UNL A   1      39.616  35.488  38.809  1.00  0.00     0.054 A 
BRANCH  98  99
ATOM     99  S   UNL A   1      39.247  36.629  40.170  1.00  0.00     0.124 S 
ATOM    100  O   UNL A   1      38.651  37.761  39.465  1.00  0.00    -0.237 OA
ATOM    101  O   UNL A   1      38.331  35.853  41.001  1.00  0.00    -0.237 OA
ATOM    102  O   UNL A   1      40.554  36.887  40.770  1.00  0.00    -0.744 OA
ENDBRANCH  98  99
ENDBRANCH  72  93
ENDBRANCH  46  47
ENDBRANCH  39  41
ENDBRANCH  38  39
ENDBRANCH  37  38
ENDBRANCH  36  37
ENDBRANCH   1  36
TORSDOF 25
ENDMDL
MODEL 2
REMARK VINA RESULT:      -8.1      7.521     13.345
REMARK SMILES [NH3+][C@@H](Cc1c[nH]c2ccccc12)C(=O)N[C@@H](CS)C(=O)N[C@@H](CO)C(=O)OCCOC(=O)c1ccc(-c2c3nc(c(-c4ccc(S(=O)(=O)[O-])cc4)c4ccc([nH]4)c(-c4ccc(S(=O)(=O)[O-])cc4)c4nc(c(-c5ccc(S(=O)(=O)[O-])cc5)c5ccc2[nH]5)C=C4)C=C3)cc1
REMARK SMILES IDX 27 1 25 2 26 3 22 4 21 5 19 6 20 7 16 9 15 10 13 11 14 12
REMARK SMILES IDX 2 14 1 15 3 19 4 20 5 21 12 22 6 23 7 24 11 25 8 27 10 28
REMARK SMILES IDX 9 29 17 30 18 31 23 33 24 34 28 36 29 37 30 38 31 39 32 40
REMARK SMILES IDX 33 41 34 42 92 43 35 44 91 45 36 46 37 47 38 48 85 49 39 50
REMARK SMILES IDX 90 51 84 52 86 53 40 54 89 55 83 56 82 57 41 59 71 60 52 61
REMARK SMILES IDX 70 62 53 63 56 64 69 65 87 66 54 67 55 68 68 70 88 71 57 72
REMARK SMILES IDX 42 73 43 74 51 75 44 76 50 77 45 78 46 79 47 80 48 81 49 82
REMARK SMILES IDX 72 83 73 84 81 85 74 86 80 87 75 88 76 89 77 90 78 91 79 92
REMARK SMILES IDX 58 93 59 94 67 95 60 96 66 97 61 98 62 99 63 100 64 101
REMARK SMILES IDX 65 102
REMARK H PARENT 21 8 15 13 1 16 1 17 1 18 6 26 18 32 24 35 86 58 56 69
REMARK Flexibility Score: inf
ROOT
ATOM      1  O   UNL A   1      47.163  20.749  39.493  1.00  0.00    -0.460 OA
ENDROOT
BRANCH   1   2
ATOM      2  C   UNL A   1      46.683  19.640  38.860  1.00  0.00     0.331 C 
ATOM      3  O   UNL A   1      45.803  19.645  38.008  1.00  0.00    -0.250 OA
BRANCH   2   4
ATOM      4  C   UNL A   1      47.337  18.353  39.381  1.00  0.00     0.218 C 
BRANCH   4   5
ATOM      5  N   UNL A   1      48.151  18.556  40.586  1.00  0.00    -0.339 N 
ATOM      6  C   UNL A   1      47.792  18.839  41.861  1.00  0.00     0.244 C 
ATOM      7  O   UNL A   1      48.529  19.656  42.429  1.00  0.00    -0.273 OA
ATOM      8  H   UNL A   1      49.122  18.470  40.444  1.00  0.00     0.164 HD
BRANCH   6   9
ATOM      9  C   UNL A   1      46.529  18.267  42.567  1.00  0.00     0.181 C 
BRANCH   9  10
ATOM     10  N   UNL A   1      46.739  16.897  43.027  1.00  0.00    -0.338 N 
ATOM     11  C   UNL A   1      45.859  15.906  43.341  1.00  0.00     0.279 C 
ATOM     12  O   UNL A   1      46.364  14.836  43.710  1.00  0.00    -0.268 OA
ATOM     13  H   UNL A   1      47.685  16.644  43.128  1.00  0.00     0.164 HD
BRANCH  11  14
ATOM     14  C   UNL A   1      44.314  16.037  43.269  1.00  0.00     0.275 C 
BRANCH  14  15
ATOM     15  N   UNL A   1      43.836  15.987  41.871  1.00  0.00    -0.347 N 
ATOM     16  H   UNL A   1      43.991  16.893  41.427  1.00  0.00     0.345 HD
ATOM     17  H   UNL A   1      42.840  15.769  41.860  1.00  0.00     0.345 HD
ATOM     18  H   UNL A   1      44.348  15.267  41.362  1.00  0.00     0.345 HD
ENDBRANCH  14  15
BRANCH  14  19
ATOM     19  C   UNL A   1      43.531  15.215  44.325  1.00  0.00     0.113 C 
BRANCH  19  20
ATOM     20  C   UNL A   1      42.623  14.140  43.804  1.00  0.00    -0.016 A 
ATOM     21  C   UNL A   1      41.324  14.326  43.369  1.00  0.00     0.087 A 
ATOM     22  C   UNL A   1      42.889  12.734  43.694  1.00  0.00     0.003 A 
ATOM     23  N   UNL A   1      40.750  13.096  43.188  1.00  0.00    -0.361 N 
ATOM     24  C   UNL A   1      41.673  12.104  43.420  1.00  0.00     0.046 A 
ATOM     25  C   UNL A   1      44.030  11.926  43.882  1.00  0.00     0.010 A 
ATOM     26  H   UNL A   1      39.813  12.944  42.929  1.00  0.00     0.166 HD
ATOM     27  C   UNL A   1      41.522  10.712  43.420  1.00  0.00     0.026 A 
ATOM     28  C   UNL A   1      43.904  10.533  43.852  1.00  0.00     0.001 A 
ATOM     29  C   UNL A   1      42.662   9.938  43.648  1.00  0.00     0.002 A 
ENDBRANCH  19  20
ENDBRANCH  14  19
ENDBRANCH  11  14
ENDBRANCH   9  10
BRANCH   9  30
ATOM     30  C   UNL A   1      45.816  19.217  43.538  1.00  0.00     0.101 C 
BRANCH  30  31
ATOM     31  S   UNL A   1      44.539  20.256  42.754  1.00  0.00    -0.177 SA
ATOM     32  H   UNL A   1      44.311  21.354  43.525  1.00  0.00     0.102 HD
ENDBRANCH  30  31
ENDBRANCH   9  30
ENDBRANCH   6   9
ENDBRANCH   4   5
BRANCH   4  33
ATOM     33  C   UNL A   1      46.215  17.349  39.693  1.00  0.00     0.193 C 
BRANCH  33  34
ATOM     34  O   UNL A   1      44.987  18.030  39.983  1.00  0.00    -0.394 OA
ATOM     35  H   UNL A   1      45.000  18.909  39.575  1.00  0.00     0.210 HD
ENDBRANCH  33  34
ENDBRANCH   4  33
ENDBRANCH   2   4
ENDBRANCH   1   2
BRANCH   1  36
ATOM     36  C   UNL A   1      46.248  21.855  39.645  1.00  0.00     0.274 C 
BRANCH  36  37
ATOM     37  C   UNL A   1      46.740  23.033  38.812  1.00  0.00     0.275 C 
BRANCH  37  38
ATOM     38  O   UNL A   1      45.682  24.003  38.741  1.00  0.00    -0.458 OA
BRANCH  38  39
ATOM     39  C   UNL A   1      46.044  25.305  38.834  1.00  0.00     0.338 C 
ATOM     40  O   UNL A   1      46.889  25.774  39.575  1.00  0.00    -0.246 OA
BRANCH  39  41
ATOM     41  C   UNL A   1      45.273  26.102  37.849  1.00  0.00     0.060 A 
ATOM     42  C   UNL A   1      45.897  27.090  37.093  1.00  0.00     0.016 A 
ATOM     43  C   UNL A   1      43.890  25.934  37.743  1.00  0.00     0.016 A 
ATOM     44  C   UNL A   1      45.129  27.948  36.301  1.00  0.00     0.010 A 
ATOM     45  C   UNL A   1      43.143  26.743  36.869  1.00  0.00     0.010 A 
ATOM     46  C   UNL A   1      43.742  27.793  36.152  1.00  0.00    -0.014 A 
BRANCH  46  47
ATOM     47  C   UNL A   1      42.933  28.729  35.292  1.00  0.00     0.031 A 
ATOM     48  C   UNL A   1      42.352  30.006  35.869  1.00  0.00     0.074 A 
ATOM     49  C   UNL A   1      42.708  28.484  33.980  1.00  0.00     0.049 A 
ATOM     50  N   UNL A   1      41.373  30.751  35.414  1.00  0.00    -0.248 NA
ATOM     51  C   UNL A   1      42.934  30.501  37.128  1.00  0.00     0.031 C 
ATOM     52  C   UNL A   1      43.244  27.362  33.208  1.00  0.00     0.029 A 
ATOM     53  N   UNL A   1      41.966  29.184  33.052  1.00  0.00    -0.354 N 
ATOM     54  C   UNL A   1      41.160  31.738  36.372  1.00  0.00     0.074 A 
ATOM     55  C   UNL A   1      42.128  31.513  37.425  1.00  0.00     0.031 C 
ATOM     56  C   UNL A   1      42.892  27.492  31.924  1.00  0.00     0.029 A 
ATOM     57  C   UNL A   1      41.953  28.599  31.805  1.00  0.00     0.049 A 
ATOM     58  H   UNL A   1      41.492  30.021  33.259  1.00  0.00     0.167 HD
ATOM     59  C   UNL A   1      40.231  32.728  36.380  1.00  0.00     0.031 A 
ATOM     60  C   UNL A   1      41.205  28.832  30.708  1.00  0.00     0.031 A 
ATOM     61  C   UNL A   1      39.331  33.007  35.288  1.00  0.00     0.049 A 
ATOM     62  C   UNL A   1      40.132  29.876  30.754  1.00  0.00     0.074 A 
ATOM     63  C   UNL A   1      38.367  33.998  35.199  1.00  0.00     0.029 A 
ATOM     64  N   UNL A   1      39.302  32.319  34.085  1.00  0.00    -0.354 N 
ATOM     65  N   UNL A   1      39.831  30.699  31.728  1.00  0.00    -0.248 NA
ATOM     66  C   UNL A   1      39.263  29.986  29.574  1.00  0.00     0.031 C 
ATOM     67  C   UNL A   1      37.726  33.881  33.960  1.00  0.00     0.029 A 
ATOM     68  C   UNL A   1      38.325  32.850  33.258  1.00  0.00     0.049 A 
ATOM     69  H   UNL A   1      39.889  31.563  33.852  1.00  0.00     0.167 HD
ATOM     70  C   UNL A   1      38.730  31.420  31.281  1.00  0.00     0.074 A 
ATOM     71  C   UNL A   1      38.435  30.955  29.942  1.00  0.00     0.031 C 
ATOM     72  C   UNL A   1      38.024  32.374  31.934  1.00  0.00     0.031 A 
BRANCH  59  73
ATOM     73  C   UNL A   1      40.083  33.560  37.628  1.00  0.00    -0.014 A 
ATOM     74  C   UNL A   1      39.225  33.192  38.678  1.00  0.00     0.010 A 
ATOM     75  C   UNL A   1      40.901  34.698  37.784  1.00  0.00     0.010 A 
ATOM     76  C   UNL A   1      39.166  33.964  39.846  1.00  0.00     0.020 A 
ATOM     77  C   UNL A   1      40.864  35.456  38.958  1.00  0.00     0.020 A 
ATOM     78  C   UNL A   1      39.984  35.091  39.977  1.00  0.00     0.054 A 
BRANCH  78  79
ATOM     79  S   UNL A   1      39.911  36.055  41.513  1.00  0.00     0.124 S 
ATOM     80  O   UNL A   1      41.150  36.826  41.440  1.00  0.00    -0.237 OA
ATOM     81  O   UNL A   1      38.682  36.827  41.351  1.00  0.00    -0.237 OA
ATOM     82  O   UNL A   1      39.871  35.038  42.560  1.00  0.00    -0.744 OA
ENDBRANCH  78  79
ENDBRANCH  59  73
BRANCH  60  83
ATOM     83  C   UNL A   1      41.359  27.941  29.522  1.00  0.00    -0.014 A 
ATOM     84  C   UNL A   1      42.350  28.180  28.559  1.00  0.00     0.010 A 
ATOM     85  C   UNL A   1      40.546  26.796  29.401  1.00  0.00     0.010 A 
ATOM     86  C   UNL A   1      42.545  27.276  27.509  1.00  0.00     0.020 A 
ATOM     87  C   UNL A   1      40.762  25.872  28.378  1.00  0.00     0.020 A 
ATOM     88  C   UNL A   1      41.760  26.120  27.435  1.00  0.00     0.054 A 
BRANCH  88  89
ATOM     89  S   UNL A   1      42.107  24.892  26.145  1.00  0.00     0.124 S 
ATOM     90  O   UNL A   1      41.010  23.948  26.322  1.00  0.00    -0.237 OA
ATOM     91  O   UNL A   1      42.064  25.692  24.923  1.00  0.00    -0.237 OA
ATOM     92  O   UNL A   1      43.433  24.390  26.501  1.00  0.00    -0.744 OA
ENDBRANCH  88  89
ENDBRANCH  60  83
BRANCH  72  93
ATOM     93  C   UNL A   1      36.870  32.994  31.198  1.00  0.00    -0.014 A 
ATOM     94  C   UNL A   1      35.555  32.873  31.682  1.00  0.00     0.010 A 
ATOM     95  C   UNL A   1      37.105  33.734  30.026  1.00  0.00     0.010 A 
ATOM     96  C   UNL A   1      34.492  33.458  30.990  1.00  0.00     0.020 A 
ATOM     97  C   UNL A   1      36.048  34.339  29.343  1.00  0.00     0.020 A 
ATOM     98  C   UNL A   1      34.746  34.185  29.823  1.00  0.00     0.054 A 
BRANCH  98  99
ATOM     99  S   UNL A   1      33.353  34.966  28.961  1.00  0.00     0.124 S 
ATOM    100  O   UNL A   1      32.450  35.282  30.065  1.00  0.00    -0.237 OA
ATOM    101  O   UNL A   1      33.980  36.115  28.313  1.00  0.00    -0.237 OA
ATOM    102  O   UNL A   1      32.882  33.926  28.050  1.00  0.00    -0.744 OA
ENDBRANCH  98  99
ENDBRANCH  72  93
ENDBRANCH  46  47
ENDBRANCH  39  41
ENDBRANCH  38  39
ENDBRANCH  37  38
ENDBRANCH  36  37
ENDBRANCH   1  36
TORSDOF 25
ENDMDL
MODEL 3
REMARK VINA RESULT:      -8.0      2.128      8.472
REMARK SMILES [NH3+][C@@H](Cc1c[nH]c2ccccc12)C(=O)N[C@@H](CS)C(=O)N[C@@H](CO)C(=O)OCCOC(=O)c1ccc(-c2c3nc(c(-c4ccc(S(=O)(=O)[O-])cc4)c4ccc([nH]4)c(-c4ccc(S(=O)(=O)[O-])cc4)c4nc(c(-c5ccc(S(=O)(=O)[O-])cc5)c5ccc2[nH]5)C=C4)C=C3)cc1
REMARK SMILES IDX 27 1 25 2 26 3 22 4 21 5 19 6 20 7 16 9 15 10 13 11 14 12
REMARK SMILES IDX 2 14 1 15 3 19 4 20 5 21 12 22 6 23 7 24 11 25 8 27 10 28
REMARK SMILES IDX 9 29 17 30 18 31 23 33 24 34 28 36 29 37 30 38 31 39 32 40
REMARK SMILES IDX 33 41 34 42 92 43 35 44 91 45 36 46 37 47 38 48 85 49 39 50
REMARK SMILES IDX 90 51 84 52 86 53 40 54 89 55 83 56 82 57 41 59 71 60 52 61
REMARK SMILES IDX 70 62 53 63 56 64 69 65 87 66 54 67 55 68 68 70 88 71 57 72
REMARK SMILES IDX 42 73 43 74 51 75 44 76 50 77 45 78 46 79 47 80 48 81 49 82
REMARK SMILES IDX 72 83 73 84 81 85 74 86 80 87 75 88 76 89 77 90 78 91 79 92
REMARK SMILES IDX 58 93 59 94 67 95 60 96 66 97 61 98 62 99 63 100 64 101
REMARK SMILES IDX 65 102
REMARK H PARENT 21 8 15 13 1 16 1 17 1 18 6 26 18 32 24 35 86 58 56 69
REMARK Flexibility Score: inf
ROOT
ATOM      1  O   UNL A   1      45.395  27.051  25.537  1.00  0.00    -0.460 OA
ENDROOT
BRANCH   1   2
ATOM      2  C   UNL A   1      46.472  27.790  25.142  1.00  0.00     0.331 C 
ATOM      3  O   UNL A   1      46.412  28.921  24.677  1.00  0.00    -0.250 OA
BRANCH   2   4
ATOM      4  C   UNL A   1      47.787  27.014  25.292  1.00  0.00     0.218 C 
BRANCH   4   5
ATOM      5  N   UNL A   1      47.655  25.781  26.077  1.00  0.00    -0.339 N 
ATOM      6  C   UNL A   1      47.873  25.538  27.391  1.00  0.00     0.244 C 
ATOM      7  O   UNL A   1      48.423  24.455  27.627  1.00  0.00    -0.273 OA
ATOM      8  H   UNL A   1      47.358  24.996  25.560  1.00  0.00     0.164 HD
BRANCH   6   9
ATOM      9  C   UNL A   1      47.542  26.540  28.536  1.00  0.00     0.181 C 
BRANCH   9  10
ATOM     10  N   UNL A   1      46.115  26.847  28.592  1.00  0.00    -0.338 N 
ATOM     11  C   UNL A   1      45.086  26.237  29.242  1.00  0.00     0.279 C 
ATOM     12  O   UNL A   1      43.970  26.750  29.081  1.00  0.00    -0.268 OA
ATOM     13  H   UNL A   1      45.850  27.636  28.066  1.00  0.00     0.164 HD
BRANCH  11  14
ATOM     14  C   UNL A   1      45.226  24.977  30.137  1.00  0.00     0.275 C 
BRANCH  14  15
ATOM     15  N   UNL A   1      44.518  25.152  31.424  1.00  0.00    -0.347 N 
ATOM     16  H   UNL A   1      43.511  25.174  31.257  1.00  0.00     0.345 HD
ATOM     17  H   UNL A   1      44.809  26.029  31.855  1.00  0.00     0.345 HD
ATOM     18  H   UNL A   1      44.744  24.376  32.045  1.00  0.00     0.345 HD
ENDBRANCH  14  15
BRANCH  14  19
ATOM     19  C   UNL A   1      45.056  23.622  29.404  1.00  0.00     0.113 C 
BRANCH  19  20
ATOM     20  C   UNL A   1      43.978  23.550  28.361  1.00  0.00    -0.016 A 
ATOM     21  C   UNL A   1      42.619  23.584  28.607  1.00  0.00     0.087 A 
ATOM     22  C   UNL A   1      44.130  23.393  26.942  1.00  0.00     0.003 A 
ATOM     23  N   UNL A   1      41.964  23.269  27.445  1.00  0.00    -0.361 N 
ATOM     24  C   UNL A   1      42.867  23.106  26.422  1.00  0.00     0.046 A 
ATOM     25  C   UNL A   1      45.232  23.385  26.061  1.00  0.00     0.010 A 
ATOM     26  H   UNL A   1      40.988  23.173  27.357  1.00  0.00     0.166 HD
ATOM     27  C   UNL A   1      42.663  22.720  25.092  1.00  0.00     0.026 A 
ATOM     28  C   UNL A   1      45.042  23.033  24.720  1.00  0.00     0.001 A 
ATOM     29  C   UNL A   1      43.779  22.683  24.251  1.00  0.00     0.002 A 
ENDBRANCH  19  20
ENDBRANCH  14  19
ENDBRANCH  11  14
ENDBRANCH   9  10
BRANCH   9  30
ATOM     30  C   UNL A   1      48.243  26.281  29.876  1.00  0.00     0.101 C 
BRANCH  30  31
ATOM     31  S   UNL A   1      49.894  27.044  30.008  1.00  0.00    -0.177 SA
ATOM     32  H   UNL A   1      49.761  28.389  30.165  1.00  0.00     0.102 HD
ENDBRANCH  30  31
ENDBRANCH   9  30
ENDBRANCH   6   9
ENDBRANCH   4   5
BRANCH   4  33
ATOM     33  C   UNL A   1      48.288  26.662  23.881  1.00  0.00     0.193 C 
BRANCH  33  34
ATOM     34  O   UNL A   1      48.783  27.828  23.209  1.00  0.00    -0.394 OA
ATOM     35  H   UNL A   1      48.481  28.623  23.675  1.00  0.00     0.210 HD
ENDBRANCH  33  34
ENDBRANCH   4  33
ENDBRANCH   2   4
ENDBRANCH   1   2
BRANCH   1  36
ATOM     36  C   UNL A   1      44.097  27.662  25.381  1.00  0.00     0.274 C 
BRANCH  36  37
ATOM     37  C   UNL A   1      43.028  26.575  25.370  1.00  0.00     0.275 C 
BRANCH  37  38
ATOM     38  O   UNL A   1      41.748  27.206  25.537  1.00  0.00    -0.458 OA
BRANCH  38  39
ATOM     39  C   UNL A   1      40.826  26.527  26.261  1.00  0.00     0.338 C 
ATOM     40  O   UNL A   1      40.263  25.497  25.939  1.00  0.00    -0.246 OA
BRANCH  39  41
ATOM     41  C   UNL A   1      40.617  27.212  27.560  1.00  0.00     0.060 A 
ATOM     42  C   UNL A   1      41.163  28.471  27.794  1.00  0.00     0.016 A 
ATOM     43  C   UNL A   1      39.950  26.554  28.598  1.00  0.00     0.016 A 
ATOM     44  C   UNL A   1      41.107  29.025  29.075  1.00  0.00     0.010 A 
ATOM     45  C   UNL A   1      39.820  27.167  29.856  1.00  0.00     0.010 A 
ATOM     46  C   UNL A   1      40.426  28.405  30.134  1.00  0.00    -0.014 A 
BRANCH  46  47
ATOM     47  C   UNL A   1      40.378  29.020  31.509  1.00  0.00     0.031 A 
ATOM     48  C   UNL A   1      39.266  29.975  31.892  1.00  0.00     0.074 A 
ATOM     49  C   UNL A   1      41.304  28.735  32.455  1.00  0.00     0.049 A 
ATOM     50  N   UNL A   1      39.226  30.853  32.867  1.00  0.00    -0.248 NA
ATOM     51  C   UNL A   1      38.047  29.956  31.066  1.00  0.00     0.031 C 
ATOM     52  C   UNL A   1      42.406  27.780  32.323  1.00  0.00     0.029 A 
ATOM     53  N   UNL A   1      41.456  29.223  33.735  1.00  0.00    -0.354 N 
ATOM     54  C   UNL A   1      38.031  31.550  32.712  1.00  0.00     0.074 A 
ATOM     55  C   UNL A   1      37.361  30.979  31.563  1.00  0.00     0.031 C 
ATOM     56  C   UNL A   1      43.059  27.687  33.487  1.00  0.00     0.029 A 
ATOM     57  C   UNL A   1      42.550  28.706  34.394  1.00  0.00     0.049 A 
ATOM     58  H   UNL A   1      40.843  29.877  34.141  1.00  0.00     0.167 HD
ATOM     59  C   UNL A   1      37.548  32.582  33.449  1.00  0.00     0.031 A 
ATOM     60  C   UNL A   1      43.162  29.060  35.542  1.00  0.00     0.031 A 
ATOM     61  C   UNL A   1      38.171  33.087  34.648  1.00  0.00     0.049 A 
ATOM     62  C   UNL A   1      42.665  30.248  36.306  1.00  0.00     0.074 A 
ATOM     63  C   UNL A   1      37.747  34.119  35.470  1.00  0.00     0.029 A 
ATOM     64  N   UNL A   1      39.330  32.582  35.215  1.00  0.00    -0.354 N 
ATOM     65  N   UNL A   1      41.622  31.003  36.061  1.00  0.00    -0.248 NA
ATOM     66  C   UNL A   1      43.457  30.665  37.472  1.00  0.00     0.031 C 
ATOM     67  C   UNL A   1      38.673  34.266  36.509  1.00  0.00     0.029 A 
ATOM     68  C   UNL A   1      39.646  33.292  36.363  1.00  0.00     0.049 A 
ATOM     69  H   UNL A   1      39.853  31.829  34.856  1.00  0.00     0.167 HD
ATOM     70  C   UNL A   1      41.638  31.991  37.038  1.00  0.00     0.074 A 
ATOM     71  C   UNL A   1      42.777  31.724  37.892  1.00  0.00     0.031 C 
ATOM     72  C   UNL A   1      40.788  33.033  37.199  1.00  0.00     0.031 A 
BRANCH  59  73
ATOM     73  C   UNL A   1      36.310  33.292  32.962  1.00  0.00    -0.014 A 
ATOM     74  C   UNL A   1      35.047  33.077  33.539  1.00  0.00     0.010 A 
ATOM     75  C   UNL A   1      36.441  34.268  31.953  1.00  0.00     0.010 A 
ATOM     76  C   UNL A   1      33.935  33.804  33.094  1.00  0.00     0.020 A 
ATOM     77  C   UNL A   1      35.340  35.014  31.525  1.00  0.00     0.020 A 
ATOM     78  C   UNL A   1      34.088  34.766  32.090  1.00  0.00     0.054 A 
BRANCH  78  79
ATOM     79  S   UNL A   1      32.638  35.715  31.555  1.00  0.00     0.124 S 
ATOM     80  O   UNL A   1      31.613  35.245  32.485  1.00  0.00    -0.237 OA
ATOM     81  O   UNL A   1      33.069  37.098  31.744  1.00  0.00    -0.237 OA
ATOM     82  O   UNL A   1      32.449  35.310  30.164  1.00  0.00    -0.744 OA
ENDBRANCH  78  79
ENDBRANCH  59  73
BRANCH  60  83
ATOM     83  C   UNL A   1      44.413  28.356  35.944  1.00  0.00    -0.014 A 
ATOM     84  C   UNL A   1      44.374  27.223  36.771  1.00  0.00     0.010 A 
ATOM     85  C   UNL A   1      45.652  28.788  35.429  1.00  0.00     0.010 A 
ATOM     86  C   UNL A   1      45.549  26.517  37.053  1.00  0.00     0.020 A 
ATOM     87  C   UNL A   1      46.819  28.066  35.676  1.00  0.00     0.020 A 
ATOM     88  C   UNL A   1      46.761  26.934  36.491  1.00  0.00     0.054 A 
BRANCH  88  89
ATOM     89  S   UNL A   1      48.253  25.938  36.760  1.00  0.00     0.124 S 
ATOM     90  O   UNL A   1      49.241  26.649  35.957  1.00  0.00    -0.237 OA
ATOM     91  O   UNL A   1      48.435  26.019  38.207  1.00  0.00    -0.237 OA
ATOM     92  O   UNL A   1      47.873  24.616  36.264  1.00  0.00    -0.744 OA
ENDBRANCH  88  89
ENDBRANCH  60  83
BRANCH  72  93
ATOM     93  C   UNL A   1      41.046  33.954  38.358  1.00  0.00    -0.014 A 
ATOM     94  C   UNL A   1      41.826  35.114  38.200  1.00  0.00     0.010 A 
ATOM     95  C   UNL A   1      40.478  33.673  39.614  1.00  0.00     0.010 A 
ATOM     96  C   UNL A   1      42.054  35.963  39.285  1.00  0.00     0.020 A 
ATOM     97  C   UNL A   1      40.686  34.532  40.696  1.00  0.00     0.020 A 
ATOM     98  C   UNL A   1      41.485  35.665  40.527  1.00  0.00     0.054 A 
BRANCH  98  99
ATOM     99  S   UNL A   1      41.767  36.802  41.912  1.00  0.00     0.124 S 
ATOM    100  O   UNL A   1      42.033  38.061  41.223  1.00  0.00    -0.237 OA
ATOM    101  O   UNL A   1      40.503  36.739  42.642  1.00  0.00    -0.237 OA
ATOM    102  O   UNL A   1      42.911  36.220  42.611  1.00  0.00    -0.744 OA
ENDBRANCH  98  99
ENDBRANCH  72  93
ENDBRANCH  46  47
ENDBRANCH  39  41
ENDBRANCH  38  39
ENDBRANCH  37  38
ENDBRANCH  36  37
ENDBRANCH   1  36
TORSDOF 25
ENDMDL
