MODEL 1
REMARK VINA RESULT:      -9.1      0.000      0.000
REMARK SMILES CC(C)OCCS(=O)(=O)N1CCC[C@H](C(=O)OCCOC(=O)c2ccc(-c3c4nc(c(-c5ccc(S(=O)(=O)[O-])cc5)c5ccc([nH]5)c(-c5ccc(S(=O)(=O)[O-])cc5)c5nc(c(-c6ccc(S(=O)(=O)[O-])cc6)c6ccc3[nH]6)C=C5)C=C4)cc2)C1
REMARK SMILES IDX 18 1 17 2 15 3 16 4 14 5 10 6 11 7 83 8 12 9 13 10 7 11 8 12
REMARK SMILES IDX 9 13 6 14 5 15 4 16 2 17 1 18 3 19 19 20 20 21 21 22 22 23
REMARK SMILES IDX 23 24 24 25 82 26 25 27 81 28 26 29 27 30 28 31 75 32 29 33
REMARK SMILES IDX 80 34 74 35 76 36 30 37 79 38 73 39 72 40 31 42 61 43 42 44
REMARK SMILES IDX 60 45 43 46 46 47 59 48 77 49 44 50 45 51 58 53 78 54 47 55
REMARK SMILES IDX 32 56 33 57 41 58 34 59 40 60 35 61 36 62 37 63 38 64 39 65
REMARK SMILES IDX 62 66 63 67 71 68 64 69 70 70 65 71 66 72 67 73 68 74 69 75
REMARK SMILES IDX 48 76 49 77 57 78 50 79 56 80 51 81 52 82 53 83 54 84 55 85
REMARK H PARENT 76 41 46 52
REMARK Flexibility Score: inf
ROOT
ATOM      1  C   UNL A   1      41.737  19.511  26.711  1.00  0.00     0.274 C 
ENDROOT
BRANCH   1   2
ATOM      2  O   UNL A   1      42.008  20.875  27.083  1.00  0.00    -0.462 OA
BRANCH   2   3
ATOM      3  C   UNL A   1      41.363  21.829  26.362  1.00  0.00     0.310 C 
ATOM      4  O   UNL A   1      41.860  22.477  25.450  1.00  0.00    -0.252 OA
BRANCH   3   5
ATOM      5  C   UNL A   1      39.968  22.093  26.882  1.00  0.00     0.114 C 
ATOM      6  N   UNL A   1      37.692  22.343  25.908  1.00  0.00    -0.201 NA
ATOM      7  C   UNL A   1      37.680  23.820  26.043  1.00  0.00     0.102 C 
ATOM      8  C   UNL A   1      39.009  21.690  25.761  1.00  0.00     0.117 C 
ATOM      9  C   UNL A   1      39.043  24.392  26.416  1.00  0.00     0.018 C 
ATOM     10  C   UNL A   1      39.762  23.513  27.423  1.00  0.00     0.018 C 
BRANCH   6  11
ATOM     11  S   UNL A   1      36.358  21.632  25.137  1.00  0.00     0.216 S 
ATOM     12  O   UNL A   1      36.551  20.198  25.093  1.00  0.00    -0.212 OA
ATOM     13  O   UNL A   1      36.112  22.372  23.917  1.00  0.00    -0.212 OA
BRANCH  11  14
ATOM     14  C   UNL A   1      35.040  22.014  26.286  1.00  0.00     0.182 C 
BRANCH  14  15
ATOM     15  C   UNL A   1      33.915  20.995  26.259  1.00  0.00     0.178 C 
BRANCH  15  16
ATOM     16  O   UNL A   1      33.303  20.884  24.973  1.00  0.00    -0.378 OA
BRANCH  16  17
ATOM     17  C   UNL A   1      33.174  19.581  24.391  1.00  0.00     0.112 C 
ATOM     18  C   UNL A   1      32.821  18.471  25.381  1.00  0.00     0.038 C 
ATOM     19  C   UNL A   1      32.224  19.606  23.205  1.00  0.00     0.038 C 
ENDBRANCH  16  17
ENDBRANCH  15  16
ENDBRANCH  14  15
ENDBRANCH  11  14
ENDBRANCH   6  11
ENDBRANCH   3   5
ENDBRANCH   2   3
ENDBRANCH   1   2
BRANCH   1  20
ATOM     20  C   UNL A   1      42.919  18.865  25.986  1.00  0.00     0.275 C 
BRANCH  20  21
ATOM     21  O   UNL A   1      43.272  19.578  24.788  1.00  0.00    -0.458 OA
BRANCH  21  22
ATOM     22  C   UNL A   1      44.600  19.756  24.592  1.00  0.00     0.338 C 
ATOM     23  O   UNL A   1      45.396  18.935  24.168  1.00  0.00    -0.246 OA
BRANCH  22  24
ATOM     24  C   UNL A   1      44.966  21.153  24.869  1.00  0.00     0.060 A 
ATOM     25  C   UNL A   1      45.315  21.508  26.177  1.00  0.00     0.016 A 
ATOM     26  C   UNL A   1      44.879  22.119  23.867  1.00  0.00     0.016 A 
ATOM     27  C   UNL A   1      45.571  22.844  26.489  1.00  0.00     0.010 A 
ATOM     28  C   UNL A   1      45.138  23.455  24.183  1.00  0.00     0.010 A 
ATOM     29  C   UNL A   1      45.472  23.829  25.497  1.00  0.00    -0.014 A 
BRANCH  29  30
ATOM     30  C   UNL A   1      45.663  25.262  25.828  1.00  0.00     0.031 A 
ATOM     31  C   UNL A   1      47.041  25.861  25.774  1.00  0.00     0.074 A 
ATOM     32  C   UNL A   1      44.613  26.015  26.206  1.00  0.00     0.049 A 
ATOM     33  N   UNL A   1      47.444  27.044  26.161  1.00  0.00    -0.248 NA
ATOM     34  C   UNL A   1      48.107  25.012  25.217  1.00  0.00     0.031 C 
ATOM     35  C   UNL A   1      43.222  25.563  26.258  1.00  0.00     0.029 A 
ATOM     36  N   UNL A   1      44.559  27.317  26.636  1.00  0.00    -0.354 N 
ATOM     37  C   UNL A   1      48.813  27.074  25.921  1.00  0.00     0.074 A 
ATOM     38  C   UNL A   1      49.173  25.785  25.369  1.00  0.00     0.031 C 
ATOM     39  C   UNL A   1      42.452  26.569  26.702  1.00  0.00     0.029 A 
ATOM     40  C   UNL A   1      43.300  27.716  27.017  1.00  0.00     0.049 A 
ATOM     41  H   UNL A   1      45.346  27.908  26.668  1.00  0.00     0.167 HD
ATOM     42  C   UNL A   1      49.690  28.082  26.145  1.00  0.00     0.031 A 
ATOM     43  C   UNL A   1      42.881  28.863  27.589  1.00  0.00     0.031 A 
ATOM     44  C   UNL A   1      49.325  29.361  26.697  1.00  0.00     0.049 A 
ATOM     45  C   UNL A   1      43.884  29.944  27.889  1.00  0.00     0.074 A 
ATOM     46  C   UNL A   1      50.137  30.453  26.949  1.00  0.00     0.029 A 
ATOM     47  N   UNL A   1      48.043  29.719  27.088  1.00  0.00    -0.354 N 
ATOM     48  N   UNL A   1      45.175  29.958  27.658  1.00  0.00    -0.248 NA
ATOM     49  C   UNL A   1      43.372  31.166  28.528  1.00  0.00     0.031 C 
ATOM     50  C   UNL A   1      49.357  31.453  27.539  1.00  0.00     0.029 A 
ATOM     51  C   UNL A   1      48.046  31.006  27.600  1.00  0.00     0.049 A 
ATOM     52  H   UNL A   1      47.249  29.144  27.013  1.00  0.00     0.167 HD
ATOM     53  C   UNL A   1      45.625  31.199  28.100  1.00  0.00     0.074 A 
ATOM     54  C   UNL A   1      44.467  31.911  28.598  1.00  0.00     0.031 C 
ATOM     55  C   UNL A   1      46.884  31.703  28.093  1.00  0.00     0.031 A 
BRANCH  42  56
ATOM     56  C   UNL A   1      51.141  27.830  25.827  1.00  0.00    -0.014 A 
ATOM     57  C   UNL A   1      51.690  28.185  24.582  1.00  0.00     0.010 A 
ATOM     58  C   UNL A   1      51.977  27.262  26.806  1.00  0.00     0.010 A 
ATOM     59  C   UNL A   1      53.039  27.941  24.309  1.00  0.00     0.020 A 
ATOM     60  C   UNL A   1      53.332  27.040  26.546  1.00  0.00     0.020 A 
ATOM     61  C   UNL A   1      53.851  27.366  25.291  1.00  0.00     0.054 A 
BRANCH  61  62
ATOM     62  S   UNL A   1      55.602  27.075  24.915  1.00  0.00     0.124 S 
ATOM     63  O   UNL A   1      56.016  26.238  26.037  1.00  0.00    -0.237 OA
ATOM     64  O   UNL A   1      55.544  26.404  23.619  1.00  0.00    -0.237 OA
ATOM     65  O   UNL A   1      56.179  28.417  24.893  1.00  0.00    -0.744 OA
ENDBRANCH  61  62
ENDBRANCH  42  56
BRANCH  43  66
ATOM     66  C   UNL A   1      41.446  29.033  27.946  1.00  0.00    -0.014 A 
ATOM     67  C   UNL A   1      41.032  28.976  29.289  1.00  0.00     0.010 A 
ATOM     68  C   UNL A   1      40.485  29.258  26.943  1.00  0.00     0.010 A 
ATOM     69  C   UNL A   1      39.682  29.127  29.619  1.00  0.00     0.020 A 
ATOM     70  C   UNL A   1      39.139  29.438  27.272  1.00  0.00     0.020 A 
ATOM     71  C   UNL A   1      38.744  29.360  28.609  1.00  0.00     0.054 A 
BRANCH  71  72
ATOM     72  S   UNL A   1      37.006  29.607  29.067  1.00  0.00     0.124 S 
ATOM     73  O   UNL A   1      36.901  31.063  29.082  1.00  0.00    -0.237 OA
ATOM     74  O   UNL A   1      36.295  28.932  27.984  1.00  0.00    -0.237 OA
ATOM     75  O   UNL A   1      36.901  28.957  30.372  1.00  0.00    -0.744 OA
ENDBRANCH  71  72
ENDBRANCH  43  66
BRANCH  55  76
ATOM     76  C   UNL A   1      47.071  33.107  28.605  1.00  0.00    -0.014 A 
ATOM     77  C   UNL A   1      47.396  33.359  29.949  1.00  0.00     0.010 A 
ATOM     78  C   UNL A   1      46.967  34.188  27.710  1.00  0.00     0.010 A 
ATOM     79  C   UNL A   1      47.581  34.670  30.398  1.00  0.00     0.020 A 
ATOM     80  C   UNL A   1      47.177  35.498  28.149  1.00  0.00     0.020 A 
ATOM     81  C   UNL A   1      47.470  35.732  29.493  1.00  0.00     0.054 A 
BRANCH  81  82
ATOM     82  S   UNL A   1      47.753  37.421  30.090  1.00  0.00     0.124 S 
ATOM     83  O   UNL A   1      48.836  37.228  31.050  1.00  0.00    -0.237 OA
ATOM     84  O   UNL A   1      48.117  38.137  28.869  1.00  0.00    -0.237 OA
ATOM     85  O   UNL A   1      46.468  37.804  30.669  1.00  0.00    -0.744 OA
ENDBRANCH  81  82
ENDBRANCH  55  76
ENDBRANCH  29  30
ENDBRANCH  22  24
ENDBRANCH  21  22
ENDBRANCH  20  21
ENDBRANCH   1  20
TORSDOF 19
ENDMDL
MODEL 2
REMARK VINA RESULT:      -9.0      3.803      9.847
REMARK SMILES CC(C)OCCS(=O)(=O)N1CCC[C@H](C(=O)OCCOC(=O)c2ccc(-c3c4nc(c(-c5ccc(S(=O)(=O)[O-])cc5)c5ccc([nH]5)c(-c5ccc(S(=O)(=O)[O-])cc5)c5nc(c(-c6ccc(S(=O)(=O)[O-])cc6)c6ccc3[nH]6)C=C5)C=C4)cc2)C1
REMARK SMILES IDX 18 1 17 2 15 3 16 4 14 5 10 6 11 7 83 8 12 9 13 10 7 11 8 12
REMARK SMILES IDX 9 13 6 14 5 15 4 16 2 17 1 18 3 19 19 20 20 21 21 22 22 23
REMARK SMILES IDX 23 24 24 25 82 26 25 27 81 28 26 29 27 30 28 31 75 32 29 33
REMARK SMILES IDX 80 34 74 35 76 36 30 37 79 38 73 39 72 40 31 42 61 43 42 44
REMARK SMILES IDX 60 45 43 46 46 47 59 48 77 49 44 50 45 51 58 53 78 54 47 55
REMARK SMILES IDX 32 56 33 57 41 58 34 59 40 60 35 61 36 62 37 63 38 64 39 65
REMARK SMILES IDX 62 66 63 67 71 68 64 69 70 70 65 71 66 72 67 73 68 74 69 75
REMARK SMILES IDX 48 76 49 77 57 78 50 79 56 80 51 81 52 82 53 83 54 84 55 85
REMARK H PARENT 76 41 46 52
REMARK Flexibility Score: inf
ROOT
ATOM      1  C   UNL A   1      31.860  28.277  27.744  1.00  0.00     0.274 C 
ENDROOT
BRANCH   1   2
ATOM      2  O   UNL A   1      31.036  27.616  26.766  1.00  0.00    -0.462 OA
BRANCH   2   3
ATOM      3  C   UNL A   1      31.385  27.806  25.466  1.00  0.00     0.310 C 
ATOM      4  O   UNL A   1      31.176  28.828  24.825  1.00  0.00    -0.252 OA
BRANCH   3   5
ATOM      5  C   UNL A   1      31.974  26.559  24.844  1.00  0.00     0.114 C 
ATOM      6  N   UNL A   1      32.449  24.228  25.572  1.00  0.00    -0.201 NA
ATOM      7  C   UNL A   1      33.906  24.458  25.723  1.00  0.00     0.102 C 
ATOM      8  C   UNL A   1      31.560  25.395  25.746  1.00  0.00     0.117 C 
ATOM      9  C   UNL A   1      34.285  25.932  25.632  1.00  0.00     0.018 C 
ATOM     10  C   UNL A   1      33.478  26.652  24.567  1.00  0.00     0.018 C 
BRANCH   6  11
ATOM     11  S   UNL A   1      31.862  22.702  26.029  1.00  0.00     0.216 S 
ATOM     12  O   UNL A   1      30.421  22.697  25.898  1.00  0.00    -0.212 OA
ATOM     13  O   UNL A   1      32.481  22.355  27.290  1.00  0.00    -0.212 OA
BRANCH  11  14
ATOM     14  C   UNL A   1      32.572  21.656  24.762  1.00  0.00     0.182 C 
BRANCH  14  15
ATOM     15  C   UNL A   1      32.904  20.262  25.261  1.00  0.00     0.178 C 
BRANCH  15  16
ATOM     16  O   UNL A   1      32.054  19.260  24.700  1.00  0.00    -0.378 OA
BRANCH  16  17
ATOM     17  C   UNL A   1      32.661  18.098  24.121  1.00  0.00     0.112 C 
ATOM     18  C   UNL A   1      32.458  17.953  22.613  1.00  0.00     0.038 C 
ATOM     19  C   UNL A   1      34.128  18.001  24.507  1.00  0.00     0.038 C 
ENDBRANCH  16  17
ENDBRANCH  15  16
ENDBRANCH  14  15
ENDBRANCH  11  14
ENDBRANCH   6  11
ENDBRANCH   3   5
ENDBRANCH   2   3
ENDBRANCH   1   2
BRANCH   1  20
ATOM     20  C   UNL A   1      32.388  29.621  27.240  1.00  0.00     0.275 C 
BRANCH  20  21
ATOM     21  O   UNL A   1      33.814  29.607  27.058  1.00  0.00    -0.458 OA
BRANCH  21  22
ATOM     22  C   UNL A   1      34.501  30.495  27.815  1.00  0.00     0.338 C 
ATOM     23  O   UNL A   1      34.084  31.542  28.279  1.00  0.00    -0.246 OA
BRANCH  22  24
ATOM     24  C   UNL A   1      35.843  29.972  28.109  1.00  0.00     0.060 A 
ATOM     25  C   UNL A   1      36.114  29.506  29.400  1.00  0.00     0.016 A 
ATOM     26  C   UNL A   1      36.849  30.022  27.144  1.00  0.00     0.016 A 
ATOM     27  C   UNL A   1      37.405  29.095  29.735  1.00  0.00     0.010 A 
ATOM     28  C   UNL A   1      38.141  29.608  27.482  1.00  0.00     0.010 A 
ATOM     29  C   UNL A   1      38.430  29.156  28.782  1.00  0.00    -0.014 A 
BRANCH  29  30
ATOM     30  C   UNL A   1      39.824  28.798  29.142  1.00  0.00     0.031 A 
ATOM     31  C   UNL A   1      40.714  29.827  29.783  1.00  0.00     0.074 A 
ATOM     32  C   UNL A   1      40.301  27.570  28.866  1.00  0.00     0.049 A 
ATOM     33  N   UNL A   1      41.996  29.766  30.040  1.00  0.00    -0.248 NA
ATOM     34  C   UNL A   1      40.079  31.094  30.178  1.00  0.00     0.031 C 
ATOM     35  C   UNL A   1      39.526  26.472  28.285  1.00  0.00     0.029 A 
ATOM     36  N   UNL A   1      41.559  27.046  29.022  1.00  0.00    -0.354 N 
ATOM     37  C   UNL A   1      42.327  30.994  30.603  1.00  0.00     0.074 A 
ATOM     38  C   UNL A   1      41.114  31.784  30.635  1.00  0.00     0.031 C 
ATOM     39  C   UNL A   1      40.328  25.407  28.128  1.00  0.00     0.029 A 
ATOM     40  C   UNL A   1      41.682  25.763  28.544  1.00  0.00     0.049 A 
ATOM     41  H   UNL A   1      42.302  27.541  29.438  1.00  0.00     0.167 HD
ATOM     42  C   UNL A   1      43.532  31.423  31.048  1.00  0.00     0.031 A 
ATOM     43  C   UNL A   1      42.769  24.975  28.421  1.00  0.00     0.031 A 
ATOM     44  C   UNL A   1      44.735  30.632  31.011  1.00  0.00     0.049 A 
ATOM     45  C   UNL A   1      44.110  25.499  28.862  1.00  0.00     0.074 A 
ATOM     46  C   UNL A   1      46.002  30.972  31.451  1.00  0.00     0.029 A 
ATOM     47  N   UNL A   1      44.822  29.345  30.501  1.00  0.00    -0.354 N 
ATOM     48  N   UNL A   1      44.408  26.661  29.390  1.00  0.00    -0.248 NA
ATOM     49  C   UNL A   1      45.262  24.601  28.688  1.00  0.00     0.031 C 
ATOM     50  C   UNL A   1      46.866  29.911  31.160  1.00  0.00     0.029 A 
ATOM     51  C   UNL A   1      46.125  28.885  30.594  1.00  0.00     0.049 A 
ATOM     52  H   UNL A   1      44.068  28.834  30.128  1.00  0.00     0.167 HD
ATOM     53  C   UNL A   1      45.778  26.625  29.636  1.00  0.00     0.074 A 
ATOM     54  C   UNL A   1      46.244  25.322  29.212  1.00  0.00     0.031 C 
ATOM     55  C   UNL A   1      46.576  27.584  30.167  1.00  0.00     0.031 A 
BRANCH  42  56
ATOM     56  C   UNL A   1      43.619  32.830  31.581  1.00  0.00    -0.014 A 
ATOM     57  C   UNL A   1      43.986  33.905  30.752  1.00  0.00     0.010 A 
ATOM     58  C   UNL A   1      43.287  33.084  32.924  1.00  0.00     0.010 A 
ATOM     59  C   UNL A   1      44.060  35.202  31.268  1.00  0.00     0.020 A 
ATOM     60  C   UNL A   1      43.334  34.383  33.438  1.00  0.00     0.020 A 
ATOM     61  C   UNL A   1      43.737  35.433  32.609  1.00  0.00     0.054 A 
BRANCH  61  62
ATOM     62  S   UNL A   1      43.826  37.128  33.248  1.00  0.00     0.124 S 
ATOM     63  O   UNL A   1      45.123  37.130  33.918  1.00  0.00    -0.237 OA
ATOM     64  O   UNL A   1      43.747  37.934  32.032  1.00  0.00    -0.237 OA
ATOM     65  O   UNL A   1      42.668  37.226  34.133  1.00  0.00    -0.744 OA
ENDBRANCH  61  62
ENDBRANCH  42  56
BRANCH  43  66
ATOM     66  C   UNL A   1      42.638  23.619  27.823  1.00  0.00    -0.014 A 
ATOM     67  C   UNL A   1      42.449  22.491  28.642  1.00  0.00     0.010 A 
ATOM     68  C   UNL A   1      42.698  23.447  26.428  1.00  0.00     0.010 A 
ATOM     69  C   UNL A   1      42.336  21.218  28.077  1.00  0.00     0.020 A 
ATOM     70  C   UNL A   1      42.556  22.180  25.858  1.00  0.00     0.020 A 
ATOM     71  C   UNL A   1      42.387  21.070  26.688  1.00  0.00     0.054 A 
BRANCH  71  72
ATOM     72  S   UNL A   1      42.184  19.414  25.975  1.00  0.00     0.124 S 
ATOM     73  O   UNL A   1      42.592  18.555  27.083  1.00  0.00    -0.237 OA
ATOM     74  O   UNL A   1      40.762  19.386  25.643  1.00  0.00    -0.237 OA
ATOM     75  O   UNL A   1      43.085  19.424  24.825  1.00  0.00    -0.744 OA
ENDBRANCH  71  72
ENDBRANCH  43  66
BRANCH  55  76
ATOM     76  C   UNL A   1      48.032  27.249  30.355  1.00  0.00    -0.014 A 
ATOM     77  C   UNL A   1      48.952  27.366  29.299  1.00  0.00     0.010 A 
ATOM     78  C   UNL A   1      48.492  26.856  31.625  1.00  0.00     0.010 A 
ATOM     79  C   UNL A   1      50.302  27.064  29.501  1.00  0.00     0.020 A 
ATOM     80  C   UNL A   1      49.845  26.579  31.838  1.00  0.00     0.020 A 
ATOM     81  C   UNL A   1      50.740  26.672  30.771  1.00  0.00     0.054 A 
BRANCH  81  82
ATOM     82  S   UNL A   1      52.503  26.324  31.019  1.00  0.00     0.124 S 
ATOM     83  O   UNL A   1      53.017  26.369  29.654  1.00  0.00    -0.237 OA
ATOM     84  O   UNL A   1      52.928  27.421  31.886  1.00  0.00    -0.237 OA
ATOM     85  O   UNL A   1      52.511  25.004  31.646  1.00  0.00    -0.744 OA
ENDBRANCH  81  82
ENDBRANCH  55  76
ENDBRANCH  29  30
ENDBRANCH  22  24
ENDBRANCH  21  22
ENDBRANCH  20  21
ENDBRANCH   1  20
TORSDOF 19
ENDMDL
MODEL 3
REMARK VINA RESULT:      -9.0      3.969      9.948
REMARK SMILES CC(C)OCCS(=O)(=O)N1CCC[C@H](C(=O)OCCOC(=O)c2ccc(-c3c4nc(c(-c5ccc(S(=O)(=O)[O-])cc5)c5ccc([nH]5)c(-c5ccc(S(=O)(=O)[O-])cc5)c5nc(c(-c6ccc(S(=O)(=O)[O-])cc6)c6ccc3[nH]6)C=C5)C=C4)cc2)C1
REMARK SMILES IDX 18 1 17 2 15 3 16 4 14 5 10 6 11 7 83 8 12 9 13 10 7 11 8 12
REMARK SMILES IDX 9 13 6 14 5 15 4 16 2 17 1 18 3 19 19 20 20 21 21 22 22 23
REMARK SMILES IDX 23 24 24 25 82 26 25 27 81 28 26 29 27 30 28 31 75 32 29 33
REMARK SMILES IDX 80 34 74 35 76 36 30 37 79 38 73 39 72 40 31 42 61 43 42 44
REMARK SMILES IDX 60 45 43 46 46 47 59 48 77 49 44 50 45 51 58 53 78 54 47 55
REMARK SMILES IDX 32 56 33 57 41 58 34 59 40 60 35 61 36 62 37 63 38 64 39 65
REMARK SMILES IDX 62 66 63 67 71 68 64 69 70 70 65 71 66 72 67 73 68 74 69 75
REMARK SMILES IDX 48 76 49 77 57 78 50 79 56 80 51 81 52 82 53 83 54 84 55 85
REMARK H PARENT 76 41 46 52
REMARK Flexibility Score: inf
ROOT
ATOM      1  C   UNL A   1      32.723  29.187  24.537  1.00  0.00     0.274 C 
ENDROOT
BRANCH   1   2
ATOM      2  O   UNL A   1      32.004  27.996  24.165  1.00  0.00    -0.462 OA
BRANCH   2   3
ATOM      3  C   UNL A   1      32.727  27.037  23.527  1.00  0.00     0.310 C 
ATOM      4  O   UNL A   1      33.810  27.218  22.985  1.00  0.00    -0.252 OA
BRANCH   3   5
ATOM      5  C   UNL A   1      31.991  25.718  23.460  1.00  0.00     0.114 C 
ATOM      6  N   UNL A   1      32.068  23.542  24.664  1.00  0.00    -0.201 NA
ATOM      7  C   UNL A   1      32.780  22.839  23.570  1.00  0.00     0.102 C 
ATOM      8  C   UNL A   1      32.279  25.000  24.780  1.00  0.00     0.117 C 
ATOM      9  C   UNL A   1      33.294  23.788  22.492  1.00  0.00     0.018 C 
ATOM     10  C   UNL A   1      32.298  24.896  22.203  1.00  0.00     0.018 C 
BRANCH   6  11
ATOM     11  S   UNL A   1      31.789  22.661  26.088  1.00  0.00     0.216 S 
ATOM     12  O   UNL A   1      30.527  21.965  25.968  1.00  0.00    -0.212 OA
ATOM     13  O   UNL A   1      32.027  23.550  27.206  1.00  0.00    -0.212 OA
BRANCH  11  14
ATOM     14  C   UNL A   1      33.126  21.473  26.038  1.00  0.00     0.182 C 
BRANCH  14  15
ATOM     15  C   UNL A   1      34.317  21.883  26.884  1.00  0.00     0.178 C 
BRANCH  15  16
ATOM     16  O   UNL A   1      35.564  21.503  26.298  1.00  0.00    -0.378 OA
BRANCH  16  17
ATOM     17  C   UNL A   1      36.285  22.482  25.538  1.00  0.00     0.112 C 
ATOM     18  C   UNL A   1      36.440  22.152  24.054  1.00  0.00     0.038 C 
ATOM     19  C   UNL A   1      35.709  23.871  25.754  1.00  0.00     0.038 C 
ENDBRANCH  16  17
ENDBRANCH  15  16
ENDBRANCH  14  15
ENDBRANCH  11  14
ENDBRANCH   6  11
ENDBRANCH   3   5
ENDBRANCH   2   3
ENDBRANCH   1   2
BRANCH   1  20
ATOM     20  C   UNL A   1      32.764  29.386  26.053  1.00  0.00     0.275 C 
BRANCH  20  21
ATOM     21  O   UNL A   1      34.103  29.299  26.572  1.00  0.00    -0.458 OA
BRANCH  21  22
ATOM     22  C   UNL A   1      34.423  30.234  27.498  1.00  0.00     0.338 C 
ATOM     23  O   UNL A   1      33.692  31.094  27.957  1.00  0.00    -0.246 OA
BRANCH  22  24
ATOM     24  C   UNL A   1      35.795  30.013  27.980  1.00  0.00     0.060 A 
ATOM     25  C   UNL A   1      36.851  30.117  27.068  1.00  0.00     0.016 A 
ATOM     26  C   UNL A   1      36.027  29.622  29.298  1.00  0.00     0.016 A 
ATOM     27  C   UNL A   1      38.152  29.816  27.474  1.00  0.00     0.010 A 
ATOM     28  C   UNL A   1      37.331  29.324  29.702  1.00  0.00     0.010 A 
ATOM     29  C   UNL A   1      38.400  29.406  28.791  1.00  0.00    -0.014 A 
BRANCH  29  30
ATOM     30  C   UNL A   1      39.763  29.007  29.219  1.00  0.00     0.031 A 
ATOM     31  C   UNL A   1      40.643  30.003  29.922  1.00  0.00     0.074 A 
ATOM     32  C   UNL A   1      40.222  27.771  28.949  1.00  0.00     0.049 A 
ATOM     33  N   UNL A   1      41.907  29.905  30.246  1.00  0.00    -0.248 NA
ATOM     34  C   UNL A   1      40.020  31.280  30.303  1.00  0.00     0.031 C 
ATOM     35  C   UNL A   1      39.451  26.701  28.311  1.00  0.00     0.029 A 
ATOM     36  N   UNL A   1      41.456  27.211  29.165  1.00  0.00    -0.354 N 
ATOM     37  C   UNL A   1      42.238  31.115  30.845  1.00  0.00     0.074 A 
ATOM     38  C   UNL A   1      41.046  31.936  30.824  1.00  0.00     0.031 C 
ATOM     39  C   UNL A   1      40.234  25.618  28.181  1.00  0.00     0.029 A 
ATOM     40  C   UNL A   1      41.572  25.932  28.674  1.00  0.00     0.049 A 
ATOM     41  H   UNL A   1      42.188  27.681  29.627  1.00  0.00     0.167 HD
ATOM     42  C   UNL A   1      43.429  31.506  31.361  1.00  0.00     0.031 A 
ATOM     43  C   UNL A   1      42.643  25.118  28.597  1.00  0.00     0.031 A 
ATOM     44  C   UNL A   1      44.611  30.684  31.376  1.00  0.00     0.049 A 
ATOM     45  C   UNL A   1      43.972  25.600  29.117  1.00  0.00     0.074 A 
ATOM     46  C   UNL A   1      45.861  30.984  31.888  1.00  0.00     0.029 A 
ATOM     47  N   UNL A   1      44.692  29.402  30.851  1.00  0.00    -0.354 N 
ATOM     48  N   UNL A   1      44.271  26.746  29.679  1.00  0.00    -0.248 NA
ATOM     49  C   UNL A   1      45.108  24.674  28.991  1.00  0.00     0.031 C 
ATOM     50  C   UNL A   1      46.712  29.905  31.628  1.00  0.00     0.029 A 
ATOM     51  C   UNL A   1      45.976  28.907  31.007  1.00  0.00     0.049 A 
ATOM     52  H   UNL A   1      43.947  28.917  30.431  1.00  0.00     0.167 HD
ATOM     53  C   UNL A   1      45.624  26.670  29.997  1.00  0.00     0.074 A 
ATOM     54  C   UNL A   1      46.079  25.362  29.578  1.00  0.00     0.031 C 
ATOM     55  C   UNL A   1      46.416  27.601  30.584  1.00  0.00     0.031 A 
BRANCH  42  56
ATOM     56  C   UNL A   1      43.522  32.902  31.919  1.00  0.00    -0.014 A 
ATOM     57  C   UNL A   1      43.292  33.163  33.282  1.00  0.00     0.010 A 
ATOM     58  C   UNL A   1      43.886  33.965  31.072  1.00  0.00     0.010 A 
ATOM     59  C   UNL A   1      43.384  34.466  33.778  1.00  0.00     0.020 A 
ATOM     60  C   UNL A   1      44.005  35.266  31.569  1.00  0.00     0.020 A 
ATOM     61  C   UNL A   1      43.736  35.511  32.917  1.00  0.00     0.054 A 
BRANCH  61  62
ATOM     62  S   UNL A   1      43.864  37.190  33.592  1.00  0.00     0.124 S 
ATOM     63  O   UNL A   1      45.125  37.125  34.326  1.00  0.00    -0.237 OA
ATOM     64  O   UNL A   1      43.881  38.018  32.389  1.00  0.00    -0.237 OA
ATOM     65  O   UNL A   1      42.668  37.323  34.420  1.00  0.00    -0.744 OA
ENDBRANCH  61  62
ENDBRANCH  42  56
BRANCH  43  66
ATOM     66  C   UNL A   1      42.510  23.774  27.972  1.00  0.00    -0.014 A 
ATOM     67  C   UNL A   1      42.663  23.612  26.584  1.00  0.00     0.010 A 
ATOM     68  C   UNL A   1      42.235  22.645  28.766  1.00  0.00     0.010 A 
ATOM     69  C   UNL A   1      42.528  22.349  26.000  1.00  0.00     0.020 A 
ATOM     70  C   UNL A   1      42.129  21.377  28.190  1.00  0.00     0.020 A 
ATOM     71  C   UNL A   1      42.265  21.238  26.807  1.00  0.00     0.054 A 
BRANCH  71  72
ATOM     72  S   UNL A   1      42.148  19.601  26.033  1.00  0.00     0.124 S 
ATOM     73  O   UNL A   1      42.574  18.723  27.118  1.00  0.00    -0.237 OA
ATOM     74  O   UNL A   1      40.735  19.523  25.672  1.00  0.00    -0.237 OA
ATOM     75  O   UNL A   1      43.069  19.692  24.902  1.00  0.00    -0.744 OA
ENDBRANCH  71  72
ENDBRANCH  43  66
BRANCH  55  76
ATOM     76  C   UNL A   1      47.851  27.224  30.844  1.00  0.00    -0.014 A 
ATOM     77  C   UNL A   1      48.255  26.687  32.079  1.00  0.00     0.010 A 
ATOM     78  C   UNL A   1      48.800  27.367  29.815  1.00  0.00     0.010 A 
ATOM     79  C   UNL A   1      49.589  26.330  32.291  1.00  0.00     0.020 A 
ATOM     80  C   UNL A   1      50.129  26.986  30.014  1.00  0.00     0.020 A 
ATOM     81  C   UNL A   1      50.519  26.482  31.256  1.00  0.00     0.054 A 
BRANCH  81  82
ATOM     82  S   UNL A   1      52.237  25.974  31.543  1.00  0.00     0.124 S 
ATOM     83  O   UNL A   1      52.082  24.570  31.910  1.00  0.00    -0.237 OA
ATOM     84  O   UNL A   1      52.864  26.218  30.245  1.00  0.00    -0.237 OA
ATOM     85  O   UNL A   1      52.684  26.855  32.619  1.00  0.00    -0.744 OA
ENDBRANCH  81  82
ENDBRANCH  55  76
ENDBRANCH  29  30
ENDBRANCH  22  24
ENDBRANCH  21  22
ENDBRANCH  20  21
ENDBRANCH   1  20
TORSDOF 19
ENDMDL
