MODEL 1
REMARK VINA RESULT:      -9.3      0.000      0.000
REMARK SMILES O=C(COc1ccc(/C=C/C(=O)c2ccc(F)cc2F)cc1[N+](=O)[O-])OCCOC(=O)c1ccc(-c2c3nc(c(-c4ccc(S(=O)(=O)[O-])cc4)c4ccc([nH]4)c(-c4ccc(S(=O)(=O)[O-])cc4)c4nc(c(-c5ccc(S(=O)(=O)[O-])cc5)c5ccc2[nH]5)C=C4)C=C3)cc1
REMARK SMILES IDX 27 1 26 2 2 3 1 4 3 5 4 6 5 7 6 8 22 9 7 10 21 11 8 12 23 13
REMARK SMILES IDX 24 14 25 15 9 16 10 17 11 18 12 19 13 20 14 21 19 22 15 23
REMARK SMILES IDX 18 24 20 25 16 26 17 27 28 28 29 29 30 30 31 31 32 32 33 33
REMARK SMILES IDX 91 34 34 35 90 36 35 37 36 38 37 39 84 40 38 41 89 42 83 43
REMARK SMILES IDX 85 44 39 45 88 46 82 47 81 48 40 50 70 51 51 52 69 53 52 54
REMARK SMILES IDX 55 55 68 56 86 57 53 58 54 59 67 61 87 62 56 63 41 64 42 65
REMARK SMILES IDX 50 66 43 67 49 68 44 69 45 70 46 71 47 72 48 73 71 74 72 75
REMARK SMILES IDX 80 76 73 77 79 78 74 79 75 80 76 81 77 82 78 83 57 84 58 85
REMARK SMILES IDX 66 86 59 87 65 88 60 89 61 90 62 91 63 92 64 93
REMARK H PARENT 85 49 55 60
REMARK Flexibility Score: inf
ROOT
ATOM      1  C   UNL A   1      42.288  20.709  26.432  1.00  0.00     0.274 C 
ENDROOT
BRANCH   1   2
ATOM      2  O   UNL A   1      42.595  21.629  25.365  1.00  0.00    -0.460 OA
BRANCH   2   3
ATOM      3  C   UNL A   1      43.684  22.433  25.353  1.00  0.00     0.344 C 
ATOM      4  O   UNL A   1      44.804  21.966  25.147  1.00  0.00    -0.248 OA
BRANCH   3   5
ATOM      5  C   UNL A   1      43.491  23.931  25.527  1.00  0.00     0.352 C 
BRANCH   5   6
ATOM      6  O   UNL A   1      44.349  24.706  24.686  1.00  0.00    -0.475 OA
BRANCH   6   7
ATOM      7  C   UNL A   1      44.529  25.952  25.223  1.00  0.00     0.197 A 
ATOM      8  C   UNL A   1      43.385  26.740  25.395  1.00  0.00     0.054 A 
ATOM      9  C   UNL A   1      45.778  26.453  25.598  1.00  0.00     0.311 A 
ATOM     10  C   UNL A   1      43.482  27.994  26.000  1.00  0.00     0.012 A 
ATOM     11  C   UNL A   1      45.874  27.694  26.231  1.00  0.00     0.098 A 
ATOM     12  C   UNL A   1      44.725  28.469  26.430  1.00  0.00    -0.018 A 
BRANCH   9  13
ATOM     13  N   UNL A   1      47.017  25.738  25.304  1.00  0.00     0.066 N 
ATOM     14  O   UNL A   1      47.442  25.785  24.141  1.00  0.00    -0.258 OA
ATOM     15  O   UNL A   1      47.538  25.082  26.218  1.00  0.00    -0.258 OA
ENDBRANCH   9  13
BRANCH  12  16
ATOM     16  C   UNL A   1      44.905  29.766  27.077  1.00  0.00     0.012 C 
ATOM     17  C   UNL A   1      44.799  30.931  26.421  1.00  0.00     0.053 C 
BRANCH  17  18
ATOM     18  C   UNL A   1      45.222  32.217  27.033  1.00  0.00     0.188 C 
ATOM     19  O   UNL A   1      46.301  32.314  27.605  1.00  0.00    -0.289 OA
BRANCH  18  20
ATOM     20  C   UNL A   1      44.306  33.375  26.990  1.00  0.00     0.058 A 
ATOM     21  C   UNL A   1      43.827  33.904  28.192  1.00  0.00     0.018 A 
ATOM     22  C   UNL A   1      43.902  33.935  25.773  1.00  0.00     0.137 A 
ATOM     23  C   UNL A   1      42.980  35.015  28.165  1.00  0.00     0.040 A 
ATOM     24  C   UNL A   1      43.064  35.042  25.743  1.00  0.00     0.079 A 
ATOM     25  F   UNL A   1      44.311  33.418  24.604  1.00  0.00    -0.206 F 
ATOM     26  C   UNL A   1      42.612  35.575  26.942  1.00  0.00     0.126 A 
ATOM     27  F   UNL A   1      41.803  36.642  26.923  1.00  0.00    -0.207 F 
ENDBRANCH  18  20
ENDBRANCH  17  18
ENDBRANCH  12  16
ENDBRANCH   6   7
ENDBRANCH   5   6
ENDBRANCH   3   5
ENDBRANCH   2   3
ENDBRANCH   1   2
BRANCH   1  28
ATOM     28  C   UNL A   1      40.774  20.584  26.618  1.00  0.00     0.275 C 
BRANCH  28  29
ATOM     29  O   UNL A   1      40.256  21.757  27.273  1.00  0.00    -0.458 OA
BRANCH  29  30
ATOM     30  C   UNL A   1      39.524  22.582  26.478  1.00  0.00     0.338 C 
ATOM     31  O   UNL A   1      38.813  22.256  25.551  1.00  0.00    -0.246 OA
BRANCH  30  32
ATOM     32  C   UNL A   1      39.558  23.949  27.048  1.00  0.00     0.060 A 
ATOM     33  C   UNL A   1      40.089  24.977  26.260  1.00  0.00     0.016 A 
ATOM     34  C   UNL A   1      39.088  24.219  28.338  1.00  0.00     0.016 A 
ATOM     35  C   UNL A   1      40.209  26.266  26.780  1.00  0.00     0.010 A 
ATOM     36  C   UNL A   1      39.217  25.510  28.861  1.00  0.00     0.010 A 
ATOM     37  C   UNL A   1      39.820  26.526  28.100  1.00  0.00    -0.014 A 
BRANCH  37  38
ATOM     38  C   UNL A   1      40.258  27.784  28.754  1.00  0.00     0.031 A 
ATOM     39  C   UNL A   1      41.674  27.861  29.261  1.00  0.00     0.074 A 
ATOM     40  C   UNL A   1      39.439  28.845  28.872  1.00  0.00     0.049 A 
ATOM     41  N   UNL A   1      42.301  28.861  29.824  1.00  0.00    -0.248 NA
ATOM     42  C   UNL A   1      42.491  26.644  29.112  1.00  0.00     0.031 C 
ATOM     43  C   UNL A   1      38.059  28.911  28.396  1.00  0.00     0.029 A 
ATOM     44  N   UNL A   1      39.663  30.078  29.433  1.00  0.00    -0.354 N 
ATOM     45  C   UNL A   1      43.583  28.396  30.095  1.00  0.00     0.074 A 
ATOM     46  C   UNL A   1      43.633  27.014  29.670  1.00  0.00     0.031 C 
ATOM     47  C   UNL A   1      37.559  30.128  28.681  1.00  0.00     0.029 A 
ATOM     48  C   UNL A   1      38.576  30.917  29.374  1.00  0.00     0.049 A 
ATOM     49  H   UNL A   1      40.522  30.337  29.837  1.00  0.00     0.167 HD
ATOM     50  C   UNL A   1      44.631  29.058  30.639  1.00  0.00     0.031 A 
ATOM     51  C   UNL A   1      38.423  32.177  29.829  1.00  0.00     0.031 A 
ATOM     52  C   UNL A   1      44.579  30.423  31.084  1.00  0.00     0.049 A 
ATOM     53  C   UNL A   1      39.585  32.872  30.495  1.00  0.00     0.074 A 
ATOM     54  C   UNL A   1      45.593  31.189  31.632  1.00  0.00     0.029 A 
ATOM     55  N   UNL A   1      43.448  31.224  31.045  1.00  0.00    -0.354 N 
ATOM     56  N   UNL A   1      40.805  32.436  30.697  1.00  0.00    -0.248 NA
ATOM     57  C   UNL A   1      39.348  34.241  30.979  1.00  0.00     0.031 C 
ATOM     58  C   UNL A   1      45.059  32.436  31.976  1.00  0.00     0.029 A 
ATOM     59  C   UNL A   1      43.730  32.466  31.585  1.00  0.00     0.049 A 
ATOM     60  H   UNL A   1      42.574  30.949  30.685  1.00  0.00     0.167 HD
ATOM     61  C   UNL A   1      41.491  33.489  31.295  1.00  0.00     0.074 A 
ATOM     62  C   UNL A   1      40.551  34.585  31.417  1.00  0.00     0.031 C 
ATOM     63  C   UNL A   1      42.786  33.548  31.699  1.00  0.00     0.031 A 
BRANCH  50  64
ATOM     64  C   UNL A   1      45.911  28.288  30.819  1.00  0.00    -0.014 A 
ATOM     65  C   UNL A   1      46.948  28.364  29.871  1.00  0.00     0.010 A 
ATOM     66  C   UNL A   1      46.080  27.479  31.957  1.00  0.00     0.010 A 
ATOM     67  C   UNL A   1      48.112  27.607  30.035  1.00  0.00     0.020 A 
ATOM     68  C   UNL A   1      47.254  26.742  32.138  1.00  0.00     0.020 A 
ATOM     69  C   UNL A   1      48.253  26.796  31.164  1.00  0.00     0.054 A 
BRANCH  69  70
ATOM     70  S   UNL A   1      49.772  25.823  31.354  1.00  0.00     0.124 S 
ATOM     71  O   UNL A   1      49.426  24.941  32.466  1.00  0.00    -0.237 OA
ATOM     72  O   UNL A   1      49.901  25.171  30.053  1.00  0.00    -0.237 OA
ATOM     73  O   UNL A   1      50.791  26.826  31.649  1.00  0.00    -0.744 OA
ENDBRANCH  69  70
ENDBRANCH  50  64
BRANCH  51  74
ATOM     74  C   UNL A   1      37.122  32.880  29.661  1.00  0.00    -0.014 A 
ATOM     75  C   UNL A   1      36.711  33.330  28.393  1.00  0.00     0.010 A 
ATOM     76  C   UNL A   1      36.293  33.120  30.772  1.00  0.00     0.010 A 
ATOM     77  C   UNL A   1      35.508  34.025  28.244  1.00  0.00     0.020 A 
ATOM     78  C   UNL A   1      35.077  33.792  30.622  1.00  0.00     0.020 A 
ATOM     79  C   UNL A   1      34.697  34.251  29.360  1.00  0.00     0.054 A 
BRANCH  79  80
ATOM     80  S   UNL A   1      33.117  35.113  29.134  1.00  0.00     0.124 S 
ATOM     81  O   UNL A   1      32.485  34.321  28.083  1.00  0.00    -0.237 OA
ATOM     82  O   UNL A   1      32.510  35.010  30.458  1.00  0.00    -0.237 OA
ATOM     83  O   UNL A   1      33.520  36.463  28.745  1.00  0.00    -0.744 OA
ENDBRANCH  79  80
ENDBRANCH  51  74
BRANCH  63  84
ATOM     84  C   UNL A   1      43.281  34.854  32.265  1.00  0.00    -0.014 A 
ATOM     85  C   UNL A   1      43.824  35.855  31.442  1.00  0.00     0.010 A 
ATOM     86  C   UNL A   1      43.153  35.099  33.646  1.00  0.00     0.010 A 
ATOM     87  C   UNL A   1      44.268  37.061  31.994  1.00  0.00     0.020 A 
ATOM     88  C   UNL A   1      43.568  36.313  34.197  1.00  0.00     0.020 A 
ATOM     89  C   UNL A   1      44.139  37.281  33.368  1.00  0.00     0.054 A 
BRANCH  89  90
ATOM     90  S   UNL A   1      44.693  38.865  34.058  1.00  0.00     0.124 S 
ATOM     91  O   UNL A   1      44.212  38.780  35.434  1.00  0.00    -0.237 OA
ATOM     92  O   UNL A   1      46.143  38.798  33.894  1.00  0.00    -0.237 OA
ATOM     93  O   UNL A   1      44.024  39.859  33.223  1.00  0.00    -0.744 OA
ENDBRANCH  89  90
ENDBRANCH  63  84
ENDBRANCH  37  38
ENDBRANCH  30  32
ENDBRANCH  29  30
ENDBRANCH  28  29
ENDBRANCH   1  28
TORSDOF 20
ENDMDL
MODEL 2
REMARK VINA RESULT:      -8.2      4.111      6.799
REMARK SMILES O=C(COc1ccc(/C=C/C(=O)c2ccc(F)cc2F)cc1[N+](=O)[O-])OCCOC(=O)c1ccc(-c2c3nc(c(-c4ccc(S(=O)(=O)[O-])cc4)c4ccc([nH]4)c(-c4ccc(S(=O)(=O)[O-])cc4)c4nc(c(-c5ccc(S(=O)(=O)[O-])cc5)c5ccc2[nH]5)C=C4)C=C3)cc1
REMARK SMILES IDX 27 1 26 2 2 3 1 4 3 5 4 6 5 7 6 8 22 9 7 10 21 11 8 12 23 13
REMARK SMILES IDX 24 14 25 15 9 16 10 17 11 18 12 19 13 20 14 21 19 22 15 23
REMARK SMILES IDX 18 24 20 25 16 26 17 27 28 28 29 29 30 30 31 31 32 32 33 33
REMARK SMILES IDX 91 34 34 35 90 36 35 37 36 38 37 39 84 40 38 41 89 42 83 43
REMARK SMILES IDX 85 44 39 45 88 46 82 47 81 48 40 50 70 51 51 52 69 53 52 54
REMARK SMILES IDX 55 55 68 56 86 57 53 58 54 59 67 61 87 62 56 63 41 64 42 65
REMARK SMILES IDX 50 66 43 67 49 68 44 69 45 70 46 71 47 72 48 73 71 74 72 75
REMARK SMILES IDX 80 76 73 77 79 78 74 79 75 80 76 81 77 82 78 83 57 84 58 85
REMARK SMILES IDX 66 86 59 87 65 88 60 89 61 90 62 91 63 92 64 93
REMARK H PARENT 85 49 55 60
REMARK Flexibility Score: inf
ROOT
ATOM      1  C   UNL A   1      43.686  19.543  25.622  1.00  0.00     0.274 C 
ENDROOT
BRANCH   1   2
ATOM      2  O   UNL A   1      42.629  20.035  26.472  1.00  0.00    -0.460 OA
BRANCH   2   3
ATOM      3  C   UNL A   1      41.314  19.800  26.251  1.00  0.00     0.344 C 
ATOM      4  O   UNL A   1      40.950  18.775  25.675  1.00  0.00    -0.248 OA
BRANCH   3   5
ATOM      5  C   UNL A   1      40.292  20.789  26.791  1.00  0.00     0.352 C 
BRANCH   5   6
ATOM      6  O   UNL A   1      40.146  21.947  25.966  1.00  0.00    -0.475 OA
BRANCH   6   7
ATOM      7  C   UNL A   1      38.820  22.243  25.805  1.00  0.00     0.197 A 
ATOM      8  C   UNL A   1      38.036  21.298  25.135  1.00  0.00     0.054 A 
ATOM      9  C   UNL A   1      38.234  23.421  26.276  1.00  0.00     0.311 A 
ATOM     10  C   UNL A   1      36.662  21.500  24.993  1.00  0.00     0.012 A 
ATOM     11  C   UNL A   1      36.855  23.611  26.165  1.00  0.00     0.098 A 
ATOM     12  C   UNL A   1      36.067  22.651  25.519  1.00  0.00    -0.018 A 
BRANCH   9  13
ATOM     13  N   UNL A   1      39.029  24.503  26.849  1.00  0.00     0.066 N 
ATOM     14  O   UNL A   1      39.744  25.159  26.075  1.00  0.00    -0.258 OA
ATOM     15  O   UNL A   1      38.987  24.668  28.077  1.00  0.00    -0.258 OA
ENDBRANCH   9  13
BRANCH  12  16
ATOM     16  C   UNL A   1      34.636  22.928  25.418  1.00  0.00     0.012 C 
ATOM     17  C   UNL A   1      34.096  23.633  24.413  1.00  0.00     0.053 C 
BRANCH  17  18
ATOM     18  C   UNL A   1      32.690  24.109  24.455  1.00  0.00     0.188 C 
ATOM     19  O   UNL A   1      31.788  23.366  24.824  1.00  0.00    -0.289 OA
BRANCH  18  20
ATOM     20  C   UNL A   1      32.375  25.478  24.000  1.00  0.00     0.058 A 
ATOM     21  C   UNL A   1      31.825  25.660  22.727  1.00  0.00     0.018 A 
ATOM     22  C   UNL A   1      32.632  26.589  24.811  1.00  0.00     0.137 A 
ATOM     23  C   UNL A   1      31.500  26.948  22.295  1.00  0.00     0.040 A 
ATOM     24  C   UNL A   1      32.306  27.871  24.386  1.00  0.00     0.079 A 
ATOM     25  F   UNL A   1      33.201  26.448  26.018  1.00  0.00    -0.206 F 
ATOM     26  C   UNL A   1      31.739  28.038  23.130  1.00  0.00     0.126 A 
ATOM     27  F   UNL A   1      31.421  29.270  22.713  1.00  0.00    -0.207 F 
ENDBRANCH  18  20
ENDBRANCH  17  18
ENDBRANCH  12  16
ENDBRANCH   6   7
ENDBRANCH   5   6
ENDBRANCH   3   5
ENDBRANCH   2   3
ENDBRANCH   1   2
BRANCH   1  28
ATOM     28  C   UNL A   1      44.434  20.706  24.966  1.00  0.00     0.275 C 
BRANCH  28  29
ATOM     29  O   UNL A   1      43.556  21.837  24.812  1.00  0.00    -0.458 OA
BRANCH  29  30
ATOM     30  C   UNL A   1      44.183  23.039  24.703  1.00  0.00     0.338 C 
ATOM     31  O   UNL A   1      44.930  23.392  23.815  1.00  0.00    -0.246 OA
BRANCH  30  32
ATOM     32  C   UNL A   1      43.649  23.952  25.741  1.00  0.00     0.060 A 
ATOM     33  C   UNL A   1      43.789  25.330  25.539  1.00  0.00     0.016 A 
ATOM     34  C   UNL A   1      43.032  23.468  26.899  1.00  0.00     0.016 A 
ATOM     35  C   UNL A   1      43.367  26.228  26.521  1.00  0.00     0.010 A 
ATOM     36  C   UNL A   1      42.617  24.368  27.885  1.00  0.00     0.010 A 
ATOM     37  C   UNL A   1      42.825  25.747  27.719  1.00  0.00    -0.014 A 
BRANCH  37  38
ATOM     38  C   UNL A   1      42.700  26.664  28.880  1.00  0.00     0.031 A 
ATOM     39  C   UNL A   1      43.762  26.602  29.947  1.00  0.00     0.074 A 
ATOM     40  C   UNL A   1      41.693  27.549  28.979  1.00  0.00     0.049 A 
ATOM     41  N   UNL A   1      43.895  27.327  31.027  1.00  0.00    -0.248 NA
ATOM     42  C   UNL A   1      44.812  25.585  29.769  1.00  0.00     0.031 C 
ATOM     43  C   UNL A   1      40.621  27.731  28.002  1.00  0.00     0.029 A 
ATOM     44  N   UNL A   1      41.415  28.469  29.959  1.00  0.00    -0.354 N 
ATOM     45  C   UNL A   1      45.043  26.856  31.655  1.00  0.00     0.074 A 
ATOM     46  C   UNL A   1      45.546  25.759  30.857  1.00  0.00     0.031 C 
ATOM     47  C   UNL A   1      39.802  28.709  28.432  1.00  0.00     0.029 A 
ATOM     48  C   UNL A   1      40.282  29.209  29.720  1.00  0.00     0.049 A 
ATOM     49  H   UNL A   1      41.977  28.588  30.759  1.00  0.00     0.167 HD
ATOM     50  C   UNL A   1      45.634  27.299  32.790  1.00  0.00     0.031 A 
ATOM     51  C   UNL A   1      39.701  30.177  30.457  1.00  0.00     0.031 A 
ATOM     52  C   UNL A   1      45.125  28.372  33.598  1.00  0.00     0.049 A 
ATOM     53  C   UNL A   1      40.341  30.607  31.753  1.00  0.00     0.074 A 
ATOM     54  C   UNL A   1      45.662  28.907  34.756  1.00  0.00     0.029 A 
ATOM     55  N   UNL A   1      43.953  29.067  33.342  1.00  0.00    -0.354 N 
ATOM     56  N   UNL A   1      41.453  30.187  32.307  1.00  0.00    -0.248 NA
ATOM     57  C   UNL A   1      39.651  31.659  32.515  1.00  0.00     0.031 C 
ATOM     58  C   UNL A   1      44.785  29.888  35.230  1.00  0.00     0.029 A 
ATOM     59  C   UNL A   1      43.734  30.006  34.334  1.00  0.00     0.049 A 
ATOM     60  H   UNL A   1      43.364  28.914  32.568  1.00  0.00     0.167 HD
ATOM     61  C   UNL A   1      41.616  30.949  33.461  1.00  0.00     0.074 A 
ATOM     62  C   UNL A   1      40.491  31.860  33.521  1.00  0.00     0.031 C 
ATOM     63  C   UNL A   1      42.611  30.907  34.382  1.00  0.00     0.031 A 
BRANCH  50  64
ATOM     64  C   UNL A   1      46.879  26.583  33.239  1.00  0.00    -0.014 A 
ATOM     65  C   UNL A   1      48.141  26.915  32.712  1.00  0.00     0.010 A 
ATOM     66  C   UNL A   1      46.786  25.568  34.206  1.00  0.00     0.010 A 
ATOM     67  C   UNL A   1      49.281  26.210  33.110  1.00  0.00     0.020 A 
ATOM     68  C   UNL A   1      47.927  24.879  34.628  1.00  0.00     0.020 A 
ATOM     69  C   UNL A   1      49.164  25.191  34.060  1.00  0.00     0.054 A 
BRANCH  69  70
ATOM     70  S   UNL A   1      50.655  24.290  34.561  1.00  0.00     0.124 S 
ATOM     71  O   UNL A   1      51.620  24.722  33.552  1.00  0.00    -0.237 OA
ATOM     72  O   UNL A   1      50.895  24.791  35.912  1.00  0.00    -0.237 OA
ATOM     73  O   UNL A   1      50.257  22.888  34.482  1.00  0.00    -0.744 OA
ENDBRANCH  69  70
ENDBRANCH  50  64
BRANCH  51  74
ATOM     74  C   UNL A   1      38.447  30.824  29.986  1.00  0.00    -0.014 A 
ATOM     75  C   UNL A   1      38.479  32.100  29.394  1.00  0.00     0.010 A 
ATOM     76  C   UNL A   1      37.208  30.176  30.143  1.00  0.00     0.010 A 
ATOM     77  C   UNL A   1      37.296  32.723  28.988  1.00  0.00     0.020 A 
ATOM     78  C   UNL A   1      36.025  30.786  29.715  1.00  0.00     0.020 A 
ATOM     79  C   UNL A   1      36.076  32.061  29.151  1.00  0.00     0.054 A 
BRANCH  79  80
ATOM     80  S   UNL A   1      34.557  32.870  28.573  1.00  0.00     0.124 S 
ATOM     81  O   UNL A   1      34.023  33.431  29.810  1.00  0.00    -0.237 OA
ATOM     82  O   UNL A   1      35.066  33.838  27.605  1.00  0.00    -0.237 OA
ATOM     83  O   UNL A   1      33.786  31.771  27.997  1.00  0.00    -0.744 OA
ENDBRANCH  79  80
ENDBRANCH  51  74
BRANCH  63  84
ATOM     84  C   UNL A   1      42.560  31.904  35.511  1.00  0.00    -0.014 A 
ATOM     85  C   UNL A   1      43.168  33.167  35.406  1.00  0.00     0.010 A 
ATOM     86  C   UNL A   1      41.846  31.584  36.682  1.00  0.00     0.010 A 
ATOM     87  C   UNL A   1      43.097  34.076  36.466  1.00  0.00     0.020 A 
ATOM     88  C   UNL A   1      41.748  32.500  37.731  1.00  0.00     0.020 A 
ATOM     89  C   UNL A   1      42.390  33.736  37.622  1.00  0.00     0.054 A 
BRANCH  89  90
ATOM     90  S   UNL A   1      42.285  34.943  38.973  1.00  0.00     0.124 S 
ATOM     91  O   UNL A   1      40.842  35.115  39.113  1.00  0.00    -0.237 OA
ATOM     92  O   UNL A   1      42.945  34.250  40.076  1.00  0.00    -0.237 OA
ATOM     93  O   UNL A   1      43.005  36.104  38.455  1.00  0.00    -0.744 OA
ENDBRANCH  89  90
ENDBRANCH  63  84
ENDBRANCH  37  38
ENDBRANCH  30  32
ENDBRANCH  29  30
ENDBRANCH  28  29
ENDBRANCH   1  28
TORSDOF 20
ENDMDL
MODEL 3
REMARK VINA RESULT:      -8.1      5.379      8.122
REMARK SMILES O=C(COc1ccc(/C=C/C(=O)c2ccc(F)cc2F)cc1[N+](=O)[O-])OCCOC(=O)c1ccc(-c2c3nc(c(-c4ccc(S(=O)(=O)[O-])cc4)c4ccc([nH]4)c(-c4ccc(S(=O)(=O)[O-])cc4)c4nc(c(-c5ccc(S(=O)(=O)[O-])cc5)c5ccc2[nH]5)C=C4)C=C3)cc1
REMARK SMILES IDX 27 1 26 2 2 3 1 4 3 5 4 6 5 7 6 8 22 9 7 10 21 11 8 12 23 13
REMARK SMILES IDX 24 14 25 15 9 16 10 17 11 18 12 19 13 20 14 21 19 22 15 23
REMARK SMILES IDX 18 24 20 25 16 26 17 27 28 28 29 29 30 30 31 31 32 32 33 33
REMARK SMILES IDX 91 34 34 35 90 36 35 37 36 38 37 39 84 40 38 41 89 42 83 43
REMARK SMILES IDX 85 44 39 45 88 46 82 47 81 48 40 50 70 51 51 52 69 53 52 54
REMARK SMILES IDX 55 55 68 56 86 57 53 58 54 59 67 61 87 62 56 63 41 64 42 65
REMARK SMILES IDX 50 66 43 67 49 68 44 69 45 70 46 71 47 72 48 73 71 74 72 75
REMARK SMILES IDX 80 76 73 77 79 78 74 79 75 80 76 81 77 82 78 83 57 84 58 85
REMARK SMILES IDX 66 86 59 87 65 88 60 89 61 90 62 91 63 92 64 93
REMARK H PARENT 85 49 55 60
REMARK Flexibility Score: inf
ROOT
ATOM      1  C   UNL A   1      38.781  22.659  26.712  1.00  0.00     0.274 C 
ENDROOT
BRANCH   1   2
ATOM      2  O   UNL A   1      38.143  22.848  25.432  1.00  0.00    -0.460 OA
BRANCH   2   3
ATOM      3  C   UNL A   1      37.002  22.222  25.059  1.00  0.00     0.344 C 
ATOM      4  O   UNL A   1      36.964  21.553  24.027  1.00  0.00    -0.248 OA
BRANCH   3   5
ATOM      5  C   UNL A   1      35.789  22.301  25.974  1.00  0.00     0.352 C 
BRANCH   5   6
ATOM      6  O   UNL A   1      34.558  22.428  25.259  1.00  0.00    -0.475 OA
BRANCH   6   7
ATOM      7  C   UNL A   1      34.049  23.687  25.425  1.00  0.00     0.197 A 
ATOM      8  C   UNL A   1      34.867  24.757  25.048  1.00  0.00     0.054 A 
ATOM      9  C   UNL A   1      32.774  23.938  25.940  1.00  0.00     0.311 A 
ATOM     10  C   UNL A   1      34.390  26.066  25.124  1.00  0.00     0.012 A 
ATOM     11  C   UNL A   1      32.282  25.244  25.987  1.00  0.00     0.098 A 
ATOM     12  C   UNL A   1      33.092  26.312  25.582  1.00  0.00    -0.018 A 
BRANCH   9  13
ATOM     13  N   UNL A   1      31.938  22.873  26.486  1.00  0.00     0.066 N 
ATOM     14  O   UNL A   1      31.649  21.930  25.733  1.00  0.00    -0.258 OA
ATOM     15  O   UNL A   1      31.521  23.000  27.646  1.00  0.00    -0.258 OA
ENDBRANCH   9  13
BRANCH  12  16
ATOM     16  C   UNL A   1      32.520  27.652  25.682  1.00  0.00     0.012 C 
ATOM     17  C   UNL A   1      31.532  28.087  24.886  1.00  0.00     0.053 C 
BRANCH  17  18
ATOM     18  C   UNL A   1      31.135  29.517  24.837  1.00  0.00     0.188 C 
ATOM     19  O   UNL A   1      31.531  30.306  25.686  1.00  0.00    -0.289 OA
BRANCH  18  20
ATOM     20  C   UNL A   1      30.214  29.977  23.778  1.00  0.00     0.058 A 
ATOM     21  C   UNL A   1      30.089  29.217  22.611  1.00  0.00     0.018 A 
ATOM     22  C   UNL A   1      29.482  31.162  23.918  1.00  0.00     0.137 A 
ATOM     23  C   UNL A   1      29.202  29.628  21.614  1.00  0.00     0.040 A 
ATOM     24  C   UNL A   1      28.596  31.572  22.930  1.00  0.00     0.079 A 
ATOM     25  F   UNL A   1      29.617  31.933  25.007  1.00  0.00    -0.206 F 
ATOM     26  C   UNL A   1      28.462  30.798  21.785  1.00  0.00     0.126 A 
ATOM     27  F   UNL A   1      27.610  31.186  20.827  1.00  0.00    -0.207 F 
ENDBRANCH  18  20
ENDBRANCH  17  18
ENDBRANCH  12  16
ENDBRANCH   6   7
ENDBRANCH   5   6
ENDBRANCH   3   5
ENDBRANCH   2   3
ENDBRANCH   1   2
BRANCH   1  28
ATOM     28  C   UNL A   1      40.294  22.506  26.542  1.00  0.00     0.275 C 
BRANCH  28  29
ATOM     29  O   UNL A   1      40.983  23.155  27.627  1.00  0.00    -0.458 OA
BRANCH  29  30
ATOM     30  C   UNL A   1      41.779  24.196  27.260  1.00  0.00     0.338 C 
ATOM     31  O   UNL A   1      42.578  24.214  26.348  1.00  0.00    -0.246 OA
BRANCH  30  32
ATOM     32  C   UNL A   1      41.373  25.399  28.024  1.00  0.00     0.060 A 
ATOM     33  C   UNL A   1      42.342  26.380  28.267  1.00  0.00     0.016 A 
ATOM     34  C   UNL A   1      40.070  25.560  28.504  1.00  0.00     0.016 A 
ATOM     35  C   UNL A   1      42.027  27.497  29.043  1.00  0.00     0.010 A 
ATOM     36  C   UNL A   1      39.757  26.675  29.288  1.00  0.00     0.010 A 
ATOM     37  C   UNL A   1      40.747  27.623  29.598  1.00  0.00    -0.014 A 
BRANCH  37  38
ATOM     38  C   UNL A   1      40.519  28.609  30.683  1.00  0.00     0.031 A 
ATOM     39  C   UNL A   1      41.386  28.521  31.913  1.00  0.00     0.074 A 
ATOM     40  C   UNL A   1      39.592  29.578  30.578  1.00  0.00     0.049 A 
ATOM     41  N   UNL A   1      41.408  29.291  32.969  1.00  0.00    -0.248 NA
ATOM     42  C   UNL A   1      42.356  27.413  31.952  1.00  0.00     0.031 C 
ATOM     43  C   UNL A   1      38.713  29.792  29.431  1.00  0.00     0.029 A 
ATOM     44  N   UNL A   1      39.245  30.570  31.460  1.00  0.00    -0.354 N 
ATOM     45  C   UNL A   1      42.393  28.763  33.797  1.00  0.00     0.074 A 
ATOM     46  C   UNL A   1      42.918  27.587  33.138  1.00  0.00     0.031 C 
ATOM     47  C   UNL A   1      37.926  30.856  29.679  1.00  0.00     0.029 A 
ATOM     48  C   UNL A   1      38.236  31.386  31.007  1.00  0.00     0.049 A 
ATOM     49  H   UNL A   1      39.679  30.687  32.336  1.00  0.00     0.167 HD
ATOM     50  C   UNL A   1      42.831  29.219  34.994  1.00  0.00     0.031 A 
ATOM     51  C   UNL A   1      37.633  32.437  31.598  1.00  0.00     0.031 A 
ATOM     52  C   UNL A   1      42.298  30.373  35.663  1.00  0.00     0.049 A 
ATOM     53  C   UNL A   1      38.092  32.885  32.963  1.00  0.00     0.074 A 
ATOM     54  C   UNL A   1      42.687  30.926  36.869  1.00  0.00     0.029 A 
ATOM     55  N   UNL A   1      41.249  31.146  35.188  1.00  0.00    -0.354 N 
ATOM     56  N   UNL A   1      39.058  32.407  33.709  1.00  0.00    -0.248 NA
ATOM     57  C   UNL A   1      37.384  34.030  33.556  1.00  0.00     0.031 C 
ATOM     58  C   UNL A   1      41.836  32.000  37.152  1.00  0.00     0.029 A 
ATOM     59  C   UNL A   1      40.958  32.153  36.091  1.00  0.00     0.049 A 
ATOM     60  H   UNL A   1      40.781  30.999  34.334  1.00  0.00     0.167 HD
ATOM     61  C   UNL A   1      39.100  33.216  34.841  1.00  0.00     0.074 A 
ATOM     62  C   UNL A   1      38.066  34.217  34.678  1.00  0.00     0.031 C 
ATOM     63  C   UNL A   1      39.927  33.144  35.915  1.00  0.00     0.031 A 
BRANCH  50  64
ATOM     64  C   UNL A   1      43.919  28.430  35.671  1.00  0.00    -0.014 A 
ATOM     65  C   UNL A   1      43.616  27.381  36.560  1.00  0.00     0.010 A 
ATOM     66  C   UNL A   1      45.266  28.740  35.411  1.00  0.00     0.010 A 
ATOM     67  C   UNL A   1      44.641  26.690  37.212  1.00  0.00     0.020 A 
ATOM     68  C   UNL A   1      46.294  28.032  36.040  1.00  0.00     0.020 A 
ATOM     69  C   UNL A   1      45.972  27.025  36.953  1.00  0.00     0.054 A 
BRANCH  69  70
ATOM     70  S   UNL A   1      47.284  26.114  37.811  1.00  0.00     0.124 S 
ATOM     71  O   UNL A   1      47.664  25.120  36.810  1.00  0.00    -0.237 OA
ATOM     72  O   UNL A   1      48.279  27.151  38.073  1.00  0.00    -0.237 OA
ATOM     73  O   UNL A   1      46.618  25.581  38.996  1.00  0.00    -0.744 OA
ENDBRANCH  69  70
ENDBRANCH  50  64
BRANCH  51  74
ATOM     74  C   UNL A   1      36.533  33.158  30.899  1.00  0.00    -0.014 A 
ATOM     75  C   UNL A   1      36.820  34.192  29.991  1.00  0.00     0.010 A 
ATOM     76  C   UNL A   1      35.190  32.825  31.153  1.00  0.00     0.010 A 
ATOM     77  C   UNL A   1      35.786  34.895  29.367  1.00  0.00     0.020 A 
ATOM     78  C   UNL A   1      34.153  33.508  30.511  1.00  0.00     0.020 A 
ATOM     79  C   UNL A   1      34.458  34.547  29.630  1.00  0.00     0.054 A 
BRANCH  79  80
ATOM     80  S   UNL A   1      33.132  35.441  28.772  1.00  0.00     0.124 S 
ATOM     81  O   UNL A   1      33.883  36.404  27.973  1.00  0.00    -0.237 OA
ATOM     82  O   UNL A   1      32.469  34.376  28.023  1.00  0.00    -0.237 OA
ATOM     83  O   UNL A   1      32.344  36.009  29.863  1.00  0.00    -0.744 OA
ENDBRANCH  79  80
ENDBRANCH  51  74
BRANCH  63  84
ATOM     84  C   UNL A   1      39.784  34.202  36.978  1.00  0.00    -0.014 A 
ATOM     85  C   UNL A   1      39.003  33.991  38.127  1.00  0.00     0.010 A 
ATOM     86  C   UNL A   1      40.488  35.415  36.843  1.00  0.00     0.010 A 
ATOM     87  C   UNL A   1      38.895  34.988  39.102  1.00  0.00     0.020 A 
ATOM     88  C   UNL A   1      40.406  36.401  37.829  1.00  0.00     0.020 A 
ATOM     89  C   UNL A   1      39.596  36.187  38.945  1.00  0.00     0.054 A 
BRANCH  89  90
ATOM     90  S   UNL A   1      39.466  37.454  40.237  1.00  0.00     0.124 S 
ATOM     91  O   UNL A   1      38.567  38.425  39.619  1.00  0.00    -0.237 OA
ATOM     92  O   UNL A   1      38.908  36.710  41.363  1.00  0.00    -0.237 OA
ATOM     93  O   UNL A   1      40.843  37.906  40.419  1.00  0.00    -0.744 OA
ENDBRANCH  89  90
ENDBRANCH  63  84
ENDBRANCH  37  38
ENDBRANCH  30  32
ENDBRANCH  29  30
ENDBRANCH  28  29
ENDBRANCH   1  28
TORSDOF 20
ENDMDL
