MODEL 1
REMARK VINA RESULT:     -10.8      0.000      0.000
REMARK SMILES O=C(OCCOC(=O)[C@@H]1C=C[C@@H](NS(=O)(=O)c2ccc(F)c(F)c2F)C1)c1ccc(-c2c3nc(c(-c4ccc(S(=O)(=O)[O-])cc4)c4ccc([nH]4)c(-c4ccc(S(=O)(=O)[O-])cc4)c4nc(c(-c5ccc(S(=O)(=O)[O-])cc5)c5ccc2[nH]5)C=C4)C=C3)cc1
REMARK SMILES IDX 4 1 3 2 2 3 1 4 27 5 28 6 86 7 29 8 85 9 30 10 31 11 32 12
REMARK SMILES IDX 79 13 33 14 84 15 78 16 80 17 34 18 83 19 77 20 76 21 35 23
REMARK SMILES IDX 65 24 46 25 64 26 47 27 50 28 63 29 81 30 48 31 49 32 62 34
REMARK SMILES IDX 82 35 51 36 36 37 37 38 45 39 38 40 44 41 39 42 40 43 41 44
REMARK SMILES IDX 42 45 43 46 66 47 67 48 75 49 68 50 74 51 69 52 70 53 71 54
REMARK SMILES IDX 72 55 73 56 52 57 53 58 61 59 54 60 60 61 55 62 56 63 57 64
REMARK SMILES IDX 58 65 59 66 5 67 6 68 7 69 8 70 9 71 10 72 26 73 11 74 12 75
REMARK SMILES IDX 13 76 14 78 15 79 16 80 17 81 18 82 24 83 19 84 22 85 25 86
REMARK SMILES IDX 20 87 23 88 21 89
REMARK H PARENT 80 22 50 33 13 77
REMARK Flexibility Score: inf
ROOT
ATOM      1  C   UNL A   1      36.065  23.516  25.287  1.00  0.00     0.275 C 
ENDROOT
BRANCH   1   2
ATOM      2  O   UNL A   1      37.079  22.796  26.014  1.00  0.00    -0.458 OA
BRANCH   2   3
ATOM      3  C   UNL A   1      38.412  22.993  26.139  1.00  0.00     0.338 C 
ATOM      4  O   UNL A   1      39.149  22.052  25.841  1.00  0.00    -0.246 OA
BRANCH   3   5
ATOM      5  C   UNL A   1      39.076  24.231  26.690  1.00  0.00     0.060 A 
ATOM      6  C   UNL A   1      39.945  25.093  26.017  1.00  0.00     0.016 A 
ATOM      7  C   UNL A   1      38.781  24.544  28.034  1.00  0.00     0.016 A 
ATOM      8  C   UNL A   1      40.445  26.259  26.636  1.00  0.00     0.010 A 
ATOM      9  C   UNL A   1      39.279  25.701  28.655  1.00  0.00     0.010 A 
ATOM     10  C   UNL A   1      40.103  26.586  27.952  1.00  0.00    -0.014 A 
BRANCH  10  11
ATOM     11  C   UNL A   1      40.567  27.850  28.586  1.00  0.00     0.031 A 
ATOM     12  C   UNL A   1      41.947  27.972  29.143  1.00  0.00     0.074 A 
ATOM     13  C   UNL A   1      39.746  28.914  28.701  1.00  0.00     0.049 A 
ATOM     14  N   UNL A   1      42.513  29.036  29.648  1.00  0.00    -0.248 NA
ATOM     15  C   UNL A   1      42.803  26.779  29.101  1.00  0.00     0.031 C 
ATOM     16  C   UNL A   1      38.410  28.978  28.141  1.00  0.00     0.029 A 
ATOM     17  N   UNL A   1      39.892  30.134  29.322  1.00  0.00    -0.354 N 
ATOM     18  C   UNL A   1      43.812  28.664  29.940  1.00  0.00     0.074 A 
ATOM     19  C   UNL A   1      43.932  27.255  29.611  1.00  0.00     0.031 C 
ATOM     20  C   UNL A   1      37.833  30.131  28.502  1.00  0.00     0.029 A 
ATOM     21  C   UNL A   1      38.763  30.919  29.269  1.00  0.00     0.049 A 
ATOM     22  H   UNL A   1      40.726  30.418  29.762  1.00  0.00     0.167 HD
ATOM     23  C   UNL A   1      44.814  29.438  30.412  1.00  0.00     0.031 A 
ATOM     24  C   UNL A   1      38.472  32.150  29.728  1.00  0.00     0.031 A 
ATOM     25  C   UNL A   1      44.688  30.821  30.788  1.00  0.00     0.049 A 
ATOM     26  C   UNL A   1      39.563  32.933  30.360  1.00  0.00     0.074 A 
ATOM     27  C   UNL A   1      45.671  31.675  31.258  1.00  0.00     0.029 A 
ATOM     28  N   UNL A   1      43.506  31.548  30.777  1.00  0.00    -0.354 N 
ATOM     29  N   UNL A   1      40.812  32.586  30.519  1.00  0.00    -0.248 NA
ATOM     30  C   UNL A   1      39.223  34.283  30.825  1.00  0.00     0.031 C 
ATOM     31  C   UNL A   1      45.071  32.893  31.597  1.00  0.00     0.029 A 
ATOM     32  C   UNL A   1      43.724  32.816  31.295  1.00  0.00     0.049 A 
ATOM     33  H   UNL A   1      42.640  31.212  30.449  1.00  0.00     0.167 HD
ATOM     34  C   UNL A   1      41.420  33.686  31.091  1.00  0.00     0.074 A 
ATOM     35  C   UNL A   1      40.409  34.718  31.222  1.00  0.00     0.031 C 
ATOM     36  C   UNL A   1      42.708  33.819  31.472  1.00  0.00     0.031 A 
BRANCH  23  37
ATOM     37  C   UNL A   1      46.146  28.774  30.566  1.00  0.00    -0.014 A 
ATOM     38  C   UNL A   1      46.496  28.146  31.774  1.00  0.00     0.010 A 
ATOM     39  C   UNL A   1      47.052  28.779  29.493  1.00  0.00     0.010 A 
ATOM     40  C   UNL A   1      47.753  27.560  31.918  1.00  0.00     0.020 A 
ATOM     41  C   UNL A   1      48.305  28.178  29.630  1.00  0.00     0.020 A 
ATOM     42  C   UNL A   1      48.651  27.585  30.847  1.00  0.00     0.054 A 
BRANCH  42  43
ATOM     43  S   UNL A   1      50.276  26.814  31.060  1.00  0.00     0.124 S 
ATOM     44  O   UNL A   1      51.129  27.976  31.303  1.00  0.00    -0.237 OA
ATOM     45  O   UNL A   1      50.065  25.938  32.209  1.00  0.00    -0.237 OA
ATOM     46  O   UNL A   1      50.504  26.129  29.791  1.00  0.00    -0.744 OA
ENDBRANCH  42  43
ENDBRANCH  23  37
BRANCH  24  47
ATOM     47  C   UNL A   1      37.132  32.774  29.560  1.00  0.00    -0.014 A 
ATOM     48  C   UNL A   1      36.784  33.384  28.342  1.00  0.00     0.010 A 
ATOM     49  C   UNL A   1      36.241  32.854  30.645  1.00  0.00     0.010 A 
ATOM     50  C   UNL A   1      35.577  34.079  28.219  1.00  0.00     0.020 A 
ATOM     51  C   UNL A   1      35.023  33.532  30.517  1.00  0.00     0.020 A 
ATOM     52  C   UNL A   1      34.699  34.141  29.305  1.00  0.00     0.054 A 
BRANCH  52  53
ATOM     53  S   UNL A   1      33.085  34.943  29.079  1.00  0.00     0.124 S 
ATOM     54  O   UNL A   1      32.463  34.097  28.066  1.00  0.00    -0.237 OA
ATOM     55  O   UNL A   1      32.499  34.859  30.417  1.00  0.00    -0.237 OA
ATOM     56  O   UNL A   1      33.427  36.296  28.648  1.00  0.00    -0.744 OA
ENDBRANCH  52  53
ENDBRANCH  24  47
BRANCH  36  57
ATOM     57  C   UNL A   1      43.065  35.120  32.116  1.00  0.00    -0.014 A 
ATOM     58  C   UNL A   1      42.642  35.400  33.427  1.00  0.00     0.010 A 
ATOM     59  C   UNL A   1      43.809  36.074  31.404  1.00  0.00     0.010 A 
ATOM     60  C   UNL A   1      42.941  36.627  34.014  1.00  0.00     0.020 A 
ATOM     61  C   UNL A   1      44.137  37.292  31.999  1.00  0.00     0.020 A 
ATOM     62  C   UNL A   1      43.694  37.562  33.297  1.00  0.00     0.054 A 
BRANCH  62  63
ATOM     63  S   UNL A   1      44.141  39.116  34.113  1.00  0.00     0.124 S 
ATOM     64  O   UNL A   1      45.320  39.528  33.356  1.00  0.00    -0.237 OA
ATOM     65  O   UNL A   1      42.948  39.936  33.913  1.00  0.00    -0.237 OA
ATOM     66  O   UNL A   1      44.393  38.718  35.496  1.00  0.00    -0.744 OA
ENDBRANCH  62  63
ENDBRANCH  36  57
ENDBRANCH  10  11
ENDBRANCH   3   5
ENDBRANCH   2   3
ENDBRANCH   1   2
BRANCH   1  67
ATOM     67  C   UNL A   1      35.580  22.810  24.023  1.00  0.00     0.274 C 
BRANCH  67  68
ATOM     68  O   UNL A   1      35.039  23.739  23.083  1.00  0.00    -0.462 OA
BRANCH  68  69
ATOM     69  C   UNL A   1      33.756  23.520  22.671  1.00  0.00     0.312 C 
ATOM     70  O   UNL A   1      33.434  23.208  21.533  1.00  0.00    -0.252 OA
BRANCH  69  71
ATOM     71  C   UNL A   1      32.786  23.649  23.847  1.00  0.00     0.123 C 
ATOM     72  C   UNL A   1      31.373  23.399  23.411  1.00  0.00    -0.015 C 
ATOM     73  C   UNL A   1      32.651  25.084  24.364  1.00  0.00     0.043 C 
ATOM     74  C   UNL A   1      30.725  24.552  23.202  1.00  0.00    -0.011 C 
ATOM     75  C   UNL A   1      31.614  25.731  23.436  1.00  0.00     0.093 C 
BRANCH  75  76
ATOM     76  N   UNL A   1      30.918  26.803  24.113  1.00  0.00    -0.204 NA
ATOM     77  H   UNL A   1      31.091  26.683  25.111  1.00  0.00     0.142 HD
BRANCH  76  78
ATOM     78  S   UNL A   1      31.282  28.399  23.743  1.00  0.00     0.244 S 
ATOM     79  O   UNL A   1      32.198  28.412  22.619  1.00  0.00    -0.207 OA
ATOM     80  O   UNL A   1      29.983  29.013  23.683  1.00  0.00    -0.207 OA
BRANCH  78  81
ATOM     81  C   UNL A   1      32.146  29.139  25.090  1.00  0.00     0.121 A 
ATOM     82  C   UNL A   1      31.498  30.209  25.729  1.00  0.00     0.028 A 
ATOM     83  C   UNL A   1      33.406  28.748  25.519  1.00  0.00     0.181 A 
ATOM     84  C   UNL A   1      32.109  30.882  26.789  1.00  0.00     0.044 A 
ATOM     85  C   UNL A   1      34.000  29.400  26.603  1.00  0.00     0.195 A 
ATOM     86  F   UNL A   1      34.094  27.776  24.908  1.00  0.00    -0.202 F 
ATOM     87  C   UNL A   1      33.359  30.465  27.226  1.00  0.00     0.161 A 
ATOM     88  F   UNL A   1      35.212  29.015  27.032  1.00  0.00    -0.200 F 
ATOM     89  F   UNL A   1      33.953  31.112  28.239  1.00  0.00    -0.204 F 
ENDBRANCH  78  81
ENDBRANCH  76  78
ENDBRANCH  75  76
ENDBRANCH  69  71
ENDBRANCH  68  69
ENDBRANCH  67  68
ENDBRANCH   1  67
TORSDOF 17
ENDMDL
MODEL 2
REMARK VINA RESULT:     -10.6      1.400      2.068
REMARK SMILES O=C(OCCOC(=O)[C@@H]1C=C[C@@H](NS(=O)(=O)c2ccc(F)c(F)c2F)C1)c1ccc(-c2c3nc(c(-c4ccc(S(=O)(=O)[O-])cc4)c4ccc([nH]4)c(-c4ccc(S(=O)(=O)[O-])cc4)c4nc(c(-c5ccc(S(=O)(=O)[O-])cc5)c5ccc2[nH]5)C=C4)C=C3)cc1
REMARK SMILES IDX 4 1 3 2 2 3 1 4 27 5 28 6 86 7 29 8 85 9 30 10 31 11 32 12
REMARK SMILES IDX 79 13 33 14 84 15 78 16 80 17 34 18 83 19 77 20 76 21 35 23
REMARK SMILES IDX 65 24 46 25 64 26 47 27 50 28 63 29 81 30 48 31 49 32 62 34
REMARK SMILES IDX 82 35 51 36 36 37 37 38 45 39 38 40 44 41 39 42 40 43 41 44
REMARK SMILES IDX 42 45 43 46 66 47 67 48 75 49 68 50 74 51 69 52 70 53 71 54
REMARK SMILES IDX 72 55 73 56 52 57 53 58 61 59 54 60 60 61 55 62 56 63 57 64
REMARK SMILES IDX 58 65 59 66 5 67 6 68 7 69 8 70 9 71 10 72 26 73 11 74 12 75
REMARK SMILES IDX 13 76 14 78 15 79 16 80 17 81 18 82 24 83 19 84 22 85 25 86
REMARK SMILES IDX 20 87 23 88 21 89
REMARK H PARENT 80 22 50 33 13 77
REMARK Flexibility Score: inf
ROOT
ATOM      1  C   UNL A   1      36.117  23.800  25.494  1.00  0.00     0.275 C 
ENDROOT
BRANCH   1   2
ATOM      2  O   UNL A   1      37.244  22.903  25.468  1.00  0.00    -0.458 OA
BRANCH   2   3
ATOM      3  C   UNL A   1      38.439  22.937  26.102  1.00  0.00     0.338 C 
ATOM      4  O   UNL A   1      39.009  21.860  26.283  1.00  0.00    -0.246 OA
BRANCH   3   5
ATOM      5  C   UNL A   1      39.099  24.163  26.682  1.00  0.00     0.060 A 
ATOM      6  C   UNL A   1      39.975  25.037  26.033  1.00  0.00     0.016 A 
ATOM      7  C   UNL A   1      38.793  24.450  28.030  1.00  0.00     0.016 A 
ATOM      8  C   UNL A   1      40.470  26.191  26.678  1.00  0.00     0.010 A 
ATOM      9  C   UNL A   1      39.287  25.595  28.677  1.00  0.00     0.010 A 
ATOM     10  C   UNL A   1      40.117  26.492  27.998  1.00  0.00    -0.014 A 
BRANCH  10  11
ATOM     11  C   UNL A   1      40.577  27.744  28.660  1.00  0.00     0.031 A 
ATOM     12  C   UNL A   1      41.942  27.844  29.256  1.00  0.00     0.074 A 
ATOM     13  C   UNL A   1      39.764  28.814  28.766  1.00  0.00     0.049 A 
ATOM     14  N   UNL A   1      42.504  28.896  29.789  1.00  0.00    -0.248 NA
ATOM     15  C   UNL A   1      42.787  26.643  29.222  1.00  0.00     0.031 C 
ATOM     16  C   UNL A   1      38.445  28.900  28.171  1.00  0.00     0.029 A 
ATOM     17  N   UNL A   1      39.905  30.025  29.407  1.00  0.00    -0.354 N 
ATOM     18  C   UNL A   1      43.791  28.506  30.112  1.00  0.00     0.074 A 
ATOM     19  C   UNL A   1      43.906  27.101  29.769  1.00  0.00     0.031 C 
ATOM     20  C   UNL A   1      37.869  30.054  28.531  1.00  0.00     0.029 A 
ATOM     21  C   UNL A   1      38.786  30.823  29.332  1.00  0.00     0.049 A 
ATOM     22  H   UNL A   1      40.729  30.295  29.872  1.00  0.00     0.167 HD
ATOM     23  C   UNL A   1      44.788  29.264  30.621  1.00  0.00     0.031 A 
ATOM     24  C   UNL A   1      38.496  32.051  29.799  1.00  0.00     0.031 A 
ATOM     25  C   UNL A   1      44.665  30.643  31.011  1.00  0.00     0.049 A 
ATOM     26  C   UNL A   1      39.576  32.815  30.471  1.00  0.00     0.074 A 
ATOM     27  C   UNL A   1      45.645  31.481  31.518  1.00  0.00     0.029 A 
ATOM     28  N   UNL A   1      43.492  31.383  30.977  1.00  0.00    -0.354 N 
ATOM     29  N   UNL A   1      40.817  32.453  30.659  1.00  0.00    -0.248 NA
ATOM     30  C   UNL A   1      39.238  34.162  30.943  1.00  0.00     0.031 C 
ATOM     31  C   UNL A   1      45.048  32.701  31.856  1.00  0.00     0.029 A 
ATOM     32  C   UNL A   1      43.709  32.642  31.516  1.00  0.00     0.049 A 
ATOM     33  H   UNL A   1      42.632  31.060  30.622  1.00  0.00     0.167 HD
ATOM     34  C   UNL A   1      41.420  33.539  31.261  1.00  0.00     0.074 A 
ATOM     35  C   UNL A   1      40.417  34.580  31.377  1.00  0.00     0.031 C 
ATOM     36  C   UNL A   1      42.699  33.653  31.678  1.00  0.00     0.031 A 
BRANCH  23  37
ATOM     37  C   UNL A   1      46.109  28.584  30.803  1.00  0.00    -0.014 A 
ATOM     38  C   UNL A   1      47.060  28.583  29.767  1.00  0.00     0.010 A 
ATOM     39  C   UNL A   1      46.399  27.944  32.019  1.00  0.00     0.010 A 
ATOM     40  C   UNL A   1      48.274  27.918  29.935  1.00  0.00     0.020 A 
ATOM     41  C   UNL A   1      47.620  27.291  32.194  1.00  0.00     0.020 A 
ATOM     42  C   UNL A   1      48.543  27.271  31.145  1.00  0.00     0.054 A 
BRANCH  42  43
ATOM     43  S   UNL A   1      50.129  26.416  31.337  1.00  0.00     0.124 S 
ATOM     44  O   UNL A   1      50.835  26.821  30.123  1.00  0.00    -0.237 OA
ATOM     45  O   UNL A   1      50.645  26.979  32.582  1.00  0.00    -0.237 OA
ATOM     46  O   UNL A   1      49.757  25.006  31.400  1.00  0.00    -0.744 OA
ENDBRANCH  42  43
ENDBRANCH  23  37
BRANCH  24  47
ATOM     47  C   UNL A   1      37.166  32.692  29.603  1.00  0.00    -0.014 A 
ATOM     48  C   UNL A   1      36.883  33.379  28.410  1.00  0.00     0.010 A 
ATOM     49  C   UNL A   1      36.221  32.707  30.643  1.00  0.00     0.010 A 
ATOM     50  C   UNL A   1      35.686  34.086  28.269  1.00  0.00     0.020 A 
ATOM     51  C   UNL A   1      35.012  33.398  30.497  1.00  0.00     0.020 A 
ATOM     52  C   UNL A   1      34.752  34.085  29.310  1.00  0.00     0.054 A 
BRANCH  52  53
ATOM     53  S   UNL A   1      33.153  34.907  29.053  1.00  0.00     0.124 S 
ATOM     54  O   UNL A   1      33.562  36.240  28.624  1.00  0.00    -0.237 OA
ATOM     55  O   UNL A   1      32.531  34.075  28.023  1.00  0.00    -0.237 OA
ATOM     56  O   UNL A   1      32.513  34.835  30.364  1.00  0.00    -0.744 OA
ENDBRANCH  52  53
ENDBRANCH  24  47
BRANCH  36  57
ATOM     57  C   UNL A   1      43.051  34.942  32.348  1.00  0.00    -0.014 A 
ATOM     58  C   UNL A   1      42.903  35.081  33.740  1.00  0.00     0.010 A 
ATOM     59  C   UNL A   1      43.514  36.026  31.585  1.00  0.00     0.010 A 
ATOM     60  C   UNL A   1      43.195  36.293  34.359  1.00  0.00     0.020 A 
ATOM     61  C   UNL A   1      43.836  37.232  32.206  1.00  0.00     0.020 A 
ATOM     62  C   UNL A   1      43.667  37.359  33.587  1.00  0.00     0.054 A 
BRANCH  62  63
ATOM     63  S   UNL A   1      44.119  38.899  34.428  1.00  0.00     0.124 S 
ATOM     64  O   UNL A   1      43.957  38.537  35.833  1.00  0.00    -0.237 OA
ATOM     65  O   UNL A   1      45.496  39.110  33.987  1.00  0.00    -0.237 OA
ATOM     66  O   UNL A   1      43.151  39.866  33.915  1.00  0.00    -0.744 OA
ENDBRANCH  62  63
ENDBRANCH  36  57
ENDBRANCH  10  11
ENDBRANCH   3   5
ENDBRANCH   2   3
ENDBRANCH   1   2
BRANCH   1  67
ATOM     67  C   UNL A   1      35.077  23.468  26.562  1.00  0.00     0.274 C 
BRANCH  67  68
ATOM     68  O   UNL A   1      34.211  22.415  26.136  1.00  0.00    -0.462 OA
BRANCH  68  69
ATOM     69  C   UNL A   1      32.890  22.537  26.459  1.00  0.00     0.312 C 
ATOM     70  O   UNL A   1      32.470  22.981  27.519  1.00  0.00    -0.252 OA
BRANCH  69  71
ATOM     71  C   UNL A   1      32.010  22.108  25.283  1.00  0.00     0.123 C 
ATOM     72  C   UNL A   1      32.843  21.609  24.139  1.00  0.00    -0.015 C 
ATOM     73  C   UNL A   1      31.301  23.280  24.599  1.00  0.00     0.043 C 
ATOM     74  C   UNL A   1      33.008  22.564  23.215  1.00  0.00    -0.011 C 
ATOM     75  C   UNL A   1      32.341  23.839  23.620  1.00  0.00     0.093 C 
BRANCH  75  76
ATOM     76  N   UNL A   1      31.694  24.485  22.499  1.00  0.00    -0.204 NA
ATOM     77  H   UNL A   1      30.770  24.776  22.819  1.00  0.00     0.142 HD
BRANCH  76  78
ATOM     78  S   UNL A   1      32.407  25.826  21.783  1.00  0.00     0.244 S 
ATOM     79  O   UNL A   1      33.815  25.544  21.580  1.00  0.00    -0.207 OA
ATOM     80  O   UNL A   1      31.515  26.113  20.692  1.00  0.00    -0.207 OA
BRANCH  78  81
ATOM     81  C   UNL A   1      32.334  27.198  22.888  1.00  0.00     0.121 A 
ATOM     82  C   UNL A   1      33.511  27.485  23.599  1.00  0.00     0.028 A 
ATOM     83  C   UNL A   1      31.200  27.969  23.103  1.00  0.00     0.181 A 
ATOM     84  C   UNL A   1      33.550  28.534  24.519  1.00  0.00     0.044 A 
ATOM     85  C   UNL A   1      31.253  29.039  23.999  1.00  0.00     0.195 A 
ATOM     86  F   UNL A   1      30.035  27.703  22.498  1.00  0.00    -0.202 F 
ATOM     87  C   UNL A   1      32.417  29.313  24.708  1.00  0.00     0.161 A 
ATOM     88  F   UNL A   1      30.163  29.797  24.199  1.00  0.00    -0.200 F 
ATOM     89  F   UNL A   1      32.447  30.317  25.596  1.00  0.00    -0.204 F 
ENDBRANCH  78  81
ENDBRANCH  76  78
ENDBRANCH  75  76
ENDBRANCH  69  71
ENDBRANCH  68  69
ENDBRANCH  67  68
ENDBRANCH   1  67
TORSDOF 17
ENDMDL
MODEL 3
REMARK VINA RESULT:     -10.5      3.582      9.806
REMARK SMILES O=C(OCCOC(=O)[C@@H]1C=C[C@@H](NS(=O)(=O)c2ccc(F)c(F)c2F)C1)c1ccc(-c2c3nc(c(-c4ccc(S(=O)(=O)[O-])cc4)c4ccc([nH]4)c(-c4ccc(S(=O)(=O)[O-])cc4)c4nc(c(-c5ccc(S(=O)(=O)[O-])cc5)c5ccc2[nH]5)C=C4)C=C3)cc1
REMARK SMILES IDX 4 1 3 2 2 3 1 4 27 5 28 6 86 7 29 8 85 9 30 10 31 11 32 12
REMARK SMILES IDX 79 13 33 14 84 15 78 16 80 17 34 18 83 19 77 20 76 21 35 23
REMARK SMILES IDX 65 24 46 25 64 26 47 27 50 28 63 29 81 30 48 31 49 32 62 34
REMARK SMILES IDX 82 35 51 36 36 37 37 38 45 39 38 40 44 41 39 42 40 43 41 44
REMARK SMILES IDX 42 45 43 46 66 47 67 48 75 49 68 50 74 51 69 52 70 53 71 54
REMARK SMILES IDX 72 55 73 56 52 57 53 58 61 59 54 60 60 61 55 62 56 63 57 64
REMARK SMILES IDX 58 65 59 66 5 67 6 68 7 69 8 70 9 71 10 72 26 73 11 74 12 75
REMARK SMILES IDX 13 76 14 78 15 79 16 80 17 81 18 82 24 83 19 84 22 85 25 86
REMARK SMILES IDX 20 87 23 88 21 89
REMARK H PARENT 80 22 50 33 13 77
REMARK Flexibility Score: inf
ROOT
ATOM      1  C   UNL A   1      32.044  29.513  26.670  1.00  0.00     0.275 C 
ENDROOT
BRANCH   1   2
ATOM      2  O   UNL A   1      33.433  29.416  27.038  1.00  0.00    -0.458 OA
BRANCH   2   3
ATOM      3  C   UNL A   1      34.284  30.309  27.595  1.00  0.00     0.338 C 
ATOM      4  O   UNL A   1      33.944  31.494  27.580  1.00  0.00    -0.246 OA
BRANCH   3   5
ATOM      5  C   UNL A   1      35.648  29.999  28.159  1.00  0.00     0.060 A 
ATOM      6  C   UNL A   1      35.958  29.653  29.477  1.00  0.00     0.016 A 
ATOM      7  C   UNL A   1      36.724  30.068  27.248  1.00  0.00     0.016 A 
ATOM      8  C   UNL A   1      37.276  29.321  29.856  1.00  0.00     0.010 A 
ATOM      9  C   UNL A   1      38.038  29.743  27.622  1.00  0.00     0.010 A 
ATOM     10  C   UNL A   1      38.325  29.343  28.931  1.00  0.00    -0.014 A 
BRANCH  10  11
ATOM     11  C   UNL A   1      39.704  28.924  29.306  1.00  0.00     0.031 A 
ATOM     12  C   UNL A   1      40.631  29.862  30.005  1.00  0.00     0.074 A 
ATOM     13  C   UNL A   1      40.164  27.694  29.002  1.00  0.00     0.049 A 
ATOM     14  N   UNL A   1      41.827  29.607  30.465  1.00  0.00    -0.248 NA
ATOM     15  C   UNL A   1      40.156  31.231  30.248  1.00  0.00     0.031 C 
ATOM     16  C   UNL A   1      39.362  26.647  28.400  1.00  0.00     0.029 A 
ATOM     17  N   UNL A   1      41.403  27.107  29.141  1.00  0.00    -0.354 N 
ATOM     18  C   UNL A   1      42.237  30.765  31.100  1.00  0.00     0.074 A 
ATOM     19  C   UNL A   1      41.183  31.745  30.912  1.00  0.00     0.031 C 
ATOM     20  C   UNL A   1      40.135  25.583  28.152  1.00  0.00     0.029 A 
ATOM     21  C   UNL A   1      41.472  25.834  28.622  1.00  0.00     0.049 A 
ATOM     22  H   UNL A   1      42.166  27.556  29.571  1.00  0.00     0.167 HD
ATOM     23  C   UNL A   1      43.376  30.974  31.797  1.00  0.00     0.031 A 
ATOM     24  C   UNL A   1      42.457  24.921  28.548  1.00  0.00     0.031 A 
ATOM     25  C   UNL A   1      44.446  30.024  31.942  1.00  0.00     0.049 A 
ATOM     26  C   UNL A   1      43.746  25.231  29.215  1.00  0.00     0.074 A 
ATOM     27  C   UNL A   1      45.626  30.165  32.654  1.00  0.00     0.029 A 
ATOM     28  N   UNL A   1      44.494  28.775  31.341  1.00  0.00    -0.354 N 
ATOM     29  N   UNL A   1      44.058  26.296  29.903  1.00  0.00    -0.248 NA
ATOM     30  C   UNL A   1      44.791  24.203  29.142  1.00  0.00     0.031 C 
ATOM     31  C   UNL A   1      46.416  29.032  32.425  1.00  0.00     0.029 A 
ATOM     32  C   UNL A   1      45.710  28.165  31.611  1.00  0.00     0.049 A 
ATOM     33  H   UNL A   1      43.770  28.381  30.802  1.00  0.00     0.167 HD
ATOM     34  C   UNL A   1      45.339  26.063  30.364  1.00  0.00     0.074 A 
ATOM     35  C   UNL A   1      45.730  24.745  29.903  1.00  0.00     0.031 C 
ATOM     36  C   UNL A   1      46.115  26.880  31.108  1.00  0.00     0.031 A 
BRANCH  23  37
ATOM     37  C   UNL A   1      43.519  32.317  32.441  1.00  0.00    -0.014 A 
ATOM     38  C   UNL A   1      43.131  32.513  33.778  1.00  0.00     0.010 A 
ATOM     39  C   UNL A   1      44.047  33.389  31.703  1.00  0.00     0.010 A 
ATOM     40  C   UNL A   1      43.237  33.776  34.359  1.00  0.00     0.020 A 
ATOM     41  C   UNL A   1      44.169  34.650  32.287  1.00  0.00     0.020 A 
ATOM     42  C   UNL A   1      43.750  34.838  33.607  1.00  0.00     0.054 A 
BRANCH  42  43
ATOM     43  S   UNL A   1      43.879  36.469  34.386  1.00  0.00     0.124 S 
ATOM     44  O   UNL A   1      44.037  36.114  35.795  1.00  0.00    -0.237 OA
ATOM     45  O   UNL A   1      45.062  37.036  33.745  1.00  0.00    -0.237 OA
ATOM     46  O   UNL A   1      42.616  37.117  34.045  1.00  0.00    -0.744 OA
ENDBRANCH  42  43
ENDBRANCH  23  37
BRANCH  24  47
ATOM     47  C   UNL A   1      42.277  23.597  27.893  1.00  0.00    -0.014 A 
ATOM     48  C   UNL A   1      41.706  22.528  28.605  1.00  0.00     0.010 A 
ATOM     49  C   UNL A   1      42.769  23.371  26.595  1.00  0.00     0.010 A 
ATOM     50  C   UNL A   1      41.648  21.252  28.038  1.00  0.00     0.020 A 
ATOM     51  C   UNL A   1      42.692  22.098  26.017  1.00  0.00     0.020 A 
ATOM     52  C   UNL A   1      42.133  21.045  26.743  1.00  0.00     0.054 A 
BRANCH  52  53
ATOM     53  S   UNL A   1      41.932  19.407  25.984  1.00  0.00     0.124 S 
ATOM     54  O   UNL A   1      40.498  19.368  25.720  1.00  0.00    -0.237 OA
ATOM     55  O   UNL A   1      42.789  19.499  24.802  1.00  0.00    -0.237 OA
ATOM     56  O   UNL A   1      42.409  18.488  27.014  1.00  0.00    -0.744 OA
ENDBRANCH  52  53
ENDBRANCH  24  47
BRANCH  36  57
ATOM     57  C   UNL A   1      47.488  26.372  31.412  1.00  0.00    -0.014 A 
ATOM     58  C   UNL A   1      47.730  25.653  32.596  1.00  0.00     0.010 A 
ATOM     59  C   UNL A   1      48.544  26.628  30.523  1.00  0.00     0.010 A 
ATOM     60  C   UNL A   1      49.016  25.212  32.898  1.00  0.00     0.020 A 
ATOM     61  C   UNL A   1      49.827  26.162  30.808  1.00  0.00     0.020 A 
ATOM     62  C   UNL A   1      50.055  25.464  31.997  1.00  0.00     0.054 A 
BRANCH  62  63
ATOM     63  S   UNL A   1      51.701  24.808  32.373  1.00  0.00     0.124 S 
ATOM     64  O   UNL A   1      52.541  25.533  31.423  1.00  0.00    -0.237 OA
ATOM     65  O   UNL A   1      51.877  25.175  33.777  1.00  0.00    -0.237 OA
ATOM     66  O   UNL A   1      51.565  23.375  32.122  1.00  0.00    -0.744 OA
ENDBRANCH  62  63
ENDBRANCH  36  57
ENDBRANCH  10  11
ENDBRANCH   3   5
ENDBRANCH   2   3
ENDBRANCH   1   2
BRANCH   1  67
ATOM     67  C   UNL A   1      31.761  29.199  25.203  1.00  0.00     0.274 C 
BRANCH  67  68
ATOM     68  O   UNL A   1      32.620  28.169  24.715  1.00  0.00    -0.462 OA
BRANCH  68  69
ATOM     69  C   UNL A   1      32.069  26.929  24.562  1.00  0.00     0.312 C 
ATOM     70  O   UNL A   1      31.372  26.589  23.616  1.00  0.00    -0.252 OA
BRANCH  69  71
ATOM     71  C   UNL A   1      32.503  26.005  25.702  1.00  0.00     0.123 C 
ATOM     72  C   UNL A   1      33.998  25.895  25.767  1.00  0.00    -0.015 C 
ATOM     73  C   UNL A   1      32.142  24.537  25.461  1.00  0.00     0.043 C 
ATOM     74  C   UNL A   1      34.422  24.777  25.165  1.00  0.00    -0.011 C 
ATOM     75  C   UNL A   1      33.284  23.999  24.588  1.00  0.00     0.093 C 
BRANCH  75  76
ATOM     76  N   UNL A   1      33.451  22.576  24.783  1.00  0.00    -0.204 NA
ATOM     77  H   UNL A   1      33.631  22.433  25.777  1.00  0.00     0.142 HD
BRANCH  76  78
ATOM     78  S   UNL A   1      32.215  21.523  24.356  1.00  0.00     0.244 S 
ATOM     79  O   UNL A   1      31.346  21.345  25.503  1.00  0.00    -0.207 OA
ATOM     80  O   UNL A   1      31.746  22.076  23.114  1.00  0.00    -0.207 OA
BRANCH  78  81
ATOM     81  C   UNL A   1      32.887  19.933  23.996  1.00  0.00     0.121 A 
ATOM     82  C   UNL A   1      32.214  19.183  23.018  1.00  0.00     0.028 A 
ATOM     83  C   UNL A   1      33.996  19.392  24.630  1.00  0.00     0.181 A 
ATOM     84  C   UNL A   1      32.649  17.900  22.680  1.00  0.00     0.044 A 
ATOM     85  C   UNL A   1      34.449  18.122  24.265  1.00  0.00     0.195 A 
ATOM     86  F   UNL A   1      34.638  20.038  25.612  1.00  0.00    -0.202 F 
ATOM     87  C   UNL A   1      33.774  17.379  23.304  1.00  0.00     0.161 A 
ATOM     88  F   UNL A   1      35.531  17.600  24.865  1.00  0.00    -0.200 F 
ATOM     89  F   UNL A   1      34.192  16.144  22.987  1.00  0.00    -0.204 F 
ENDBRANCH  78  81
ENDBRANCH  76  78
ENDBRANCH  75  76
ENDBRANCH  69  71
ENDBRANCH  68  69
ENDBRANCH  67  68
ENDBRANCH   1  67
TORSDOF 17
ENDMDL
