MODEL 1
REMARK VINA RESULT:     -11.2      0.000      0.000
REMARK SMILES C[C@H]1[C@H](C(=O)OCCOC(=O)c2ccc(-c3c4nc(c(-c5ccc(S(=O)(=O)[O-])cc5)c5ccc([nH]5)c(-c5ccc(S(=O)(=O)[O-])cc5)c5nc(c(-c6ccc(S(=O)(=O)[O-])cc6)c6ccc3[nH]6)C=C5)C=C4)cc2)CCN1C(=O)Nc1ccc(F)c(Cl)c1
REMARK SMILES IDX 8 1 7 2 6 3 4 4 5 5 3 6 1 7 2 8 74 9 72 10 73 11 75 12 76 13
REMARK SMILES IDX 77 14 78 16 79 17 85 18 80 19 83 20 81 21 84 22 82 23 9 24
REMARK SMILES IDX 10 25 11 26 12 27 13 28 71 29 14 30 70 31 15 32 16 33 17 34
REMARK SMILES IDX 64 35 18 36 69 37 63 38 65 39 19 40 68 41 62 42 61 43 20 45
REMARK SMILES IDX 50 46 31 47 49 48 32 49 35 50 48 51 66 52 33 53 34 54 47 56
REMARK SMILES IDX 67 57 36 58 21 59 22 60 30 61 23 62 29 63 24 64 25 65 26 66
REMARK SMILES IDX 27 67 28 68 51 69 52 70 60 71 53 72 59 73 54 74 55 75 56 76
REMARK SMILES IDX 57 77 58 78 37 79 38 80 46 81 39 82 45 83 40 84 41 85 42 86
REMARK SMILES IDX 43 87 44 88
REMARK H PARENT 77 15 65 44 35 55
REMARK Flexibility Score: inf
ROOT
ATOM      1  C   UNL A   1      33.183  29.705  25.657  1.00  0.00     0.275 C 
ENDROOT
BRANCH   1   2
ATOM      2  C   UNL A   1      33.360  28.856  24.395  1.00  0.00     0.274 C 
BRANCH   2   3
ATOM      3  O   UNL A   1      33.221  27.446  24.661  1.00  0.00    -0.462 OA
BRANCH   3   4
ATOM      4  C   UNL A   1      32.645  26.711  23.676  1.00  0.00     0.311 C 
ATOM      5  O   UNL A   1      33.053  26.652  22.522  1.00  0.00    -0.252 OA
BRANCH   4   6
ATOM      6  C   UNL A   1      31.373  26.015  24.108  1.00  0.00     0.123 C 
ATOM      7  C   UNL A   1      30.759  23.661  23.429  1.00  0.00     0.032 C 
ATOM      8  C   UNL A   1      31.512  24.515  24.456  1.00  0.00     0.098 C 
ATOM      9  N   UNL A   1      30.933  24.382  25.803  1.00  0.00    -0.321 N 
ATOM     10  C   UNL A   1      30.822  26.689  25.359  1.00  0.00     0.039 C 
ATOM     11  C   UNL A   1      30.158  25.567  26.120  1.00  0.00     0.122 C 
BRANCH   9  12
ATOM     12  C   UNL A   1      30.825  23.302  26.634  1.00  0.00     0.322 C 
ATOM     13  O   UNL A   1      29.903  23.221  27.453  1.00  0.00    -0.248 OA
ATOM     14  N   UNL A   1      31.594  22.197  26.489  1.00  0.00    -0.308 N 
ATOM     15  H   UNL A   1      31.124  21.373  26.752  1.00  0.00     0.171 HD
BRANCH  14  16
ATOM     16  C   UNL A   1      32.901  21.956  26.053  1.00  0.00     0.044 A 
ATOM     17  C   UNL A   1      33.136  20.726  25.421  1.00  0.00     0.029 A 
ATOM     18  C   UNL A   1      33.964  22.826  26.289  1.00  0.00     0.049 A 
ATOM     19  C   UNL A   1      34.404  20.413  24.934  1.00  0.00     0.043 A 
ATOM     20  C   UNL A   1      35.244  22.492  25.835  1.00  0.00     0.078 A 
ATOM     21  C   UNL A   1      35.453  21.302  25.139  1.00  0.00     0.141 A 
ATOM     22  Cl  UNL A   1      36.571  23.533  26.185  1.00  0.00    -0.081 Cl
ATOM     23  F   UNL A   1      36.670  20.976  24.678  1.00  0.00    -0.205 F 
ENDBRANCH  14  16
ENDBRANCH   9  12
ENDBRANCH   4   6
ENDBRANCH   3   4
ENDBRANCH   2   3
ENDBRANCH   1   2
BRANCH   1  24
ATOM     24  O   UNL A   1      34.015  29.258  26.740  1.00  0.00    -0.458 OA
BRANCH  24  25
ATOM     25  C   UNL A   1      34.424  30.231  27.587  1.00  0.00     0.338 C 
ATOM     26  O   UNL A   1      33.765  31.146  28.047  1.00  0.00    -0.246 OA
BRANCH  25  27
ATOM     27  C   UNL A   1      35.805  29.967  28.002  1.00  0.00     0.060 A 
ATOM     28  C   UNL A   1      36.816  30.050  27.042  1.00  0.00     0.016 A 
ATOM     29  C   UNL A   1      36.081  29.551  29.303  1.00  0.00     0.016 A 
ATOM     30  C   UNL A   1      38.117  29.694  27.373  1.00  0.00     0.010 A 
ATOM     31  C   UNL A   1      37.393  29.221  29.641  1.00  0.00     0.010 A 
ATOM     32  C   UNL A   1      38.415  29.283  28.676  1.00  0.00    -0.014 A 
BRANCH  32  33
ATOM     33  C   UNL A   1      39.797  28.913  29.046  1.00  0.00     0.031 A 
ATOM     34  C   UNL A   1      40.707  29.941  29.648  1.00  0.00     0.074 A 
ATOM     35  C   UNL A   1      40.234  27.664  28.802  1.00  0.00     0.049 A 
ATOM     36  N   UNL A   1      41.994  29.877  29.863  1.00  0.00    -0.248 NA
ATOM     37  C   UNL A   1      40.086  31.213  30.057  1.00  0.00     0.031 C 
ATOM     38  C   UNL A   1      39.415  26.570  28.274  1.00  0.00     0.029 A 
ATOM     39  N   UNL A   1      41.479  27.111  28.947  1.00  0.00    -0.354 N 
ATOM     40  C   UNL A   1      42.348  31.107  30.400  1.00  0.00     0.074 A 
ATOM     41  C   UNL A   1      41.139  31.901  30.481  1.00  0.00     0.031 C 
ATOM     42  C   UNL A   1      40.184  25.480  28.127  1.00  0.00     0.029 A 
ATOM     43  C   UNL A   1      41.557  25.818  28.490  1.00  0.00     0.049 A 
ATOM     44  H   UNL A   1      42.242  27.592  29.341  1.00  0.00     0.167 HD
ATOM     45  C   UNL A   1      43.575  31.535  30.779  1.00  0.00     0.031 A 
ATOM     46  C   UNL A   1      42.624  25.011  28.333  1.00  0.00     0.031 A 
ATOM     47  C   UNL A   1      44.766  30.734  30.687  1.00  0.00     0.049 A 
ATOM     48  C   UNL A   1      43.986  25.530  28.699  1.00  0.00     0.074 A 
ATOM     49  C   UNL A   1      46.061  31.072  31.035  1.00  0.00     0.029 A 
ATOM     50  N   UNL A   1      44.803  29.432  30.212  1.00  0.00    -0.354 N 
ATOM     51  N   UNL A   1      44.314  26.706  29.181  1.00  0.00    -0.248 NA
ATOM     52  C   UNL A   1      45.122  24.622  28.495  1.00  0.00     0.031 C 
ATOM     53  C   UNL A   1      46.889  29.985  30.736  1.00  0.00     0.029 A 
ATOM     54  C   UNL A   1      46.102  28.954  30.245  1.00  0.00     0.049 A 
ATOM     55  H   UNL A   1      44.023  28.921  29.898  1.00  0.00     0.167 HD
ATOM     56  C   UNL A   1      45.690  26.669  29.360  1.00  0.00     0.074 A 
ATOM     57  C   UNL A   1      46.135  25.356  28.936  1.00  0.00     0.031 C 
ATOM     58  C   UNL A   1      46.514  27.637  29.833  1.00  0.00     0.031 A 
BRANCH  45  59
ATOM     59  C   UNL A   1      43.693  32.948  31.280  1.00  0.00    -0.014 A 
ATOM     60  C   UNL A   1      43.907  34.020  30.396  1.00  0.00     0.010 A 
ATOM     61  C   UNL A   1      43.561  33.210  32.656  1.00  0.00     0.010 A 
ATOM     62  C   UNL A   1      44.025  35.325  30.885  1.00  0.00     0.020 A 
ATOM     63  C   UNL A   1      43.657  34.516  33.146  1.00  0.00     0.020 A 
ATOM     64  C   UNL A   1      43.907  35.563  32.257  1.00  0.00     0.054 A 
BRANCH  64  65
ATOM     65  S   UNL A   1      44.058  37.265  32.866  1.00  0.00     0.124 S 
ATOM     66  O   UNL A   1      42.970  37.332  33.840  1.00  0.00    -0.237 OA
ATOM     67  O   UNL A   1      45.406  37.289  33.429  1.00  0.00    -0.237 OA
ATOM     68  O   UNL A   1      43.872  38.080  31.668  1.00  0.00    -0.744 OA
ENDBRANCH  64  65
ENDBRANCH  45  59
BRANCH  46  69
ATOM     69  C   UNL A   1      42.441  23.650  27.765  1.00  0.00    -0.014 A 
ATOM     70  C   UNL A   1      42.546  23.434  26.380  1.00  0.00     0.010 A 
ATOM     71  C   UNL A   1      42.199  22.553  28.614  1.00  0.00     0.010 A 
ATOM     72  C   UNL A   1      42.406  22.147  25.854  1.00  0.00     0.020 A 
ATOM     73  C   UNL A   1      42.083  21.262  28.093  1.00  0.00     0.020 A 
ATOM     74  C   UNL A   1      42.178  21.068  26.713  1.00  0.00     0.054 A 
BRANCH  74  75
ATOM     75  S   UNL A   1      42.066  19.396  26.017  1.00  0.00     0.124 S 
ATOM     76  O   UNL A   1      42.564  18.577  27.116  1.00  0.00    -0.237 OA
ATOM     77  O   UNL A   1      40.640  19.268  25.725  1.00  0.00    -0.237 OA
ATOM     78  O   UNL A   1      42.929  19.459  24.839  1.00  0.00    -0.744 OA
ENDBRANCH  74  75
ENDBRANCH  46  69
BRANCH  58  79
ATOM     79  C   UNL A   1      47.973  27.301  29.967  1.00  0.00    -0.014 A 
ATOM     80  C   UNL A   1      48.879  27.579  28.931  1.00  0.00     0.010 A 
ATOM     81  C   UNL A   1      48.450  26.793  31.188  1.00  0.00     0.010 A 
ATOM     82  C   UNL A   1      50.245  27.349  29.113  1.00  0.00     0.020 A 
ATOM     83  C   UNL A   1      49.817  26.580  31.381  1.00  0.00     0.020 A 
ATOM     84  C   UNL A   1      50.706  26.856  30.340  1.00  0.00     0.054 A 
BRANCH  84  85
ATOM     85  S   UNL A   1      52.491  26.649  30.585  1.00  0.00     0.124 S 
ATOM     86  O   UNL A   1      52.872  27.944  31.143  1.00  0.00    -0.237 OA
ATOM     87  O   UNL A   1      52.561  25.520  31.510  1.00  0.00    -0.237 OA
ATOM     88  O   UNL A   1      52.994  26.378  29.241  1.00  0.00    -0.744 OA
ENDBRANCH  84  85
ENDBRANCH  58  79
ENDBRANCH  32  33
ENDBRANCH  25  27
ENDBRANCH  24  25
ENDBRANCH   1  24
TORSDOF 16
ENDMDL
MODEL 2
REMARK VINA RESULT:     -11.1      2.691      3.647
REMARK SMILES C[C@H]1[C@H](C(=O)OCCOC(=O)c2ccc(-c3c4nc(c(-c5ccc(S(=O)(=O)[O-])cc5)c5ccc([nH]5)c(-c5ccc(S(=O)(=O)[O-])cc5)c5nc(c(-c6ccc(S(=O)(=O)[O-])cc6)c6ccc3[nH]6)C=C5)C=C4)cc2)CCN1C(=O)Nc1ccc(F)c(Cl)c1
REMARK SMILES IDX 8 1 7 2 6 3 4 4 5 5 3 6 1 7 2 8 74 9 72 10 73 11 75 12 76 13
REMARK SMILES IDX 77 14 78 16 79 17 85 18 80 19 83 20 81 21 84 22 82 23 9 24
REMARK SMILES IDX 10 25 11 26 12 27 13 28 71 29 14 30 70 31 15 32 16 33 17 34
REMARK SMILES IDX 64 35 18 36 69 37 63 38 65 39 19 40 68 41 62 42 61 43 20 45
REMARK SMILES IDX 50 46 31 47 49 48 32 49 35 50 48 51 66 52 33 53 34 54 47 56
REMARK SMILES IDX 67 57 36 58 21 59 22 60 30 61 23 62 29 63 24 64 25 65 26 66
REMARK SMILES IDX 27 67 28 68 51 69 52 70 60 71 53 72 59 73 54 74 55 75 56 76
REMARK SMILES IDX 57 77 58 78 37 79 38 80 46 81 39 82 45 83 40 84 41 85 42 86
REMARK SMILES IDX 43 87 44 88
REMARK H PARENT 77 15 65 44 35 55
REMARK Flexibility Score: inf
ROOT
ATOM      1  C   UNL A   1      34.630  31.241  27.731  1.00  0.00     0.275 C 
ENDROOT
BRANCH   1   2
ATOM      2  C   UNL A   1      33.284  30.783  27.163  1.00  0.00     0.274 C 
BRANCH   2   3
ATOM      3  O   UNL A   1      33.441  29.886  26.045  1.00  0.00    -0.462 OA
BRANCH   3   4
ATOM      4  C   UNL A   1      32.332  29.191  25.682  1.00  0.00     0.311 C 
ATOM      5  O   UNL A   1      31.456  28.825  26.457  1.00  0.00    -0.252 OA
BRANCH   4   6
ATOM      6  C   UNL A   1      32.305  28.820  24.216  1.00  0.00     0.123 C 
ATOM      7  C   UNL A   1      34.369  28.650  22.771  1.00  0.00     0.032 C 
ATOM      8  C   UNL A   1      33.446  27.895  23.734  1.00  0.00     0.098 C 
ATOM      9  N   UNL A   1      32.769  26.769  23.071  1.00  0.00    -0.321 N 
ATOM     10  C   UNL A   1      31.006  28.087  23.898  1.00  0.00     0.039 C 
ATOM     11  C   UNL A   1      31.387  27.121  22.803  1.00  0.00     0.122 C 
BRANCH   9  12
ATOM     12  C   UNL A   1      33.266  25.631  22.498  1.00  0.00     0.322 C 
ATOM     13  O   UNL A   1      33.438  25.559  21.276  1.00  0.00    -0.248 OA
ATOM     14  N   UNL A   1      33.759  24.607  23.233  1.00  0.00    -0.308 N 
ATOM     15  H   UNL A   1      34.495  24.137  22.779  1.00  0.00     0.171 HD
BRANCH  14  16
ATOM     16  C   UNL A   1      33.463  24.060  24.485  1.00  0.00     0.044 A 
ATOM     17  C   UNL A   1      34.555  23.740  25.306  1.00  0.00     0.029 A 
ATOM     18  C   UNL A   1      32.169  23.754  24.906  1.00  0.00     0.049 A 
ATOM     19  C   UNL A   1      34.351  23.214  26.580  1.00  0.00     0.043 A 
ATOM     20  C   UNL A   1      31.970  23.188  26.170  1.00  0.00     0.078 A 
ATOM     21  C   UNL A   1      33.057  22.945  27.009  1.00  0.00     0.141 A 
ATOM     22  Cl  UNL A   1      30.380  22.745  26.662  1.00  0.00    -0.081 Cl
ATOM     23  F   UNL A   1      32.880  22.423  28.232  1.00  0.00    -0.205 F 
ENDBRANCH  14  16
ENDBRANCH   9  12
ENDBRANCH   4   6
ENDBRANCH   3   4
ENDBRANCH   2   3
ENDBRANCH   1   2
BRANCH   1  24
ATOM     24  O   UNL A   1      35.459  30.139  28.135  1.00  0.00    -0.458 OA
BRANCH  24  25
ATOM     25  C   UNL A   1      36.168  30.342  29.269  1.00  0.00     0.338 C 
ATOM     26  O   UNL A   1      35.767  30.779  30.332  1.00  0.00    -0.246 OA
BRANCH  25  27
ATOM     27  C   UNL A   1      37.531  29.832  29.089  1.00  0.00     0.060 A 
ATOM     28  C   UNL A   1      38.276  29.509  30.225  1.00  0.00     0.016 A 
ATOM     29  C   UNL A   1      38.094  29.766  27.816  1.00  0.00     0.016 A 
ATOM     30  C   UNL A   1      39.607  29.133  30.097  1.00  0.00     0.010 A 
ATOM     31  C   UNL A   1      39.423  29.362  27.687  1.00  0.00     0.010 A 
ATOM     32  C   UNL A   1      40.187  29.053  28.827  1.00  0.00    -0.014 A 
BRANCH  32  33
ATOM     33  C   UNL A   1      41.599  28.643  28.675  1.00  0.00     0.031 A 
ATOM     34  C   UNL A   1      42.687  29.670  28.778  1.00  0.00     0.074 A 
ATOM     35  C   UNL A   1      41.889  27.356  28.409  1.00  0.00     0.049 A 
ATOM     36  N   UNL A   1      43.956  29.556  28.490  1.00  0.00    -0.248 NA
ATOM     37  C   UNL A   1      42.292  31.003  29.264  1.00  0.00     0.031 C 
ATOM     38  C   UNL A   1      40.912  26.266  28.346  1.00  0.00     0.029 A 
ATOM     39  N   UNL A   1      43.085  26.753  28.122  1.00  0.00    -0.354 N 
ATOM     40  C   UNL A   1      44.509  30.807  28.725  1.00  0.00     0.074 A 
ATOM     41  C   UNL A   1      43.438  31.668  29.181  1.00  0.00     0.031 C 
ATOM     42  C   UNL A   1      41.548  25.128  28.026  1.00  0.00     0.029 A 
ATOM     43  C   UNL A   1      42.960  25.422  27.801  1.00  0.00     0.049 A 
ATOM     44  H   UNL A   1      43.948  27.225  28.144  1.00  0.00     0.167 HD
ATOM     45  C   UNL A   1      45.794  31.201  28.561  1.00  0.00     0.031 A 
ATOM     46  C   UNL A   1      43.871  24.549  27.330  1.00  0.00     0.031 A 
ATOM     47  C   UNL A   1      46.845  30.333  28.101  1.00  0.00     0.049 A 
ATOM     48  C   UNL A   1      45.277  25.025  27.094  1.00  0.00     0.074 A 
ATOM     49  C   UNL A   1      48.179  30.630  27.892  1.00  0.00     0.029 A 
ATOM     50  N   UNL A   1      46.676  28.994  27.781  1.00  0.00    -0.354 N 
ATOM     51  N   UNL A   1      45.784  26.219  27.294  1.00  0.00    -0.248 NA
ATOM     52  C   UNL A   1      46.231  24.044  26.563  1.00  0.00     0.031 C 
ATOM     53  C   UNL A   1      48.811  29.479  27.410  1.00  0.00     0.029 A 
ATOM     54  C   UNL A   1      47.879  28.453  27.363  1.00  0.00     0.049 A 
ATOM     55  H   UNL A   1      45.827  28.500  27.842  1.00  0.00     0.167 HD
ATOM     56  C   UNL A   1      47.122  26.126  26.935  1.00  0.00     0.074 A 
ATOM     57  C   UNL A   1      47.348  24.759  26.508  1.00  0.00     0.031 C 
ATOM     58  C   UNL A   1      48.080  27.085  26.958  1.00  0.00     0.031 A 
BRANCH  45  59
ATOM     59  C   UNL A   1      46.119  32.644  28.834  1.00  0.00    -0.014 A 
ATOM     60  C   UNL A   1      46.544  33.069  30.105  1.00  0.00     0.010 A 
ATOM     61  C   UNL A   1      46.023  33.585  27.792  1.00  0.00     0.010 A 
ATOM     62  C   UNL A   1      46.830  34.417  30.338  1.00  0.00     0.020 A 
ATOM     63  C   UNL A   1      46.329  34.930  28.016  1.00  0.00     0.020 A 
ATOM     64  C   UNL A   1      46.713  35.341  29.295  1.00  0.00     0.054 A 
BRANCH  64  65
ATOM     65  S   UNL A   1      47.096  37.083  29.621  1.00  0.00     0.124 S 
ATOM     66  O   UNL A   1      48.300  37.282  28.816  1.00  0.00    -0.237 OA
ATOM     67  O   UNL A   1      45.900  37.772  29.142  1.00  0.00    -0.237 OA
ATOM     68  O   UNL A   1      47.299  37.129  31.067  1.00  0.00    -0.744 OA
ENDBRANCH  64  65
ENDBRANCH  45  59
BRANCH  46  69
ATOM     69  C   UNL A   1      43.462  23.157  27.014  1.00  0.00    -0.014 A 
ATOM     70  C   UNL A   1      43.686  22.618  25.736  1.00  0.00     0.010 A 
ATOM     71  C   UNL A   1      42.879  22.346  28.007  1.00  0.00     0.010 A 
ATOM     72  C   UNL A   1      43.329  21.296  25.453  1.00  0.00     0.020 A 
ATOM     73  C   UNL A   1      42.543  21.017  27.735  1.00  0.00     0.020 A 
ATOM     74  C   UNL A   1      42.762  20.503  26.455  1.00  0.00     0.054 A 
BRANCH  74  75
ATOM     75  S   UNL A   1      42.368  18.771  26.088  1.00  0.00     0.124 S 
ATOM     76  O   UNL A   1      42.658  18.118  27.360  1.00  0.00    -0.237 OA
ATOM     77  O   UNL A   1      40.956  18.838  25.716  1.00  0.00    -0.237 OA
ATOM     78  O   UNL A   1      43.276  18.440  24.991  1.00  0.00    -0.744 OA
ENDBRANCH  74  75
ENDBRANCH  46  69
BRANCH  58  79
ATOM     79  C   UNL A   1      49.472  26.686  26.558  1.00  0.00    -0.014 A 
ATOM     80  C   UNL A   1      50.341  26.072  27.474  1.00  0.00     0.010 A 
ATOM     81  C   UNL A   1      49.872  26.841  25.219  1.00  0.00     0.010 A 
ATOM     82  C   UNL A   1      51.596  25.621  27.056  1.00  0.00     0.020 A 
ATOM     83  C   UNL A   1      51.117  26.373  24.793  1.00  0.00     0.020 A 
ATOM     84  C   UNL A   1      51.974  25.769  25.717  1.00  0.00     0.054 A 
BRANCH  84  85
ATOM     85  S   UNL A   1      53.569  25.097  25.177  1.00  0.00     0.124 S 
ATOM     86  O   UNL A   1      53.691  25.649  23.830  1.00  0.00    -0.237 OA
ATOM     87  O   UNL A   1      54.499  25.638  26.165  1.00  0.00    -0.237 OA
ATOM     88  O   UNL A   1      53.373  23.651  25.242  1.00  0.00    -0.744 OA
ENDBRANCH  84  85
ENDBRANCH  58  79
ENDBRANCH  32  33
ENDBRANCH  25  27
ENDBRANCH  24  25
ENDBRANCH   1  24
TORSDOF 16
ENDMDL
MODEL 3
REMARK VINA RESULT:     -11.0      4.825     10.348
REMARK SMILES C[C@H]1[C@H](C(=O)OCCOC(=O)c2ccc(-c3c4nc(c(-c5ccc(S(=O)(=O)[O-])cc5)c5ccc([nH]5)c(-c5ccc(S(=O)(=O)[O-])cc5)c5nc(c(-c6ccc(S(=O)(=O)[O-])cc6)c6ccc3[nH]6)C=C5)C=C4)cc2)CCN1C(=O)Nc1ccc(F)c(Cl)c1
REMARK SMILES IDX 8 1 7 2 6 3 4 4 5 5 3 6 1 7 2 8 74 9 72 10 73 11 75 12 76 13
REMARK SMILES IDX 77 14 78 16 79 17 85 18 80 19 83 20 81 21 84 22 82 23 9 24
REMARK SMILES IDX 10 25 11 26 12 27 13 28 71 29 14 30 70 31 15 32 16 33 17 34
REMARK SMILES IDX 64 35 18 36 69 37 63 38 65 39 19 40 68 41 62 42 61 43 20 45
REMARK SMILES IDX 50 46 31 47 49 48 32 49 35 50 48 51 66 52 33 53 34 54 47 56
REMARK SMILES IDX 67 57 36 58 21 59 22 60 30 61 23 62 29 63 24 64 25 65 26 66
REMARK SMILES IDX 27 67 28 68 51 69 52 70 60 71 53 72 59 73 54 74 55 75 56 76
REMARK SMILES IDX 57 77 58 78 37 79 38 80 46 81 39 82 45 83 40 84 41 85 42 86
REMARK SMILES IDX 43 87 44 88
REMARK H PARENT 77 15 65 44 35 55
REMARK Flexibility Score: inf
ROOT
ATOM      1  C   UNL A   1      38.954  22.729  26.186  1.00  0.00     0.275 C 
ENDROOT
BRANCH   1   2
ATOM      2  C   UNL A   1      37.560  22.331  25.694  1.00  0.00     0.274 C 
BRANCH   2   3
ATOM      3  O   UNL A   1      36.795  23.467  25.243  1.00  0.00    -0.462 OA
BRANCH   3   4
ATOM      4  C   UNL A   1      35.793  23.197  24.367  1.00  0.00     0.311 C 
ATOM      5  O   UNL A   1      35.798  23.517  23.184  1.00  0.00    -0.252 OA
BRANCH   4   6
ATOM      6  C   UNL A   1      34.598  22.525  25.006  1.00  0.00     0.123 C 
ATOM      7  C   UNL A   1      34.249  22.353  27.501  1.00  0.00     0.032 C 
ATOM      8  C   UNL A   1      34.023  23.223  26.259  1.00  0.00     0.098 C 
ATOM      9  N   UNL A   1      32.590  23.400  25.972  1.00  0.00    -0.321 N 
ATOM     10  C   UNL A   1      33.454  22.453  24.000  1.00  0.00     0.039 C 
ATOM     11  C   UNL A   1      32.211  22.563  24.849  1.00  0.00     0.122 C 
BRANCH   9  12
ATOM     12  C   UNL A   1      31.595  23.998  26.693  1.00  0.00     0.322 C 
ATOM     13  O   UNL A   1      30.795  23.323  27.352  1.00  0.00    -0.248 OA
ATOM     14  N   UNL A   1      31.537  25.339  26.875  1.00  0.00    -0.308 N 
ATOM     15  H   UNL A   1      31.151  25.585  27.747  1.00  0.00     0.171 HD
BRANCH  14  16
ATOM     16  C   UNL A   1      31.896  26.453  26.111  1.00  0.00     0.044 A 
ATOM     17  C   UNL A   1      33.200  26.941  26.282  1.00  0.00     0.029 A 
ATOM     18  C   UNL A   1      31.010  27.129  25.272  1.00  0.00     0.049 A 
ATOM     19  C   UNL A   1      33.649  28.033  25.543  1.00  0.00     0.043 A 
ATOM     20  C   UNL A   1      31.452  28.250  24.561  1.00  0.00     0.078 A 
ATOM     21  C   UNL A   1      32.773  28.680  24.679  1.00  0.00     0.141 A 
ATOM     22  Cl  UNL A   1      30.341  29.127  23.578  1.00  0.00    -0.081 Cl
ATOM     23  F   UNL A   1      33.218  29.740  23.988  1.00  0.00    -0.205 F 
ENDBRANCH  14  16
ENDBRANCH   9  12
ENDBRANCH   4   6
ENDBRANCH   3   4
ENDBRANCH   2   3
ENDBRANCH   1   2
BRANCH   1  24
ATOM     24  O   UNL A   1      39.023  24.109  26.581  1.00  0.00    -0.458 OA
BRANCH  24  25
ATOM     25  C   UNL A   1      40.275  24.603  26.721  1.00  0.00     0.338 C 
ATOM     26  O   UNL A   1      41.277  24.280  26.108  1.00  0.00    -0.246 OA
BRANCH  25  27
ATOM     27  C   UNL A   1      40.255  25.720  27.669  1.00  0.00     0.060 A 
ATOM     28  C   UNL A   1      41.228  26.715  27.546  1.00  0.00     0.016 A 
ATOM     29  C   UNL A   1      39.344  25.731  28.723  1.00  0.00     0.016 A 
ATOM     30  C   UNL A   1      41.311  27.725  28.496  1.00  0.00     0.010 A 
ATOM     31  C   UNL A   1      39.411  26.762  29.661  1.00  0.00     0.010 A 
ATOM     32  C   UNL A   1      40.399  27.758  29.556  1.00  0.00    -0.014 A 
BRANCH  32  33
ATOM     33  C   UNL A   1      40.467  28.834  30.567  1.00  0.00     0.031 A 
ATOM     34  C   UNL A   1      41.438  28.726  31.704  1.00  0.00     0.074 A 
ATOM     35  C   UNL A   1      39.628  29.882  30.474  1.00  0.00     0.049 A 
ATOM     36  N   UNL A   1      41.524  29.453  32.785  1.00  0.00    -0.248 NA
ATOM     37  C   UNL A   1      42.443  27.652  31.614  1.00  0.00     0.031 C 
ATOM     38  C   UNL A   1      38.685  30.114  29.377  1.00  0.00     0.029 A 
ATOM     39  N   UNL A   1      39.420  30.935  31.325  1.00  0.00    -0.354 N 
ATOM     40  C   UNL A   1      42.566  28.910  33.524  1.00  0.00     0.074 A 
ATOM     41  C   UNL A   1      43.086  27.790  32.767  1.00  0.00     0.031 C 
ATOM     42  C   UNL A   1      37.989  31.234  29.630  1.00  0.00     0.029 A 
ATOM     43  C   UNL A   1      38.393  31.759  30.931  1.00  0.00     0.049 A 
ATOM     44  H   UNL A   1      39.954  31.087  32.138  1.00  0.00     0.167 HD
ATOM     45  C   UNL A   1      43.036  29.306  34.730  1.00  0.00     0.031 A 
ATOM     46  C   UNL A   1      37.808  32.790  31.570  1.00  0.00     0.031 A 
ATOM     47  C   UNL A   1      42.503  30.418  35.470  1.00  0.00     0.049 A 
ATOM     48  C   UNL A   1      38.302  33.171  32.936  1.00  0.00     0.074 A 
ATOM     49  C   UNL A   1      42.898  30.900  36.705  1.00  0.00     0.029 A 
ATOM     50  N   UNL A   1      41.458  31.222  35.039  1.00  0.00    -0.354 N 
ATOM     51  N   UNL A   1      39.272  32.632  33.638  1.00  0.00    -0.248 NA
ATOM     52  C   UNL A   1      37.623  34.290  33.602  1.00  0.00     0.031 C 
ATOM     53  C   UNL A   1      42.068  31.975  37.038  1.00  0.00     0.029 A 
ATOM     54  C   UNL A   1      41.186  32.191  35.989  1.00  0.00     0.049 A 
ATOM     55  H   UNL A   1      40.981  31.121  34.185  1.00  0.00     0.167 HD
ATOM     56  C   UNL A   1      39.334  33.363  34.818  1.00  0.00     0.074 A 
ATOM     57  C   UNL A   1      38.307  34.382  34.736  1.00  0.00     0.031 C 
ATOM     58  C   UNL A   1      40.168  33.204  35.875  1.00  0.00     0.031 A 
BRANCH  45  59
ATOM     59  C   UNL A   1      44.147  28.498  35.342  1.00  0.00    -0.014 A 
ATOM     60  C   UNL A   1      43.877  27.387  36.159  1.00  0.00     0.010 A 
ATOM     61  C   UNL A   1      45.484  28.842  35.071  1.00  0.00     0.010 A 
ATOM     62  C   UNL A   1      44.927  26.657  36.726  1.00  0.00     0.020 A 
ATOM     63  C   UNL A   1      46.536  28.102  35.619  1.00  0.00     0.020 A 
ATOM     64  C   UNL A   1      46.249  27.024  36.459  1.00  0.00     0.054 A 
BRANCH  64  65
ATOM     65  S   UNL A   1      47.592  26.058  37.202  1.00  0.00     0.124 S 
ATOM     66  O   UNL A   1      48.062  25.272  36.062  1.00  0.00    -0.237 OA
ATOM     67  O   UNL A   1      48.512  27.091  37.673  1.00  0.00    -0.237 OA
ATOM     68  O   UNL A   1      46.929  25.294  38.255  1.00  0.00    -0.744 OA
ENDBRANCH  64  65
ENDBRANCH  45  59
BRANCH  46  69
ATOM     69  C   UNL A   1      36.666  33.497  30.934  1.00  0.00    -0.014 A 
ATOM     70  C   UNL A   1      36.783  34.023  29.637  1.00  0.00     0.010 A 
ATOM     71  C   UNL A   1      35.438  33.612  31.612  1.00  0.00     0.010 A 
ATOM     72  C   UNL A   1      35.695  34.658  29.031  1.00  0.00     0.020 A 
ATOM     73  C   UNL A   1      34.341  34.225  31.000  1.00  0.00     0.020 A 
ATOM     74  C   UNL A   1      34.480  34.752  29.715  1.00  0.00     0.054 A 
BRANCH  74  75
ATOM     75  S   UNL A   1      33.061  35.520  28.886  1.00  0.00     0.124 S 
ATOM     76  O   UNL A   1      33.701  36.567  28.097  1.00  0.00    -0.237 OA
ATOM     77  O   UNL A   1      32.496  34.408  28.125  1.00  0.00    -0.237 OA
ATOM     78  O   UNL A   1      32.231  35.990  29.994  1.00  0.00    -0.744 OA
ENDBRANCH  74  75
ENDBRANCH  46  69
BRANCH  58  79
ATOM     79  C   UNL A   1      40.043  34.182  37.010  1.00  0.00    -0.014 A 
ATOM     80  C   UNL A   1      40.731  35.406  36.990  1.00  0.00     0.010 A 
ATOM     81  C   UNL A   1      39.147  33.906  38.058  1.00  0.00     0.010 A 
ATOM     82  C   UNL A   1      40.525  36.342  38.008  1.00  0.00     0.020 A 
ATOM     83  C   UNL A   1      38.925  34.847  39.065  1.00  0.00     0.020 A 
ATOM     84  C   UNL A   1      39.619  36.058  39.036  1.00  0.00     0.054 A 
BRANCH  84  85
ATOM     85  S   UNL A   1      39.302  37.322  40.297  1.00  0.00     0.124 S 
ATOM     86  O   UNL A   1      38.607  36.555  41.327  1.00  0.00    -0.237 OA
ATOM     87  O   UNL A   1      40.646  37.774  40.648  1.00  0.00    -0.237 OA
ATOM     88  O   UNL A   1      38.484  38.309  39.597  1.00  0.00    -0.744 OA
ENDBRANCH  84  85
ENDBRANCH  58  79
ENDBRANCH  32  33
ENDBRANCH  25  27
ENDBRANCH  24  25
ENDBRANCH   1  24
TORSDOF 16
ENDMDL
