MODEL 1
REMARK VINA RESULT:     -11.9      0.000      0.000
REMARK SMILES O=C(Cn1cc(/C=C(/Cl)c2nnc(C(=O)Nc3ccc(Cl)cc3)s2)nn1)OCCOC(=O)c1ccc(-c2c3nc(c(-c4ccc(S(=O)(=O)[O-])cc4)c4ccc([nH]4)c(-c4ccc(S(=O)(=O)[O-])cc4)c4nc(c(-c5ccc(S(=O)(=O)[O-])cc5)c5ccc2[nH]5)C=C4)C=C3)cc1
REMARK SMILES IDX 28 1 27 2 2 3 1 4 3 5 4 6 5 7 26 8 6 9 25 10 7 11 8 12 9 13
REMARK SMILES IDX 10 14 11 15 24 16 12 17 13 18 14 19 15 20 16 21 17 23 18 24
REMARK SMILES IDX 23 25 19 26 22 27 20 28 21 29 29 30 30 31 31 32 32 33 33 34
REMARK SMILES IDX 34 35 92 36 35 37 91 38 36 39 37 40 38 41 85 42 39 43 90 44
REMARK SMILES IDX 84 45 86 46 40 47 89 48 83 49 82 50 41 52 71 53 52 54 70 55
REMARK SMILES IDX 53 56 56 57 69 58 87 59 54 60 55 61 68 63 88 64 57 65 42 66
REMARK SMILES IDX 43 67 51 68 44 69 50 70 45 71 46 72 47 73 48 74 49 75 72 76
REMARK SMILES IDX 73 77 81 78 74 79 80 80 75 81 76 82 77 83 78 84 79 85 58 86
REMARK SMILES IDX 59 87 67 88 60 89 66 90 61 91 62 92 63 93 64 94 65 95
REMARK H PARENT 16 22 86 51 56 62
REMARK Flexibility Score: inf
ROOT
ATOM      1  C   UNL A   1      44.335  19.849  25.072  1.00  0.00     0.274 C 
ENDROOT
BRANCH   1   2
ATOM      2  O   UNL A   1      42.900  19.939  25.233  1.00  0.00    -0.461 OA
BRANCH   2   3
ATOM      3  C   UNL A   1      42.105  19.259  26.097  1.00  0.00     0.327 C 
ATOM      4  O   UNL A   1      42.031  18.032  26.016  1.00  0.00    -0.250 OA
BRANCH   3   5
ATOM      5  C   UNL A   1      41.308  19.985  27.148  1.00  0.00     0.268 C 
BRANCH   5   6
ATOM      6  N   UNL A   1      40.241  20.759  26.570  1.00  0.00    -0.241 N 
ATOM      7  C   UNL A   1      39.786  22.015  26.868  1.00  0.00     0.139 A 
ATOM      8  N   UNL A   1      39.441  20.154  25.687  1.00  0.00    -0.066 NA
ATOM      9  C   UNL A   1      38.719  22.170  26.012  1.00  0.00     0.107 A 
ATOM     10  N   UNL A   1      38.521  21.014  25.331  1.00  0.00    -0.131 NA
BRANCH   9  11
ATOM     11  C   UNL A   1      37.882  23.299  25.775  1.00  0.00     0.055 C 
ATOM     12  C   UNL A   1      36.529  23.310  25.766  1.00  0.00     0.081 C 
ATOM     13  Cl  UNL A   1      35.672  24.783  25.468  1.00  0.00    -0.081 Cl
BRANCH  12  14
ATOM     14  C   UNL A   1      35.757  22.151  26.077  1.00  0.00     0.159 A 
ATOM     15  N   UNL A   1      35.078  21.868  27.176  1.00  0.00    -0.137 NA
ATOM     16  S   UNL A   1      35.419  20.987  24.840  1.00  0.00    -0.086 S 
ATOM     17  N   UNL A   1      33.986  21.044  26.904  1.00  0.00    -0.133 NA
ATOM     18  C   UNL A   1      33.910  20.750  25.615  1.00  0.00     0.206 A 
BRANCH  18  19
ATOM     19  C   UNL A   1      32.701  20.203  25.001  1.00  0.00     0.286 C 
ATOM     20  O   UNL A   1      32.305  19.056  25.244  1.00  0.00    -0.266 OA
ATOM     21  N   UNL A   1      31.799  20.989  24.270  1.00  0.00    -0.320 N 
ATOM     22  H   UNL A   1      30.942  20.548  24.072  1.00  0.00     0.170 HD
BRANCH  21  23
ATOM     23  C   UNL A   1      31.911  22.295  23.773  1.00  0.00     0.041 A 
ATOM     24  C   UNL A   1      31.160  23.348  24.292  1.00  0.00     0.027 A 
ATOM     25  C   UNL A   1      32.851  22.566  22.776  1.00  0.00     0.027 A 
ATOM     26  C   UNL A   1      31.160  24.597  23.670  1.00  0.00     0.022 A 
ATOM     27  C   UNL A   1      32.876  23.825  22.163  1.00  0.00     0.022 A 
ATOM     28  C   UNL A   1      31.991  24.817  22.578  1.00  0.00     0.041 A 
ATOM     29  Cl  UNL A   1      31.919  26.315  21.739  1.00  0.00    -0.084 Cl
ENDBRANCH  21  23
ENDBRANCH  18  19
ENDBRANCH  12  14
ENDBRANCH   9  11
ENDBRANCH   5   6
ENDBRANCH   3   5
ENDBRANCH   2   3
ENDBRANCH   1   2
BRANCH   1  30
ATOM     30  C   UNL A   1      45.036  21.180  25.271  1.00  0.00     0.275 C 
BRANCH  30  31
ATOM     31  O   UNL A   1      44.183  22.073  25.976  1.00  0.00    -0.458 OA
BRANCH  31  32
ATOM     32  C   UNL A   1      43.501  22.968  25.220  1.00  0.00     0.338 C 
ATOM     33  O   UNL A   1      43.431  23.009  24.016  1.00  0.00    -0.246 OA
BRANCH  32  34
ATOM     34  C   UNL A   1      42.858  23.916  26.140  1.00  0.00     0.060 A 
ATOM     35  C   UNL A   1      41.950  24.832  25.603  1.00  0.00     0.016 A 
ATOM     36  C   UNL A   1      43.298  23.998  27.469  1.00  0.00     0.016 A 
ATOM     37  C   UNL A   1      41.639  25.952  26.345  1.00  0.00     0.010 A 
ATOM     38  C   UNL A   1      43.000  25.115  28.199  1.00  0.00     0.010 A 
ATOM     39  C   UNL A   1      42.250  26.116  27.592  1.00  0.00    -0.014 A 
BRANCH  39  40
ATOM     40  C   UNL A   1      42.076  27.357  28.310  1.00  0.00     0.031 A 
ATOM     41  C   UNL A   1      43.187  28.312  28.105  1.00  0.00     0.074 A 
ATOM     42  C   UNL A   1      40.922  27.633  28.950  1.00  0.00     0.049 A 
ATOM     43  N   UNL A   1      44.047  28.713  28.976  1.00  0.00    -0.248 NA
ATOM     44  C   UNL A   1      43.486  28.735  26.724  1.00  0.00     0.031 C 
ATOM     45  C   UNL A   1      39.669  26.868  28.941  1.00  0.00     0.029 A 
ATOM     46  N   UNL A   1      40.589  28.738  29.660  1.00  0.00    -0.354 N 
ATOM     47  C   UNL A   1      44.861  29.619  28.305  1.00  0.00     0.074 A 
ATOM     48  C   UNL A   1      44.606  29.434  26.900  1.00  0.00     0.031 C 
ATOM     49  C   UNL A   1      38.665  27.651  29.403  1.00  0.00     0.029 A 
ATOM     50  C   UNL A   1      39.226  28.909  29.868  1.00  0.00     0.049 A 
ATOM     51  H   UNL A   1      41.262  29.371  30.002  1.00  0.00     0.167 HD
ATOM     52  C   UNL A   1      45.482  30.636  28.961  1.00  0.00     0.031 A 
ATOM     53  C   UNL A   1      38.614  30.033  30.327  1.00  0.00     0.031 A 
ATOM     54  C   UNL A   1      45.503  30.418  30.383  1.00  0.00     0.049 A 
ATOM     55  C   UNL A   1      39.664  30.849  30.994  1.00  0.00     0.074 A 
ATOM     56  C   UNL A   1      46.039  29.439  31.196  1.00  0.00     0.029 A 
ATOM     57  N   UNL A   1      44.530  31.044  31.128  1.00  0.00    -0.354 N 
ATOM     58  N   UNL A   1      40.284  30.465  32.076  1.00  0.00    -0.248 NA
ATOM     59  C   UNL A   1      40.368  31.835  30.189  1.00  0.00     0.031 C 
ATOM     60  C   UNL A   1      45.048  29.208  32.193  1.00  0.00     0.029 A 
ATOM     61  C   UNL A   1      44.004  30.115  31.992  1.00  0.00     0.049 A 
ATOM     62  H   UNL A   1      44.260  31.987  31.057  1.00  0.00     0.167 HD
ATOM     63  C   UNL A   1      41.612  30.814  31.870  1.00  0.00     0.074 A 
ATOM     64  C   UNL A   1      41.589  31.727  30.726  1.00  0.00     0.031 C 
ATOM     65  C   UNL A   1      42.629  30.112  32.452  1.00  0.00     0.031 A 
BRANCH  52  66
ATOM     66  C   UNL A   1      45.713  31.987  28.337  1.00  0.00    -0.014 A 
ATOM     67  C   UNL A   1      46.995  32.563  28.397  1.00  0.00     0.010 A 
ATOM     68  C   UNL A   1      44.655  32.821  27.913  1.00  0.00     0.010 A 
ATOM     69  C   UNL A   1      47.198  33.913  28.079  1.00  0.00     0.020 A 
ATOM     70  C   UNL A   1      44.852  34.153  27.552  1.00  0.00     0.020 A 
ATOM     71  C   UNL A   1      46.122  34.699  27.662  1.00  0.00     0.054 A 
BRANCH  71  72
ATOM     72  S   UNL A   1      46.380  36.455  27.319  1.00  0.00     0.124 S 
ATOM     73  O   UNL A   1      45.039  36.890  26.943  1.00  0.00    -0.237 OA
ATOM     74  O   UNL A   1      46.874  36.950  28.601  1.00  0.00    -0.237 OA
ATOM     75  O   UNL A   1      47.364  36.452  26.238  1.00  0.00    -0.744 OA
ENDBRANCH  71  72
ENDBRANCH  52  66
BRANCH  53  76
ATOM     76  C   UNL A   1      37.308  30.606  29.902  1.00  0.00    -0.014 A 
ATOM     77  C   UNL A   1      36.454  31.249  30.821  1.00  0.00     0.010 A 
ATOM     78  C   UNL A   1      37.031  30.779  28.530  1.00  0.00     0.010 A 
ATOM     79  C   UNL A   1      35.406  32.081  30.382  1.00  0.00     0.020 A 
ATOM     80  C   UNL A   1      35.988  31.603  28.085  1.00  0.00     0.020 A 
ATOM     81  C   UNL A   1      35.194  32.270  29.014  1.00  0.00     0.054 A 
BRANCH  81  82
ATOM     82  S   UNL A   1      33.963  33.487  28.451  1.00  0.00     0.124 S 
ATOM     83  O   UNL A   1      34.747  34.336  27.559  1.00  0.00    -0.237 OA
ATOM     84  O   UNL A   1      32.959  32.646  27.802  1.00  0.00    -0.237 OA
ATOM     85  O   UNL A   1      33.523  34.127  29.688  1.00  0.00    -0.744 OA
ENDBRANCH  81  82
ENDBRANCH  53  76
BRANCH  65  86
ATOM     86  C   UNL A   1      42.281  29.097  33.524  1.00  0.00    -0.014 A 
ATOM     87  C   UNL A   1      42.303  27.701  33.331  1.00  0.00     0.010 A 
ATOM     88  C   UNL A   1      42.073  29.584  34.825  1.00  0.00     0.010 A 
ATOM     89  C   UNL A   1      42.094  26.822  34.409  1.00  0.00     0.020 A 
ATOM     90  C   UNL A   1      41.883  28.718  35.904  1.00  0.00     0.020 A 
ATOM     91  C   UNL A   1      41.883  27.340  35.689  1.00  0.00     0.054 A 
BRANCH  91  92
ATOM     92  S   UNL A   1      41.642  26.209  37.090  1.00  0.00     0.124 S 
ATOM     93  O   UNL A   1      42.821  26.467  37.911  1.00  0.00    -0.237 OA
ATOM     94  O   UNL A   1      40.371  26.658  37.655  1.00  0.00    -0.237 OA
ATOM     95  O   UNL A   1      41.600  24.886  36.467  1.00  0.00    -0.744 OA
ENDBRANCH  91  92
ENDBRANCH  65  86
ENDBRANCH  39  40
ENDBRANCH  32  34
ENDBRANCH  31  32
ENDBRANCH  30  31
ENDBRANCH   1  30
TORSDOF 19
ENDMDL
MODEL 2
REMARK VINA RESULT:     -11.9      1.632      2.233
REMARK SMILES O=C(Cn1cc(/C=C(/Cl)c2nnc(C(=O)Nc3ccc(Cl)cc3)s2)nn1)OCCOC(=O)c1ccc(-c2c3nc(c(-c4ccc(S(=O)(=O)[O-])cc4)c4ccc([nH]4)c(-c4ccc(S(=O)(=O)[O-])cc4)c4nc(c(-c5ccc(S(=O)(=O)[O-])cc5)c5ccc2[nH]5)C=C4)C=C3)cc1
REMARK SMILES IDX 28 1 27 2 2 3 1 4 3 5 4 6 5 7 26 8 6 9 25 10 7 11 8 12 9 13
REMARK SMILES IDX 10 14 11 15 24 16 12 17 13 18 14 19 15 20 16 21 17 23 18 24
REMARK SMILES IDX 23 25 19 26 22 27 20 28 21 29 29 30 30 31 31 32 32 33 33 34
REMARK SMILES IDX 34 35 92 36 35 37 91 38 36 39 37 40 38 41 85 42 39 43 90 44
REMARK SMILES IDX 84 45 86 46 40 47 89 48 83 49 82 50 41 52 71 53 52 54 70 55
REMARK SMILES IDX 53 56 56 57 69 58 87 59 54 60 55 61 68 63 88 64 57 65 42 66
REMARK SMILES IDX 43 67 51 68 44 69 50 70 45 71 46 72 47 73 48 74 49 75 72 76
REMARK SMILES IDX 73 77 81 78 74 79 80 80 75 81 76 82 77 83 78 84 79 85 58 86
REMARK SMILES IDX 59 87 67 88 60 89 66 90 61 91 62 92 63 93 64 94 65 95
REMARK H PARENT 16 22 86 51 56 62
REMARK Flexibility Score: inf
ROOT
ATOM      1  C   UNL A   1      42.490  20.719  26.805  1.00  0.00     0.274 C 
ENDROOT
BRANCH   1   2
ATOM      2  O   UNL A   1      41.308  21.509  27.072  1.00  0.00    -0.461 OA
BRANCH   2   3
ATOM      3  C   UNL A   1      40.121  21.498  26.415  1.00  0.00     0.327 C 
ATOM      4  O   UNL A   1      39.817  20.522  25.726  1.00  0.00    -0.250 OA
BRANCH   3   5
ATOM      5  C   UNL A   1      39.175  22.665  26.510  1.00  0.00     0.268 C 
BRANCH   5   6
ATOM      6  N   UNL A   1      37.996  22.464  25.709  1.00  0.00    -0.241 N 
ATOM      7  C   UNL A   1      37.389  23.280  24.793  1.00  0.00     0.139 A 
ATOM      8  N   UNL A   1      37.254  21.380  25.955  1.00  0.00    -0.066 NA
ATOM      9  C   UNL A   1      36.282  22.553  24.415  1.00  0.00     0.107 A 
ATOM     10  N   UNL A   1      36.217  21.420  25.158  1.00  0.00    -0.131 NA
BRANCH   9  11
ATOM     11  C   UNL A   1      35.296  22.823  23.422  1.00  0.00     0.055 C 
ATOM     12  C   UNL A   1      33.966  22.963  23.627  1.00  0.00     0.081 C 
ATOM     13  Cl  UNL A   1      32.912  23.300  22.298  1.00  0.00    -0.081 Cl
BRANCH  12  14
ATOM     14  C   UNL A   1      33.389  22.924  24.931  1.00  0.00     0.159 A 
ATOM     15  N   UNL A   1      33.734  23.592  26.020  1.00  0.00    -0.137 NA
ATOM     16  S   UNL A   1      31.897  22.081  25.185  1.00  0.00    -0.086 S 
ATOM     17  N   UNL A   1      32.638  23.807  26.854  1.00  0.00    -0.133 NA
ATOM     18  C   UNL A   1      31.532  23.284  26.348  1.00  0.00     0.206 A 
BRANCH  18  19
ATOM     19  C   UNL A   1      30.198  23.648  26.825  1.00  0.00     0.286 C 
ATOM     20  O   UNL A   1      29.577  22.945  27.631  1.00  0.00    -0.266 OA
ATOM     21  N   UNL A   1      29.619  24.899  26.575  1.00  0.00    -0.320 N 
ATOM     22  H   UNL A   1      28.808  25.086  27.102  1.00  0.00     0.170 HD
BRANCH  21  23
ATOM     23  C   UNL A   1      29.997  25.931  25.703  1.00  0.00     0.041 A 
ATOM     24  C   UNL A   1      29.420  26.078  24.444  1.00  0.00     0.027 A 
ATOM     25  C   UNL A   1      30.927  26.880  26.134  1.00  0.00     0.027 A 
ATOM     26  C   UNL A   1      29.932  27.001  23.530  1.00  0.00     0.022 A 
ATOM     27  C   UNL A   1      31.428  27.826  25.231  1.00  0.00     0.022 A 
ATOM     28  C   UNL A   1      30.965  27.845  23.917  1.00  0.00     0.041 A 
ATOM     29  Cl  UNL A   1      31.674  28.909  22.769  1.00  0.00    -0.084 Cl
ENDBRANCH  21  23
ENDBRANCH  18  19
ENDBRANCH  12  14
ENDBRANCH   9  11
ENDBRANCH   5   6
ENDBRANCH   3   5
ENDBRANCH   2   3
ENDBRANCH   1   2
BRANCH   1  30
ATOM     30  C   UNL A   1      43.379  21.332  25.738  1.00  0.00     0.275 C 
BRANCH  30  31
ATOM     31  O   UNL A   1      42.737  22.465  25.168  1.00  0.00    -0.458 OA
BRANCH  31  32
ATOM     32  C   UNL A   1      43.448  23.620  25.177  1.00  0.00     0.338 C 
ATOM     33  O   UNL A   1      44.462  23.863  24.569  1.00  0.00    -0.246 OA
BRANCH  32  34
ATOM     34  C   UNL A   1      42.765  24.545  26.092  1.00  0.00     0.060 A 
ATOM     35  C   UNL A   1      41.923  25.511  25.534  1.00  0.00     0.016 A 
ATOM     36  C   UNL A   1      43.108  24.554  27.451  1.00  0.00     0.016 A 
ATOM     37  C   UNL A   1      41.588  26.605  26.304  1.00  0.00     0.010 A 
ATOM     38  C   UNL A   1      42.788  25.646  28.210  1.00  0.00     0.010 A 
ATOM     39  C   UNL A   1      42.110  26.695  27.598  1.00  0.00    -0.014 A 
BRANCH  39  40
ATOM     40  C   UNL A   1      41.917  27.907  28.359  1.00  0.00     0.031 A 
ATOM     41  C   UNL A   1      43.013  28.886  28.187  1.00  0.00     0.074 A 
ATOM     42  C   UNL A   1      40.760  28.142  29.008  1.00  0.00     0.049 A 
ATOM     43  N   UNL A   1      43.868  29.270  29.071  1.00  0.00    -0.248 NA
ATOM     44  C   UNL A   1      43.304  29.362  26.822  1.00  0.00     0.031 C 
ATOM     45  C   UNL A   1      39.519  27.358  28.973  1.00  0.00     0.029 A 
ATOM     46  N   UNL A   1      40.410  29.216  29.756  1.00  0.00    -0.354 N 
ATOM     47  C   UNL A   1      44.666  30.212  28.432  1.00  0.00     0.074 A 
ATOM     48  C   UNL A   1      44.414  30.071  27.022  1.00  0.00     0.031 C 
ATOM     49  C   UNL A   1      38.503  28.109  29.462  1.00  0.00     0.029 A 
ATOM     50  C   UNL A   1      39.045  29.358  29.970  1.00  0.00     0.049 A 
ATOM     51  H   UNL A   1      41.073  29.847  30.121  1.00  0.00     0.167 HD
ATOM     52  C   UNL A   1      45.272  31.215  29.123  1.00  0.00     0.031 A 
ATOM     53  C   UNL A   1      38.416  30.456  30.469  1.00  0.00     0.031 A 
ATOM     54  C   UNL A   1      45.297  30.947  30.537  1.00  0.00     0.049 A 
ATOM     55  C   UNL A   1      39.453  31.264  31.164  1.00  0.00     0.074 A 
ATOM     56  C   UNL A   1      45.850  29.949  31.315  1.00  0.00     0.029 A 
ATOM     57  N   UNL A   1      44.316  31.531  31.303  1.00  0.00    -0.354 N 
ATOM     58  N   UNL A   1      40.079  30.853  32.231  1.00  0.00    -0.248 NA
ATOM     59  C   UNL A   1      40.141  32.289  30.394  1.00  0.00     0.031 C 
ATOM     60  C   UNL A   1      44.863  29.669  32.303  1.00  0.00     0.029 A 
ATOM     61  C   UNL A   1      43.805  30.565  32.135  1.00  0.00     0.049 A 
ATOM     62  H   UNL A   1      44.030  32.472  31.265  1.00  0.00     0.167 HD
ATOM     63  C   UNL A   1      41.402  31.229  32.037  1.00  0.00     0.074 A 
ATOM     64  C   UNL A   1      41.364  32.182  30.926  1.00  0.00     0.031 C 
ATOM     65  C   UNL A   1      42.430  30.525  32.594  1.00  0.00     0.031 A 
BRANCH  52  66
ATOM     66  C   UNL A   1      45.481  32.591  28.546  1.00  0.00    -0.014 A 
ATOM     67  C   UNL A   1      46.692  33.263  28.793  1.00  0.00     0.010 A 
ATOM     68  C   UNL A   1      44.431  33.346  27.981  1.00  0.00     0.010 A 
ATOM     69  C   UNL A   1      46.830  34.630  28.515  1.00  0.00     0.020 A 
ATOM     70  C   UNL A   1      44.571  34.696  27.660  1.00  0.00     0.020 A 
ATOM     71  C   UNL A   1      45.765  35.337  27.953  1.00  0.00     0.054 A 
BRANCH  71  72
ATOM     72  S   UNL A   1      45.929  37.114  27.661  1.00  0.00     0.124 S 
ATOM     73  O   UNL A   1      47.185  37.183  26.922  1.00  0.00    -0.237 OA
ATOM     74  O   UNL A   1      44.722  37.411  26.893  1.00  0.00    -0.237 OA
ATOM     75  O   UNL A   1      45.960  37.681  29.007  1.00  0.00    -0.744 OA
ENDBRANCH  71  72
ENDBRANCH  52  66
BRANCH  53  76
ATOM     76  C   UNL A   1      37.100  31.023  30.064  1.00  0.00    -0.014 A 
ATOM     77  C   UNL A   1      36.319  31.779  30.962  1.00  0.00     0.010 A 
ATOM     78  C   UNL A   1      36.745  31.066  28.700  1.00  0.00     0.010 A 
ATOM     79  C   UNL A   1      35.267  32.594  30.502  1.00  0.00     0.020 A 
ATOM     80  C   UNL A   1      35.697  31.872  28.236  1.00  0.00     0.020 A 
ATOM     81  C   UNL A   1      34.977  32.653  29.136  1.00  0.00     0.054 A 
BRANCH  81  82
ATOM     82  S   UNL A   1      33.744  33.843  28.525  1.00  0.00     0.124 S 
ATOM     83  O   UNL A   1      32.984  33.044  27.568  1.00  0.00    -0.237 OA
ATOM     84  O   UNL A   1      33.030  34.217  29.744  1.00  0.00    -0.237 OA
ATOM     85  O   UNL A   1      34.556  34.907  27.937  1.00  0.00    -0.744 OA
ENDBRANCH  81  82
ENDBRANCH  53  76
BRANCH  65  86
ATOM     86  C   UNL A   1      42.100  29.467  33.630  1.00  0.00    -0.014 A 
ATOM     87  C   UNL A   1      41.682  28.156  33.321  1.00  0.00     0.010 A 
ATOM     88  C   UNL A   1      42.374  29.777  34.973  1.00  0.00     0.010 A 
ATOM     89  C   UNL A   1      41.520  27.195  34.334  1.00  0.00     0.020 A 
ATOM     90  C   UNL A   1      42.232  28.823  35.982  1.00  0.00     0.020 A 
ATOM     91  C   UNL A   1      41.795  27.538  35.661  1.00  0.00     0.054 A 
BRANCH  91  92
ATOM     92  S   UNL A   1      41.615  26.292  36.970  1.00  0.00     0.124 S 
ATOM     93  O   UNL A   1      40.381  26.703  37.631  1.00  0.00    -0.237 OA
ATOM     94  O   UNL A   1      41.542  25.040  36.218  1.00  0.00    -0.237 OA
ATOM     95  O   UNL A   1      42.829  26.451  37.771  1.00  0.00    -0.744 OA
ENDBRANCH  91  92
ENDBRANCH  65  86
ENDBRANCH  39  40
ENDBRANCH  32  34
ENDBRANCH  31  32
ENDBRANCH  30  31
ENDBRANCH   1  30
TORSDOF 19
ENDMDL
MODEL 3
REMARK VINA RESULT:     -11.8      5.233     12.858
REMARK SMILES O=C(Cn1cc(/C=C(/Cl)c2nnc(C(=O)Nc3ccc(Cl)cc3)s2)nn1)OCCOC(=O)c1ccc(-c2c3nc(c(-c4ccc(S(=O)(=O)[O-])cc4)c4ccc([nH]4)c(-c4ccc(S(=O)(=O)[O-])cc4)c4nc(c(-c5ccc(S(=O)(=O)[O-])cc5)c5ccc2[nH]5)C=C4)C=C3)cc1
REMARK SMILES IDX 28 1 27 2 2 3 1 4 3 5 4 6 5 7 26 8 6 9 25 10 7 11 8 12 9 13
REMARK SMILES IDX 10 14 11 15 24 16 12 17 13 18 14 19 15 20 16 21 17 23 18 24
REMARK SMILES IDX 23 25 19 26 22 27 20 28 21 29 29 30 30 31 31 32 32 33 33 34
REMARK SMILES IDX 34 35 92 36 35 37 91 38 36 39 37 40 38 41 85 42 39 43 90 44
REMARK SMILES IDX 84 45 86 46 40 47 89 48 83 49 82 50 41 52 71 53 52 54 70 55
REMARK SMILES IDX 53 56 56 57 69 58 87 59 54 60 55 61 68 63 88 64 57 65 42 66
REMARK SMILES IDX 43 67 51 68 44 69 50 70 45 71 46 72 47 73 48 74 49 75 72 76
REMARK SMILES IDX 73 77 81 78 74 79 80 80 75 81 76 82 77 83 78 84 79 85 58 86
REMARK SMILES IDX 59 87 67 88 60 89 66 90 61 91 62 92 63 93 64 94 65 95
REMARK H PARENT 16 22 86 51 56 62
REMARK Flexibility Score: inf
ROOT
ATOM      1  C   UNL A   1      34.425  34.952  27.999  1.00  0.00     0.274 C 
ENDROOT
BRANCH   1   2
ATOM      2  O   UNL A   1      34.174  35.564  29.286  1.00  0.00    -0.461 OA
BRANCH   2   3
ATOM      3  C   UNL A   1      33.074  36.246  29.694  1.00  0.00     0.327 C 
ATOM      4  O   UNL A   1      32.160  36.458  28.895  1.00  0.00    -0.250 OA
BRANCH   3   5
ATOM      5  C   UNL A   1      32.959  36.751  31.107  1.00  0.00     0.268 C 
BRANCH   5   6
ATOM      6  N   UNL A   1      33.544  35.836  32.052  1.00  0.00    -0.241 N 
ATOM      7  C   UNL A   1      34.564  36.009  32.948  1.00  0.00     0.139 A 
ATOM      8  N   UNL A   1      33.163  34.557  31.996  1.00  0.00    -0.066 NA
ATOM      9  C   UNL A   1      34.693  34.762  33.517  1.00  0.00     0.107 A 
ATOM     10  N   UNL A   1      33.848  33.899  32.898  1.00  0.00    -0.131 NA
BRANCH   9  11
ATOM     11  C   UNL A   1      35.525  34.315  34.584  1.00  0.00     0.055 C 
ATOM     12  C   UNL A   1      36.787  33.838  34.474  1.00  0.00     0.081 C 
ATOM     13  Cl  UNL A   1      37.657  33.347  35.886  1.00  0.00    -0.081 Cl
BRANCH  12  14
ATOM     14  C   UNL A   1      37.478  33.795  33.227  1.00  0.00     0.159 A 
ATOM     15  N   UNL A   1      37.467  34.668  32.233  1.00  0.00    -0.137 NA
ATOM     16  S   UNL A   1      38.689  32.587  32.958  1.00  0.00    -0.086 S 
ATOM     17  N   UNL A   1      38.669  34.653  31.527  1.00  0.00    -0.133 NA
ATOM     18  C   UNL A   1      39.514  33.765  32.027  1.00  0.00     0.206 A 
BRANCH  18  19
ATOM     19  C   UNL A   1      40.942  33.774  31.714  1.00  0.00     0.286 C 
ATOM     20  O   UNL A   1      41.384  33.309  30.655  1.00  0.00    -0.266 OA
ATOM     21  N   UNL A   1      41.881  34.482  32.476  1.00  0.00    -0.320 N 
ATOM     22  H   UNL A   1      42.770  34.561  32.059  1.00  0.00     0.170 HD
BRANCH  21  23
ATOM     23  C   UNL A   1      41.771  35.098  33.731  1.00  0.00     0.041 A 
ATOM     24  C   UNL A   1      42.409  36.302  34.019  1.00  0.00     0.027 A 
ATOM     25  C   UNL A   1      40.942  34.526  34.700  1.00  0.00     0.027 A 
ATOM     26  C   UNL A   1      42.427  36.805  35.322  1.00  0.00     0.022 A 
ATOM     27  C   UNL A   1      40.934  35.039  36.002  1.00  0.00     0.022 A 
ATOM     28  C   UNL A   1      41.720  36.145  36.319  1.00  0.00     0.041 A 
ATOM     29  Cl  UNL A   1      41.823  36.693  37.944  1.00  0.00    -0.084 Cl
ENDBRANCH  21  23
ENDBRANCH  18  19
ENDBRANCH  12  14
ENDBRANCH   9  11
ENDBRANCH   5   6
ENDBRANCH   3   5
ENDBRANCH   2   3
ENDBRANCH   1   2
BRANCH   1  30
ATOM     30  C   UNL A   1      34.160  33.458  27.995  1.00  0.00     0.275 C 
BRANCH  30  31
ATOM     31  O   UNL A   1      35.390  32.749  28.069  1.00  0.00    -0.458 OA
BRANCH  31  32
ATOM     32  C   UNL A   1      35.320  31.411  27.859  1.00  0.00     0.338 C 
ATOM     33  O   UNL A   1      34.476  30.808  27.242  1.00  0.00    -0.246 OA
BRANCH  32  34
ATOM     34  C   UNL A   1      36.468  30.802  28.545  1.00  0.00     0.060 A 
ATOM     35  C   UNL A   1      37.379  31.654  29.175  1.00  0.00     0.016 A 
ATOM     36  C   UNL A   1      36.714  29.429  28.397  1.00  0.00     0.016 A 
ATOM     37  C   UNL A   1      38.631  31.160  29.477  1.00  0.00     0.010 A 
ATOM     38  C   UNL A   1      37.960  28.943  28.684  1.00  0.00     0.010 A 
ATOM     39  C   UNL A   1      38.925  29.837  29.135  1.00  0.00    -0.014 A 
BRANCH  39  40
ATOM     40  C   UNL A   1      40.277  29.350  29.282  1.00  0.00     0.031 A 
ATOM     41  C   UNL A   1      40.655  29.089  30.688  1.00  0.00     0.074 A 
ATOM     42  C   UNL A   1      41.019  29.023  28.204  1.00  0.00     0.049 A 
ATOM     43  N   UNL A   1      41.527  29.721  31.396  1.00  0.00    -0.248 NA
ATOM     44  C   UNL A   1      39.842  28.126  31.453  1.00  0.00     0.031 C 
ATOM     45  C   UNL A   1      40.605  28.967  26.796  1.00  0.00     0.029 A 
ATOM     46  N   UNL A   1      42.288  28.551  28.159  1.00  0.00    -0.354 N 
ATOM     47  C   UNL A   1      41.534  29.084  32.632  1.00  0.00     0.074 A 
ATOM     48  C   UNL A   1      40.350  28.265  32.676  1.00  0.00     0.031 C 
ATOM     49  C   UNL A   1      41.522  28.262  26.090  1.00  0.00     0.029 A 
ATOM     50  C   UNL A   1      42.642  27.946  26.960  1.00  0.00     0.049 A 
ATOM     51  H   UNL A   1      42.910  28.632  28.918  1.00  0.00     0.167 HD
ATOM     52  C   UNL A   1      42.645  29.068  33.416  1.00  0.00     0.031 A 
ATOM     53  C   UNL A   1      43.749  27.188  26.735  1.00  0.00     0.031 A 
ATOM     54  C   UNL A   1      43.600  30.063  33.005  1.00  0.00     0.049 A 
ATOM     55  C   UNL A   1      44.714  27.507  27.820  1.00  0.00     0.074 A 
ATOM     56  C   UNL A   1      43.571  31.441  32.909  1.00  0.00     0.029 A 
ATOM     57  N   UNL A   1      44.633  29.645  32.197  1.00  0.00    -0.354 N 
ATOM     58  N   UNL A   1      45.264  28.681  27.962  1.00  0.00    -0.248 NA
ATOM     59  C   UNL A   1      44.676  26.688  29.022  1.00  0.00     0.031 C 
ATOM     60  C   UNL A   1      44.255  31.737  31.695  1.00  0.00     0.029 A 
ATOM     61  C   UNL A   1      44.742  30.541  31.162  1.00  0.00     0.049 A 
ATOM     62  H   UNL A   1      45.194  28.849  32.336  1.00  0.00     0.167 HD
ATOM     63  C   UNL A   1      45.242  28.923  29.329  1.00  0.00     0.074 A 
ATOM     64  C   UNL A   1      44.943  27.626  29.938  1.00  0.00     0.031 C 
ATOM     65  C   UNL A   1      45.181  30.195  29.824  1.00  0.00     0.031 A 
BRANCH  52  66
ATOM     66  C   UNL A   1      43.008  27.899  34.292  1.00  0.00    -0.014 A 
ATOM     67  C   UNL A   1      43.183  28.101  35.673  1.00  0.00     0.010 A 
ATOM     68  C   UNL A   1      43.428  26.657  33.768  1.00  0.00     0.010 A 
ATOM     69  C   UNL A   1      43.777  27.120  36.479  1.00  0.00     0.020 A 
ATOM     70  C   UNL A   1      43.980  25.657  34.567  1.00  0.00     0.020 A 
ATOM     71  C   UNL A   1      44.175  25.905  35.918  1.00  0.00     0.054 A 
BRANCH  71  72
ATOM     72  S   UNL A   1      45.001  24.673  36.951  1.00  0.00     0.124 S 
ATOM     73  O   UNL A   1      46.406  25.029  36.780  1.00  0.00    -0.237 OA
ATOM     74  O   UNL A   1      44.431  24.944  38.268  1.00  0.00    -0.237 OA
ATOM     75  O   UNL A   1      44.599  23.401  36.354  1.00  0.00    -0.744 OA
ENDBRANCH  71  72
ENDBRANCH  52  66
BRANCH  53  76
ATOM     76  C   UNL A   1      43.868  25.965  25.894  1.00  0.00    -0.014 A 
ATOM     77  C   UNL A   1      45.099  25.582  25.326  1.00  0.00     0.010 A 
ATOM     78  C   UNL A   1      42.828  25.012  25.891  1.00  0.00     0.010 A 
ATOM     79  C   UNL A   1      45.299  24.277  24.833  1.00  0.00     0.020 A 
ATOM     80  C   UNL A   1      43.018  23.714  25.400  1.00  0.00     0.020 A 
ATOM     81  C   UNL A   1      44.262  23.344  24.894  1.00  0.00     0.054 A 
BRANCH  81  82
ATOM     82  S   UNL A   1      44.577  21.612  24.431  1.00  0.00     0.124 S 
ATOM     83  O   UNL A   1      45.913  21.382  24.970  1.00  0.00    -0.237 OA
ATOM     84  O   UNL A   1      43.492  20.901  25.102  1.00  0.00    -0.237 OA
ATOM     85  O   UNL A   1      44.491  21.627  22.971  1.00  0.00    -0.744 OA
ENDBRANCH  81  82
ENDBRANCH  53  76
BRANCH  65  86
ATOM     86  C   UNL A   1      45.384  31.351  28.864  1.00  0.00    -0.014 A 
ATOM     87  C   UNL A   1      46.633  31.942  28.585  1.00  0.00     0.010 A 
ATOM     88  C   UNL A   1      44.274  31.751  28.099  1.00  0.00     0.010 A 
ATOM     89  C   UNL A   1      46.757  32.924  27.586  1.00  0.00     0.020 A 
ATOM     90  C   UNL A   1      44.393  32.712  27.094  1.00  0.00     0.020 A 
ATOM     91  C   UNL A   1      45.633  33.304  26.848  1.00  0.00     0.054 A 
BRANCH  91  92
ATOM     92  S   UNL A   1      45.794  34.550  25.537  1.00  0.00     0.124 S 
ATOM     93  O   UNL A   1      47.218  34.499  25.224  1.00  0.00    -0.237 OA
ATOM     94  O   UNL A   1      44.901  34.043  24.496  1.00  0.00    -0.237 OA
ATOM     95  O   UNL A   1      45.345  35.788  26.176  1.00  0.00    -0.744 OA
ENDBRANCH  91  92
ENDBRANCH  65  86
ENDBRANCH  39  40
ENDBRANCH  32  34
ENDBRANCH  31  32
ENDBRANCH  30  31
ENDBRANCH   1  30
TORSDOF 19
ENDMDL
