MODEL 1
REMARK VINA RESULT:      -9.8      0.000      0.000
REMARK SMILES CC(C)[C@H](NC(=O)[C@H](C)NC(=O)CNC(=O)OCc1ccccc1)C(=O)OCCOC(=O)c1ccc(-c2c3nc(c(-c4ccc(S(=O)(=O)[O-])cc4)c4ccc([nH]4)c(-c4ccc(S(=O)(=O)[O-])cc4)c4nc(c(-c5ccc(S(=O)(=O)[O-])cc5)c5ccc2[nH]5)C=C4)C=C3)cc1
REMARK SMILES IDX 25 1 26 2 4 3 2 4 1 5 3 6 5 7 6 8 7 10 8 11 9 12 10 13 11 14
REMARK SMILES IDX 12 16 13 17 14 18 15 19 16 21 17 22 18 23 19 24 20 25 24 26
REMARK SMILES IDX 21 27 23 28 22 29 27 30 28 31 29 32 30 33 31 34 32 35 33 36
REMARK SMILES IDX 34 37 92 38 35 39 91 40 36 41 37 42 38 43 85 44 39 45 90 46
REMARK SMILES IDX 84 47 86 48 40 49 89 50 83 51 82 52 41 54 71 55 52 56 70 57
REMARK SMILES IDX 53 58 56 59 69 60 87 61 54 62 55 63 68 65 88 66 57 67 42 68
REMARK SMILES IDX 43 69 51 70 44 71 50 72 45 73 46 74 47 75 48 76 49 77 72 78
REMARK SMILES IDX 73 79 81 80 74 81 80 82 75 83 76 84 77 85 78 86 79 87 58 88
REMARK SMILES IDX 59 89 67 90 60 91 66 92 61 93 62 94 63 95 64 96 65 97
REMARK H PARENT 5 9 10 15 14 20 86 53 56 64
REMARK Flexibility Score: inf
ROOT
ATOM      1  C   UNL A   1      33.531  27.979  25.211  1.00  0.00     0.329 C 
ATOM      2  O   UNL A   1      34.385  28.346  24.412  1.00  0.00    -0.250 OA
ENDROOT
BRANCH   1   3
ATOM      3  C   UNL A   1      32.157  27.393  24.784  1.00  0.00     0.194 C 
BRANCH   3   4
ATOM      4  C   UNL A   1      31.255  28.365  23.983  1.00  0.00     0.017 C 
ATOM      5  C   UNL A   1      29.851  27.843  23.638  1.00  0.00     0.010 C 
ATOM      6  C   UNL A   1      31.088  29.704  24.711  1.00  0.00     0.010 C 
ENDBRANCH   3   4
BRANCH   3   7
ATOM      7  N   UNL A   1      31.492  26.500  25.751  1.00  0.00    -0.341 N 
ATOM      8  C   UNL A   1      31.186  25.189  25.867  1.00  0.00     0.242 C 
ATOM      9  H   UNL A   1      31.181  27.004  26.537  1.00  0.00     0.164 HD
ATOM     10  O   UNL A   1      30.531  24.884  26.871  1.00  0.00    -0.273 OA
BRANCH   8  11
ATOM     11  C   UNL A   1      31.451  24.151  24.761  1.00  0.00     0.168 C 
ATOM     12  C   UNL A   1      30.613  24.492  23.522  1.00  0.00     0.041 C 
BRANCH  11  13
ATOM     13  N   UNL A   1      31.195  22.752  25.084  1.00  0.00    -0.343 N 
ATOM     14  C   UNL A   1      32.108  21.752  25.284  1.00  0.00     0.240 C 
ATOM     15  H   UNL A   1      30.248  22.496  25.168  1.00  0.00     0.164 HD
ATOM     16  O   UNL A   1      31.729  20.582  25.242  1.00  0.00    -0.273 OA
BRANCH  14  17
ATOM     17  C   UNL A   1      33.579  22.105  25.528  1.00  0.00     0.219 C 
BRANCH  17  18
ATOM     18  N   UNL A   1      34.339  20.876  25.496  1.00  0.00    -0.312 N 
ATOM     19  C   UNL A   1      35.652  20.754  25.165  1.00  0.00     0.407 C 
ATOM     20  H   UNL A   1      33.862  20.050  25.736  1.00  0.00     0.167 HD
ATOM     21  O   UNL A   1      36.105  19.678  24.806  1.00  0.00    -0.225 OA
BRANCH  19  22
ATOM     22  O   UNL A   1      36.335  21.924  25.239  1.00  0.00    -0.445 OA
BRANCH  22  23
ATOM     23  C   UNL A   1      37.746  21.846  24.982  1.00  0.00     0.270 C 
BRANCH  23  24
ATOM     24  C   UNL A   1      38.512  22.580  26.051  1.00  0.00    -0.011 A 
ATOM     25  C   UNL A   1      38.098  23.858  26.455  1.00  0.00     0.007 A 
ATOM     26  C   UNL A   1      39.680  22.043  26.606  1.00  0.00     0.007 A 
ATOM     27  C   UNL A   1      38.853  24.603  27.357  1.00  0.00     0.000 A 
ATOM     28  C   UNL A   1      40.424  22.781  27.530  1.00  0.00     0.000 A 
ATOM     29  C   UNL A   1      40.018  24.064  27.894  1.00  0.00     0.000 A 
ENDBRANCH  23  24
ENDBRANCH  22  23
ENDBRANCH  19  22
ENDBRANCH  17  18
ENDBRANCH  14  17
ENDBRANCH  11  13
ENDBRANCH   8  11
ENDBRANCH   3   7
ENDBRANCH   1   3
BRANCH   1  30
ATOM     30  O   UNL A   1      33.760  27.914  26.553  1.00  0.00    -0.461 OA
BRANCH  30  31
ATOM     31  C   UNL A   1      33.628  29.173  27.252  1.00  0.00     0.274 C 
BRANCH  31  32
ATOM     32  C   UNL A   1      34.987  29.821  27.558  1.00  0.00     0.275 C 
BRANCH  32  33
ATOM     33  O   UNL A   1      35.905  28.929  28.221  1.00  0.00    -0.458 OA
BRANCH  33  34
ATOM     34  C   UNL A   1      36.974  29.547  28.771  1.00  0.00     0.338 C 
ATOM     35  O   UNL A   1      36.959  30.348  29.693  1.00  0.00    -0.246 OA
BRANCH  34  36
ATOM     36  C   UNL A   1      38.244  29.035  28.233  1.00  0.00     0.060 A 
ATOM     37  C   UNL A   1      39.127  28.481  29.150  1.00  0.00     0.016 A 
ATOM     38  C   UNL A   1      38.676  29.326  26.941  1.00  0.00     0.016 A 
ATOM     39  C   UNL A   1      40.476  28.375  28.856  1.00  0.00     0.010 A 
ATOM     40  C   UNL A   1      40.020  29.091  26.599  1.00  0.00     0.010 A 
ATOM     41  C   UNL A   1      40.946  28.668  27.572  1.00  0.00    -0.014 A 
BRANCH  41  42
ATOM     42  C   UNL A   1      42.409  28.556  27.315  1.00  0.00     0.031 A 
ATOM     43  C   UNL A   1      43.342  29.681  27.686  1.00  0.00     0.074 A 
ATOM     44  C   UNL A   1      42.914  27.395  26.846  1.00  0.00     0.049 A 
ATOM     45  N   UNL A   1      44.639  29.759  27.524  1.00  0.00    -0.248 NA
ATOM     46  C   UNL A   1      42.746  30.871  28.312  1.00  0.00     0.031 C 
ATOM     47  C   UNL A   1      42.125  26.208  26.495  1.00  0.00     0.029 A 
ATOM     48  N   UNL A   1      44.210  27.002  26.626  1.00  0.00    -0.354 N 
ATOM     49  C   UNL A   1      45.005  31.022  27.979  1.00  0.00     0.074 A 
ATOM     50  C   UNL A   1      43.792  31.678  28.418  1.00  0.00     0.031 C 
ATOM     51  C   UNL A   1      42.955  25.204  26.177  1.00  0.00     0.029 A 
ATOM     52  C   UNL A   1      44.328  25.695  26.213  1.00  0.00     0.049 A 
ATOM     53  H   UNL A   1      44.982  27.599  26.750  1.00  0.00     0.167 HD
ATOM     54  C   UNL A   1      46.237  31.585  28.026  1.00  0.00     0.031 A 
ATOM     55  C   UNL A   1      45.411  24.971  25.878  1.00  0.00     0.031 A 
ATOM     56  C   UNL A   1      47.447  30.919  27.621  1.00  0.00     0.049 A 
ATOM     57  C   UNL A   1      46.764  25.619  25.931  1.00  0.00     0.074 A 
ATOM     58  C   UNL A   1      48.742  31.409  27.618  1.00  0.00     0.029 A 
ATOM     59  N   UNL A   1      47.516  29.610  27.166  1.00  0.00    -0.354 N 
ATOM     60  N   UNL A   1      47.076  26.837  26.307  1.00  0.00    -0.248 NA
ATOM     61  C   UNL A   1      47.906  24.801  25.507  1.00  0.00     0.031 C 
ATOM     62  C   UNL A   1      49.589  30.406  27.129  1.00  0.00     0.029 A 
ATOM     63  C   UNL A   1      48.828  29.277  26.873  1.00  0.00     0.049 A 
ATOM     64  H   UNL A   1      46.744  29.007  27.067  1.00  0.00     0.167 HD
ATOM     65  C   UNL A   1      48.456  26.928  26.170  1.00  0.00     0.074 A 
ATOM     66  C   UNL A   1      48.917  25.636  25.704  1.00  0.00     0.031 C 
ATOM     67  C   UNL A   1      49.266  27.990  26.403  1.00  0.00     0.031 A 
BRANCH  54  68
ATOM     68  C   UNL A   1      46.327  33.016  28.486  1.00  0.00    -0.014 A 
ATOM     69  C   UNL A   1      46.036  34.088  27.625  1.00  0.00     0.010 A 
ATOM     70  C   UNL A   1      46.690  33.289  29.820  1.00  0.00     0.010 A 
ATOM     71  C   UNL A   1      46.150  35.408  28.074  1.00  0.00     0.020 A 
ATOM     72  C   UNL A   1      46.781  34.606  30.279  1.00  0.00     0.020 A 
ATOM     73  C   UNL A   1      46.530  35.658  29.397  1.00  0.00     0.054 A 
BRANCH  73  74
ATOM     74  S   UNL A   1      46.665  37.377  29.961  1.00  0.00     0.124 S 
ATOM     75  O   UNL A   1      47.717  37.896  29.088  1.00  0.00    -0.237 OA
ATOM     76  O   UNL A   1      45.327  37.905  29.713  1.00  0.00    -0.237 OA
ATOM     77  O   UNL A   1      47.032  37.252  31.370  1.00  0.00    -0.744 OA
ENDBRANCH  73  74
ENDBRANCH  54  68
BRANCH  55  78
ATOM     78  C   UNL A   1      45.251  23.561  25.429  1.00  0.00    -0.014 A 
ATOM     79  C   UNL A   1      44.890  23.265  24.103  1.00  0.00     0.010 A 
ATOM     80  C   UNL A   1      45.487  22.503  26.327  1.00  0.00     0.010 A 
ATOM     81  C   UNL A   1      44.759  21.936  23.686  1.00  0.00     0.020 A 
ATOM     82  C   UNL A   1      45.386  21.175  25.905  1.00  0.00     0.020 A 
ATOM     83  C   UNL A   1      45.012  20.900  24.589  1.00  0.00     0.054 A 
BRANCH  83  84
ATOM     84  S   UNL A   1      44.904  19.182  24.015  1.00  0.00     0.124 S 
ATOM     85  O   UNL A   1      43.796  18.666  24.812  1.00  0.00    -0.237 OA
ATOM     86  O   UNL A   1      44.639  19.339  22.587  1.00  0.00    -0.237 OA
ATOM     87  O   UNL A   1      46.220  18.634  24.339  1.00  0.00    -0.744 OA
ENDBRANCH  83  84
ENDBRANCH  55  78
BRANCH  67  88
ATOM     88  C   UNL A   1      50.739  27.779  26.181  1.00  0.00    -0.014 A 
ATOM     89  C   UNL A   1      51.557  27.245  27.192  1.00  0.00     0.010 A 
ATOM     90  C   UNL A   1      51.308  28.115  24.940  1.00  0.00     0.010 A 
ATOM     91  C   UNL A   1      52.930  27.096  26.982  1.00  0.00     0.020 A 
ATOM     92  C   UNL A   1      52.676  27.944  24.718  1.00  0.00     0.020 A 
ATOM     93  C   UNL A   1      53.482  27.455  25.749  1.00  0.00     0.054 A 
BRANCH  93  94
ATOM     94  S   UNL A   1      55.265  27.248  25.492  1.00  0.00     0.124 S 
ATOM     95  O   UNL A   1      55.303  26.293  24.388  1.00  0.00    -0.237 OA
ATOM     96  O   UNL A   1      55.706  28.603  25.165  1.00  0.00    -0.237 OA
ATOM     97  O   UNL A   1      55.741  26.738  26.776  1.00  0.00    -0.744 OA
ENDBRANCH  93  94
ENDBRANCH  67  88
ENDBRANCH  41  42
ENDBRANCH  34  36
ENDBRANCH  33  34
ENDBRANCH  32  33
ENDBRANCH  31  32
ENDBRANCH  30  31
ENDBRANCH   1  30
TORSDOF 23
ENDMDL
MODEL 2
REMARK VINA RESULT:      -9.7      5.524     10.136
REMARK SMILES CC(C)[C@H](NC(=O)[C@H](C)NC(=O)CNC(=O)OCc1ccccc1)C(=O)OCCOC(=O)c1ccc(-c2c3nc(c(-c4ccc(S(=O)(=O)[O-])cc4)c4ccc([nH]4)c(-c4ccc(S(=O)(=O)[O-])cc4)c4nc(c(-c5ccc(S(=O)(=O)[O-])cc5)c5ccc2[nH]5)C=C4)C=C3)cc1
REMARK SMILES IDX 25 1 26 2 4 3 2 4 1 5 3 6 5 7 6 8 7 10 8 11 9 12 10 13 11 14
REMARK SMILES IDX 12 16 13 17 14 18 15 19 16 21 17 22 18 23 19 24 20 25 24 26
REMARK SMILES IDX 21 27 23 28 22 29 27 30 28 31 29 32 30 33 31 34 32 35 33 36
REMARK SMILES IDX 34 37 92 38 35 39 91 40 36 41 37 42 38 43 85 44 39 45 90 46
REMARK SMILES IDX 84 47 86 48 40 49 89 50 83 51 82 52 41 54 71 55 52 56 70 57
REMARK SMILES IDX 53 58 56 59 69 60 87 61 54 62 55 63 68 65 88 66 57 67 42 68
REMARK SMILES IDX 43 69 51 70 44 71 50 72 45 73 46 74 47 75 48 76 49 77 72 78
REMARK SMILES IDX 73 79 81 80 74 81 80 82 75 83 76 84 77 85 78 86 79 87 58 88
REMARK SMILES IDX 59 89 67 90 60 91 66 92 61 93 62 94 63 95 64 96 65 97
REMARK H PARENT 5 9 10 15 14 20 86 53 56 64
REMARK Flexibility Score: inf
ROOT
ATOM      1  C   UNL A   1      32.794  28.227  24.363  1.00  0.00     0.329 C 
ATOM      2  O   UNL A   1      33.659  27.637  25.000  1.00  0.00    -0.250 OA
ENDROOT
BRANCH   1   3
ATOM      3  C   UNL A   1      31.757  27.506  23.459  1.00  0.00     0.194 C 
BRANCH   3   4
ATOM      4  C   UNL A   1      30.756  26.596  24.214  1.00  0.00     0.017 C 
ATOM      5  C   UNL A   1      30.795  26.686  25.747  1.00  0.00     0.010 C 
ATOM      6  C   UNL A   1      29.312  26.860  23.768  1.00  0.00     0.010 C 
ENDBRANCH   3   4
BRANCH   3   7
ATOM      7  N   UNL A   1      32.240  27.033  22.149  1.00  0.00    -0.341 N 
ATOM      8  C   UNL A   1      32.884  25.958  21.640  1.00  0.00     0.242 C 
ATOM      9  H   UNL A   1      32.037  27.688  21.443  1.00  0.00     0.164 HD
ATOM     10  O   UNL A   1      33.154  26.024  20.434  1.00  0.00    -0.273 OA
BRANCH   8  11
ATOM     11  C   UNL A   1      33.424  24.803  22.501  1.00  0.00     0.168 C 
ATOM     12  C   UNL A   1      32.267  23.891  22.927  1.00  0.00     0.041 C 
BRANCH  11  13
ATOM     13  N   UNL A   1      34.161  25.158  23.708  1.00  0.00    -0.343 N 
ATOM     14  C   UNL A   1      34.881  24.333  24.531  1.00  0.00     0.240 C 
ATOM     15  H   UNL A   1      34.137  26.109  23.963  1.00  0.00     0.164 HD
ATOM     16  O   UNL A   1      35.179  24.727  25.658  1.00  0.00    -0.273 OA
BRANCH  14  17
ATOM     17  C   UNL A   1      35.277  22.935  24.045  1.00  0.00     0.219 C 
BRANCH  17  18
ATOM     18  N   UNL A   1      35.265  22.051  25.188  1.00  0.00    -0.312 N 
ATOM     19  C   UNL A   1      34.201  21.329  25.631  1.00  0.00     0.407 C 
ATOM     20  H   UNL A   1      36.105  21.963  25.693  1.00  0.00     0.167 HD
ATOM     21  O   UNL A   1      34.164  20.918  26.782  1.00  0.00    -0.225 OA
BRANCH  19  22
ATOM     22  O   UNL A   1      33.229  21.178  24.698  1.00  0.00    -0.445 OA
BRANCH  22  23
ATOM     23  C   UNL A   1      32.200  20.225  25.010  1.00  0.00     0.270 C 
BRANCH  23  24
ATOM     24  C   UNL A   1      32.698  18.823  24.772  1.00  0.00    -0.011 A 
ATOM     25  C   UNL A   1      33.114  18.438  23.488  1.00  0.00     0.007 A 
ATOM     26  C   UNL A   1      32.688  17.866  25.793  1.00  0.00     0.007 A 
ATOM     27  C   UNL A   1      33.470  17.119  23.217  1.00  0.00     0.000 A 
ATOM     28  C   UNL A   1      33.069  16.549  25.527  1.00  0.00     0.000 A 
ATOM     29  C   UNL A   1      33.445  16.173  24.238  1.00  0.00     0.000 A 
ENDBRANCH  23  24
ENDBRANCH  22  23
ENDBRANCH  19  22
ENDBRANCH  17  18
ENDBRANCH  14  17
ENDBRANCH  11  13
ENDBRANCH   8  11
ENDBRANCH   3   7
ENDBRANCH   1   3
BRANCH   1  30
ATOM     30  O   UNL A   1      32.565  29.564  24.500  1.00  0.00    -0.461 OA
BRANCH  30  31
ATOM     31  C   UNL A   1      31.719  29.923  25.616  1.00  0.00     0.274 C 
BRANCH  31  32
ATOM     32  C   UNL A   1      32.514  30.122  26.916  1.00  0.00     0.275 C 
BRANCH  32  33
ATOM     33  O   UNL A   1      33.831  30.668  26.697  1.00  0.00    -0.458 OA
BRANCH  33  34
ATOM     34  C   UNL A   1      34.343  31.317  27.767  1.00  0.00     0.338 C 
ATOM     35  O   UNL A   1      33.756  32.105  28.493  1.00  0.00    -0.246 OA
BRANCH  34  36
ATOM     36  C   UNL A   1      35.703  30.858  28.090  1.00  0.00     0.060 A 
ATOM     37  C   UNL A   1      35.811  29.601  28.669  1.00  0.00     0.016 A 
ATOM     38  C   UNL A   1      36.799  31.717  28.087  1.00  0.00     0.016 A 
ATOM     39  C   UNL A   1      36.936  29.252  29.397  1.00  0.00     0.010 A 
ATOM     40  C   UNL A   1      37.992  31.308  28.711  1.00  0.00     0.010 A 
ATOM     41  C   UNL A   1      38.051  30.095  29.423  1.00  0.00    -0.014 A 
BRANCH  41  42
ATOM     42  C   UNL A   1      39.228  29.682  30.237  1.00  0.00     0.031 A 
ATOM     43  C   UNL A   1      40.182  28.629  29.732  1.00  0.00     0.074 A 
ATOM     44  C   UNL A   1      39.502  30.334  31.387  1.00  0.00     0.049 A 
ATOM     45  N   UNL A   1      41.248  28.139  30.311  1.00  0.00    -0.248 NA
ATOM     46  C   UNL A   1      39.900  28.045  28.410  1.00  0.00     0.031 C 
ATOM     47  C   UNL A   1      38.688  31.410  31.965  1.00  0.00     0.029 A 
ATOM     48  N   UNL A   1      40.558  30.223  32.255  1.00  0.00    -0.354 N 
ATOM     49  C   UNL A   1      41.734  27.159  29.453  1.00  0.00     0.074 A 
ATOM     50  C   UNL A   1      40.842  27.118  28.314  1.00  0.00     0.031 C 
ATOM     51  C   UNL A   1      39.312  31.906  33.044  1.00  0.00     0.029 A 
ATOM     52  C   UNL A   1      40.522  31.130  33.289  1.00  0.00     0.049 A 
ATOM     53  H   UNL A   1      41.276  29.557  32.148  1.00  0.00     0.167 HD
ATOM     54  C   UNL A   1      42.822  26.363  29.599  1.00  0.00     0.031 A 
ATOM     55  C   UNL A   1      41.351  31.310  34.333  1.00  0.00     0.031 A 
ATOM     56  C   UNL A   1      43.728  26.429  30.715  1.00  0.00     0.049 A 
ATOM     57  C   UNL A   1      42.545  30.411  34.477  1.00  0.00     0.074 A 
ATOM     58  C   UNL A   1      44.851  25.656  30.961  1.00  0.00     0.029 A 
ATOM     59  N   UNL A   1      43.628  27.331  31.764  1.00  0.00    -0.354 N 
ATOM     60  N   UNL A   1      42.948  29.448  33.682  1.00  0.00    -0.248 NA
ATOM     61  C   UNL A   1      43.388  30.616  35.660  1.00  0.00     0.031 C 
ATOM     62  C   UNL A   1      45.411  26.072  32.176  1.00  0.00     0.029 A 
ATOM     63  C   UNL A   1      44.663  27.133  32.662  1.00  0.00     0.049 A 
ATOM     64  H   UNL A   1      42.924  28.013  31.855  1.00  0.00     0.167 HD
ATOM     65  C   UNL A   1      44.099  28.937  34.267  1.00  0.00     0.074 A 
ATOM     66  C   UNL A   1      44.341  29.715  35.466  1.00  0.00     0.031 C 
ATOM     67  C   UNL A   1      44.882  27.910  33.853  1.00  0.00     0.031 A 
BRANCH  54  68
ATOM     68  C   UNL A   1      43.060  25.315  28.544  1.00  0.00    -0.014 A 
ATOM     69  C   UNL A   1      43.833  25.582  27.400  1.00  0.00     0.010 A 
ATOM     70  C   UNL A   1      42.514  24.028  28.715  1.00  0.00     0.010 A 
ATOM     71  C   UNL A   1      44.019  24.596  26.425  1.00  0.00     0.020 A 
ATOM     72  C   UNL A   1      42.717  23.033  27.755  1.00  0.00     0.020 A 
ATOM     73  C   UNL A   1      43.452  23.330  26.606  1.00  0.00     0.054 A 
BRANCH  73  74
ATOM     74  S   UNL A   1      43.711  22.064  25.332  1.00  0.00     0.124 S 
ATOM     75  O   UNL A   1      43.582  22.845  24.104  1.00  0.00    -0.237 OA
ATOM     76  O   UNL A   1      45.055  21.577  25.628  1.00  0.00    -0.237 OA
ATOM     77  O   UNL A   1      42.636  21.104  25.575  1.00  0.00    -0.744 OA
ENDBRANCH  73  74
ENDBRANCH  54  68
BRANCH  55  78
ATOM     78  C   UNL A   1      41.056  32.363  35.342  1.00  0.00    -0.014 A 
ATOM     79  C   UNL A   1      40.170  32.114  36.404  1.00  0.00     0.010 A 
ATOM     80  C   UNL A   1      41.685  33.619  35.256  1.00  0.00     0.010 A 
ATOM     81  C   UNL A   1      39.912  33.105  37.357  1.00  0.00     0.020 A 
ATOM     82  C   UNL A   1      41.453  34.600  36.222  1.00  0.00     0.020 A 
ATOM     83  C   UNL A   1      40.558  34.341  37.261  1.00  0.00     0.054 A 
BRANCH  83  84
ATOM     84  S   UNL A   1      40.266  35.592  38.542  1.00  0.00     0.124 S 
ATOM     85  O   UNL A   1      41.616  35.837  39.038  1.00  0.00    -0.237 OA
ATOM     86  O   UNL A   1      39.660  36.686  37.788  1.00  0.00    -0.237 OA
ATOM     87  O   UNL A   1      39.366  34.918  39.476  1.00  0.00    -0.744 OA
ENDBRANCH  83  84
ENDBRANCH  55  78
BRANCH  67  88
ATOM     88  C   UNL A   1      46.088  27.595  34.695  1.00  0.00    -0.014 A 
ATOM     89  C   UNL A   1      47.322  28.225  34.460  1.00  0.00     0.010 A 
ATOM     90  C   UNL A   1      45.978  26.659  35.739  1.00  0.00     0.010 A 
ATOM     91  C   UNL A   1      48.441  27.888  35.227  1.00  0.00     0.020 A 
ATOM     92  C   UNL A   1      47.089  26.338  36.522  1.00  0.00     0.020 A 
ATOM     93  C   UNL A   1      48.319  26.939  36.247  1.00  0.00     0.054 A 
BRANCH  93  94
ATOM     94  S   UNL A   1      49.781  26.520  37.235  1.00  0.00     0.124 S 
ATOM     95  O   UNL A   1      49.783  25.062  37.168  1.00  0.00    -0.237 OA
ATOM     96  O   UNL A   1      50.863  27.184  36.510  1.00  0.00    -0.237 OA
ATOM     97  O   UNL A   1      49.481  27.084  38.549  1.00  0.00    -0.744 OA
ENDBRANCH  93  94
ENDBRANCH  67  88
ENDBRANCH  41  42
ENDBRANCH  34  36
ENDBRANCH  33  34
ENDBRANCH  32  33
ENDBRANCH  31  32
ENDBRANCH  30  31
ENDBRANCH   1  30
TORSDOF 23
ENDMDL
MODEL 3
REMARK VINA RESULT:      -9.5      0.496      7.942
REMARK SMILES CC(C)[C@H](NC(=O)[C@H](C)NC(=O)CNC(=O)OCc1ccccc1)C(=O)OCCOC(=O)c1ccc(-c2c3nc(c(-c4ccc(S(=O)(=O)[O-])cc4)c4ccc([nH]4)c(-c4ccc(S(=O)(=O)[O-])cc4)c4nc(c(-c5ccc(S(=O)(=O)[O-])cc5)c5ccc2[nH]5)C=C4)C=C3)cc1
REMARK SMILES IDX 25 1 26 2 4 3 2 4 1 5 3 6 5 7 6 8 7 10 8 11 9 12 10 13 11 14
REMARK SMILES IDX 12 16 13 17 14 18 15 19 16 21 17 22 18 23 19 24 20 25 24 26
REMARK SMILES IDX 21 27 23 28 22 29 27 30 28 31 29 32 30 33 31 34 32 35 33 36
REMARK SMILES IDX 34 37 92 38 35 39 91 40 36 41 37 42 38 43 85 44 39 45 90 46
REMARK SMILES IDX 84 47 86 48 40 49 89 50 83 51 82 52 41 54 71 55 52 56 70 57
REMARK SMILES IDX 53 58 56 59 69 60 87 61 54 62 55 63 68 65 88 66 57 67 42 68
REMARK SMILES IDX 43 69 51 70 44 71 50 72 45 73 46 74 47 75 48 76 49 77 72 78
REMARK SMILES IDX 73 79 81 80 74 81 80 82 75 83 76 84 77 85 78 86 79 87 58 88
REMARK SMILES IDX 59 89 67 90 60 91 66 92 61 93 62 94 63 95 64 96 65 97
REMARK H PARENT 5 9 10 15 14 20 86 53 56 64
REMARK Flexibility Score: inf
ROOT
ATOM      1  C   UNL A   1      33.229  28.008  25.403  1.00  0.00     0.329 C 
ATOM      2  O   UNL A   1      34.040  28.389  24.568  1.00  0.00    -0.250 OA
ENDROOT
BRANCH   1   3
ATOM      3  C   UNL A   1      31.915  27.263  25.038  1.00  0.00     0.194 C 
BRANCH   3   4
ATOM      4  C   UNL A   1      30.836  28.140  24.356  1.00  0.00     0.017 C 
ATOM      5  C   UNL A   1      30.944  29.652  24.610  1.00  0.00     0.010 C 
ATOM      6  C   UNL A   1      30.815  27.924  22.837  1.00  0.00     0.010 C 
ENDBRANCH   3   4
BRANCH   3   7
ATOM      7  N   UNL A   1      31.446  26.245  25.997  1.00  0.00    -0.341 N 
ATOM      8  C   UNL A   1      31.270  24.906  26.040  1.00  0.00     0.242 C 
ATOM      9  H   UNL A   1      31.186  26.661  26.851  1.00  0.00     0.164 HD
ATOM     10  O   UNL A   1      30.765  24.471  27.082  1.00  0.00    -0.273 OA
BRANCH   8  11
ATOM     11  C   UNL A   1      31.493  23.978  24.833  1.00  0.00     0.168 C 
ATOM     12  C   UNL A   1      30.613  24.433  23.662  1.00  0.00     0.041 C 
BRANCH  11  13
ATOM     13  N   UNL A   1      31.247  22.555  25.031  1.00  0.00    -0.343 N 
ATOM     14  C   UNL A   1      32.142  21.586  25.399  1.00  0.00     0.240 C 
ATOM     15  H   UNL A   1      30.322  22.253  24.880  1.00  0.00     0.164 HD
ATOM     16  O   UNL A   1      31.849  20.404  25.223  1.00  0.00    -0.273 OA
BRANCH  14  17
ATOM     17  C   UNL A   1      33.495  21.991  25.996  1.00  0.00     0.219 C 
BRANCH  17  18
ATOM     18  N   UNL A   1      34.348  20.825  25.985  1.00  0.00    -0.312 N 
ATOM     19  C   UNL A   1      35.482  20.670  25.252  1.00  0.00     0.407 C 
ATOM     20  H   UNL A   1      34.084  20.073  26.563  1.00  0.00     0.167 HD
ATOM     21  O   UNL A   1      35.922  19.554  25.017  1.00  0.00    -0.225 OA
BRANCH  19  22
ATOM     22  O   UNL A   1      35.999  21.842  24.808  1.00  0.00    -0.445 OA
BRANCH  22  23
ATOM     23  C   UNL A   1      37.396  21.827  24.473  1.00  0.00     0.270 C 
BRANCH  23  24
ATOM     24  C   UNL A   1      38.204  22.450  25.580  1.00  0.00    -0.011 A 
ATOM     25  C   UNL A   1      37.811  23.682  26.124  1.00  0.00     0.007 A 
ATOM     26  C   UNL A   1      39.390  21.860  26.035  1.00  0.00     0.007 A 
ATOM     27  C   UNL A   1      38.603  24.333  27.067  1.00  0.00     0.000 A 
ATOM     28  C   UNL A   1      40.171  22.502  26.999  1.00  0.00     0.000 A 
ATOM     29  C   UNL A   1      39.785  23.743  27.504  1.00  0.00     0.000 A 
ENDBRANCH  23  24
ENDBRANCH  22  23
ENDBRANCH  19  22
ENDBRANCH  17  18
ENDBRANCH  14  17
ENDBRANCH  11  13
ENDBRANCH   8  11
ENDBRANCH   3   7
ENDBRANCH   1   3
BRANCH   1  30
ATOM     30  O   UNL A   1      33.469  28.070  26.743  1.00  0.00    -0.461 OA
BRANCH  30  31
ATOM     31  C   UNL A   1      33.468  29.405  27.297  1.00  0.00     0.274 C 
BRANCH  31  32
ATOM     32  C   UNL A   1      34.887  29.961  27.493  1.00  0.00     0.275 C 
BRANCH  32  33
ATOM     33  O   UNL A   1      35.816  28.980  27.997  1.00  0.00    -0.458 OA
BRANCH  33  34
ATOM     34  C   UNL A   1      36.839  29.504  28.710  1.00  0.00     0.338 C 
ATOM     35  O   UNL A   1      36.749  30.210  29.703  1.00  0.00    -0.246 OA
BRANCH  34  36
ATOM     36  C   UNL A   1      38.144  29.007  28.248  1.00  0.00     0.060 A 
ATOM     37  C   UNL A   1      38.961  28.427  29.210  1.00  0.00     0.016 A 
ATOM     38  C   UNL A   1      38.666  29.334  26.999  1.00  0.00     0.016 A 
ATOM     39  C   UNL A   1      40.327  28.328  29.009  1.00  0.00     0.010 A 
ATOM     40  C   UNL A   1      40.031  29.108  26.747  1.00  0.00     0.010 A 
ATOM     41  C   UNL A   1      40.886  28.657  27.770  1.00  0.00    -0.014 A 
BRANCH  41  42
ATOM     42  C   UNL A   1      42.364  28.552  27.614  1.00  0.00     0.031 A 
ATOM     43  C   UNL A   1      42.992  27.295  27.067  1.00  0.00     0.074 A 
ATOM     44  C   UNL A   1      43.136  29.631  27.862  1.00  0.00     0.049 A 
ATOM     45  N   UNL A   1      44.258  27.025  26.875  1.00  0.00    -0.248 NA
ATOM     46  C   UNL A   1      42.084  26.197  26.693  1.00  0.00     0.031 C 
ATOM     47  C   UNL A   1      42.649  30.928  28.347  1.00  0.00     0.029 A 
ATOM     48  N   UNL A   1      44.484  29.828  27.700  1.00  0.00    -0.354 N 
ATOM     49  C   UNL A   1      44.304  25.715  26.409  1.00  0.00     0.074 A 
ATOM     50  C   UNL A   1      42.937  25.242  26.353  1.00  0.00     0.031 C 
ATOM     51  C   UNL A   1      43.667  31.801  28.371  1.00  0.00     0.029 A 
ATOM     52  C   UNL A   1      44.893  31.110  27.992  1.00  0.00     0.049 A 
ATOM     53  H   UNL A   1      45.101  29.121  27.405  1.00  0.00     0.167 HD
ATOM     54  C   UNL A   1      45.383  24.973  26.061  1.00  0.00     0.031 A 
ATOM     55  C   UNL A   1      46.117  31.668  27.979  1.00  0.00     0.031 A 
ATOM     56  C   UNL A   1      46.739  25.456  26.084  1.00  0.00     0.049 A 
ATOM     57  C   UNL A   1      47.298  30.823  27.598  1.00  0.00     0.074 A 
ATOM     58  C   UNL A   1      47.902  24.777  25.764  1.00  0.00     0.029 A 
ATOM     59  N   UNL A   1      47.113  26.746  26.430  1.00  0.00    -0.354 N 
ATOM     60  N   UNL A   1      47.321  29.567  27.220  1.00  0.00    -0.248 NA
ATOM     61  C   UNL A   1      48.615  31.467  27.650  1.00  0.00     0.031 C 
ATOM     62  C   UNL A   1      48.983  25.649  25.947  1.00  0.00     0.029 A 
ATOM     63  C   UNL A   1      48.488  26.883  26.337  1.00  0.00     0.049 A 
ATOM     64  H   UNL A   1      46.491  27.461  26.701  1.00  0.00     0.167 HD
ATOM     65  C   UNL A   1      48.657  29.272  26.982  1.00  0.00     0.074 A 
ATOM     66  C   UNL A   1      49.406  30.488  27.232  1.00  0.00     0.031 C 
ATOM     67  C   UNL A   1      49.215  28.098  26.598  1.00  0.00     0.031 A 
BRANCH  54  68
ATOM     68  C   UNL A   1      45.141  23.538  25.674  1.00  0.00    -0.014 A 
ATOM     69  C   UNL A   1      44.177  22.750  26.327  1.00  0.00     0.010 A 
ATOM     70  C   UNL A   1      45.882  22.975  24.617  1.00  0.00     0.010 A 
ATOM     71  C   UNL A   1      43.990  21.413  25.961  1.00  0.00     0.020 A 
ATOM     72  C   UNL A   1      45.680  21.647  24.232  1.00  0.00     0.020 A 
ATOM     73  C   UNL A   1      44.749  20.868  24.920  1.00  0.00     0.054 A 
BRANCH  73  74
ATOM     74  S   UNL A   1      44.485  19.133  24.458  1.00  0.00     0.124 S 
ATOM     75  O   UNL A   1      44.598  19.192  23.002  1.00  0.00    -0.237 OA
ATOM     76  O   UNL A   1      45.575  18.446  25.144  1.00  0.00    -0.237 OA
ATOM     77  O   UNL A   1      43.148  18.839  24.967  1.00  0.00    -0.744 OA
ENDBRANCH  73  74
ENDBRANCH  54  68
BRANCH  55  78
ATOM     78  C   UNL A   1      46.287  33.093  28.375  1.00  0.00    -0.014 A 
ATOM     79  C   UNL A   1      46.058  34.128  27.453  1.00  0.00     0.010 A 
ATOM     80  C   UNL A   1      46.653  33.419  29.695  1.00  0.00     0.010 A 
ATOM     81  C   UNL A   1      46.203  35.465  27.840  1.00  0.00     0.020 A 
ATOM     82  C   UNL A   1      46.770  34.753  30.092  1.00  0.00     0.020 A 
ATOM     83  C   UNL A   1      46.554  35.768  29.159  1.00  0.00     0.054 A 
BRANCH  83  84
ATOM     84  S   UNL A   1      46.671  37.507  29.664  1.00  0.00     0.124 S 
ATOM     85  O   UNL A   1      47.535  37.423  30.836  1.00  0.00    -0.237 OA
ATOM     86  O   UNL A   1      47.259  38.142  28.487  1.00  0.00    -0.237 OA
ATOM     87  O   UNL A   1      45.283  37.876  29.931  1.00  0.00    -0.744 OA
ENDBRANCH  83  84
ENDBRANCH  55  78
BRANCH  67  88
ATOM     88  C   UNL A   1      50.706  28.089  26.399  1.00  0.00    -0.014 A 
ATOM     89  C   UNL A   1      51.284  28.580  25.216  1.00  0.00     0.010 A 
ATOM     90  C   UNL A   1      51.537  27.587  27.417  1.00  0.00     0.010 A 
ATOM     91  C   UNL A   1      52.668  28.525  25.033  1.00  0.00     0.020 A 
ATOM     92  C   UNL A   1      52.923  27.553  27.246  1.00  0.00     0.020 A 
ATOM     93  C   UNL A   1      53.478  28.003  26.047  1.00  0.00     0.054 A 
BRANCH  93  94
ATOM     94  S   UNL A   1      55.273  27.945  25.794  1.00  0.00     0.124 S 
ATOM     95  O   UNL A   1      55.542  29.267  25.234  1.00  0.00    -0.237 OA
ATOM     96  O   UNL A   1      55.784  27.719  27.144  1.00  0.00    -0.237 OA
ATOM     97  O   UNL A   1      55.455  26.828  24.870  1.00  0.00    -0.744 OA
ENDBRANCH  93  94
ENDBRANCH  67  88
ENDBRANCH  41  42
ENDBRANCH  34  36
ENDBRANCH  33  34
ENDBRANCH  32  33
ENDBRANCH  31  32
ENDBRANCH  30  31
ENDBRANCH   1  30
TORSDOF 23
ENDMDL
