MODEL 1
REMARK VINA RESULT:     -10.3      0.000      0.000
REMARK SMILES Cc1nn(C)c(C)c1CN(C)C(=O)[C@@H]1CC=CC[C@@H]1C(=O)OCCOC(=O)c1ccc(-c2c3nc(c(-c4ccc(S(=O)(=O)[O-])cc4)c4ccc([nH]4)c(-c4ccc(S(=O)(=O)[O-])cc4)c4nc(c(-c5ccc(S(=O)(=O)[O-])cc5)c5ccc2[nH]5)C=C4)C=C3)cc1
REMARK SMILES IDX 23 1 22 2 20 3 21 4 19 5 14 6 15 7 16 8 18 9 17 10 12 11
REMARK SMILES IDX 13 12 10 13 11 14 9 15 8 16 1 17 2 18 3 19 4 20 6 21 5 22
REMARK SMILES IDX 7 23 24 24 25 25 26 26 27 27 28 28 29 29 87 30 30 31 86 32
REMARK SMILES IDX 31 33 32 34 33 35 80 36 34 37 85 38 79 39 81 40 35 41 84 42
REMARK SMILES IDX 78 43 77 44 36 46 66 47 47 48 65 49 48 50 51 51 64 52 82 53
REMARK SMILES IDX 49 54 50 55 63 57 83 58 52 59 37 60 38 61 46 62 39 63 45 64
REMARK SMILES IDX 40 65 41 66 42 67 43 68 44 69 67 70 68 71 76 72 69 73 75 74
REMARK SMILES IDX 70 75 71 76 72 77 73 78 74 79 53 80 54 81 62 82 55 83 61 84
REMARK SMILES IDX 56 85 57 86 58 87 59 88 60 89
REMARK H PARENT 81 45 51 56
REMARK Flexibility Score: inf
ROOT
ATOM      1  C   UNL A   1      36.454  22.550  23.912  1.00  0.00     0.274 C 
ENDROOT
BRANCH   1   2
ATOM      2  O   UNL A   1      35.094  22.164  24.228  1.00  0.00    -0.462 OA
BRANCH   2   3
ATOM      3  C   UNL A   1      34.360  23.068  24.944  1.00  0.00     0.310 C 
ATOM      4  O   UNL A   1      34.746  23.570  25.991  1.00  0.00    -0.252 OA
BRANCH   3   5
ATOM      5  C   UNL A   1      32.961  23.240  24.332  1.00  0.00     0.115 C 
ATOM      6  C   UNL A   1      31.774  22.923  25.272  1.00  0.00     0.097 C 
ATOM      7  C   UNL A   1      31.840  21.472  25.789  1.00  0.00     0.041 C 
ATOM      8  C   UNL A   1      32.128  20.499  24.674  1.00  0.00    -0.030 C 
ATOM      9  C   UNL A   1      32.856  22.313  23.103  1.00  0.00     0.043 C 
ATOM     10  C   UNL A   1      32.556  20.879  23.459  1.00  0.00    -0.030 C 
BRANCH   6  11
ATOM     11  C   UNL A   1      31.592  23.951  26.388  1.00  0.00     0.226 C 
ATOM     12  O   UNL A   1      31.642  23.603  27.562  1.00  0.00    -0.275 OA
BRANCH  11  13
ATOM     13  N   UNL A   1      31.268  25.248  26.003  1.00  0.00    -0.341 N 
ATOM     14  C   UNL A   1      29.874  25.617  25.869  1.00  0.00     0.147 C 
BRANCH  13  15
ATOM     15  C   UNL A   1      32.272  26.327  26.012  1.00  0.00     0.158 C 
BRANCH  15  16
ATOM     16  C   UNL A   1      31.924  27.518  25.195  1.00  0.00     0.015 A 
ATOM     17  C   UNL A   1      31.815  29.418  27.030  1.00  0.00     0.069 C 
ATOM     18  C   UNL A   1      31.671  28.841  25.671  1.00  0.00     0.065 A 
ATOM     19  N   UNL A   1      31.278  29.648  24.683  1.00  0.00    -0.178 NA
ATOM     20  N   UNL A   1      31.232  28.850  23.606  1.00  0.00    -0.272 N 
ATOM     21  C   UNL A   1      31.822  27.635  23.817  1.00  0.00     0.040 A 
ATOM     22  C   UNL A   1      30.564  29.317  22.416  1.00  0.00     0.174 C 
ATOM     23  C   UNL A   1      32.137  26.695  22.720  1.00  0.00     0.067 C 
ENDBRANCH  15  16
ENDBRANCH  13  15
ENDBRANCH  11  13
ENDBRANCH   6  11
ENDBRANCH   3   5
ENDBRANCH   2   3
ENDBRANCH   1   2
BRANCH   1  24
ATOM     24  C   UNL A   1      37.535  21.802  24.711  1.00  0.00     0.275 C 
BRANCH  24  25
ATOM     25  O   UNL A   1      37.809  22.378  26.008  1.00  0.00    -0.458 OA
BRANCH  25  26
ATOM     26  C   UNL A   1      39.123  22.337  26.320  1.00  0.00     0.338 C 
ATOM     27  O   UNL A   1      39.907  21.501  25.894  1.00  0.00    -0.246 OA
BRANCH  26  28
ATOM     28  C   UNL A   1      39.592  23.444  27.179  1.00  0.00     0.060 A 
ATOM     29  C   UNL A   1      39.212  24.706  26.756  1.00  0.00     0.016 A 
ATOM     30  C   UNL A   1      40.602  23.324  28.135  1.00  0.00     0.016 A 
ATOM     31  C   UNL A   1      39.937  25.830  27.134  1.00  0.00     0.010 A 
ATOM     32  C   UNL A   1      41.266  24.484  28.605  1.00  0.00     0.010 A 
ATOM     33  C   UNL A   1      40.979  25.753  28.069  1.00  0.00    -0.014 A 
BRANCH  33  34
ATOM     34  C   UNL A   1      41.675  27.031  28.431  1.00  0.00     0.031 A 
ATOM     35  C   UNL A   1      43.118  27.312  28.067  1.00  0.00     0.074 A 
ATOM     36  C   UNL A   1      40.930  28.049  28.920  1.00  0.00     0.049 A 
ATOM     37  N   UNL A   1      43.735  28.472  28.008  1.00  0.00    -0.248 NA
ATOM     38  C   UNL A   1      43.963  26.177  27.674  1.00  0.00     0.031 C 
ATOM     39  C   UNL A   1      39.511  27.959  29.279  1.00  0.00     0.029 A 
ATOM     40  N   UNL A   1      41.245  29.366  29.156  1.00  0.00    -0.354 N 
ATOM     41  C   UNL A   1      44.979  28.217  27.434  1.00  0.00     0.074 A 
ATOM     42  C   UNL A   1      45.077  26.783  27.276  1.00  0.00     0.031 C 
ATOM     43  C   UNL A   1      39.073  29.169  29.653  1.00  0.00     0.029 A 
ATOM     44  C   UNL A   1      40.188  30.108  29.629  1.00  0.00     0.049 A 
ATOM     45  H   UNL A   1      42.142  29.742  29.001  1.00  0.00     0.167 HD
ATOM     46  C   UNL A   1      45.910  29.102  26.997  1.00  0.00     0.031 A 
ATOM     47  C   UNL A   1      40.117  31.390  30.037  1.00  0.00     0.031 A 
ATOM     48  C   UNL A   1      45.880  30.516  27.266  1.00  0.00     0.049 A 
ATOM     49  C   UNL A   1      41.331  32.264  29.922  1.00  0.00     0.074 A 
ATOM     50  C   UNL A   1      46.811  31.482  26.922  1.00  0.00     0.029 A 
ATOM     51  N   UNL A   1      44.900  31.158  28.005  1.00  0.00    -0.354 N 
ATOM     52  N   UNL A   1      42.457  32.023  29.298  1.00  0.00    -0.248 NA
ATOM     53  C   UNL A   1      41.268  33.578  30.575  1.00  0.00     0.031 C 
ATOM     54  C   UNL A   1      46.439  32.688  27.532  1.00  0.00     0.029 A 
ATOM     55  C   UNL A   1      45.246  32.485  28.206  1.00  0.00     0.049 A 
ATOM     56  H   UNL A   1      44.078  30.733  28.341  1.00  0.00     0.167 HD
ATOM     57  C   UNL A   1      43.234  33.163  29.469  1.00  0.00     0.074 A 
ATOM     58  C   UNL A   1      42.443  34.097  30.244  1.00  0.00     0.031 C 
ATOM     59  C   UNL A   1      44.487  33.408  29.011  1.00  0.00     0.031 A 
BRANCH  46  60
ATOM     60  C   UNL A   1      47.043  28.580  26.150  1.00  0.00    -0.014 A 
ATOM     61  C   UNL A   1      46.804  28.220  24.809  1.00  0.00     0.010 A 
ATOM     62  C   UNL A   1      48.360  28.541  26.634  1.00  0.00     0.010 A 
ATOM     63  C   UNL A   1      47.845  27.794  23.981  1.00  0.00     0.020 A 
ATOM     64  C   UNL A   1      49.411  28.130  25.803  1.00  0.00     0.020 A 
ATOM     65  C   UNL A   1      49.146  27.747  24.485  1.00  0.00     0.054 A 
BRANCH  65  66
ATOM     66  S   UNL A   1      50.484  27.227  23.374  1.00  0.00     0.124 S 
ATOM     67  O   UNL A   1      49.747  26.595  22.282  1.00  0.00    -0.237 OA
ATOM     68  O   UNL A   1      51.136  28.490  23.043  1.00  0.00    -0.237 OA
ATOM     69  O   UNL A   1      51.281  26.316  24.194  1.00  0.00    -0.744 OA
ENDBRANCH  65  66
ENDBRANCH  46  60
BRANCH  47  70
ATOM     70  C   UNL A   1      38.877  31.875  30.707  1.00  0.00    -0.014 A 
ATOM     71  C   UNL A   1      37.841  32.502  29.997  1.00  0.00     0.010 A 
ATOM     72  C   UNL A   1      38.741  31.697  32.099  1.00  0.00     0.010 A 
ATOM     73  C   UNL A   1      36.694  32.943  30.668  1.00  0.00     0.020 A 
ATOM     74  C   UNL A   1      37.587  32.103  32.765  1.00  0.00     0.020 A 
ATOM     75  C   UNL A   1      36.574  32.737  32.048  1.00  0.00     0.054 A 
BRANCH  75  76
ATOM     76  S   UNL A   1      35.061  33.261  32.899  1.00  0.00     0.124 S 
ATOM     77  O   UNL A   1      35.353  32.904  34.283  1.00  0.00    -0.237 OA
ATOM     78  O   UNL A   1      35.010  34.693  32.611  1.00  0.00    -0.237 OA
ATOM     79  O   UNL A   1      34.015  32.469  32.254  1.00  0.00    -0.744 OA
ENDBRANCH  75  76
ENDBRANCH  47  70
BRANCH  59  80
ATOM     80  C   UNL A   1      45.085  34.747  29.344  1.00  0.00    -0.014 A 
ATOM     81  C   UNL A   1      45.848  34.926  30.512  1.00  0.00     0.010 A 
ATOM     82  C   UNL A   1      44.876  35.844  28.489  1.00  0.00     0.010 A 
ATOM     83  C   UNL A   1      46.350  36.188  30.845  1.00  0.00     0.020 A 
ATOM     84  C   UNL A   1      45.400  37.101  28.804  1.00  0.00     0.020 A 
ATOM     85  C   UNL A   1      46.114  37.271  29.992  1.00  0.00     0.054 A 
BRANCH  85  86
ATOM     86  S   UNL A   1      46.772  38.901  30.439  1.00  0.00     0.124 S 
ATOM     87  O   UNL A   1      46.326  39.726  29.320  1.00  0.00    -0.237 OA
ATOM     88  O   UNL A   1      46.121  39.174  31.719  1.00  0.00    -0.237 OA
ATOM     89  O   UNL A   1      48.214  38.681  30.517  1.00  0.00    -0.744 OA
ENDBRANCH  85  86
ENDBRANCH  59  80
ENDBRANCH  33  34
ENDBRANCH  26  28
ENDBRANCH  25  26
ENDBRANCH  24  25
ENDBRANCH   1  24
TORSDOF 18
ENDMDL
MODEL 2
REMARK VINA RESULT:     -10.3      2.128      3.152
REMARK SMILES Cc1nn(C)c(C)c1CN(C)C(=O)[C@@H]1CC=CC[C@@H]1C(=O)OCCOC(=O)c1ccc(-c2c3nc(c(-c4ccc(S(=O)(=O)[O-])cc4)c4ccc([nH]4)c(-c4ccc(S(=O)(=O)[O-])cc4)c4nc(c(-c5ccc(S(=O)(=O)[O-])cc5)c5ccc2[nH]5)C=C4)C=C3)cc1
REMARK SMILES IDX 23 1 22 2 20 3 21 4 19 5 14 6 15 7 16 8 18 9 17 10 12 11
REMARK SMILES IDX 13 12 10 13 11 14 9 15 8 16 1 17 2 18 3 19 4 20 6 21 5 22
REMARK SMILES IDX 7 23 24 24 25 25 26 26 27 27 28 28 29 29 87 30 30 31 86 32
REMARK SMILES IDX 31 33 32 34 33 35 80 36 34 37 85 38 79 39 81 40 35 41 84 42
REMARK SMILES IDX 78 43 77 44 36 46 66 47 47 48 65 49 48 50 51 51 64 52 82 53
REMARK SMILES IDX 49 54 50 55 63 57 83 58 52 59 37 60 38 61 46 62 39 63 45 64
REMARK SMILES IDX 40 65 41 66 42 67 43 68 44 69 67 70 68 71 76 72 69 73 75 74
REMARK SMILES IDX 70 75 71 76 72 77 73 78 74 79 53 80 54 81 62 82 55 83 61 84
REMARK SMILES IDX 56 85 57 86 58 87 59 88 60 89
REMARK H PARENT 81 45 51 56
REMARK Flexibility Score: inf
ROOT
ATOM      1  C   UNL A   1      38.262  21.936  25.753  1.00  0.00     0.274 C 
ENDROOT
BRANCH   1   2
ATOM      2  O   UNL A   1      37.007  21.972  25.031  1.00  0.00    -0.462 OA
BRANCH   2   3
ATOM      3  C   UNL A   1      36.249  23.099  25.194  1.00  0.00     0.310 C 
ATOM      4  O   UNL A   1      36.626  24.077  25.824  1.00  0.00    -0.252 OA
BRANCH   3   5
ATOM      5  C   UNL A   1      34.842  22.896  24.611  1.00  0.00     0.115 C 
ATOM      6  C   UNL A   1      33.711  23.700  25.295  1.00  0.00     0.097 C 
ATOM      7  C   UNL A   1      33.606  23.357  26.795  1.00  0.00     0.041 C 
ATOM      8  C   UNL A   1      33.645  21.868  27.026  1.00  0.00    -0.030 C 
ATOM      9  C   UNL A   1      34.490  21.398  24.713  1.00  0.00     0.043 C 
ATOM     10  C   UNL A   1      34.013  20.986  26.082  1.00  0.00    -0.030 C 
BRANCH   6  11
ATOM     11  C   UNL A   1      33.785  25.202  25.026  1.00  0.00     0.226 C 
ATOM     12  O   UNL A   1      34.471  25.925  25.741  1.00  0.00    -0.275 OA
BRANCH  11  13
ATOM     13  N   UNL A   1      32.967  25.703  24.019  1.00  0.00    -0.341 N 
ATOM     14  C   UNL A   1      33.399  25.599  22.641  1.00  0.00     0.147 C 
BRANCH  13  15
ATOM     15  C   UNL A   1      31.562  26.065  24.278  1.00  0.00     0.158 C 
BRANCH  15  16
ATOM     16  C   UNL A   1      31.331  27.495  24.611  1.00  0.00     0.015 A 
ATOM     17  C   UNL A   1      30.276  28.409  22.366  1.00  0.00     0.069 C 
ATOM     18  C   UNL A   1      30.826  28.508  23.741  1.00  0.00     0.065 A 
ATOM     19  N   UNL A   1      30.845  29.708  24.325  1.00  0.00    -0.178 NA
ATOM     20  N   UNL A   1      31.397  29.479  25.526  1.00  0.00    -0.272 N 
ATOM     21  C   UNL A   1      31.493  28.148  25.824  1.00  0.00     0.040 A 
ATOM     22  C   UNL A   1      31.845  30.599  26.317  1.00  0.00     0.174 C 
ATOM     23  C   UNL A   1      31.809  27.649  27.180  1.00  0.00     0.067 C 
ENDBRANCH  15  16
ENDBRANCH  13  15
ENDBRANCH  11  13
ENDBRANCH   6  11
ENDBRANCH   3   5
ENDBRANCH   2   3
ENDBRANCH   1   2
BRANCH   1  24
ATOM     24  C   UNL A   1      39.070  20.640  25.571  1.00  0.00     0.275 C 
BRANCH  24  25
ATOM     25  O   UNL A   1      39.952  20.339  26.675  1.00  0.00    -0.458 OA
BRANCH  25  26
ATOM     26  C   UNL A   1      41.203  20.036  26.264  1.00  0.00     0.338 C 
ATOM     27  O   UNL A   1      41.513  18.989  25.715  1.00  0.00    -0.246 OA
BRANCH  26  28
ATOM     28  C   UNL A   1      42.197  21.111  26.457  1.00  0.00     0.060 A 
ATOM     29  C   UNL A   1      42.405  21.479  27.775  1.00  0.00     0.016 A 
ATOM     30  C   UNL A   1      42.661  21.946  25.438  1.00  0.00     0.016 A 
ATOM     31  C   UNL A   1      42.901  22.738  28.092  1.00  0.00     0.010 A 
ATOM     32  C   UNL A   1      43.271  23.183  25.766  1.00  0.00     0.010 A 
ATOM     33  C   UNL A   1      43.351  23.621  27.100  1.00  0.00    -0.014 A 
BRANCH  33  34
ATOM     34  C   UNL A   1      43.899  24.942  27.553  1.00  0.00     0.031 A 
ATOM     35  C   UNL A   1      45.371  25.290  27.475  1.00  0.00     0.074 A 
ATOM     36  C   UNL A   1      43.025  25.930  27.850  1.00  0.00     0.049 A 
ATOM     37  N   UNL A   1      45.933  26.479  27.503  1.00  0.00    -0.248 NA
ATOM     38  C   UNL A   1      46.330  24.193  27.295  1.00  0.00     0.031 C 
ATOM     39  C   UNL A   1      41.568  25.774  27.921  1.00  0.00     0.029 A 
ATOM     40  N   UNL A   1      43.223  27.267  28.101  1.00  0.00    -0.354 N 
ATOM     41  C   UNL A   1      47.277  26.277  27.197  1.00  0.00     0.074 A 
ATOM     42  C   UNL A   1      47.472  24.847  27.108  1.00  0.00     0.031 C 
ATOM     43  C   UNL A   1      41.007  26.968  28.160  1.00  0.00     0.029 A 
ATOM     44  C   UNL A   1      42.060  27.963  28.329  1.00  0.00     0.049 A 
ATOM     45  H   UNL A   1      44.114  27.686  28.116  1.00  0.00     0.167 HD
ATOM     46  C   UNL A   1      48.234  27.200  26.926  1.00  0.00     0.031 A 
ATOM     47  C   UNL A   1      41.848  29.248  28.674  1.00  0.00     0.031 A 
ATOM     48  C   UNL A   1      48.084  28.617  27.138  1.00  0.00     0.049 A 
ATOM     49  C   UNL A   1      43.018  30.182  28.775  1.00  0.00     0.074 A 
ATOM     50  C   UNL A   1      49.020  29.622  26.955  1.00  0.00     0.029 A 
ATOM     51  N   UNL A   1      46.947  29.222  27.646  1.00  0.00    -0.354 N 
ATOM     52  N   UNL A   1      44.256  29.987  28.397  1.00  0.00    -0.248 NA
ATOM     53  C   UNL A   1      42.763  31.505  29.360  1.00  0.00     0.031 C 
ATOM     54  C   UNL A   1      48.476  30.820  27.440  1.00  0.00     0.029 A 
ATOM     55  C   UNL A   1      47.183  30.570  27.869  1.00  0.00     0.049 A 
ATOM     56  H   UNL A   1      46.095  28.762  27.824  1.00  0.00     0.167 HD
ATOM     57  C   UNL A   1      44.929  31.169  28.682  1.00  0.00     0.074 A 
ATOM     58  C   UNL A   1      43.955  32.077  29.253  1.00  0.00     0.031 C 
ATOM     59  C   UNL A   1      46.235  31.469  28.476  1.00  0.00     0.031 A 
BRANCH  46  60
ATOM     60  C   UNL A   1      49.538  26.720  26.339  1.00  0.00    -0.014 A 
ATOM     61  C   UNL A   1      49.707  26.694  24.941  1.00  0.00     0.010 A 
ATOM     62  C   UNL A   1      50.631  26.394  27.157  1.00  0.00     0.010 A 
ATOM     63  C   UNL A   1      50.923  26.315  24.370  1.00  0.00     0.020 A 
ATOM     64  C   UNL A   1      51.859  26.028  26.589  1.00  0.00     0.020 A 
ATOM     65  C   UNL A   1      51.994  25.979  25.199  1.00  0.00     0.054 A 
BRANCH  65  66
ATOM     66  S   UNL A   1      53.575  25.528  24.428  1.00  0.00     0.124 S 
ATOM     67  O   UNL A   1      54.532  26.305  25.212  1.00  0.00    -0.237 OA
ATOM     68  O   UNL A   1      53.629  24.082  24.626  1.00  0.00    -0.237 OA
ATOM     69  O   UNL A   1      53.418  25.956  23.039  1.00  0.00    -0.744 OA
ENDBRANCH  65  66
ENDBRANCH  46  60
BRANCH  47  70
ATOM     70  C   UNL A   1      40.477  29.682  29.066  1.00  0.00    -0.014 A 
ATOM     71  C   UNL A   1      39.445  29.837  28.128  1.00  0.00     0.010 A 
ATOM     72  C   UNL A   1      40.210  29.945  30.425  1.00  0.00     0.010 A 
ATOM     73  C   UNL A   1      38.172  30.248  28.542  1.00  0.00     0.020 A 
ATOM     74  C   UNL A   1      38.936  30.322  30.847  1.00  0.00     0.020 A 
ATOM     75  C   UNL A   1      37.926  30.485  29.900  1.00  0.00     0.054 A 
BRANCH  75  76
ATOM     76  S   UNL A   1      36.260  30.963  30.435  1.00  0.00     0.124 S 
ATOM     77  O   UNL A   1      36.500  32.269  31.039  1.00  0.00    -0.237 OA
ATOM     78  O   UNL A   1      35.512  30.973  29.180  1.00  0.00    -0.237 OA
ATOM     79  O   UNL A   1      35.883  29.900  31.365  1.00  0.00    -0.744 OA
ENDBRANCH  75  76
ENDBRANCH  47  70
BRANCH  59  80
ATOM     80  C   UNL A   1      46.690  32.845  28.878  1.00  0.00    -0.014 A 
ATOM     81  C   UNL A   1      47.225  33.083  30.158  1.00  0.00     0.010 A 
ATOM     82  C   UNL A   1      46.576  33.917  27.975  1.00  0.00     0.010 A 
ATOM     83  C   UNL A   1      47.590  34.376  30.545  1.00  0.00     0.020 A 
ATOM     84  C   UNL A   1      46.966  35.207  28.348  1.00  0.00     0.020 A 
ATOM     85  C   UNL A   1      47.449  35.432  29.639  1.00  0.00     0.054 A 
BRANCH  85  86
ATOM     86  S   UNL A   1      47.927  37.103  30.157  1.00  0.00     0.124 S 
ATOM     87  O   UNL A   1      46.640  37.793  30.184  1.00  0.00    -0.237 OA
ATOM     88  O   UNL A   1      48.545  36.875  31.463  1.00  0.00    -0.237 OA
ATOM     89  O   UNL A   1      48.847  37.540  29.110  1.00  0.00    -0.744 OA
ENDBRANCH  85  86
ENDBRANCH  59  80
ENDBRANCH  33  34
ENDBRANCH  26  28
ENDBRANCH  25  26
ENDBRANCH  24  25
ENDBRANCH   1  24
TORSDOF 18
ENDMDL
MODEL 3
REMARK VINA RESULT:     -10.2      4.725      9.818
REMARK SMILES Cc1nn(C)c(C)c1CN(C)C(=O)[C@@H]1CC=CC[C@@H]1C(=O)OCCOC(=O)c1ccc(-c2c3nc(c(-c4ccc(S(=O)(=O)[O-])cc4)c4ccc([nH]4)c(-c4ccc(S(=O)(=O)[O-])cc4)c4nc(c(-c5ccc(S(=O)(=O)[O-])cc5)c5ccc2[nH]5)C=C4)C=C3)cc1
REMARK SMILES IDX 23 1 22 2 20 3 21 4 19 5 14 6 15 7 16 8 18 9 17 10 12 11
REMARK SMILES IDX 13 12 10 13 11 14 9 15 8 16 1 17 2 18 3 19 4 20 6 21 5 22
REMARK SMILES IDX 7 23 24 24 25 25 26 26 27 27 28 28 29 29 87 30 30 31 86 32
REMARK SMILES IDX 31 33 32 34 33 35 80 36 34 37 85 38 79 39 81 40 35 41 84 42
REMARK SMILES IDX 78 43 77 44 36 46 66 47 47 48 65 49 48 50 51 51 64 52 82 53
REMARK SMILES IDX 49 54 50 55 63 57 83 58 52 59 37 60 38 61 46 62 39 63 45 64
REMARK SMILES IDX 40 65 41 66 42 67 43 68 44 69 67 70 68 71 76 72 69 73 75 74
REMARK SMILES IDX 70 75 71 76 72 77 73 78 74 79 53 80 54 81 62 82 55 83 61 84
REMARK SMILES IDX 56 85 57 86 58 87 59 88 60 89
REMARK H PARENT 81 45 51 56
REMARK Flexibility Score: inf
ROOT
ATOM      1  C   UNL A   1      33.643  27.914  25.782  1.00  0.00     0.274 C 
ENDROOT
BRANCH   1   2
ATOM      2  O   UNL A   1      34.116  26.562  25.995  1.00  0.00    -0.462 OA
BRANCH   2   3
ATOM      3  C   UNL A   1      33.186  25.569  25.863  1.00  0.00     0.310 C 
ATOM      4  O   UNL A   1      32.111  25.573  26.448  1.00  0.00    -0.252 OA
BRANCH   3   5
ATOM      5  C   UNL A   1      33.740  24.412  25.017  1.00  0.00     0.115 C 
ATOM      6  C   UNL A   1      33.156  23.014  25.327  1.00  0.00     0.097 C 
ATOM      7  C   UNL A   1      33.397  22.620  26.799  1.00  0.00     0.041 C 
ATOM      8  C   UNL A   1      34.818  22.895  27.221  1.00  0.00    -0.030 C 
ATOM      9  C   UNL A   1      35.266  24.349  25.228  1.00  0.00     0.043 C 
ATOM     10  C   UNL A   1      35.666  23.647  26.500  1.00  0.00    -0.030 C 
BRANCH   6  11
ATOM     11  C   UNL A   1      31.700  22.853  24.893  1.00  0.00     0.226 C 
ATOM     12  O   UNL A   1      30.843  22.537  25.709  1.00  0.00    -0.275 OA
BRANCH  11  13
ATOM     13  N   UNL A   1      31.432  22.977  23.533  1.00  0.00    -0.341 N 
ATOM     14  C   UNL A   1      32.006  22.021  22.610  1.00  0.00     0.147 C 
BRANCH  13  15
ATOM     15  C   UNL A   1      30.360  23.860  23.038  1.00  0.00     0.158 C 
BRANCH  15  16
ATOM     16  C   UNL A   1      30.702  25.305  23.000  1.00  0.00     0.015 A 
ATOM     17  C   UNL A   1      32.863  25.309  21.478  1.00  0.00     0.069 C 
ATOM     18  C   UNL A   1      31.832  25.904  22.363  1.00  0.00     0.065 A 
ATOM     19  N   UNL A   1      31.897  27.213  22.614  1.00  0.00    -0.178 NA
ATOM     20  N   UNL A   1      30.861  27.442  23.434  1.00  0.00    -0.272 N 
ATOM     21  C   UNL A   1      29.996  26.385  23.509  1.00  0.00     0.040 A 
ATOM     22  C   UNL A   1      30.793  28.695  24.145  1.00  0.00     0.174 C 
ATOM     23  C   UNL A   1      28.655  26.488  24.122  1.00  0.00     0.067 C 
ENDBRANCH  15  16
ENDBRANCH  13  15
ENDBRANCH  11  13
ENDBRANCH   6  11
ENDBRANCH   3   5
ENDBRANCH   2   3
ENDBRANCH   1   2
BRANCH   1  24
ATOM     24  C   UNL A   1      33.521  28.760  27.061  1.00  0.00     0.275 C 
BRANCH  24  25
ATOM     25  O   UNL A   1      33.709  30.176  26.848  1.00  0.00    -0.458 OA
BRANCH  25  26
ATOM     26  C   UNL A   1      34.469  30.744  27.810  1.00  0.00     0.338 C 
ATOM     27  O   UNL A   1      34.118  31.695  28.493  1.00  0.00    -0.246 OA
BRANCH  26  28
ATOM     28  C   UNL A   1      35.766  30.079  28.051  1.00  0.00     0.060 A 
ATOM     29  C   UNL A   1      35.987  29.697  29.363  1.00  0.00     0.016 A 
ATOM     30  C   UNL A   1      36.842  30.111  27.163  1.00  0.00     0.016 A 
ATOM     31  C   UNL A   1      37.279  29.522  29.844  1.00  0.00     0.010 A 
ATOM     32  C   UNL A   1      38.148  29.820  27.631  1.00  0.00     0.010 A 
ATOM     33  C   UNL A   1      38.392  29.574  28.994  1.00  0.00    -0.014 A 
BRANCH  33  34
ATOM     34  C   UNL A   1      39.740  29.338  29.611  1.00  0.00     0.031 A 
ATOM     35  C   UNL A   1      40.240  30.113  30.812  1.00  0.00     0.074 A 
ATOM     36  C   UNL A   1      40.447  28.258  29.207  1.00  0.00     0.049 A 
ATOM     37  N   UNL A   1      41.207  29.795  31.645  1.00  0.00    -0.248 NA
ATOM     38  C   UNL A   1      39.554  31.363  31.160  1.00  0.00     0.031 C 
ATOM     39  C   UNL A   1      40.080  27.377  28.095  1.00  0.00     0.029 A 
ATOM     40  N   UNL A   1      41.595  27.691  29.710  1.00  0.00    -0.354 N 
ATOM     41  C   UNL A   1      41.141  30.721  32.683  1.00  0.00     0.074 A 
ATOM     42  C   UNL A   1      40.123  31.682  32.318  1.00  0.00     0.031 C 
ATOM     43  C   UNL A   1      40.958  26.366  28.024  1.00  0.00     0.029 A 
ATOM     44  C   UNL A   1      41.991  26.560  29.035  1.00  0.00     0.049 A 
ATOM     45  H   UNL A   1      42.085  28.059  30.480  1.00  0.00     0.167 HD
ATOM     46  C   UNL A   1      41.801  30.717  33.869  1.00  0.00     0.031 A 
ATOM     47  C   UNL A   1      43.078  25.778  29.177  1.00  0.00     0.031 A 
ATOM     48  C   UNL A   1      42.902  29.845  34.185  1.00  0.00     0.049 A 
ATOM     49  C   UNL A   1      44.046  26.063  30.287  1.00  0.00     0.074 A 
ATOM     50  C   UNL A   1      43.677  29.811  35.334  1.00  0.00     0.029 A 
ATOM     51  N   UNL A   1      43.433  28.899  33.323  1.00  0.00    -0.354 N 
ATOM     52  N   UNL A   1      43.912  26.884  31.300  1.00  0.00    -0.248 NA
ATOM     53  C   UNL A   1      45.316  25.325  30.269  1.00  0.00     0.031 C 
ATOM     54  C   UNL A   1      44.729  28.909  35.127  1.00  0.00     0.029 A 
ATOM     55  C   UNL A   1      44.575  28.340  33.874  1.00  0.00     0.049 A 
ATOM     56  H   UNL A   1      43.054  28.660  32.446  1.00  0.00     0.167 HD
ATOM     57  C   UNL A   1      45.074  26.750  32.050  1.00  0.00     0.074 A 
ATOM     58  C   UNL A   1      45.893  25.760  31.380  1.00  0.00     0.031 C 
ATOM     59  C   UNL A   1      45.419  27.388  33.196  1.00  0.00     0.031 A 
BRANCH  46  60
ATOM     60  C   UNL A   1      41.339  31.671  34.942  1.00  0.00    -0.014 A 
ATOM     61  C   UNL A   1      41.898  32.962  35.017  1.00  0.00     0.010 A 
ATOM     62  C   UNL A   1      40.286  31.340  35.809  1.00  0.00     0.010 A 
ATOM     63  C   UNL A   1      41.446  33.888  35.960  1.00  0.00     0.020 A 
ATOM     64  C   UNL A   1      39.817  32.271  36.745  1.00  0.00     0.020 A 
ATOM     65  C   UNL A   1      40.408  33.535  36.824  1.00  0.00     0.054 A 
BRANCH  65  66
ATOM     66  S   UNL A   1      39.815  34.774  38.011  1.00  0.00     0.124 S 
ATOM     67  O   UNL A   1      40.893  34.794  38.997  1.00  0.00    -0.237 OA
ATOM     68  O   UNL A   1      39.695  35.976  37.190  1.00  0.00    -0.237 OA
ATOM     69  O   UNL A   1      38.549  34.221  38.486  1.00  0.00    -0.744 OA
ENDBRANCH  65  66
ENDBRANCH  46  60
BRANCH  47  70
ATOM     70  C   UNL A   1      43.360  24.728  28.157  1.00  0.00    -0.014 A 
ATOM     71  C   UNL A   1      44.036  25.012  26.961  1.00  0.00     0.010 A 
ATOM     72  C   UNL A   1      42.933  23.408  28.404  1.00  0.00     0.010 A 
ATOM     73  C   UNL A   1      44.279  23.993  26.030  1.00  0.00     0.020 A 
ATOM     74  C   UNL A   1      43.202  22.385  27.497  1.00  0.00     0.020 A 
ATOM     75  C   UNL A   1      43.862  22.686  26.307  1.00  0.00     0.054 A 
BRANCH  75  76
ATOM     76  S   UNL A   1      44.230  21.363  25.122  1.00  0.00     0.124 S 
ATOM     77  O   UNL A   1      44.229  22.084  23.854  1.00  0.00    -0.237 OA
ATOM     78  O   UNL A   1      45.532  20.879  25.576  1.00  0.00    -0.237 OA
ATOM     79  O   UNL A   1      43.127  20.421  25.310  1.00  0.00    -0.744 OA
ENDBRANCH  75  76
ENDBRANCH  47  70
BRANCH  59  80
ATOM     80  C   UNL A   1      46.750  27.034  33.801  1.00  0.00    -0.014 A 
ATOM     81  C   UNL A   1      47.903  27.778  33.490  1.00  0.00     0.010 A 
ATOM     82  C   UNL A   1      46.857  25.942  34.680  1.00  0.00     0.010 A 
ATOM     83  C   UNL A   1      49.147  27.406  34.008  1.00  0.00     0.020 A 
ATOM     84  C   UNL A   1      48.094  25.584  35.223  1.00  0.00     0.020 A 
ATOM     85  C   UNL A   1      49.235  26.304  34.865  1.00  0.00     0.054 A 
BRANCH  85  86
ATOM     86  S   UNL A   1      50.858  25.836  35.528  1.00  0.00     0.124 S 
ATOM     87  O   UNL A   1      51.560  25.392  34.327  1.00  0.00    -0.237 OA
ATOM     88  O   UNL A   1      51.343  27.084  36.114  1.00  0.00    -0.237 OA
ATOM     89  O   UNL A   1      50.546  24.784  36.493  1.00  0.00    -0.744 OA
ENDBRANCH  85  86
ENDBRANCH  59  80
ENDBRANCH  33  34
ENDBRANCH  26  28
ENDBRANCH  25  26
ENDBRANCH  24  25
ENDBRANCH   1  24
TORSDOF 18
ENDMDL
