MODEL 1
REMARK VINA RESULT:      -7.9      0.000      0.000
REMARK SMILES CCCCCCNC(=O)Oc1cccc(-c2ccc([C@@H](C)C(=O)OCCOC(=O)c3ccc(-c4c5nc(c(-c6ccc(S(=O)(=O)[O-])cc6)c6ccc([nH]6)c(-c6ccc(S(=O)(=O)[O-])cc6)c6nc(c(-c7ccc(S(=O)(=O)[O-])cc7)c7ccc4[nH]7)C=C6)C=C5)cc3)cc2[N+](=O)[O-])c1
REMARK SMILES IDX 20 1 21 2 19 3 16 4 17 5 91 6 18 7 90 8 15 9 11 10 12 11
REMARK SMILES IDX 95 12 13 13 14 14 10 15 8 16 7 17 9 19 6 20 5 21 4 22 3 23
REMARK SMILES IDX 2 24 1 25 92 26 93 27 94 28 22 29 23 30 24 31 25 32 26 33
REMARK SMILES IDX 27 34 28 35 29 36 30 37 31 38 89 39 32 40 88 41 33 42 34 43
REMARK SMILES IDX 35 44 82 45 36 46 87 47 81 48 83 49 37 50 86 51 80 52 79 53
REMARK SMILES IDX 38 55 68 56 49 57 67 58 50 59 53 60 66 61 84 62 51 63 52 64
REMARK SMILES IDX 65 66 85 67 54 68 39 69 40 70 48 71 41 72 47 73 42 74 43 75
REMARK SMILES IDX 44 76 45 77 46 78 69 79 70 80 78 81 71 82 77 83 72 84 73 85
REMARK SMILES IDX 74 86 75 87 76 88 55 89 56 90 64 91 57 92 63 93 58 94 59 95
REMARK SMILES IDX 60 96 61 97 62 98
REMARK H PARENT 7 18 83 54 53 65
REMARK Flexibility Score: inf
ROOT
ATOM      1  C   UNL A   1      35.135  33.487  31.352  1.00  0.00     0.126 C 
ATOM      2  C   UNL A   1      34.321  34.600  32.007  1.00  0.00     0.025 C 
ENDROOT
BRANCH   1   3
ATOM      3  C   UNL A   1      36.315  33.050  32.208  1.00  0.00    -0.027 A 
ATOM      4  C   UNL A   1      38.544  32.270  33.832  1.00  0.00     0.060 A 
ATOM      5  C   UNL A   1      37.612  31.330  33.356  1.00  0.00     0.016 A 
ATOM      6  C   UNL A   1      38.328  33.610  33.464  1.00  0.00     0.277 A 
ATOM      7  C   UNL A   1      36.528  31.709  32.552  1.00  0.00     0.006 A 
ATOM      8  C   UNL A   1      37.232  34.004  32.673  1.00  0.00     0.091 A 
BRANCH   4   9
ATOM      9  C   UNL A   1      39.669  31.805  34.664  1.00  0.00    -0.008 A 
ATOM     10  C   UNL A   1      41.575  30.360  35.054  1.00  0.00     0.133 A 
ATOM     11  C   UNL A   1      41.764  30.903  36.323  1.00  0.00     0.047 A 
ATOM     12  C   UNL A   1      40.541  30.798  34.224  1.00  0.00     0.056 A 
ATOM     13  C   UNL A   1      40.918  31.915  36.763  1.00  0.00     0.004 A 
ATOM     14  C   UNL A   1      39.879  32.359  35.941  1.00  0.00     0.009 A 
BRANCH  10  15
ATOM     15  O   UNL A   1      42.374  29.254  34.718  1.00  0.00    -0.410 OA
BRANCH  15  16
ATOM     16  C   UNL A   1      42.312  28.116  35.508  1.00  0.00     0.412 C 
ATOM     17  N   UNL A   1      43.544  27.596  35.795  1.00  0.00    -0.321 N 
ATOM     18  H   UNL A   1      43.562  26.784  36.351  1.00  0.00     0.167 HD
ATOM     19  O   UNL A   1      41.288  27.578  35.914  1.00  0.00    -0.224 OA
BRANCH  17  20
ATOM     20  C   UNL A   1      44.829  28.114  35.363  1.00  0.00     0.119 C 
BRANCH  20  21
ATOM     21  C   UNL A   1      45.562  27.152  34.430  1.00  0.00     0.021 C 
BRANCH  21  22
ATOM     22  C   UNL A   1      44.661  26.170  33.670  1.00  0.00     0.002 C 
BRANCH  22  23
ATOM     23  C   UNL A   1      45.309  24.833  33.289  1.00  0.00    -0.000 C 
BRANCH  23  24
ATOM     24  C   UNL A   1      44.862  23.624  34.114  1.00  0.00    -0.003 C 
ATOM     25  C   UNL A   1      43.551  23.019  33.636  1.00  0.00     0.004 C 
ENDBRANCH  23  24
ENDBRANCH  22  23
ENDBRANCH  21  22
ENDBRANCH  20  21
ENDBRANCH  17  20
ENDBRANCH  15  16
ENDBRANCH  10  15
ENDBRANCH   4   9
BRANCH   6  26
ATOM     26  N   UNL A   1      39.277  34.650  33.832  1.00  0.00     0.063 N 
ATOM     27  O   UNL A   1      38.968  35.385  34.780  1.00  0.00    -0.258 OA
ATOM     28  O   UNL A   1      40.294  34.768  33.134  1.00  0.00    -0.258 OA
ENDBRANCH   6  26
ENDBRANCH   1   3
BRANCH   1  29
ATOM     29  C   UNL A   1      35.453  33.855  29.906  1.00  0.00     0.313 C 
ATOM     30  O   UNL A   1      36.516  33.547  29.374  1.00  0.00    -0.252 OA
BRANCH  29  31
ATOM     31  O   UNL A   1      34.445  34.508  29.271  1.00  0.00    -0.462 OA
BRANCH  31  32
ATOM     32  C   UNL A   1      33.989  33.948  28.024  1.00  0.00     0.274 C 
BRANCH  32  33
ATOM     33  C   UNL A   1      33.637  32.467  28.183  1.00  0.00     0.275 C 
BRANCH  33  34
ATOM     34  O   UNL A   1      34.432  31.646  27.308  1.00  0.00    -0.458 OA
BRANCH  34  35
ATOM     35  C   UNL A   1      34.506  30.338  27.653  1.00  0.00     0.338 C 
ATOM     36  O   UNL A   1      33.649  29.484  27.509  1.00  0.00    -0.246 OA
BRANCH  35  37
ATOM     37  C   UNL A   1      35.863  30.047  28.131  1.00  0.00     0.060 A 
ATOM     38  C   UNL A   1      36.914  30.103  27.214  1.00  0.00     0.016 A 
ATOM     39  C   UNL A   1      36.090  29.662  29.452  1.00  0.00     0.016 A 
ATOM     40  C   UNL A   1      38.205  29.764  27.608  1.00  0.00     0.010 A 
ATOM     41  C   UNL A   1      37.390  29.337  29.852  1.00  0.00     0.010 A 
ATOM     42  C   UNL A   1      38.453  29.381  28.932  1.00  0.00    -0.014 A 
BRANCH  42  43
ATOM     43  C   UNL A   1      39.825  29.010  29.351  1.00  0.00     0.031 A 
ATOM     44  C   UNL A   1      40.666  29.992  30.115  1.00  0.00     0.074 A 
ATOM     45  C   UNL A   1      40.310  27.792  29.043  1.00  0.00     0.049 A 
ATOM     46  N   UNL A   1      41.921  29.901  30.467  1.00  0.00    -0.248 NA
ATOM     47  C   UNL A   1      40.009  31.240  30.534  1.00  0.00     0.031 C 
ATOM     48  C   UNL A   1      39.565  26.734  28.356  1.00  0.00     0.029 A 
ATOM     49  N   UNL A   1      41.546  27.240  29.265  1.00  0.00    -0.354 N 
ATOM     50  C   UNL A   1      42.216  31.090  31.123  1.00  0.00     0.074 A 
ATOM     51  C   UNL A   1      41.009  31.889  31.113  1.00  0.00     0.031 C 
ATOM     52  C   UNL A   1      40.359  25.660  28.218  1.00  0.00     0.029 A 
ATOM     53  C   UNL A   1      41.682  25.972  28.751  1.00  0.00     0.049 A 
ATOM     54  H   UNL A   1      42.267  27.707  29.744  1.00  0.00     0.167 HD
ATOM     55  C   UNL A   1      43.390  31.479  31.677  1.00  0.00     0.031 A 
ATOM     56  C   UNL A   1      42.759  25.167  28.684  1.00  0.00     0.031 A 
ATOM     57  C   UNL A   1      44.582  30.673  31.687  1.00  0.00     0.049 A 
ATOM     58  C   UNL A   1      44.071  25.656  29.231  1.00  0.00     0.074 A 
ATOM     59  C   UNL A   1      45.814  30.964  32.247  1.00  0.00     0.029 A 
ATOM     60  N   UNL A   1      44.693  29.418  31.107  1.00  0.00    -0.354 N 
ATOM     61  N   UNL A   1      44.337  26.784  29.845  1.00  0.00    -0.248 NA
ATOM     62  C   UNL A   1      45.232  24.771  29.060  1.00  0.00     0.031 C 
ATOM     63  C   UNL A   1      46.684  29.908  31.960  1.00  0.00     0.029 A 
ATOM     64  C   UNL A   1      45.982  28.936  31.264  1.00  0.00     0.049 A 
ATOM     65  H   UNL A   1      43.964  28.939  30.652  1.00  0.00     0.167 HD
ATOM     66  C   UNL A   1      45.694  26.741  30.145  1.00  0.00     0.074 A 
ATOM     67  C   UNL A   1      46.190  25.469  29.658  1.00  0.00     0.031 C 
ATOM     68  C   UNL A   1      46.459  27.671  30.765  1.00  0.00     0.031 A 
BRANCH  55  69
ATOM     69  C   UNL A   1      43.454  32.859  32.273  1.00  0.00    -0.014 A 
ATOM     70  C   UNL A   1      43.479  33.058  33.664  1.00  0.00     0.010 A 
ATOM     71  C   UNL A   1      43.524  33.976  31.419  1.00  0.00     0.010 A 
ATOM     72  C   UNL A   1      43.534  34.352  34.192  1.00  0.00     0.020 A 
ATOM     73  C   UNL A   1      43.601  35.270  31.943  1.00  0.00     0.020 A 
ATOM     74  C   UNL A   1      43.588  35.450  33.327  1.00  0.00     0.054 A 
BRANCH  74  75
ATOM     75  S   UNL A   1      43.669  37.119  34.035  1.00  0.00     0.124 S 
ATOM     76  O   UNL A   1      44.284  36.866  35.336  1.00  0.00    -0.237 OA
ATOM     77  O   UNL A   1      44.505  37.836  33.076  1.00  0.00    -0.237 OA
ATOM     78  O   UNL A   1      42.273  37.546  34.080  1.00  0.00    -0.744 OA
ENDBRANCH  74  75
ENDBRANCH  55  69
BRANCH  56  79
ATOM     79  C   UNL A   1      42.648  23.833  28.033  1.00  0.00    -0.014 A 
ATOM     80  C   UNL A   1      42.580  22.664  28.809  1.00  0.00     0.010 A 
ATOM     81  C   UNL A   1      42.592  23.729  26.631  1.00  0.00     0.010 A 
ATOM     82  C   UNL A   1      42.463  21.414  28.194  1.00  0.00     0.020 A 
ATOM     83  C   UNL A   1      42.450  22.484  26.014  1.00  0.00     0.020 A 
ATOM     84  C   UNL A   1      42.396  21.332  26.800  1.00  0.00     0.054 A 
BRANCH  84  85
ATOM     85  S   UNL A   1      42.180  19.706  26.026  1.00  0.00     0.124 S 
ATOM     86  O   UNL A   1      43.147  19.759  24.933  1.00  0.00    -0.237 OA
ATOM     87  O   UNL A   1      42.505  18.789  27.115  1.00  0.00    -0.237 OA
ATOM     88  O   UNL A   1      40.775  19.704  25.620  1.00  0.00    -0.744 OA
ENDBRANCH  84  85
ENDBRANCH  56  79
BRANCH  68  89
ATOM     89  C   UNL A   1      47.915  27.348  30.965  1.00  0.00    -0.014 A 
ATOM     90  C   UNL A   1      48.323  26.461  31.975  1.00  0.00     0.010 A 
ATOM     91  C   UNL A   1      48.875  27.881  30.086  1.00  0.00     0.010 A 
ATOM     92  C   UNL A   1      49.671  26.123  32.113  1.00  0.00     0.020 A 
ATOM     93  C   UNL A   1      50.221  27.527  30.207  1.00  0.00     0.020 A 
ATOM     94  C   UNL A   1      50.612  26.656  31.226  1.00  0.00     0.054 A 
BRANCH  94  95
ATOM     95  S   UNL A   1      52.346  26.150  31.383  1.00  0.00     0.124 S 
ATOM     96  O   UNL A   1      52.236  24.927  32.174  1.00  0.00    -0.237 OA
ATOM     97  O   UNL A   1      52.755  25.963  29.993  1.00  0.00    -0.237 OA
ATOM     98  O   UNL A   1      52.976  27.278  32.064  1.00  0.00    -0.744 OA
ENDBRANCH  94  95
ENDBRANCH  68  89
ENDBRANCH  42  43
ENDBRANCH  35  37
ENDBRANCH  34  35
ENDBRANCH  33  34
ENDBRANCH  32  33
ENDBRANCH  31  32
ENDBRANCH  29  31
ENDBRANCH   1  29
TORSDOF 24
ENDMDL
MODEL 2
REMARK VINA RESULT:      -7.7      4.652     12.807
REMARK SMILES CCCCCCNC(=O)Oc1cccc(-c2ccc([C@@H](C)C(=O)OCCOC(=O)c3ccc(-c4c5nc(c(-c6ccc(S(=O)(=O)[O-])cc6)c6ccc([nH]6)c(-c6ccc(S(=O)(=O)[O-])cc6)c6nc(c(-c7ccc(S(=O)(=O)[O-])cc7)c7ccc4[nH]7)C=C6)C=C5)cc3)cc2[N+](=O)[O-])c1
REMARK SMILES IDX 20 1 21 2 19 3 16 4 17 5 91 6 18 7 90 8 15 9 11 10 12 11
REMARK SMILES IDX 95 12 13 13 14 14 10 15 8 16 7 17 9 19 6 20 5 21 4 22 3 23
REMARK SMILES IDX 2 24 1 25 92 26 93 27 94 28 22 29 23 30 24 31 25 32 26 33
REMARK SMILES IDX 27 34 28 35 29 36 30 37 31 38 89 39 32 40 88 41 33 42 34 43
REMARK SMILES IDX 35 44 82 45 36 46 87 47 81 48 83 49 37 50 86 51 80 52 79 53
REMARK SMILES IDX 38 55 68 56 49 57 67 58 50 59 53 60 66 61 84 62 51 63 52 64
REMARK SMILES IDX 65 66 85 67 54 68 39 69 40 70 48 71 41 72 47 73 42 74 43 75
REMARK SMILES IDX 44 76 45 77 46 78 69 79 70 80 78 81 71 82 77 83 72 84 73 85
REMARK SMILES IDX 74 86 75 87 76 88 55 89 56 90 64 91 57 92 63 93 58 94 59 95
REMARK SMILES IDX 60 96 61 97 62 98
REMARK H PARENT 7 18 83 54 53 65
REMARK Flexibility Score: inf
ROOT
ATOM      1  C   UNL A   1      41.571  20.432  26.790  1.00  0.00     0.126 C 
ATOM      2  C   UNL A   1      41.546  19.296  27.810  1.00  0.00     0.025 C 
ENDROOT
BRANCH   1   3
ATOM      3  C   UNL A   1      40.188  20.746  26.238  1.00  0.00    -0.027 A 
ATOM      4  C   UNL A   1      37.591  21.383  25.205  1.00  0.00     0.060 A 
ATOM      5  C   UNL A   1      38.168  20.113  25.023  1.00  0.00     0.016 A 
ATOM      6  C   UNL A   1      38.352  22.320  25.927  1.00  0.00     0.277 A 
ATOM      7  C   UNL A   1      39.433  19.796  25.537  1.00  0.00     0.006 A 
ATOM      8  C   UNL A   1      39.631  22.019  26.431  1.00  0.00     0.091 A 
BRANCH   4   9
ATOM      9  C   UNL A   1      36.252  21.648  24.650  1.00  0.00    -0.008 A 
ATOM     10  C   UNL A   1      34.728  22.963  23.299  1.00  0.00     0.133 A 
ATOM     11  C   UNL A   1      33.656  22.154  23.669  1.00  0.00     0.047 A 
ATOM     12  C   UNL A   1      36.017  22.723  23.779  1.00  0.00     0.056 A 
ATOM     13  C   UNL A   1      33.879  21.074  24.516  1.00  0.00     0.004 A 
ATOM     14  C   UNL A   1      35.165  20.826  25.003  1.00  0.00     0.009 A 
BRANCH  10  15
ATOM     15  O   UNL A   1      34.420  24.112  22.551  1.00  0.00    -0.410 OA
BRANCH  15  16
ATOM     16  C   UNL A   1      33.390  24.053  21.624  1.00  0.00     0.412 C 
ATOM     17  N   UNL A   1      32.325  24.843  21.959  1.00  0.00    -0.321 N 
ATOM     18  H   UNL A   1      31.560  24.839  21.338  1.00  0.00     0.167 HD
ATOM     19  O   UNL A   1      33.375  23.366  20.609  1.00  0.00    -0.224 OA
BRANCH  17  20
ATOM     20  C   UNL A   1      32.201  25.684  23.134  1.00  0.00     0.119 C 
BRANCH  20  21
ATOM     21  C   UNL A   1      32.721  27.101  22.895  1.00  0.00     0.021 C 
BRANCH  21  22
ATOM     22  C   UNL A   1      31.637  28.179  22.769  1.00  0.00     0.002 C 
BRANCH  22  23
ATOM     23  C   UNL A   1      30.534  28.139  23.834  1.00  0.00    -0.000 C 
BRANCH  23  24
ATOM     24  C   UNL A   1      29.133  27.801  23.320  1.00  0.00    -0.003 C 
ATOM     25  C   UNL A   1      28.586  26.494  23.874  1.00  0.00     0.004 C 
ENDBRANCH  23  24
ENDBRANCH  22  23
ENDBRANCH  21  22
ENDBRANCH  20  21
ENDBRANCH  17  20
ENDBRANCH  15  16
ENDBRANCH  10  15
ENDBRANCH   4   9
BRANCH   6  26
ATOM     26  N   UNL A   1      37.815  23.635  26.246  1.00  0.00     0.063 N 
ATOM     27  O   UNL A   1      38.587  24.598  26.143  1.00  0.00    -0.258 OA
ATOM     28  O   UNL A   1      36.648  23.691  26.656  1.00  0.00    -0.258 OA
ENDBRANCH   6  26
ENDBRANCH   1   3
BRANCH   1  29
ATOM     29  C   UNL A   1      42.666  20.182  25.758  1.00  0.00     0.313 C 
ATOM     30  O   UNL A   1      42.637  19.219  24.997  1.00  0.00    -0.252 OA
BRANCH  29  31
ATOM     31  O   UNL A   1      43.633  21.135  25.742  1.00  0.00    -0.462 OA
BRANCH  31  32
ATOM     32  C   UNL A   1      43.425  22.290  26.578  1.00  0.00     0.274 C 
BRANCH  32  33
ATOM     33  C   UNL A   1      44.235  23.487  26.072  1.00  0.00     0.275 C 
BRANCH  33  34
ATOM     34  O   UNL A   1      43.897  24.687  26.792  1.00  0.00    -0.458 OA
BRANCH  34  35
ATOM     35  C   UNL A   1      42.668  25.190  26.531  1.00  0.00     0.338 C 
ATOM     36  O   UNL A   1      41.932  24.907  25.602  1.00  0.00    -0.246 OA
BRANCH  35  37
ATOM     37  C   UNL A   1      42.269  26.070  27.637  1.00  0.00     0.060 A 
ATOM     38  C   UNL A   1      43.060  27.186  27.913  1.00  0.00     0.016 A 
ATOM     39  C   UNL A   1      41.165  25.765  28.432  1.00  0.00     0.016 A 
ATOM     40  C   UNL A   1      42.759  28.006  28.996  1.00  0.00     0.010 A 
ATOM     41  C   UNL A   1      40.852  26.598  29.511  1.00  0.00     0.010 A 
ATOM     42  C   UNL A   1      41.651  27.719  29.803  1.00  0.00    -0.014 A 
BRANCH  42  43
ATOM     43  C   UNL A   1      41.334  28.584  30.963  1.00  0.00     0.031 A 
ATOM     44  C   UNL A   1      40.182  29.545  30.888  1.00  0.00     0.074 A 
ATOM     45  C   UNL A   1      42.083  28.504  32.079  1.00  0.00     0.049 A 
ATOM     46  N   UNL A   1      39.819  30.463  31.745  1.00  0.00    -0.248 NA
ATOM     47  C   UNL A   1      39.330  29.465  29.691  1.00  0.00     0.031 C 
ATOM     48  C   UNL A   1      43.190  27.569  32.289  1.00  0.00     0.029 A 
ATOM     49  N   UNL A   1      42.029  29.225  33.245  1.00  0.00    -0.354 N 
ATOM     50  C   UNL A   1      38.715  31.091  31.181  1.00  0.00     0.074 A 
ATOM     51  C   UNL A   1      38.473  30.453  29.904  1.00  0.00     0.031 C 
ATOM     52  C   UNL A   1      43.706  27.769  33.512  1.00  0.00     0.029 A 
ATOM     53  C   UNL A   1      43.009  28.883  34.147  1.00  0.00     0.049 A 
ATOM     54  H   UNL A   1      41.355  29.920  33.419  1.00  0.00     0.167 HD
ATOM     55  C   UNL A   1      37.977  32.109  31.683  1.00  0.00     0.031 A 
ATOM     56  C   UNL A   1      43.332  29.430  35.335  1.00  0.00     0.031 A 
ATOM     57  C   UNL A   1      38.222  32.730  32.958  1.00  0.00     0.049 A 
ATOM     58  C   UNL A   1      42.550  30.614  35.831  1.00  0.00     0.074 A 
ATOM     59  C   UNL A   1      37.515  33.751  33.569  1.00  0.00     0.029 A 
ATOM     60  N   UNL A   1      39.258  32.393  33.816  1.00  0.00    -0.354 N 
ATOM     61  N   UNL A   1      41.510  31.200  35.286  1.00  0.00    -0.248 NA
ATOM     62  C   UNL A   1      42.994  31.221  37.093  1.00  0.00     0.031 C 
ATOM     63  C   UNL A   1      38.154  34.065  34.772  1.00  0.00     0.029 A 
ATOM     64  C   UNL A   1      39.231  33.208  34.935  1.00  0.00     0.049 A 
ATOM     65  H   UNL A   1      39.915  31.678  33.655  1.00  0.00     0.167 HD
ATOM     66  C   UNL A   1      41.169  32.239  36.144  1.00  0.00     0.074 A 
ATOM     67  C   UNL A   1      42.102  32.191  37.251  1.00  0.00     0.031 C 
ATOM     68  C   UNL A   1      40.174  33.151  36.023  1.00  0.00     0.031 A 
BRANCH  55  69
ATOM     69  C   UNL A   1      36.864  32.650  30.827  1.00  0.00    -0.014 A 
ATOM     70  C   UNL A   1      35.538  32.210  30.982  1.00  0.00     0.010 A 
ATOM     71  C   UNL A   1      37.149  33.642  29.869  1.00  0.00     0.010 A 
ATOM     72  C   UNL A   1      34.522  32.725  30.169  1.00  0.00     0.020 A 
ATOM     73  C   UNL A   1      36.134  34.174  29.070  1.00  0.00     0.020 A 
ATOM     74  C   UNL A   1      34.829  33.699  29.213  1.00  0.00     0.054 A 
BRANCH  74  75
ATOM     75  S   UNL A   1      33.494  34.360  28.177  1.00  0.00     0.124 S 
ATOM     76  O   UNL A   1      34.230  35.198  27.234  1.00  0.00    -0.237 OA
ATOM     77  O   UNL A   1      32.898  33.153  27.610  1.00  0.00    -0.237 OA
ATOM     78  O   UNL A   1      32.647  35.084  29.122  1.00  0.00    -0.744 OA
ENDBRANCH  74  75
ENDBRANCH  55  69
BRANCH  56  79
ATOM     79  C   UNL A   1      44.478  28.887  36.113  1.00  0.00    -0.014 A 
ATOM     80  C   UNL A   1      45.770  29.411  35.939  1.00  0.00     0.010 A 
ATOM     81  C   UNL A   1      44.278  27.854  37.047  1.00  0.00     0.010 A 
ATOM     82  C   UNL A   1      46.843  28.907  36.682  1.00  0.00     0.020 A 
ATOM     83  C   UNL A   1      45.342  27.365  37.809  1.00  0.00     0.020 A 
ATOM     84  C   UNL A   1      46.621  27.890  37.614  1.00  0.00     0.054 A 
BRANCH  84  85
ATOM     85  S   UNL A   1      48.015  27.295  38.612  1.00  0.00     0.124 S 
ATOM     86  O   UNL A   1      47.704  25.875  38.752  1.00  0.00    -0.237 OA
ATOM     87  O   UNL A   1      49.166  27.610  37.771  1.00  0.00    -0.237 OA
ATOM     88  O   UNL A   1      47.917  28.082  39.839  1.00  0.00    -0.744 OA
ENDBRANCH  84  85
ENDBRANCH  56  79
BRANCH  68  89
ATOM     89  C   UNL A   1      40.032  34.168  37.122  1.00  0.00    -0.014 A 
ATOM     90  C   UNL A   1      40.681  35.411  37.041  1.00  0.00     0.010 A 
ATOM     91  C   UNL A   1      39.183  33.904  38.212  1.00  0.00     0.010 A 
ATOM     92  C   UNL A   1      40.495  36.370  38.040  1.00  0.00     0.020 A 
ATOM     93  C   UNL A   1      38.976  34.869  39.201  1.00  0.00     0.020 A 
ATOM     94  C   UNL A   1      39.641  36.094  39.112  1.00  0.00     0.054 A 
BRANCH  94  95
ATOM     95  S   UNL A   1      39.362  37.379  40.361  1.00  0.00     0.124 S 
ATOM     96  O   UNL A   1      38.468  38.296  39.660  1.00  0.00    -0.237 OA
ATOM     97  O   UNL A   1      38.758  36.633  41.463  1.00  0.00    -0.237 OA
ATOM     98  O   UNL A   1      40.701  37.898  40.630  1.00  0.00    -0.744 OA
ENDBRANCH  94  95
ENDBRANCH  68  89
ENDBRANCH  42  43
ENDBRANCH  35  37
ENDBRANCH  34  35
ENDBRANCH  33  34
ENDBRANCH  32  33
ENDBRANCH  31  32
ENDBRANCH  29  31
ENDBRANCH   1  29
TORSDOF 24
ENDMDL
MODEL 3
REMARK VINA RESULT:      -7.5      4.092     12.223
REMARK SMILES CCCCCCNC(=O)Oc1cccc(-c2ccc([C@@H](C)C(=O)OCCOC(=O)c3ccc(-c4c5nc(c(-c6ccc(S(=O)(=O)[O-])cc6)c6ccc([nH]6)c(-c6ccc(S(=O)(=O)[O-])cc6)c6nc(c(-c7ccc(S(=O)(=O)[O-])cc7)c7ccc4[nH]7)C=C6)C=C5)cc3)cc2[N+](=O)[O-])c1
REMARK SMILES IDX 20 1 21 2 19 3 16 4 17 5 91 6 18 7 90 8 15 9 11 10 12 11
REMARK SMILES IDX 95 12 13 13 14 14 10 15 8 16 7 17 9 19 6 20 5 21 4 22 3 23
REMARK SMILES IDX 2 24 1 25 92 26 93 27 94 28 22 29 23 30 24 31 25 32 26 33
REMARK SMILES IDX 27 34 28 35 29 36 30 37 31 38 89 39 32 40 88 41 33 42 34 43
REMARK SMILES IDX 35 44 82 45 36 46 87 47 81 48 83 49 37 50 86 51 80 52 79 53
REMARK SMILES IDX 38 55 68 56 49 57 67 58 50 59 53 60 66 61 84 62 51 63 52 64
REMARK SMILES IDX 65 66 85 67 54 68 39 69 40 70 48 71 41 72 47 73 42 74 43 75
REMARK SMILES IDX 44 76 45 77 46 78 69 79 70 80 78 81 71 82 77 83 72 84 73 85
REMARK SMILES IDX 74 86 75 87 76 88 55 89 56 90 64 91 57 92 63 93 58 94 59 95
REMARK SMILES IDX 60 96 61 97 62 98
REMARK H PARENT 7 18 83 54 53 65
REMARK Flexibility Score: inf
ROOT
ATOM      1  C   UNL A   1      41.929  19.758  26.704  1.00  0.00     0.126 C 
ATOM      2  C   UNL A   1      41.864  19.098  28.080  1.00  0.00     0.025 C 
ENDROOT
BRANCH   1   3
ATOM      3  C   UNL A   1      40.578  20.297  26.255  1.00  0.00    -0.027 A 
ATOM      4  C   UNL A   1      38.049  21.354  25.417  1.00  0.00     0.060 A 
ATOM      5  C   UNL A   1      38.417  20.021  25.155  1.00  0.00     0.016 A 
ATOM      6  C   UNL A   1      38.985  22.137  26.117  1.00  0.00     0.277 A 
ATOM      7  C   UNL A   1      39.649  19.500  25.575  1.00  0.00     0.006 A 
ATOM      8  C   UNL A   1      40.232  21.629  26.526  1.00  0.00     0.091 A 
BRANCH   4   9
ATOM      9  C   UNL A   1      36.735  21.838  24.959  1.00  0.00    -0.008 A 
ATOM     10  C   UNL A   1      34.344  22.110  25.253  1.00  0.00     0.133 A 
ATOM     11  C   UNL A   1      34.231  22.719  24.005  1.00  0.00     0.047 A 
ATOM     12  C   UNL A   1      35.578  21.669  25.735  1.00  0.00     0.056 A 
ATOM     13  C   UNL A   1      35.372  22.909  23.234  1.00  0.00     0.004 A 
ATOM     14  C   UNL A   1      36.612  22.470  23.706  1.00  0.00     0.009 A 
BRANCH  10  15
ATOM     15  O   UNL A   1      33.143  21.827  25.926  1.00  0.00    -0.410 OA
BRANCH  15  16
ATOM     16  C   UNL A   1      32.862  22.497  27.107  1.00  0.00     0.412 C 
ATOM     17  N   UNL A   1      31.845  23.403  26.978  1.00  0.00    -0.321 N 
ATOM     18  H   UNL A   1      31.603  23.913  27.784  1.00  0.00     0.167 HD
ATOM     19  O   UNL A   1      33.446  22.349  28.175  1.00  0.00    -0.224 OA
BRANCH  17  20
ATOM     20  C   UNL A   1      31.088  23.695  25.775  1.00  0.00     0.119 C 
BRANCH  20  21
ATOM     21  C   UNL A   1      31.029  25.192  25.472  1.00  0.00     0.021 C 
BRANCH  21  22
ATOM     22  C   UNL A   1      31.863  25.644  24.267  1.00  0.00     0.002 C 
BRANCH  22  23
ATOM     23  C   UNL A   1      31.585  24.907  22.952  1.00  0.00    -0.000 C 
BRANCH  23  24
ATOM     24  C   UNL A   1      32.538  25.231  21.799  1.00  0.00    -0.003 C 
ATOM     25  C   UNL A   1      33.401  26.457  22.058  1.00  0.00     0.004 C 
ENDBRANCH  23  24
ENDBRANCH  22  23
ENDBRANCH  21  22
ENDBRANCH  20  21
ENDBRANCH  17  20
ENDBRANCH  15  16
ENDBRANCH  10  15
ENDBRANCH   4   9
BRANCH   6  26
ATOM     26  N   UNL A   1      38.672  23.502  26.513  1.00  0.00     0.063 N 
ATOM     27  O   UNL A   1      38.023  24.187  25.710  1.00  0.00    -0.258 OA
ATOM     28  O   UNL A   1      39.130  23.903  27.592  1.00  0.00    -0.258 OA
ENDBRANCH   6  26
ENDBRANCH   1   3
BRANCH   1  29
ATOM     29  C   UNL A   1      42.649  18.842  25.720  1.00  0.00     0.313 C 
ATOM     30  O   UNL A   1      42.540  17.620  25.769  1.00  0.00    -0.252 OA
BRANCH  29  31
ATOM     31  O   UNL A   1      43.374  19.505  24.782  1.00  0.00    -0.462 OA
BRANCH  31  32
ATOM     32  C   UNL A   1      44.795  19.596  24.999  1.00  0.00     0.274 C 
BRANCH  32  33
ATOM     33  C   UNL A   1      45.257  21.055  25.009  1.00  0.00     0.275 C 
BRANCH  33  34
ATOM     34  O   UNL A   1      44.552  21.819  26.005  1.00  0.00    -0.458 OA
BRANCH  34  35
ATOM     35  C   UNL A   1      43.706  22.758  25.519  1.00  0.00     0.338 C 
ATOM     36  O   UNL A   1      43.089  22.729  24.470  1.00  0.00    -0.246 OA
BRANCH  35  37
ATOM     37  C   UNL A   1      43.527  23.806  26.532  1.00  0.00     0.060 A 
ATOM     38  C   UNL A   1      44.028  25.081  26.261  1.00  0.00     0.016 A 
ATOM     39  C   UNL A   1      42.930  23.522  27.759  1.00  0.00     0.016 A 
ATOM     40  C   UNL A   1      43.943  26.084  27.221  1.00  0.00     0.010 A 
ATOM     41  C   UNL A   1      42.831  24.534  28.718  1.00  0.00     0.010 A 
ATOM     42  C   UNL A   1      43.342  25.819  28.457  1.00  0.00    -0.014 A 
BRANCH  42  43
ATOM     43  C   UNL A   1      43.260  26.883  29.485  1.00  0.00     0.031 A 
ATOM     44  C   UNL A   1      44.333  26.999  30.530  1.00  0.00     0.074 A 
ATOM     45  C   UNL A   1      42.221  27.740  29.477  1.00  0.00     0.049 A 
ATOM     46  N   UNL A   1      44.382  27.782  31.575  1.00  0.00    -0.248 NA
ATOM     47  C   UNL A   1      45.502  26.118  30.379  1.00  0.00     0.031 C 
ATOM     48  C   UNL A   1      41.150  27.760  28.478  1.00  0.00     0.029 A 
ATOM     49  N   UNL A   1      41.895  28.756  30.338  1.00  0.00    -0.354 N 
ATOM     50  C   UNL A   1      45.569  27.469  32.226  1.00  0.00     0.074 A 
ATOM     51  C   UNL A   1      46.208  26.420  31.459  1.00  0.00     0.031 C 
ATOM     52  C   UNL A   1      40.289  28.745  28.781  1.00  0.00     0.029 A 
ATOM     53  C   UNL A   1      40.712  29.383  30.024  1.00  0.00     0.049 A 
ATOM     54  H   UNL A   1      42.452  29.011  31.108  1.00  0.00     0.167 HD
ATOM     55  C   UNL A   1      46.076  28.007  33.361  1.00  0.00     0.031 A 
ATOM     56  C   UNL A   1      40.028  30.338  30.682  1.00  0.00     0.031 A 
ATOM     57  C   UNL A   1      45.436  29.056  34.111  1.00  0.00     0.049 A 
ATOM     58  C   UNL A   1      40.569  30.859  31.984  1.00  0.00     0.074 A 
ATOM     59  C   UNL A   1      45.881  29.688  35.259  1.00  0.00     0.029 A 
ATOM     60  N   UNL A   1      44.213  29.625  33.790  1.00  0.00    -0.354 N 
ATOM     61  N   UNL A   1      41.691  30.552  32.590  1.00  0.00    -0.248 NA
ATOM     62  C   UNL A   1      39.744  31.842  32.700  1.00  0.00     0.031 C 
ATOM     63  C   UNL A   1      44.901  30.602  35.661  1.00  0.00     0.029 A 
ATOM     64  C   UNL A   1      43.869  30.575  34.736  1.00  0.00     0.049 A 
ATOM     65  H   UNL A   1      43.669  29.389  33.004  1.00  0.00     0.167 HD
ATOM     66  C   UNL A   1      41.713  31.312  33.754  1.00  0.00     0.074 A 
ATOM     67  C   UNL A   1      40.500  32.103  33.759  1.00  0.00     0.031 C 
ATOM     68  C   UNL A   1      42.652  31.347  34.730  1.00  0.00     0.031 A 
BRANCH  55  69
ATOM     69  C   UNL A   1      47.362  27.433  33.890  1.00  0.00    -0.014 A 
ATOM     70  C   UNL A   1      48.603  28.030  33.608  1.00  0.00     0.010 A 
ATOM     71  C   UNL A   1      47.321  26.290  34.711  1.00  0.00     0.010 A 
ATOM     72  C   UNL A   1      49.785  27.472  34.108  1.00  0.00     0.020 A 
ATOM     73  C   UNL A   1      48.499  25.742  35.229  1.00  0.00     0.020 A 
ATOM     74  C   UNL A   1      49.725  26.328  34.910  1.00  0.00     0.054 A 
BRANCH  74  75
ATOM     75  S   UNL A   1      51.270  25.628  35.555  1.00  0.00     0.124 S 
ATOM     76  O   UNL A   1      52.196  26.747  35.399  1.00  0.00    -0.237 OA
ATOM     77  O   UNL A   1      50.921  25.291  36.933  1.00  0.00    -0.237 OA
ATOM     78  O   UNL A   1      51.525  24.485  34.682  1.00  0.00    -0.744 OA
ENDBRANCH  74  75
ENDBRANCH  55  69
BRANCH  56  79
ATOM     79  C   UNL A   1      38.732  30.829  30.139  1.00  0.00    -0.014 A 
ATOM     80  C   UNL A   1      37.584  30.022  30.194  1.00  0.00     0.010 A 
ATOM     81  C   UNL A   1      38.638  32.117  29.579  1.00  0.00     0.010 A 
ATOM     82  C   UNL A   1      36.365  30.493  29.694  1.00  0.00     0.020 A 
ATOM     83  C   UNL A   1      37.417  32.600  29.101  1.00  0.00     0.020 A 
ATOM     84  C   UNL A   1      36.289  31.779  29.154  1.00  0.00     0.054 A 
BRANCH  84  85
ATOM     85  S   UNL A   1      34.685  32.393  28.569  1.00  0.00     0.124 S 
ATOM     86  O   UNL A   1      34.093  32.913  29.797  1.00  0.00    -0.237 OA
ATOM     87  O   UNL A   1      35.069  33.394  27.578  1.00  0.00    -0.237 OA
ATOM     88  O   UNL A   1      34.043  31.199  28.020  1.00  0.00    -0.744 OA
ENDBRANCH  84  85
ENDBRANCH  56  79
BRANCH  68  89
ATOM     89  C   UNL A   1      42.414  32.282  35.884  1.00  0.00    -0.014 A 
ATOM     90  C   UNL A   1      42.852  33.616  35.833  1.00  0.00     0.010 A 
ATOM     91  C   UNL A   1      41.681  31.840  37.000  1.00  0.00     0.010 A 
ATOM     92  C   UNL A   1      42.574  34.490  36.887  1.00  0.00     0.020 A 
ATOM     93  C   UNL A   1      41.381  32.717  38.045  1.00  0.00     0.020 A 
ATOM     94  C   UNL A   1      41.837  34.035  37.985  1.00  0.00     0.054 A 
BRANCH  94  95
ATOM     95  S   UNL A   1      41.429  35.206  39.309  1.00  0.00     0.124 S 
ATOM     96  O   UNL A   1      40.303  34.547  39.963  1.00  0.00    -0.237 OA
ATOM     97  O   UNL A   1      42.665  35.256  40.087  1.00  0.00    -0.237 OA
ATOM     98  O   UNL A   1      41.101  36.437  38.594  1.00  0.00    -0.744 OA
ENDBRANCH  94  95
ENDBRANCH  68  89
ENDBRANCH  42  43
ENDBRANCH  35  37
ENDBRANCH  34  35
ENDBRANCH  33  34
ENDBRANCH  32  33
ENDBRANCH  31  32
ENDBRANCH  29  31
ENDBRANCH   1  29
TORSDOF 24
ENDMDL
