MODEL 1
REMARK VINA RESULT:     -12.4      0.000      0.000
REMARK SMILES Nc1ccc(C(=O)N2Cc3nc[nH]c3C[C@H]2C(=O)OCCOC(=O)c2ccc(-c3c4nc(c(-c5ccc(S(=O)(=O)[O-])cc5)c5ccc([nH]5)c(-c5ccc(S(=O)(=O)[O-])cc5)c5nc(c(-c6ccc(S(=O)(=O)[O-])cc6)c6ccc3[nH]6)C=C5)C=C4)cc2)cc1
REMARK SMILES IDX 20 1 19 2 17 3 18 4 16 5 8 6 9 7 10 8 15 9 11 10 14 11 12 12
REMARK SMILES IDX 13 13 6 15 7 16 5 17 2 18 3 19 86 20 4 21 85 22 1 23 21 26
REMARK SMILES IDX 22 27 23 28 24 29 25 30 26 31 84 32 27 33 83 34 28 35 29 36
REMARK SMILES IDX 30 37 77 38 31 39 82 40 76 41 78 42 32 43 81 44 75 45 74 46
REMARK SMILES IDX 33 48 63 49 44 50 62 51 45 52 48 53 61 54 79 55 46 56 47 57
REMARK SMILES IDX 60 59 80 60 49 61 34 62 35 63 43 64 36 65 42 66 37 67 38 68
REMARK SMILES IDX 39 69 40 70 41 71 64 72 65 73 73 74 66 75 72 76 67 77 68 78
REMARK SMILES IDX 69 79 70 80 71 81 50 82 51 83 59 84 52 85 58 86 53 87 54 88
REMARK SMILES IDX 55 89 56 90 57 91
REMARK H PARENT 13 14 1 24 1 25 78 47 48 58
REMARK Flexibility Score: inf
ROOT
ATOM      1  C   UNL A   1      32.663  29.691  25.270  1.00  0.00     0.274 C 
ENDROOT
BRANCH   1   2
ATOM      2  O   UNL A   1      33.083  28.331  25.504  1.00  0.00    -0.461 OA
BRANCH   2   3
ATOM      3  C   UNL A   1      32.509  27.371  24.723  1.00  0.00     0.329 C 
ATOM      4  O   UNL A   1      33.101  26.784  23.818  1.00  0.00    -0.250 OA
BRANCH   3   5
ATOM      5  C   UNL A   1      30.991  27.192  24.956  1.00  0.00     0.201 C 
ATOM      6  N   UNL A   1      30.169  26.466  23.940  1.00  0.00    -0.318 N 
ATOM      7  C   UNL A   1      30.360  25.013  23.754  1.00  0.00     0.179 C 
ATOM      8  C   UNL A   1      30.888  24.393  25.008  1.00  0.00     0.081 A 
ATOM      9  C   UNL A   1      30.862  26.534  26.360  1.00  0.00     0.093 C 
ATOM     10  N   UNL A   1      31.346  23.105  25.120  1.00  0.00    -0.240 NA
ATOM     11  C   UNL A   1      31.116  25.082  26.178  1.00  0.00     0.042 A 
ATOM     12  C   UNL A   1      31.847  23.026  26.335  1.00  0.00     0.197 A 
ATOM     13  N   UNL A   1      31.728  24.208  27.020  1.00  0.00    -0.348 N 
ATOM     14  H   UNL A   1      32.027  24.388  27.941  1.00  0.00     0.167 HD
BRANCH   6  15
ATOM     15  C   UNL A   1      28.905  26.985  23.674  1.00  0.00     0.254 C 
ATOM     16  O   UNL A   1      27.882  26.453  24.094  1.00  0.00    -0.269 OA
BRANCH  15  17
ATOM     17  C   UNL A   1      28.861  28.308  22.975  1.00  0.00     0.040 A 
ATOM     18  C   UNL A   1      28.811  30.921  21.899  1.00  0.00     0.031 A 
ATOM     19  C   UNL A   1      27.664  30.363  22.465  1.00  0.00     0.026 A 
ATOM     20  C   UNL A   1      29.958  30.132  21.810  1.00  0.00     0.026 A 
ATOM     21  C   UNL A   1      27.684  29.067  23.005  1.00  0.00     0.016 A 
ATOM     22  C   UNL A   1      29.984  28.839  22.341  1.00  0.00     0.016 A 
BRANCH  18  23
ATOM     23  N   UNL A   1      28.805  32.205  21.393  1.00  0.00    -0.399 N 
ATOM     24  H   UNL A   1      28.494  32.371  20.475  1.00  0.00     0.156 HD
ATOM     25  H   UNL A   1      29.112  32.955  21.953  1.00  0.00     0.156 HD
ENDBRANCH  18  23
ENDBRANCH  15  17
ENDBRANCH   6  15
ENDBRANCH   3   5
ENDBRANCH   2   3
ENDBRANCH   1   2
BRANCH   1  26
ATOM     26  C   UNL A   1      32.274  30.430  26.558  1.00  0.00     0.275 C 
BRANCH  26  27
ATOM     27  O   UNL A   1      33.190  30.282  27.655  1.00  0.00    -0.458 OA
BRANCH  27  28
ATOM     28  C   UNL A   1      33.917  31.396  27.876  1.00  0.00     0.338 C 
ATOM     29  O   UNL A   1      33.492  32.531  27.970  1.00  0.00    -0.246 OA
BRANCH  28  30
ATOM     30  C   UNL A   1      35.359  31.205  27.759  1.00  0.00     0.060 A 
ATOM     31  C   UNL A   1      35.758  29.881  27.565  1.00  0.00     0.016 A 
ATOM     32  C   UNL A   1      36.244  32.181  28.224  1.00  0.00     0.016 A 
ATOM     33  C   UNL A   1      37.002  29.497  28.004  1.00  0.00     0.010 A 
ATOM     34  C   UNL A   1      37.512  31.792  28.633  1.00  0.00     0.010 A 
ATOM     35  C   UNL A   1      37.858  30.439  28.594  1.00  0.00    -0.014 A 
BRANCH  35  36
ATOM     36  C   UNL A   1      39.190  29.956  28.969  1.00  0.00     0.031 A 
ATOM     37  C   UNL A   1      39.412  30.027  30.437  1.00  0.00     0.074 A 
ATOM     38  C   UNL A   1      40.086  29.423  28.114  1.00  0.00     0.049 A 
ATOM     39  N   UNL A   1      40.355  30.643  31.072  1.00  0.00    -0.248 NA
ATOM     40  C   UNL A   1      38.337  29.504  31.306  1.00  0.00     0.031 C 
ATOM     41  C   UNL A   1      39.880  29.164  26.687  1.00  0.00     0.029 A 
ATOM     42  N   UNL A   1      41.329  28.890  28.348  1.00  0.00    -0.354 N 
ATOM     43  C   UNL A   1      40.114  30.373  32.415  1.00  0.00     0.074 A 
ATOM     44  C   UNL A   1      38.770  29.869  32.509  1.00  0.00     0.031 C 
ATOM     45  C   UNL A   1      40.834  28.317  26.245  1.00  0.00     0.029 A 
ATOM     46  C   UNL A   1      41.776  28.059  27.321  1.00  0.00     0.049 A 
ATOM     47  H   UNL A   1      41.853  29.077  29.160  1.00  0.00     0.167 HD
ATOM     48  C   UNL A   1      41.143  30.221  33.289  1.00  0.00     0.031 A 
ATOM     49  C   UNL A   1      42.800  27.168  27.353  1.00  0.00     0.031 A 
ATOM     50  C   UNL A   1      42.343  30.861  32.831  1.00  0.00     0.049 A 
ATOM     51  C   UNL A   1      43.690  27.516  28.480  1.00  0.00     0.074 A 
ATOM     52  C   UNL A   1      42.800  32.152  32.705  1.00  0.00     0.029 A 
ATOM     53  N   UNL A   1      43.166  30.055  32.090  1.00  0.00    -0.354 N 
ATOM     54  N   UNL A   1      44.483  28.547  28.478  1.00  0.00    -0.248 NA
ATOM     55  C   UNL A   1      43.518  26.859  29.771  1.00  0.00     0.031 C 
ATOM     56  C   UNL A   1      43.840  32.114  31.733  1.00  0.00     0.029 A 
ATOM     57  C   UNL A   1      44.008  30.797  31.308  1.00  0.00     0.049 A 
ATOM     58  H   UNL A   1      43.153  29.072  32.117  1.00  0.00     0.167 HD
ATOM     59  C   UNL A   1      44.568  28.915  29.805  1.00  0.00     0.074 A 
ATOM     60  C   UNL A   1      44.109  27.759  30.560  1.00  0.00     0.031 C 
ATOM     61  C   UNL A   1      44.672  30.227  30.154  1.00  0.00     0.031 A 
BRANCH  48  62
ATOM     62  C   UNL A   1      41.190  29.041  34.239  1.00  0.00    -0.014 A 
ATOM     63  C   UNL A   1      41.397  29.275  35.611  1.00  0.00     0.010 A 
ATOM     64  C   UNL A   1      41.340  27.708  33.790  1.00  0.00     0.010 A 
ATOM     65  C   UNL A   1      41.770  28.234  36.476  1.00  0.00     0.020 A 
ATOM     66  C   UNL A   1      41.669  26.660  34.647  1.00  0.00     0.020 A 
ATOM     67  C   UNL A   1      41.908  26.935  35.983  1.00  0.00     0.054 A 
BRANCH  67  68
ATOM     68  S   UNL A   1      42.457  25.608  37.083  1.00  0.00     0.124 S 
ATOM     69  O   UNL A   1      41.205  24.916  37.367  1.00  0.00    -0.237 OA
ATOM     70  O   UNL A   1      43.409  24.887  36.241  1.00  0.00    -0.237 OA
ATOM     71  O   UNL A   1      43.050  26.324  38.210  1.00  0.00    -0.744 OA
ENDBRANCH  67  68
ENDBRANCH  48  62
BRANCH  49  72
ATOM     72  C   UNL A   1      43.014  25.920  26.575  1.00  0.00    -0.014 A 
ATOM     73  C   UNL A   1      43.991  25.874  25.558  1.00  0.00     0.010 A 
ATOM     74  C   UNL A   1      42.468  24.697  27.007  1.00  0.00     0.010 A 
ATOM     75  C   UNL A   1      44.471  24.651  25.065  1.00  0.00     0.020 A 
ATOM     76  C   UNL A   1      42.927  23.473  26.507  1.00  0.00     0.020 A 
ATOM     77  C   UNL A   1      43.954  23.455  25.565  1.00  0.00     0.054 A 
BRANCH  77  78
ATOM     78  S   UNL A   1      44.734  21.883  25.095  1.00  0.00     0.124 S 
ATOM     79  O   UNL A   1      44.692  21.935  23.638  1.00  0.00    -0.237 OA
ATOM     80  O   UNL A   1      46.060  21.994  25.695  1.00  0.00    -0.237 OA
ATOM     81  O   UNL A   1      43.867  20.875  25.705  1.00  0.00    -0.744 OA
ENDBRANCH  77  78
ENDBRANCH  49  72
BRANCH  61  82
ATOM     82  C   UNL A   1      45.390  31.149  29.211  1.00  0.00    -0.014 A 
ATOM     83  C   UNL A   1      46.784  31.198  29.035  1.00  0.00     0.010 A 
ATOM     84  C   UNL A   1      44.580  31.996  28.432  1.00  0.00     0.010 A 
ATOM     85  C   UNL A   1      47.353  32.099  28.124  1.00  0.00     0.020 A 
ATOM     86  C   UNL A   1      45.138  32.877  27.508  1.00  0.00     0.020 A 
ATOM     87  C   UNL A   1      46.523  32.936  27.369  1.00  0.00     0.054 A 
BRANCH  87  88
ATOM     88  S   UNL A   1      47.260  34.090  26.182  1.00  0.00     0.124 S 
ATOM     89  O   UNL A   1      46.233  34.177  25.148  1.00  0.00    -0.237 OA
ATOM     90  O   UNL A   1      47.455  35.296  26.982  1.00  0.00    -0.237 OA
ATOM     91  O   UNL A   1      48.495  33.424  25.770  1.00  0.00    -0.744 OA
ENDBRANCH  87  88
ENDBRANCH  61  82
ENDBRANCH  35  36
ENDBRANCH  28  30
ENDBRANCH  27  28
ENDBRANCH  26  27
ENDBRANCH   1  26
TORSDOF 17
ENDMDL
MODEL 2
REMARK VINA RESULT:     -12.3      1.496      3.607
REMARK SMILES Nc1ccc(C(=O)N2Cc3nc[nH]c3C[C@H]2C(=O)OCCOC(=O)c2ccc(-c3c4nc(c(-c5ccc(S(=O)(=O)[O-])cc5)c5ccc([nH]5)c(-c5ccc(S(=O)(=O)[O-])cc5)c5nc(c(-c6ccc(S(=O)(=O)[O-])cc6)c6ccc3[nH]6)C=C5)C=C4)cc2)cc1
REMARK SMILES IDX 20 1 19 2 17 3 18 4 16 5 8 6 9 7 10 8 15 9 11 10 14 11 12 12
REMARK SMILES IDX 13 13 6 15 7 16 5 17 2 18 3 19 86 20 4 21 85 22 1 23 21 26
REMARK SMILES IDX 22 27 23 28 24 29 25 30 26 31 84 32 27 33 83 34 28 35 29 36
REMARK SMILES IDX 30 37 77 38 31 39 82 40 76 41 78 42 32 43 81 44 75 45 74 46
REMARK SMILES IDX 33 48 63 49 44 50 62 51 45 52 48 53 61 54 79 55 46 56 47 57
REMARK SMILES IDX 60 59 80 60 49 61 34 62 35 63 43 64 36 65 42 66 37 67 38 68
REMARK SMILES IDX 39 69 40 70 41 71 64 72 65 73 73 74 66 75 72 76 67 77 68 78
REMARK SMILES IDX 69 79 70 80 71 81 50 82 51 83 59 84 52 85 58 86 53 87 54 88
REMARK SMILES IDX 55 89 56 90 57 91
REMARK H PARENT 13 14 1 24 1 25 78 47 48 58
REMARK Flexibility Score: inf
ROOT
ATOM      1  C   UNL A   1      32.018  29.396  26.226  1.00  0.00     0.274 C 
ENDROOT
BRANCH   1   2
ATOM      2  O   UNL A   1      33.087  28.561  25.737  1.00  0.00    -0.461 OA
BRANCH   2   3
ATOM      3  C   UNL A   1      32.750  27.292  25.365  1.00  0.00     0.329 C 
ATOM      4  O   UNL A   1      32.269  26.461  26.134  1.00  0.00    -0.250 OA
BRANCH   3   5
ATOM      5  C   UNL A   1      33.177  26.923  23.926  1.00  0.00     0.201 C 
ATOM      6  N   UNL A   1      32.428  25.862  23.183  1.00  0.00    -0.318 N 
ATOM      7  C   UNL A   1      31.038  26.120  22.754  1.00  0.00     0.179 C 
ATOM      8  C   UNL A   1      30.809  27.588  22.585  1.00  0.00     0.081 A 
ATOM      9  C   UNL A   1      33.186  28.263  23.137  1.00  0.00     0.093 C 
ATOM     10  N   UNL A   1      29.589  28.178  22.375  1.00  0.00    -0.240 NA
ATOM     11  C   UNL A   1      31.779  28.550  22.762  1.00  0.00     0.042 A 
ATOM     12  C   UNL A   1      29.823  29.472  22.433  1.00  0.00     0.197 A 
ATOM     13  N   UNL A   1      31.145  29.749  22.665  1.00  0.00    -0.348 N 
ATOM     14  H   UNL A   1      31.556  30.640  22.746  1.00  0.00     0.167 HD
BRANCH   6  15
ATOM     15  C   UNL A   1      33.186  24.990  22.407  1.00  0.00     0.254 C 
ATOM     16  O   UNL A   1      33.584  25.294  21.286  1.00  0.00    -0.269 OA
BRANCH  15  17
ATOM     17  C   UNL A   1      33.620  23.717  23.065  1.00  0.00     0.040 A 
ATOM     18  C   UNL A   1      34.395  21.438  24.546  1.00  0.00     0.031 A 
ATOM     19  C   UNL A   1      35.296  22.479  24.321  1.00  0.00     0.026 A 
ATOM     20  C   UNL A   1      33.131  21.515  23.960  1.00  0.00     0.026 A 
ATOM     21  C   UNL A   1      34.915  23.616  23.590  1.00  0.00     0.016 A 
ATOM     22  C   UNL A   1      32.746  22.642  23.227  1.00  0.00     0.016 A 
BRANCH  18  23
ATOM     23  N   UNL A   1      34.754  20.331  25.288  1.00  0.00    -0.399 N 
ATOM     24  H   UNL A   1      34.210  20.059  26.061  1.00  0.00     0.156 HD
ATOM     25  H   UNL A   1      35.556  19.815  25.044  1.00  0.00     0.156 HD
ENDBRANCH  18  23
ENDBRANCH  15  17
ENDBRANCH   6  15
ENDBRANCH   3   5
ENDBRANCH   2   3
ENDBRANCH   1   2
BRANCH   1  26
ATOM     26  C   UNL A   1      32.517  30.594  27.045  1.00  0.00     0.275 C 
BRANCH  26  27
ATOM     27  O   UNL A   1      33.923  30.874  26.935  1.00  0.00    -0.458 OA
BRANCH  27  28
ATOM     28  C   UNL A   1      34.376  31.651  27.940  1.00  0.00     0.338 C 
ATOM     29  O   UNL A   1      34.052  32.800  28.167  1.00  0.00    -0.246 OA
BRANCH  28  30
ATOM     30  C   UNL A   1      35.522  31.099  28.655  1.00  0.00     0.060 A 
ATOM     31  C   UNL A   1      36.502  32.033  28.994  1.00  0.00     0.016 A 
ATOM     32  C   UNL A   1      35.793  29.728  28.612  1.00  0.00     0.016 A 
ATOM     33  C   UNL A   1      37.803  31.607  29.121  1.00  0.00     0.010 A 
ATOM     34  C   UNL A   1      37.103  29.302  28.776  1.00  0.00     0.010 A 
ATOM     35  C   UNL A   1      38.114  30.250  28.953  1.00  0.00    -0.014 A 
BRANCH  35  36
ATOM     36  C   UNL A   1      39.514  29.876  29.174  1.00  0.00     0.031 A 
ATOM     37  C   UNL A   1      39.889  29.961  30.610  1.00  0.00     0.074 A 
ATOM     38  C   UNL A   1      40.351  29.421  28.220  1.00  0.00     0.049 A 
ATOM     39  N   UNL A   1      40.843  30.649  31.145  1.00  0.00    -0.248 NA
ATOM     40  C   UNL A   1      38.963  29.348  31.584  1.00  0.00     0.031 C 
ATOM     41  C   UNL A   1      40.011  29.151  26.820  1.00  0.00     0.029 A 
ATOM     42  N   UNL A   1      41.651  28.991  28.309  1.00  0.00    -0.354 N 
ATOM     43  C   UNL A   1      40.775  30.356  32.503  1.00  0.00     0.074 A 
ATOM     44  C   UNL A   1      39.494  29.744  32.737  1.00  0.00     0.031 C 
ATOM     45  C   UNL A   1      40.976  28.387  26.267  1.00  0.00     0.029 A 
ATOM     46  C   UNL A   1      42.049  28.202  27.231  1.00  0.00     0.049 A 
ATOM     47  H   UNL A   1      42.244  29.217  29.062  1.00  0.00     0.167 HD
ATOM     48  C   UNL A   1      41.902  30.286  33.257  1.00  0.00     0.031 A 
ATOM     49  C   UNL A   1      43.139  27.398  27.139  1.00  0.00     0.031 A 
ATOM     50  C   UNL A   1      42.988  31.023  32.679  1.00  0.00     0.049 A 
ATOM     51  C   UNL A   1      44.116  27.814  28.167  1.00  0.00     0.074 A 
ATOM     52  C   UNL A   1      43.323  32.347  32.520  1.00  0.00     0.029 A 
ATOM     53  N   UNL A   1      43.788  30.290  31.843  1.00  0.00    -0.354 N 
ATOM     54  N   UNL A   1      44.817  28.906  28.090  1.00  0.00    -0.248 NA
ATOM     55  C   UNL A   1      44.140  27.140  29.460  1.00  0.00     0.031 C 
ATOM     56  C   UNL A   1      44.250  32.398  31.439  1.00  0.00     0.029 A 
ATOM     57  C   UNL A   1      44.476  31.101  30.983  1.00  0.00     0.049 A 
ATOM     58  H   UNL A   1      43.857  29.308  31.859  1.00  0.00     0.167 HD
ATOM     59  C   UNL A   1      45.018  29.275  29.405  1.00  0.00     0.074 A 
ATOM     60  C   UNL A   1      44.739  28.084  30.191  1.00  0.00     0.031 C 
ATOM     61  C   UNL A   1      45.053  30.590  29.756  1.00  0.00     0.031 A 
BRANCH  48  62
ATOM     62  C   UNL A   1      42.148  29.110  34.182  1.00  0.00    -0.014 A 
ATOM     63  C   UNL A   1      42.598  27.893  33.637  1.00  0.00     0.010 A 
ATOM     64  C   UNL A   1      41.665  29.073  35.510  1.00  0.00     0.010 A 
ATOM     65  C   UNL A   1      42.533  26.701  34.373  1.00  0.00     0.020 A 
ATOM     66  C   UNL A   1      41.634  27.902  36.265  1.00  0.00     0.020 A 
ATOM     67  C   UNL A   1      42.046  26.715  35.681  1.00  0.00     0.054 A 
BRANCH  67  68
ATOM     68  S   UNL A   1      41.895  25.167  36.604  1.00  0.00     0.124 S 
ATOM     69  O   UNL A   1      43.262  24.963  37.072  1.00  0.00    -0.237 OA
ATOM     70  O   UNL A   1      40.915  25.516  37.630  1.00  0.00    -0.237 OA
ATOM     71  O   UNL A   1      41.426  24.216  35.600  1.00  0.00    -0.744 OA
ENDBRANCH  67  68
ENDBRANCH  48  62
BRANCH  49  72
ATOM     72  C   UNL A   1      43.366  26.174  26.327  1.00  0.00    -0.014 A 
ATOM     73  C   UNL A   1      44.547  26.033  25.569  1.00  0.00     0.010 A 
ATOM     74  C   UNL A   1      42.569  25.028  26.510  1.00  0.00     0.010 A 
ATOM     75  C   UNL A   1      44.963  24.777  25.098  1.00  0.00     0.020 A 
ATOM     76  C   UNL A   1      42.967  23.776  26.026  1.00  0.00     0.020 A 
ATOM     77  C   UNL A   1      44.182  23.651  25.355  1.00  0.00     0.054 A 
BRANCH  77  78
ATOM     78  S   UNL A   1      44.832  22.004  24.947  1.00  0.00     0.124 S 
ATOM     79  O   UNL A   1      44.656  21.948  23.500  1.00  0.00    -0.237 OA
ATOM     80  O   UNL A   1      46.213  22.083  25.414  1.00  0.00    -0.237 OA
ATOM     81  O   UNL A   1      43.975  21.098  25.712  1.00  0.00    -0.744 OA
ENDBRANCH  77  78
ENDBRANCH  49  72
BRANCH  61  82
ATOM     82  C   UNL A   1      45.586  31.571  28.752  1.00  0.00    -0.014 A 
ATOM     83  C   UNL A   1      46.934  31.683  28.370  1.00  0.00     0.010 A 
ATOM     84  C   UNL A   1      44.637  32.410  28.136  1.00  0.00     0.010 A 
ATOM     85  C   UNL A   1      47.326  32.636  27.418  1.00  0.00     0.020 A 
ATOM     86  C   UNL A   1      45.017  33.342  27.173  1.00  0.00     0.020 A 
ATOM     87  C   UNL A   1      46.362  33.462  26.830  1.00  0.00     0.054 A 
BRANCH  87  88
ATOM     88  S   UNL A   1      46.868  34.683  25.590  1.00  0.00     0.124 S 
ATOM     89  O   UNL A   1      48.219  34.245  25.249  1.00  0.00    -0.237 OA
ATOM     90  O   UNL A   1      45.866  34.513  24.541  1.00  0.00    -0.237 OA
ATOM     91  O   UNL A   1      46.795  35.956  26.306  1.00  0.00    -0.744 OA
ENDBRANCH  87  88
ENDBRANCH  61  82
ENDBRANCH  35  36
ENDBRANCH  28  30
ENDBRANCH  27  28
ENDBRANCH  26  27
ENDBRANCH   1  26
TORSDOF 17
ENDMDL
MODEL 3
REMARK VINA RESULT:     -11.3      2.973      8.888
REMARK SMILES Nc1ccc(C(=O)N2Cc3nc[nH]c3C[C@H]2C(=O)OCCOC(=O)c2ccc(-c3c4nc(c(-c5ccc(S(=O)(=O)[O-])cc5)c5ccc([nH]5)c(-c5ccc(S(=O)(=O)[O-])cc5)c5nc(c(-c6ccc(S(=O)(=O)[O-])cc6)c6ccc3[nH]6)C=C5)C=C4)cc2)cc1
REMARK SMILES IDX 20 1 19 2 17 3 18 4 16 5 8 6 9 7 10 8 15 9 11 10 14 11 12 12
REMARK SMILES IDX 13 13 6 15 7 16 5 17 2 18 3 19 86 20 4 21 85 22 1 23 21 26
REMARK SMILES IDX 22 27 23 28 24 29 25 30 26 31 84 32 27 33 83 34 28 35 29 36
REMARK SMILES IDX 30 37 77 38 31 39 82 40 76 41 78 42 32 43 81 44 75 45 74 46
REMARK SMILES IDX 33 48 63 49 44 50 62 51 45 52 48 53 61 54 79 55 46 56 47 57
REMARK SMILES IDX 60 59 80 60 49 61 34 62 35 63 43 64 36 65 42 66 37 67 38 68
REMARK SMILES IDX 39 69 40 70 41 71 64 72 65 73 73 74 66 75 72 76 67 77 68 78
REMARK SMILES IDX 69 79 70 80 71 81 50 82 51 83 59 84 52 85 58 86 53 87 54 88
REMARK SMILES IDX 55 89 56 90 57 91
REMARK H PARENT 13 14 1 24 1 25 78 47 48 58
REMARK Flexibility Score: inf
ROOT
ATOM      1  C   UNL A   1      36.191  22.467  25.023  1.00  0.00     0.274 C 
ENDROOT
BRANCH   1   2
ATOM      2  O   UNL A   1      35.468  23.460  25.779  1.00  0.00    -0.461 OA
BRANCH   2   3
ATOM      3  C   UNL A   1      34.391  24.030  25.167  1.00  0.00     0.329 C 
ATOM      4  O   UNL A   1      34.447  24.598  24.077  1.00  0.00    -0.250 OA
BRANCH   3   5
ATOM      5  C   UNL A   1      33.111  24.051  26.034  1.00  0.00     0.201 C 
ATOM      6  N   UNL A   1      31.771  23.963  25.374  1.00  0.00    -0.318 N 
ATOM      7  C   UNL A   1      31.364  22.703  24.721  1.00  0.00     0.179 C 
ATOM      8  C   UNL A   1      32.074  21.543  25.340  1.00  0.00     0.081 A 
ATOM      9  C   UNL A   1      33.298  22.915  27.080  1.00  0.00     0.093 C 
ATOM     10  N   UNL A   1      32.065  20.260  24.854  1.00  0.00    -0.240 NA
ATOM     11  C   UNL A   1      32.947  21.643  26.400  1.00  0.00     0.042 A 
ATOM     12  C   UNL A   1      32.925  19.605  25.605  1.00  0.00     0.197 A 
ATOM     13  N   UNL A   1      33.488  20.406  26.565  1.00  0.00    -0.348 N 
ATOM     14  H   UNL A   1      34.153  20.139  27.240  1.00  0.00     0.167 HD
BRANCH   6  15
ATOM     15  C   UNL A   1      30.764  24.767  25.900  1.00  0.00     0.254 C 
ATOM     16  O   UNL A   1      30.107  24.428  26.881  1.00  0.00    -0.269 OA
BRANCH  15  17
ATOM     17  C   UNL A   1      30.618  26.132  25.303  1.00  0.00     0.040 A 
ATOM     18  C   UNL A   1      30.576  28.661  24.043  1.00  0.00     0.031 A 
ATOM     19  C   UNL A   1      31.332  28.455  25.198  1.00  0.00     0.026 A 
ATOM     20  C   UNL A   1      29.785  27.614  23.571  1.00  0.00     0.026 A 
ATOM     21  C   UNL A   1      31.360  27.199  25.825  1.00  0.00     0.016 A 
ATOM     22  C   UNL A   1      29.805  26.362  24.193  1.00  0.00     0.016 A 
BRANCH  18  23
ATOM     23  N   UNL A   1      30.568  29.886  23.406  1.00  0.00    -0.399 N 
ATOM     24  H   UNL A   1      30.557  29.929  22.423  1.00  0.00     0.156 HD
ATOM     25  H   UNL A   1      30.573  30.715  23.936  1.00  0.00     0.156 HD
ENDBRANCH  18  23
ENDBRANCH  15  17
ENDBRANCH   6  15
ENDBRANCH   3   5
ENDBRANCH   2   3
ENDBRANCH   1   2
BRANCH   1  26
ATOM     26  C   UNL A   1      37.265  21.746  25.849  1.00  0.00     0.275 C 
BRANCH  26  27
ATOM     27  O   UNL A   1      38.596  21.798  25.309  1.00  0.00    -0.458 OA
BRANCH  27  28
ATOM     28  C   UNL A   1      39.541  21.886  26.268  1.00  0.00     0.338 C 
ATOM     29  O   UNL A   1      39.838  21.023  27.071  1.00  0.00    -0.246 OA
BRANCH  28  30
ATOM     30  C   UNL A   1      40.068  23.231  26.469  1.00  0.00     0.060 A 
ATOM     31  C   UNL A   1      41.306  23.282  27.113  1.00  0.00     0.016 A 
ATOM     32  C   UNL A   1      39.221  24.342  26.409  1.00  0.00     0.016 A 
ATOM     33  C   UNL A   1      41.619  24.399  27.850  1.00  0.00     0.010 A 
ATOM     34  C   UNL A   1      39.562  25.479  27.127  1.00  0.00     0.010 A 
ATOM     35  C   UNL A   1      40.721  25.475  27.907  1.00  0.00    -0.014 A 
BRANCH  35  36
ATOM     36  C   UNL A   1      41.168  26.650  28.659  1.00  0.00     0.031 A 
ATOM     37  C   UNL A   1      42.398  27.246  28.076  1.00  0.00     0.074 A 
ATOM     38  C   UNL A   1      40.509  27.195  29.702  1.00  0.00     0.049 A 
ATOM     39  N   UNL A   1      43.533  27.460  28.657  1.00  0.00    -0.248 NA
ATOM     40  C   UNL A   1      42.418  27.450  26.613  1.00  0.00     0.031 C 
ATOM     41  C   UNL A   1      39.210  26.769  30.229  1.00  0.00     0.029 A 
ATOM     42  N   UNL A   1      40.791  28.314  30.445  1.00  0.00    -0.354 N 
ATOM     43  C   UNL A   1      44.327  28.051  27.680  1.00  0.00     0.074 A 
ATOM     44  C   UNL A   1      43.679  27.820  26.415  1.00  0.00     0.031 C 
ATOM     45  C   UNL A   1      38.708  27.743  31.018  1.00  0.00     0.029 A 
ATOM     46  C   UNL A   1      39.689  28.809  31.140  1.00  0.00     0.049 A 
ATOM     47  H   UNL A   1      41.685  28.725  30.484  1.00  0.00     0.167 HD
ATOM     48  C   UNL A   1      45.241  29.001  28.006  1.00  0.00     0.031 A 
ATOM     49  C   UNL A   1      39.546  30.027  31.723  1.00  0.00     0.031 A 
ATOM     50  C   UNL A   1      45.641  28.919  29.381  1.00  0.00     0.049 A 
ATOM     51  C   UNL A   1      40.889  30.608  31.930  1.00  0.00     0.074 A 
ATOM     52  C   UNL A   1      46.417  28.081  30.147  1.00  0.00     0.029 A 
ATOM     53  N   UNL A   1      44.892  29.685  30.235  1.00  0.00    -0.354 N 
ATOM     54  N   UNL A   1      41.722  30.186  32.835  1.00  0.00    -0.248 NA
ATOM     55  C   UNL A   1      41.447  31.519  30.937  1.00  0.00     0.031 C 
ATOM     56  C   UNL A   1      45.992  28.264  31.495  1.00  0.00     0.029 A 
ATOM     57  C   UNL A   1      44.986  29.227  31.520  1.00  0.00     0.049 A 
ATOM     58  H   UNL A   1      44.356  30.464  29.959  1.00  0.00     0.167 HD
ATOM     59  C   UNL A   1      42.967  30.429  32.292  1.00  0.00     0.074 A 
ATOM     60  C   UNL A   1      42.745  31.392  31.224  1.00  0.00     0.031 C 
ATOM     61  C   UNL A   1      44.002  29.576  32.524  1.00  0.00     0.031 A 
BRANCH  48  62
ATOM     62  C   UNL A   1      45.318  30.306  27.237  1.00  0.00    -0.014 A 
ATOM     63  C   UNL A   1      46.574  30.907  27.035  1.00  0.00     0.010 A 
ATOM     64  C   UNL A   1      44.180  31.103  26.977  1.00  0.00     0.010 A 
ATOM     65  C   UNL A   1      46.680  32.245  26.628  1.00  0.00     0.020 A 
ATOM     66  C   UNL A   1      44.273  32.421  26.533  1.00  0.00     0.020 A 
ATOM     67  C   UNL A   1      45.525  32.993  26.386  1.00  0.00     0.054 A 
BRANCH  67  68
ATOM     68  S   UNL A   1      45.661  34.738  25.930  1.00  0.00     0.124 S 
ATOM     69  O   UNL A   1      46.439  35.278  27.040  1.00  0.00    -0.237 OA
ATOM     70  O   UNL A   1      46.349  34.666  24.643  1.00  0.00    -0.237 OA
ATOM     71  O   UNL A   1      44.270  35.182  25.863  1.00  0.00    -0.744 OA
ENDBRANCH  67  68
ENDBRANCH  48  62
BRANCH  49  72
ATOM     72  C   UNL A   1      38.322  30.828  31.991  1.00  0.00    -0.014 A 
ATOM     73  C   UNL A   1      37.655  30.713  33.228  1.00  0.00     0.010 A 
ATOM     74  C   UNL A   1      37.968  31.905  31.157  1.00  0.00     0.010 A 
ATOM     75  C   UNL A   1      36.742  31.691  33.655  1.00  0.00     0.020 A 
ATOM     76  C   UNL A   1      37.044  32.874  31.567  1.00  0.00     0.020 A 
ATOM     77  C   UNL A   1      36.464  32.782  32.831  1.00  0.00     0.054 A 
BRANCH  77  78
ATOM     78  S   UNL A   1      35.464  34.154  33.478  1.00  0.00     0.124 S 
ATOM     79  O   UNL A   1      36.263  35.321  33.116  1.00  0.00    -0.237 OA
ATOM     80  O   UNL A   1      34.206  34.000  32.755  1.00  0.00    -0.237 OA
ATOM     81  O   UNL A   1      35.388  33.875  34.912  1.00  0.00    -0.744 OA
ENDBRANCH  77  78
ENDBRANCH  49  72
BRANCH  61  82
ATOM     82  C   UNL A   1      44.034  28.854  33.841  1.00  0.00    -0.014 A 
ATOM     83  C   UNL A   1      43.520  27.566  34.068  1.00  0.00     0.010 A 
ATOM     84  C   UNL A   1      44.663  29.528  34.905  1.00  0.00     0.010 A 
ATOM     85  C   UNL A   1      43.603  26.982  35.340  1.00  0.00     0.020 A 
ATOM     86  C   UNL A   1      44.770  28.944  36.165  1.00  0.00     0.020 A 
ATOM     87  C   UNL A   1      44.226  27.679  36.382  1.00  0.00     0.054 A 
BRANCH  87  88
ATOM     88  S   UNL A   1      44.345  26.917  38.021  1.00  0.00     0.124 S 
ATOM     89  O   UNL A   1      45.409  25.934  37.836  1.00  0.00    -0.237 OA
ATOM     90  O   UNL A   1      44.677  28.050  38.881  1.00  0.00    -0.237 OA
ATOM     91  O   UNL A   1      43.014  26.353  38.240  1.00  0.00    -0.744 OA
ENDBRANCH  87  88
ENDBRANCH  61  82
ENDBRANCH  35  36
ENDBRANCH  28  30
ENDBRANCH  27  28
ENDBRANCH  26  27
ENDBRANCH   1  26
TORSDOF 17
ENDMDL
