MODEL 1
REMARK VINA RESULT:     -11.0      0.000      0.000
REMARK SMILES C[C@H]1[C@@H](C(=O)OCCOC(=O)c2ccc(-c3c4nc(c(-c5ccc(S(=O)(=O)[O-])cc5)c5ccc([nH]5)c(-c5ccc(S(=O)(=O)[O-])cc5)c5nc(c(-c6ccc(S(=O)(=O)[O-])cc6)c6ccc3[nH]6)C=C5)C=C4)cc2)CCN1S(=O)(=O)Cc1cccc(C#N)c1
REMARK SMILES IDX 7 1 6 2 4 3 5 4 3 5 1 6 2 7 74 8 72 9 73 10 75 11 76 12
REMARK SMILES IDX 77 13 78 14 79 15 80 16 86 17 81 18 83 19 82 20 84 21 85 22
REMARK SMILES IDX 8 23 9 24 10 25 11 26 12 27 13 28 71 29 14 30 70 31 15 32
REMARK SMILES IDX 16 33 17 34 64 35 18 36 69 37 63 38 65 39 19 40 68 41 62 42
REMARK SMILES IDX 61 43 20 45 50 46 31 47 49 48 32 49 35 50 48 51 66 52 33 53
REMARK SMILES IDX 34 54 47 56 67 57 36 58 21 59 22 60 30 61 23 62 29 63 24 64
REMARK SMILES IDX 25 65 26 66 27 67 28 68 51 69 52 70 60 71 53 72 59 73 54 74
REMARK SMILES IDX 55 75 56 76 57 77 58 78 37 79 38 80 46 81 39 82 45 83 40 84
REMARK SMILES IDX 41 85 42 86 43 87 44 88
REMARK H PARENT 65 44 35 55
REMARK Flexibility Score: inf
ROOT
ATOM      1  C   UNL A   1      32.714  30.266  27.301  1.00  0.00     0.274 C 
ENDROOT
BRANCH   1   2
ATOM      2  O   UNL A   1      31.963  29.103  26.886  1.00  0.00    -0.462 OA
BRANCH   2   3
ATOM      3  C   UNL A   1      31.554  28.995  25.605  1.00  0.00     0.310 C 
ATOM      4  O   UNL A   1      31.341  29.959  24.877  1.00  0.00    -0.252 OA
BRANCH   3   5
ATOM      5  C   UNL A   1      31.423  27.557  25.106  1.00  0.00     0.118 C 
ATOM      6  C   UNL A   1      33.794  27.645  24.000  1.00  0.00     0.027 C 
ATOM      7  C   UNL A   1      32.636  26.804  24.527  1.00  0.00     0.084 C 
ATOM      8  N   UNL A   1      32.106  26.005  23.362  1.00  0.00    -0.198 NA
ATOM      9  C   UNL A   1      30.307  27.365  24.079  1.00  0.00     0.034 C 
ATOM     10  C   UNL A   1      30.968  26.805  22.838  1.00  0.00     0.103 C 
BRANCH   8  11
ATOM     11  S   UNL A   1      31.722  24.367  23.617  1.00  0.00     0.218 S 
ATOM     12  O   UNL A   1      32.000  24.080  25.012  1.00  0.00    -0.212 OA
ATOM     13  O   UNL A   1      30.399  24.130  23.077  1.00  0.00    -0.212 OA
BRANCH  11  14
ATOM     14  C   UNL A   1      32.916  23.451  22.628  1.00  0.00     0.189 C 
BRANCH  14  15
ATOM     15  C   UNL A   1      33.590  22.358  23.415  1.00  0.00    -0.030 A 
ATOM     16  C   UNL A   1      34.901  22.502  23.888  1.00  0.00     0.005 A 
ATOM     17  C   UNL A   1      32.909  21.163  23.688  1.00  0.00     0.024 A 
ATOM     18  C   UNL A   1      35.497  21.496  24.653  1.00  0.00     0.002 A 
ATOM     19  C   UNL A   1      33.483  20.176  24.498  1.00  0.00     0.052 A 
ATOM     20  C   UNL A   1      34.784  20.341  24.973  1.00  0.00     0.019 A 
BRANCH  19  21
ATOM     21  C   UNL A   1      32.715  19.021  24.871  1.00  0.00     0.099 C 
ATOM     22  N   UNL A   1      32.112  18.077  25.162  1.00  0.00    -0.192 NA
ENDBRANCH  19  21
ENDBRANCH  14  15
ENDBRANCH  11  14
ENDBRANCH   8  11
ENDBRANCH   3   5
ENDBRANCH   2   3
ENDBRANCH   1   2
BRANCH   1  23
ATOM     23  C   UNL A   1      34.176  30.109  26.887  1.00  0.00     0.275 C 
BRANCH  23  24
ATOM     24  O   UNL A   1      34.899  29.406  27.910  1.00  0.00    -0.458 OA
BRANCH  24  25
ATOM     25  C   UNL A   1      35.754  30.176  28.615  1.00  0.00     0.338 C 
ATOM     26  O   UNL A   1      35.497  31.171  29.271  1.00  0.00    -0.246 OA
BRANCH  25  27
ATOM     27  C   UNL A   1      37.094  29.588  28.579  1.00  0.00     0.060 A 
ATOM     28  C   UNL A   1      37.670  29.158  29.774  1.00  0.00     0.016 A 
ATOM     29  C   UNL A   1      37.846  29.663  27.411  1.00  0.00     0.016 A 
ATOM     30  C   UNL A   1      39.037  28.937  29.840  1.00  0.00     0.010 A 
ATOM     31  C   UNL A   1      39.189  29.294  27.451  1.00  0.00     0.010 A 
ATOM     32  C   UNL A   1      39.803  28.955  28.672  1.00  0.00    -0.014 A 
BRANCH  32  33
ATOM     33  C   UNL A   1      41.236  28.576  28.699  1.00  0.00     0.031 A 
ATOM     34  C   UNL A   1      42.289  29.632  28.883  1.00  0.00     0.074 A 
ATOM     35  C   UNL A   1      41.580  27.292  28.474  1.00  0.00     0.049 A 
ATOM     36  N   UNL A   1      43.570  29.567  28.637  1.00  0.00    -0.248 NA
ATOM     37  C   UNL A   1      41.837  30.940  29.388  1.00  0.00     0.031 C 
ATOM     38  C   UNL A   1      40.647  26.168  28.344  1.00  0.00     0.029 A 
ATOM     39  N   UNL A   1      42.811  26.717  28.286  1.00  0.00    -0.354 N 
ATOM     40  C   UNL A   1      44.070  30.837  28.900  1.00  0.00     0.074 A 
ATOM     41  C   UNL A   1      42.953  31.654  29.322  1.00  0.00     0.031 C 
ATOM     42  C   UNL A   1      41.335  25.044  28.106  1.00  0.00     0.029 A 
ATOM     43  C   UNL A   1      42.740  25.384  27.952  1.00  0.00     0.049 A 
ATOM     44  H   UNL A   1      43.659  27.207  28.381  1.00  0.00     0.167 HD
ATOM     45  C   UNL A   1      45.346  31.274  28.782  1.00  0.00     0.031 A 
ATOM     46  C   UNL A   1      43.684  24.541  27.497  1.00  0.00     0.031 A 
ATOM     47  C   UNL A   1      46.437  30.429  28.369  1.00  0.00     0.049 A 
ATOM     48  C   UNL A   1      45.075  25.065  27.298  1.00  0.00     0.074 A 
ATOM     49  C   UNL A   1      47.774  30.757  28.228  1.00  0.00     0.029 A 
ATOM     50  N   UNL A   1      46.316  29.087  28.035  1.00  0.00    -0.354 N 
ATOM     51  N   UNL A   1      45.532  26.276  27.514  1.00  0.00    -0.248 NA
ATOM     52  C   UNL A   1      46.075  24.120  26.789  1.00  0.00     0.031 C 
ATOM     53  C   UNL A   1      48.449  29.631  27.748  1.00  0.00     0.029 A 
ATOM     54  C   UNL A   1      47.548  28.580  27.666  1.00  0.00     0.049 A 
ATOM     55  H   UNL A   1      45.476  28.573  28.057  1.00  0.00     0.167 HD
ATOM     56  C   UNL A   1      46.886  26.227  27.207  1.00  0.00     0.074 A 
ATOM     57  C   UNL A   1      47.170  24.869  26.787  1.00  0.00     0.031 C 
ATOM     58  C   UNL A   1      47.809  27.215  27.274  1.00  0.00     0.031 A 
BRANCH  45  59
ATOM     59  C   UNL A   1      45.626  32.732  29.047  1.00  0.00    -0.014 A 
ATOM     60  C   UNL A   1      46.006  33.194  30.320  1.00  0.00     0.010 A 
ATOM     61  C   UNL A   1      45.556  33.652  27.982  1.00  0.00     0.010 A 
ATOM     62  C   UNL A   1      46.271  34.551  30.531  1.00  0.00     0.020 A 
ATOM     63  C   UNL A   1      45.851  35.003  28.182  1.00  0.00     0.020 A 
ATOM     64  C   UNL A   1      46.191  35.448  29.460  1.00  0.00     0.054 A 
BRANCH  64  65
ATOM     65  S   UNL A   1      46.562  37.198  29.759  1.00  0.00     0.124 S 
ATOM     66  O   UNL A   1      46.682  37.719  28.400  1.00  0.00    -0.237 OA
ATOM     67  O   UNL A   1      45.389  37.651  30.504  1.00  0.00    -0.237 OA
ATOM     68  O   UNL A   1      47.806  37.165  30.525  1.00  0.00    -0.744 OA
ENDBRANCH  64  65
ENDBRANCH  45  59
BRANCH  46  69
ATOM     69  C   UNL A   1      43.321  23.139  27.156  1.00  0.00    -0.014 A 
ATOM     70  C   UNL A   1      43.419  22.679  25.833  1.00  0.00     0.010 A 
ATOM     71  C   UNL A   1      42.916  22.240  28.163  1.00  0.00     0.010 A 
ATOM     72  C   UNL A   1      43.104  21.354  25.519  1.00  0.00     0.020 A 
ATOM     73  C   UNL A   1      42.634  20.906  27.859  1.00  0.00     0.020 A 
ATOM     74  C   UNL A   1      42.717  20.475  26.535  1.00  0.00     0.054 A 
BRANCH  74  75
ATOM     75  S   UNL A   1      42.357  18.750  26.106  1.00  0.00     0.124 S 
ATOM     76  O   UNL A   1      42.569  18.070  27.380  1.00  0.00    -0.237 OA
ATOM     77  O   UNL A   1      40.971  18.822  25.648  1.00  0.00    -0.237 OA
ATOM     78  O   UNL A   1      43.335  18.445  25.062  1.00  0.00    -0.744 OA
ENDBRANCH  74  75
ENDBRANCH  46  69
BRANCH  58  79
ATOM     79  C   UNL A   1      49.235  26.857  26.960  1.00  0.00    -0.014 A 
ATOM     80  C   UNL A   1      50.129  26.452  27.964  1.00  0.00     0.010 A 
ATOM     81  C   UNL A   1      49.645  26.825  25.615  1.00  0.00     0.010 A 
ATOM     82  C   UNL A   1      51.414  26.021  27.626  1.00  0.00     0.020 A 
ATOM     83  C   UNL A   1      50.918  26.367  25.270  1.00  0.00     0.020 A 
ATOM     84  C   UNL A   1      51.795  25.969  26.281  1.00  0.00     0.054 A 
BRANCH  84  85
ATOM     85  S   UNL A   1      53.431  25.308  25.864  1.00  0.00     0.124 S 
ATOM     86  O   UNL A   1      53.109  23.957  25.415  1.00  0.00    -0.237 OA
ATOM     87  O   UNL A   1      53.888  26.225  24.822  1.00  0.00    -0.237 OA
ATOM     88  O   UNL A   1      54.168  25.388  27.122  1.00  0.00    -0.744 OA
ENDBRANCH  84  85
ENDBRANCH  58  79
ENDBRANCH  32  33
ENDBRANCH  25  27
ENDBRANCH  24  25
ENDBRANCH  23  24
ENDBRANCH   1  23
TORSDOF 18
ENDMDL
MODEL 2
REMARK VINA RESULT:     -10.7      1.700      2.378
REMARK SMILES C[C@H]1[C@@H](C(=O)OCCOC(=O)c2ccc(-c3c4nc(c(-c5ccc(S(=O)(=O)[O-])cc5)c5ccc([nH]5)c(-c5ccc(S(=O)(=O)[O-])cc5)c5nc(c(-c6ccc(S(=O)(=O)[O-])cc6)c6ccc3[nH]6)C=C5)C=C4)cc2)CCN1S(=O)(=O)Cc1cccc(C#N)c1
REMARK SMILES IDX 7 1 6 2 4 3 5 4 3 5 1 6 2 7 74 8 72 9 73 10 75 11 76 12
REMARK SMILES IDX 77 13 78 14 79 15 80 16 86 17 81 18 83 19 82 20 84 21 85 22
REMARK SMILES IDX 8 23 9 24 10 25 11 26 12 27 13 28 71 29 14 30 70 31 15 32
REMARK SMILES IDX 16 33 17 34 64 35 18 36 69 37 63 38 65 39 19 40 68 41 62 42
REMARK SMILES IDX 61 43 20 45 50 46 31 47 49 48 32 49 35 50 48 51 66 52 33 53
REMARK SMILES IDX 34 54 47 56 67 57 36 58 21 59 22 60 30 61 23 62 29 63 24 64
REMARK SMILES IDX 25 65 26 66 27 67 28 68 51 69 52 70 60 71 53 72 59 73 54 74
REMARK SMILES IDX 55 75 56 76 57 77 58 78 37 79 38 80 46 81 39 82 45 83 40 84
REMARK SMILES IDX 41 85 42 86 43 87 44 88
REMARK H PARENT 65 44 35 55
REMARK Flexibility Score: inf
ROOT
ATOM      1  C   UNL A   1      31.898  29.954  26.820  1.00  0.00     0.274 C 
ENDROOT
BRANCH   1   2
ATOM      2  O   UNL A   1      31.321  29.031  25.870  1.00  0.00    -0.462 OA
BRANCH   2   3
ATOM      3  C   UNL A   1      31.378  27.704  26.108  1.00  0.00     0.310 C 
ATOM      4  O   UNL A   1      31.175  27.204  27.208  1.00  0.00    -0.252 OA
BRANCH   3   5
ATOM      5  C   UNL A   1      31.669  26.856  24.871  1.00  0.00     0.118 C 
ATOM      6  C   UNL A   1      33.532  25.519  26.134  1.00  0.00     0.027 C 
ATOM      7  C   UNL A   1      32.563  25.604  24.960  1.00  0.00     0.084 C 
ATOM      8  N   UNL A   1      33.395  25.603  23.701  1.00  0.00    -0.198 NA
ATOM      9  C   UNL A   1      32.224  27.659  23.695  1.00  0.00     0.034 C 
ATOM     10  C   UNL A   1      33.562  27.038  23.354  1.00  0.00     0.103 C 
BRANCH   8  11
ATOM     11  S   UNL A   1      32.876  24.644  22.394  1.00  0.00     0.218 S 
ATOM     12  O   UNL A   1      31.590  24.085  22.764  1.00  0.00    -0.212 OA
ATOM     13  O   UNL A   1      33.004  25.433  21.186  1.00  0.00    -0.212 OA
BRANCH  11  14
ATOM     14  C   UNL A   1      34.056  23.287  22.318  1.00  0.00     0.189 C 
BRANCH  14  15
ATOM     15  C   UNL A   1      34.461  22.805  23.686  1.00  0.00    -0.030 A 
ATOM     16  C   UNL A   1      33.569  22.099  24.505  1.00  0.00     0.005 A 
ATOM     17  C   UNL A   1      35.752  23.060  24.170  1.00  0.00     0.024 A 
ATOM     18  C   UNL A   1      33.974  21.622  25.754  1.00  0.00     0.002 A 
ATOM     19  C   UNL A   1      36.178  22.539  25.397  1.00  0.00     0.052 A 
ATOM     20  C   UNL A   1      35.282  21.826  26.194  1.00  0.00     0.019 A 
BRANCH  19  21
ATOM     21  C   UNL A   1      37.544  22.703  25.808  1.00  0.00     0.099 C 
ATOM     22  N   UNL A   1      38.650  22.815  26.129  1.00  0.00    -0.192 NA
ENDBRANCH  19  21
ENDBRANCH  14  15
ENDBRANCH  11  14
ENDBRANCH   8  11
ENDBRANCH   3   5
ENDBRANCH   2   3
ENDBRANCH   1   2
BRANCH   1  23
ATOM     23  C   UNL A   1      33.399  30.081  26.567  1.00  0.00     0.275 C 
BRANCH  23  24
ATOM     24  O   UNL A   1      34.128  29.512  27.666  1.00  0.00    -0.458 OA
BRANCH  24  25
ATOM     25  C   UNL A   1      34.902  30.393  28.335  1.00  0.00     0.338 C 
ATOM     26  O   UNL A   1      34.563  31.445  28.851  1.00  0.00    -0.246 OA
BRANCH  25  27
ATOM     27  C   UNL A   1      36.261  29.864  28.459  1.00  0.00     0.060 A 
ATOM     28  C   UNL A   1      36.703  29.439  29.712  1.00  0.00     0.016 A 
ATOM     29  C   UNL A   1      37.147  29.990  27.396  1.00  0.00     0.016 A 
ATOM     30  C   UNL A   1      38.059  29.275  29.946  1.00  0.00     0.010 A 
ATOM     31  C   UNL A   1      38.490  29.677  27.598  1.00  0.00     0.010 A 
ATOM     32  C   UNL A   1      38.963  29.345  28.882  1.00  0.00    -0.014 A 
BRANCH  32  33
ATOM     33  C   UNL A   1      40.397  29.026  29.083  1.00  0.00     0.031 A 
ATOM     34  C   UNL A   1      41.359  30.111  29.476  1.00  0.00     0.074 A 
ATOM     35  C   UNL A   1      40.834  27.776  28.829  1.00  0.00     0.049 A 
ATOM     36  N   UNL A   1      42.663  30.118  29.406  1.00  0.00    -0.248 NA
ATOM     37  C   UNL A   1      40.776  31.361  29.994  1.00  0.00     0.031 C 
ATOM     38  C   UNL A   1      39.986  26.625  28.502  1.00  0.00     0.029 A 
ATOM     39  N   UNL A   1      42.107  27.268  28.778  1.00  0.00    -0.354 N 
ATOM     40  C   UNL A   1      43.057  31.387  29.813  1.00  0.00     0.074 A 
ATOM     41  C   UNL A   1      41.852  32.125  30.127  1.00  0.00     0.031 C 
ATOM     42  C   UNL A   1      40.757  25.550  28.292  1.00  0.00     0.029 A 
ATOM     43  C   UNL A   1      42.150  25.960  28.355  1.00  0.00     0.049 A 
ATOM     44  H   UNL A   1      42.908  27.787  29.019  1.00  0.00     0.167 HD
ATOM     45  C   UNL A   1      44.313  31.885  29.900  1.00  0.00     0.031 A 
ATOM     46  C   UNL A   1      43.190  25.191  27.984  1.00  0.00     0.031 A 
ATOM     47  C   UNL A   1      45.492  31.118  29.590  1.00  0.00     0.049 A 
ATOM     48  C   UNL A   1      44.566  25.787  28.011  1.00  0.00     0.074 A 
ATOM     49  C   UNL A   1      46.816  31.511  29.656  1.00  0.00     0.029 A 
ATOM     50  N   UNL A   1      45.486  29.798  29.161  1.00  0.00    -0.354 N 
ATOM     51  N   UNL A   1      44.926  26.998  28.363  1.00  0.00    -0.248 NA
ATOM     52  C   UNL A   1      45.673  24.922  27.587  1.00  0.00     0.031 C 
ATOM     53  C   UNL A   1      47.607  30.451  29.204  1.00  0.00     0.029 A 
ATOM     54  C   UNL A   1      46.782  29.370  28.934  1.00  0.00     0.049 A 
ATOM     55  H   UNL A   1      44.679  29.248  29.034  1.00  0.00     0.167 HD
ATOM     56  C   UNL A   1      46.309  27.029  28.243  1.00  0.00     0.074 A 
ATOM     57  C   UNL A   1      46.718  25.715  27.783  1.00  0.00     0.031 C 
ATOM     58  C   UNL A   1      47.163  28.048  28.498  1.00  0.00     0.031 A 
BRANCH  45  59
ATOM     59  C   UNL A   1      44.479  33.332  30.291  1.00  0.00    -0.014 A 
ATOM     60  C   UNL A   1      44.422  34.367  29.341  1.00  0.00     0.010 A 
ATOM     61  C   UNL A   1      44.644  33.664  31.650  1.00  0.00     0.010 A 
ATOM     62  C   UNL A   1      44.567  35.701  29.736  1.00  0.00     0.020 A 
ATOM     63  C   UNL A   1      44.758  34.998  32.053  1.00  0.00     0.020 A 
ATOM     64  C   UNL A   1      44.735  36.008  31.091  1.00  0.00     0.054 A 
BRANCH  64  65
ATOM     65  S   UNL A   1      44.898  37.748  31.577  1.00  0.00     0.124 S 
ATOM     66  O   UNL A   1      46.337  37.870  31.791  1.00  0.00    -0.237 OA
ATOM     67  O   UNL A   1      44.374  38.456  30.411  1.00  0.00    -0.237 OA
ATOM     68  O   UNL A   1      44.079  37.852  32.783  1.00  0.00    -0.744 OA
ENDBRANCH  64  65
ENDBRANCH  45  59
BRANCH  46  69
ATOM     69  C   UNL A   1      42.948  23.801  27.509  1.00  0.00    -0.014 A 
ATOM     70  C   UNL A   1      42.960  22.728  28.414  1.00  0.00     0.010 A 
ATOM     71  C   UNL A   1      42.660  23.549  26.153  1.00  0.00     0.010 A 
ATOM     72  C   UNL A   1      42.705  21.427  27.972  1.00  0.00     0.020 A 
ATOM     73  C   UNL A   1      42.371  22.255  25.713  1.00  0.00     0.020 A 
ATOM     74  C   UNL A   1      42.409  21.199  26.625  1.00  0.00     0.054 A 
BRANCH  74  75
ATOM     75  S   UNL A   1      42.038  19.507  26.087  1.00  0.00     0.124 S 
ATOM     76  O   UNL A   1      42.917  19.357  24.931  1.00  0.00    -0.237 OA
ATOM     77  O   UNL A   1      42.397  18.717  27.263  1.00  0.00    -0.237 OA
ATOM     78  O   UNL A   1      40.608  19.548  25.786  1.00  0.00    -0.744 OA
ENDBRANCH  74  75
ENDBRANCH  46  69
BRANCH  58  79
ATOM     79  C   UNL A   1      48.634  27.773  28.363  1.00  0.00    -0.014 A 
ATOM     80  C   UNL A   1      49.305  27.941  27.140  1.00  0.00     0.010 A 
ATOM     81  C   UNL A   1      49.371  27.443  29.515  1.00  0.00     0.010 A 
ATOM     82  C   UNL A   1      50.691  27.782  27.073  1.00  0.00     0.020 A 
ATOM     83  C   UNL A   1      50.759  27.312  29.458  1.00  0.00     0.020 A 
ATOM     84  C   UNL A   1      51.410  27.481  28.235  1.00  0.00     0.054 A 
BRANCH  84  85
ATOM     85  S   UNL A   1      53.218  27.383  28.139  1.00  0.00     0.124 S 
ATOM     86  O   UNL A   1      53.469  25.995  28.511  1.00  0.00    -0.237 OA
ATOM     87  O   UNL A   1      53.480  27.717  26.741  1.00  0.00    -0.237 OA
ATOM     88  O   UNL A   1      53.671  28.380  29.107  1.00  0.00    -0.744 OA
ENDBRANCH  84  85
ENDBRANCH  58  79
ENDBRANCH  32  33
ENDBRANCH  25  27
ENDBRANCH  24  25
ENDBRANCH  23  24
ENDBRANCH   1  23
TORSDOF 18
ENDMDL
MODEL 3
REMARK VINA RESULT:     -10.5      6.514     11.979
REMARK SMILES C[C@H]1[C@@H](C(=O)OCCOC(=O)c2ccc(-c3c4nc(c(-c5ccc(S(=O)(=O)[O-])cc5)c5ccc([nH]5)c(-c5ccc(S(=O)(=O)[O-])cc5)c5nc(c(-c6ccc(S(=O)(=O)[O-])cc6)c6ccc3[nH]6)C=C5)C=C4)cc2)CCN1S(=O)(=O)Cc1cccc(C#N)c1
REMARK SMILES IDX 7 1 6 2 4 3 5 4 3 5 1 6 2 7 74 8 72 9 73 10 75 11 76 12
REMARK SMILES IDX 77 13 78 14 79 15 80 16 86 17 81 18 83 19 82 20 84 21 85 22
REMARK SMILES IDX 8 23 9 24 10 25 11 26 12 27 13 28 71 29 14 30 70 31 15 32
REMARK SMILES IDX 16 33 17 34 64 35 18 36 69 37 63 38 65 39 19 40 68 41 62 42
REMARK SMILES IDX 61 43 20 45 50 46 31 47 49 48 32 49 35 50 48 51 66 52 33 53
REMARK SMILES IDX 34 54 47 56 67 57 36 58 21 59 22 60 30 61 23 62 29 63 24 64
REMARK SMILES IDX 25 65 26 66 27 67 28 68 51 69 52 70 60 71 53 72 59 73 54 74
REMARK SMILES IDX 55 75 56 76 57 77 58 78 37 79 38 80 46 81 39 82 45 83 40 84
REMARK SMILES IDX 41 85 42 86 43 87 44 88
REMARK H PARENT 65 44 35 55
REMARK Flexibility Score: inf
ROOT
ATOM      1  C   UNL A   1      37.980  22.266  25.874  1.00  0.00     0.274 C 
ENDROOT
BRANCH   1   2
ATOM      2  O   UNL A   1      37.195  22.016  24.687  1.00  0.00    -0.462 OA
BRANCH   2   3
ATOM      3  C   UNL A   1      35.951  21.506  24.805  1.00  0.00     0.310 C 
ATOM      4  O   UNL A   1      35.722  20.339  25.102  1.00  0.00    -0.252 OA
BRANCH   3   5
ATOM      5  C   UNL A   1      34.832  22.523  24.588  1.00  0.00     0.118 C 
ATOM      6  C   UNL A   1      34.520  22.844  27.166  1.00  0.00     0.027 C 
ATOM      7  C   UNL A   1      34.293  23.373  25.754  1.00  0.00     0.084 C 
ATOM      8  N   UNL A   1      32.801  23.455  25.549  1.00  0.00    -0.198 NA
ATOM      9  C   UNL A   1      33.591  21.931  23.920  1.00  0.00     0.034 C 
ATOM     10  C   UNL A   1      32.439  22.184  24.869  1.00  0.00     0.103 C 
BRANCH   8  11
ATOM     11  S   UNL A   1      32.170  24.837  24.782  1.00  0.00     0.218 S 
ATOM     12  O   UNL A   1      33.289  25.535  24.178  1.00  0.00    -0.212 OA
ATOM     13  O   UNL A   1      31.049  24.419  23.964  1.00  0.00    -0.212 OA
BRANCH  11  14
ATOM     14  C   UNL A   1      31.547  25.867  26.120  1.00  0.00     0.189 C 
BRANCH  14  15
ATOM     15  C   UNL A   1      31.609  27.335  25.787  1.00  0.00    -0.030 A 
ATOM     16  C   UNL A   1      30.841  27.880  24.749  1.00  0.00     0.005 A 
ATOM     17  C   UNL A   1      32.447  28.189  26.517  1.00  0.00     0.024 A 
ATOM     18  C   UNL A   1      30.878  29.250  24.481  1.00  0.00     0.002 A 
ATOM     19  C   UNL A   1      32.446  29.570  26.286  1.00  0.00     0.052 A 
ATOM     20  C   UNL A   1      31.665  30.098  25.258  1.00  0.00     0.019 A 
BRANCH  19  21
ATOM     21  C   UNL A   1      33.214  30.437  27.135  1.00  0.00     0.099 C 
ATOM     22  N   UNL A   1      33.827  31.154  27.806  1.00  0.00    -0.192 NA
ENDBRANCH  19  21
ENDBRANCH  14  15
ENDBRANCH  11  14
ENDBRANCH   8  11
ENDBRANCH   3   5
ENDBRANCH   2   3
ENDBRANCH   1   2
BRANCH   1  23
ATOM     23  C   UNL A   1      38.054  23.770  26.134  1.00  0.00     0.275 C 
BRANCH  23  24
ATOM     24  O   UNL A   1      38.995  24.036  27.186  1.00  0.00    -0.458 OA
BRANCH  24  25
ATOM     25  C   UNL A   1      39.988  24.883  26.841  1.00  0.00     0.338 C 
ATOM     26  O   UNL A   1      40.573  24.954  25.773  1.00  0.00    -0.246 OA
BRANCH  25  27
ATOM     27  C   UNL A   1      40.234  25.828  27.931  1.00  0.00     0.060 A 
ATOM     28  C   UNL A   1      39.333  25.874  28.995  1.00  0.00     0.016 A 
ATOM     29  C   UNL A   1      41.221  26.798  27.790  1.00  0.00     0.016 A 
ATOM     30  C   UNL A   1      39.324  26.970  29.844  1.00  0.00     0.010 A 
ATOM     31  C   UNL A   1      41.302  27.817  28.736  1.00  0.00     0.010 A 
ATOM     32  C   UNL A   1      40.337  27.929  29.755  1.00  0.00    -0.014 A 
BRANCH  32  33
ATOM     33  C   UNL A   1      40.431  29.027  30.746  1.00  0.00     0.031 A 
ATOM     34  C   UNL A   1      41.384  28.916  31.902  1.00  0.00     0.074 A 
ATOM     35  C   UNL A   1      39.595  30.080  30.642  1.00  0.00     0.049 A 
ATOM     36  N   UNL A   1      41.407  29.595  33.018  1.00  0.00    -0.248 NA
ATOM     37  C   UNL A   1      42.437  27.890  31.798  1.00  0.00     0.031 C 
ATOM     38  C   UNL A   1      38.670  30.329  29.531  1.00  0.00     0.029 A 
ATOM     39  N   UNL A   1      39.366  31.127  31.498  1.00  0.00    -0.354 N 
ATOM     40  C   UNL A   1      42.434  29.043  33.774  1.00  0.00     0.074 A 
ATOM     41  C   UNL A   1      43.010  27.971  32.992  1.00  0.00     0.031 C 
ATOM     42  C   UNL A   1      37.982  31.453  29.769  1.00  0.00     0.029 A 
ATOM     43  C   UNL A   1      38.332  31.939  31.094  1.00  0.00     0.049 A 
ATOM     44  H   UNL A   1      39.888  31.281  32.318  1.00  0.00     0.167 HD
ATOM     45  C   UNL A   1      42.841  29.399  35.016  1.00  0.00     0.031 A 
ATOM     46  C   UNL A   1      37.680  32.921  31.743  1.00  0.00     0.031 A 
ATOM     47  C   UNL A   1      42.251  30.480  35.763  1.00  0.00     0.049 A 
ATOM     48  C   UNL A   1      38.095  33.246  33.147  1.00  0.00     0.074 A 
ATOM     49  C   UNL A   1      42.590  30.942  37.022  1.00  0.00     0.029 A 
ATOM     50  N   UNL A   1      41.203  31.271  35.315  1.00  0.00    -0.354 N 
ATOM     51  N   UNL A   1      39.042  32.696  33.870  1.00  0.00    -0.248 NA
ATOM     52  C   UNL A   1      37.353  34.313  33.828  1.00  0.00     0.031 C 
ATOM     53  C   UNL A   1      41.705  31.969  37.362  1.00  0.00     0.029 A 
ATOM     54  C   UNL A   1      40.866  32.201  36.282  1.00  0.00     0.049 A 
ATOM     55  H   UNL A   1      40.762  31.183  34.439  1.00  0.00     0.167 HD
ATOM     56  C   UNL A   1      39.039  33.381  35.078  1.00  0.00     0.074 A 
ATOM     57  C   UNL A   1      37.993  34.381  34.988  1.00  0.00     0.031 C 
ATOM     58  C   UNL A   1      39.835  33.202  36.159  1.00  0.00     0.031 A 
BRANCH  45  59
ATOM     59  C   UNL A   1      43.932  28.586  35.667  1.00  0.00    -0.014 A 
ATOM     60  C   UNL A   1      43.646  27.446  36.438  1.00  0.00     0.010 A 
ATOM     61  C   UNL A   1      45.278  28.946  35.457  1.00  0.00     0.010 A 
ATOM     62  C   UNL A   1      44.681  26.705  37.019  1.00  0.00     0.020 A 
ATOM     63  C   UNL A   1      46.316  28.190  36.010  1.00  0.00     0.020 A 
ATOM     64  C   UNL A   1      46.011  27.083  36.801  1.00  0.00     0.054 A 
BRANCH  64  65
ATOM     65  S   UNL A   1      47.332  26.090  37.549  1.00  0.00     0.124 S 
ATOM     66  O   UNL A   1      47.789  25.291  36.415  1.00  0.00    -0.237 OA
ATOM     67  O   UNL A   1      48.269  27.108  38.018  1.00  0.00    -0.237 OA
ATOM     68  O   UNL A   1      46.653  25.341  38.603  1.00  0.00    -0.744 OA
ENDBRANCH  64  65
ENDBRANCH  45  59
BRANCH  46  69
ATOM     69  C   UNL A   1      36.543  33.616  31.082  1.00  0.00    -0.014 A 
ATOM     70  C   UNL A   1      36.661  34.077  29.761  1.00  0.00     0.010 A 
ATOM     71  C   UNL A   1      35.317  33.782  31.756  1.00  0.00     0.010 A 
ATOM     72  C   UNL A   1      35.583  34.706  29.132  1.00  0.00     0.020 A 
ATOM     73  C   UNL A   1      34.226  34.378  31.119  1.00  0.00     0.020 A 
ATOM     74  C   UNL A   1      34.371  34.849  29.814  1.00  0.00     0.054 A 
BRANCH  74  75
ATOM     75  S   UNL A   1      32.975  35.628  28.957  1.00  0.00     0.124 S 
ATOM     76  O   UNL A   1      32.407  34.504  28.218  1.00  0.00    -0.237 OA
ATOM     77  O   UNL A   1      32.167  36.131  30.066  1.00  0.00    -0.237 OA
ATOM     78  O   UNL A   1      33.607  36.661  28.139  1.00  0.00    -0.744 OA
ENDBRANCH  74  75
ENDBRANCH  46  69
BRANCH  58  79
ATOM     79  C   UNL A   1      39.666  34.153  37.311  1.00  0.00    -0.014 A 
ATOM     80  C   UNL A   1      38.809  33.863  38.385  1.00  0.00     0.010 A 
ATOM     81  C   UNL A   1      40.468  35.308  37.359  1.00  0.00     0.010 A 
ATOM     82  C   UNL A   1      38.756  34.715  39.490  1.00  0.00     0.020 A 
ATOM     83  C   UNL A   1      40.440  36.146  38.475  1.00  0.00     0.020 A 
ATOM     84  C   UNL A   1      39.582  35.844  39.533  1.00  0.00     0.054 A 
BRANCH  84  85
ATOM     85  S   UNL A   1      39.570  36.875  41.025  1.00  0.00     0.124 S 
ATOM     86  O   UNL A   1      38.874  36.020  41.981  1.00  0.00    -0.237 OA
ATOM     87  O   UNL A   1      40.994  37.078  41.282  1.00  0.00    -0.237 OA
ATOM     88  O   UNL A   1      38.841  38.072  40.613  1.00  0.00    -0.744 OA
ENDBRANCH  84  85
ENDBRANCH  58  79
ENDBRANCH  32  33
ENDBRANCH  25  27
ENDBRANCH  24  25
ENDBRANCH  23  24
ENDBRANCH   1  23
TORSDOF 18
ENDMDL
