MODEL 1
REMARK VINA RESULT:     -13.8      0.000      0.000
REMARK SMILES Cc1ccc(S(=O)(=O)N2c3ccc(C(=O)OCCOC(=O)c4ccc(-c5c6nc(c(-c7ccc(S(=O)(=O)[O-])cc7)c7ccc([nH]7)c(-c7ccc(S(=O)(=O)[O-])cc7)c7nc(c(-c8ccc(S(=O)(=O)[O-])cc8)c8ccc5[nH]8)C=C7)C=C6)cc4)cc3C[C@H]2C)cc1
REMARK SMILES IDX 18 1 17 2 16 3 14 4 15 5 13 6 9 7 10 8 85 9 11 10 83 11
REMARK SMILES IDX 84 12 86 13 12 14 82 15 6 16 7 17 8 18 5 19 1 20 2 21 3 22
REMARK SMILES IDX 88 23 4 24 87 25 19 26 20 27 21 28 22 29 23 30 81 31 24 32
REMARK SMILES IDX 80 33 25 34 26 35 27 36 74 37 28 38 79 39 73 40 75 41 29 42
REMARK SMILES IDX 78 43 72 44 71 45 30 47 60 48 41 49 59 50 42 51 45 52 58 53
REMARK SMILES IDX 76 54 43 55 44 56 57 58 77 59 46 60 31 61 32 62 40 63 33 64
REMARK SMILES IDX 39 65 34 66 35 67 36 68 37 69 38 70 61 71 62 72 70 73 63 74
REMARK SMILES IDX 69 75 64 76 65 77 66 78 67 79 68 80 47 81 48 82 56 83 49 84
REMARK SMILES IDX 55 85 50 86 51 87 52 88 53 89 54 90
REMARK H PARENT 75 46 45 57
REMARK Flexibility Score: inf
ROOT
ATOM      1  C   UNL A   1      34.089  30.177  27.409  1.00  0.00     0.275 C 
ENDROOT
BRANCH   1   2
ATOM      2  C   UNL A   1      32.802  29.331  27.401  1.00  0.00     0.275 C 
BRANCH   2   3
ATOM      3  O   UNL A   1      32.082  29.420  26.158  1.00  0.00    -0.458 OA
BRANCH   3   4
ATOM      4  C   UNL A   1      32.738  28.822  25.132  1.00  0.00     0.338 C 
ATOM      5  O   UNL A   1      33.085  29.375  24.097  1.00  0.00    -0.246 OA
BRANCH   4   6
ATOM      6  C   UNL A   1      32.874  27.357  25.309  1.00  0.00     0.060 A 
ATOM      7  N   UNL A   1      33.007  23.165  25.693  1.00  0.00    -0.263 N 
ATOM      8  C   UNL A   1      32.830  24.598  25.615  1.00  0.00     0.055 A 
ATOM      9  C   UNL A   1      34.374  22.928  25.060  1.00  0.00     0.101 C 
ATOM     10  C   UNL A   1      31.847  25.345  26.236  1.00  0.00     0.028 A 
ATOM     11  C   UNL A   1      33.824  25.205  24.850  1.00  0.00    -0.021 A 
ATOM     12  C   UNL A   1      34.666  24.165  24.179  1.00  0.00     0.063 C 
ATOM     13  C   UNL A   1      35.407  22.819  26.191  1.00  0.00     0.032 C 
ATOM     14  C   UNL A   1      31.855  26.729  26.050  1.00  0.00     0.018 A 
ATOM     15  C   UNL A   1      33.886  26.589  24.719  1.00  0.00     0.021 A 
BRANCH   7  16
ATOM     16  S   UNL A   1      31.685  22.294  24.999  1.00  0.00     0.264 S 
ATOM     17  O   UNL A   1      31.351  22.916  23.723  1.00  0.00    -0.201 OA
ATOM     18  O   UNL A   1      30.686  22.088  26.016  1.00  0.00    -0.201 OA
BRANCH  16  19
ATOM     19  C   UNL A   1      32.274  20.652  24.603  1.00  0.00     0.088 A 
ATOM     20  C   UNL A   1      33.766  16.808  23.348  1.00  0.00     0.044 C 
ATOM     21  C   UNL A   1      33.225  18.133  23.793  1.00  0.00    -0.051 A 
ATOM     22  C   UNL A   1      32.617  18.988  22.867  1.00  0.00     0.005 A 
ATOM     23  C   UNL A   1      33.313  18.534  25.132  1.00  0.00     0.005 A 
ATOM     24  C   UNL A   1      32.146  20.241  23.268  1.00  0.00     0.022 A 
ATOM     25  C   UNL A   1      32.835  19.786  25.537  1.00  0.00     0.022 A 
ENDBRANCH  16  19
ENDBRANCH   7  16
ENDBRANCH   4   6
ENDBRANCH   3   4
ENDBRANCH   2   3
ENDBRANCH   1   2
BRANCH   1  26
ATOM     26  O   UNL A   1      35.192  29.748  28.238  1.00  0.00    -0.458 OA
BRANCH  26  27
ATOM     27  C   UNL A   1      36.343  30.471  28.152  1.00  0.00     0.338 C 
ATOM     28  O   UNL A   1      36.404  31.675  28.340  1.00  0.00    -0.246 OA
BRANCH  27  29
ATOM     29  C   UNL A   1      37.489  29.518  28.123  1.00  0.00     0.060 A 
ATOM     30  C   UNL A   1      38.525  29.702  27.197  1.00  0.00     0.016 A 
ATOM     31  C   UNL A   1      37.668  28.677  29.220  1.00  0.00     0.016 A 
ATOM     32  C   UNL A   1      39.790  29.168  27.444  1.00  0.00     0.010 A 
ATOM     33  C   UNL A   1      38.935  28.258  29.532  1.00  0.00     0.010 A 
ATOM     34  C   UNL A   1      39.993  28.483  28.639  1.00  0.00    -0.014 A 
BRANCH  34  35
ATOM     35  C   UNL A   1      41.163  27.678  28.950  1.00  0.00     0.031 A 
ATOM     36  C   UNL A   1      41.349  26.286  28.498  1.00  0.00     0.074 A 
ATOM     37  C   UNL A   1      42.140  28.427  29.516  1.00  0.00     0.049 A 
ATOM     38  N   UNL A   1      42.322  25.549  28.905  1.00  0.00    -0.248 NA
ATOM     39  C   UNL A   1      40.473  25.575  27.569  1.00  0.00     0.031 C 
ATOM     40  C   UNL A   1      43.557  28.167  29.673  1.00  0.00     0.029 A 
ATOM     41  N   UNL A   1      41.942  29.620  30.235  1.00  0.00    -0.354 N 
ATOM     42  C   UNL A   1      42.383  24.425  28.105  1.00  0.00     0.074 A 
ATOM     43  C   UNL A   1      41.164  24.445  27.338  1.00  0.00     0.031 C 
ATOM     44  C   UNL A   1      44.015  28.940  30.678  1.00  0.00     0.029 A 
ATOM     45  C   UNL A   1      42.849  29.575  31.288  1.00  0.00     0.049 A 
ATOM     46  H   UNL A   1      41.299  30.336  30.034  1.00  0.00     0.167 HD
ATOM     47  C   UNL A   1      43.536  23.698  28.110  1.00  0.00     0.031 A 
ATOM     48  C   UNL A   1      42.416  29.383  32.570  1.00  0.00     0.031 A 
ATOM     49  C   UNL A   1      44.433  24.206  29.143  1.00  0.00     0.049 A 
ATOM     50  C   UNL A   1      43.016  28.114  33.125  1.00  0.00     0.074 A 
ATOM     51  C   UNL A   1      45.489  25.100  29.101  1.00  0.00     0.029 A 
ATOM     52  N   UNL A   1      44.053  24.088  30.471  1.00  0.00    -0.354 N 
ATOM     53  N   UNL A   1      43.263  27.042  32.421  1.00  0.00    -0.248 NA
ATOM     54  C   UNL A   1      43.470  28.008  34.504  1.00  0.00     0.031 C 
ATOM     55  C   UNL A   1      45.683  25.592  30.417  1.00  0.00     0.029 A 
ATOM     56  C   UNL A   1      44.761  24.978  31.250  1.00  0.00     0.049 A 
ATOM     57  H   UNL A   1      43.374  23.460  30.809  1.00  0.00     0.167 HD
ATOM     58  C   UNL A   1      43.997  26.168  33.184  1.00  0.00     0.074 A 
ATOM     59  C   UNL A   1      44.063  26.803  34.490  1.00  0.00     0.031 C 
ATOM     60  C   UNL A   1      44.553  25.022  32.689  1.00  0.00     0.031 A 
BRANCH  47  61
ATOM     61  C   UNL A   1      43.997  22.708  27.065  1.00  0.00    -0.014 A 
ATOM     62  C   UNL A   1      43.072  21.727  26.633  1.00  0.00     0.010 A 
ATOM     63  C   UNL A   1      45.280  22.643  26.494  1.00  0.00     0.010 A 
ATOM     64  C   UNL A   1      43.407  20.712  25.729  1.00  0.00     0.020 A 
ATOM     65  C   UNL A   1      45.632  21.623  25.580  1.00  0.00     0.020 A 
ATOM     66  C   UNL A   1      44.693  20.658  25.212  1.00  0.00     0.054 A 
BRANCH  66  67
ATOM     67  S   UNL A   1      45.094  19.315  24.060  1.00  0.00     0.124 S 
ATOM     68  O   UNL A   1      44.419  19.742  22.835  1.00  0.00    -0.237 OA
ATOM     69  O   UNL A   1      46.553  19.358  24.016  1.00  0.00    -0.237 OA
ATOM     70  O   UNL A   1      44.526  18.128  24.695  1.00  0.00    -0.744 OA
ENDBRANCH  66  67
ENDBRANCH  47  61
BRANCH  48  71
ATOM     71  C   UNL A   1      41.030  29.881  32.868  1.00  0.00    -0.014 A 
ATOM     72  C   UNL A   1      40.753  31.252  32.648  1.00  0.00     0.010 A 
ATOM     73  C   UNL A   1      39.939  29.007  33.024  1.00  0.00     0.010 A 
ATOM     74  C   UNL A   1      39.442  31.712  32.473  1.00  0.00     0.020 A 
ATOM     75  C   UNL A   1      38.617  29.470  32.869  1.00  0.00     0.020 A 
ATOM     76  C   UNL A   1      38.380  30.811  32.555  1.00  0.00     0.054 A 
BRANCH  76  77
ATOM     77  S   UNL A   1      36.725  31.385  32.052  1.00  0.00     0.124 S 
ATOM     78  O   UNL A   1      36.096  30.154  31.586  1.00  0.00    -0.237 OA
ATOM     79  O   UNL A   1      36.199  31.926  33.303  1.00  0.00    -0.237 OA
ATOM     80  O   UNL A   1      37.008  32.379  31.019  1.00  0.00    -0.744 OA
ENDBRANCH  76  77
ENDBRANCH  48  71
BRANCH  60  81
ATOM     81  C   UNL A   1      45.072  23.857  33.500  1.00  0.00    -0.014 A 
ATOM     82  C   UNL A   1      46.384  23.751  33.975  1.00  0.00     0.010 A 
ATOM     83  C   UNL A   1      44.158  22.862  33.938  1.00  0.00     0.010 A 
ATOM     84  C   UNL A   1      46.785  22.675  34.776  1.00  0.00     0.020 A 
ATOM     85  C   UNL A   1      44.529  21.821  34.789  1.00  0.00     0.020 A 
ATOM     86  C   UNL A   1      45.855  21.717  35.177  1.00  0.00     0.054 A 
BRANCH  86  87
ATOM     87  S   UNL A   1      46.389  20.367  36.251  1.00  0.00     0.124 S 
ATOM     88  O   UNL A   1      45.868  19.201  35.543  1.00  0.00    -0.237 OA
ATOM     89  O   UNL A   1      47.844  20.505  36.242  1.00  0.00    -0.237 OA
ATOM     90  O   UNL A   1      45.749  20.665  37.529  1.00  0.00    -0.744 OA
ENDBRANCH  86  87
ENDBRANCH  60  81
ENDBRANCH  34  35
ENDBRANCH  27  29
ENDBRANCH  26  27
ENDBRANCH   1  26
TORSDOF 16
ENDMDL
MODEL 2
REMARK VINA RESULT:     -13.7      0.989      1.420
REMARK SMILES Cc1ccc(S(=O)(=O)N2c3ccc(C(=O)OCCOC(=O)c4ccc(-c5c6nc(c(-c7ccc(S(=O)(=O)[O-])cc7)c7ccc([nH]7)c(-c7ccc(S(=O)(=O)[O-])cc7)c7nc(c(-c8ccc(S(=O)(=O)[O-])cc8)c8ccc5[nH]8)C=C7)C=C6)cc4)cc3C[C@H]2C)cc1
REMARK SMILES IDX 18 1 17 2 16 3 14 4 15 5 13 6 9 7 10 8 85 9 11 10 83 11
REMARK SMILES IDX 84 12 86 13 12 14 82 15 6 16 7 17 8 18 5 19 1 20 2 21 3 22
REMARK SMILES IDX 88 23 4 24 87 25 19 26 20 27 21 28 22 29 23 30 81 31 24 32
REMARK SMILES IDX 80 33 25 34 26 35 27 36 74 37 28 38 79 39 73 40 75 41 29 42
REMARK SMILES IDX 78 43 72 44 71 45 30 47 60 48 41 49 59 50 42 51 45 52 58 53
REMARK SMILES IDX 76 54 43 55 44 56 57 58 77 59 46 60 31 61 32 62 40 63 33 64
REMARK SMILES IDX 39 65 34 66 35 67 36 68 37 69 38 70 61 71 62 72 70 73 63 74
REMARK SMILES IDX 69 75 64 76 65 77 66 78 67 79 68 80 47 81 48 82 56 83 49 84
REMARK SMILES IDX 55 85 50 86 51 87 52 88 53 89 54 90
REMARK H PARENT 75 46 45 57
REMARK Flexibility Score: inf
ROOT
ATOM      1  C   UNL A   1      33.976  31.005  27.636  1.00  0.00     0.275 C 
ENDROOT
BRANCH   1   2
ATOM      2  C   UNL A   1      32.898  30.544  26.636  1.00  0.00     0.275 C 
BRANCH   2   3
ATOM      3  O   UNL A   1      32.851  29.114  26.485  1.00  0.00    -0.458 OA
BRANCH   3   4
ATOM      4  C   UNL A   1      32.944  28.722  25.189  1.00  0.00     0.338 C 
ATOM      5  O   UNL A   1      32.664  29.415  24.220  1.00  0.00    -0.246 OA
BRANCH   4   6
ATOM      6  C   UNL A   1      33.285  27.288  25.041  1.00  0.00     0.060 A 
ATOM      7  N   UNL A   1      33.990  23.150  24.710  1.00  0.00    -0.263 N 
ATOM      8  C   UNL A   1      33.693  24.543  24.952  1.00  0.00     0.055 A 
ATOM      9  C   UNL A   1      34.534  23.131  23.285  1.00  0.00     0.101 C 
ATOM     10  C   UNL A   1      33.371  25.122  26.165  1.00  0.00     0.028 A 
ATOM     11  C   UNL A   1      33.811  25.311  23.794  1.00  0.00    -0.021 A 
ATOM     12  C   UNL A   1      34.023  24.424  22.607  1.00  0.00     0.063 C 
ATOM     13  C   UNL A   1      36.068  23.137  23.363  1.00  0.00     0.032 C 
ATOM     14  C   UNL A   1      33.133  26.497  26.197  1.00  0.00     0.018 A 
ATOM     15  C   UNL A   1      33.651  26.693  23.828  1.00  0.00     0.021 A 
BRANCH   7  16
ATOM     16  S   UNL A   1      32.639  22.119  25.022  1.00  0.00     0.264 S 
ATOM     17  O   UNL A   1      31.559  22.499  24.118  1.00  0.00    -0.201 OA
ATOM     18  O   UNL A   1      32.433  22.048  26.445  1.00  0.00    -0.201 OA
BRANCH  16  19
ATOM     19  C   UNL A   1      33.110  20.459  24.549  1.00  0.00     0.088 A 
ATOM     20  C   UNL A   1      34.098  16.514  23.123  1.00  0.00     0.044 C 
ATOM     21  C   UNL A   1      33.744  17.875  23.641  1.00  0.00    -0.051 A 
ATOM     22  C   UNL A   1      32.567  18.501  23.217  1.00  0.00     0.005 A 
ATOM     23  C   UNL A   1      34.575  18.536  24.553  1.00  0.00     0.005 A 
ATOM     24  C   UNL A   1      32.251  19.786  23.666  1.00  0.00     0.022 A 
ATOM     25  C   UNL A   1      34.257  19.820  25.011  1.00  0.00     0.022 A 
ENDBRANCH  16  19
ENDBRANCH   7  16
ENDBRANCH   4   6
ENDBRANCH   3   4
ENDBRANCH   2   3
ENDBRANCH   1   2
BRANCH   1  26
ATOM     26  O   UNL A   1      35.128  30.158  27.848  1.00  0.00    -0.458 OA
BRANCH  26  27
ATOM     27  C   UNL A   1      36.279  30.772  28.239  1.00  0.00     0.338 C 
ATOM     28  O   UNL A   1      36.316  31.873  28.764  1.00  0.00    -0.246 OA
BRANCH  27  29
ATOM     29  C   UNL A   1      37.375  29.764  28.213  1.00  0.00     0.060 A 
ATOM     30  C   UNL A   1      38.306  29.772  27.164  1.00  0.00     0.016 A 
ATOM     31  C   UNL A   1      37.645  29.060  29.386  1.00  0.00     0.016 A 
ATOM     32  C   UNL A   1      39.569  29.207  27.342  1.00  0.00     0.010 A 
ATOM     33  C   UNL A   1      38.922  28.617  29.613  1.00  0.00     0.010 A 
ATOM     34  C   UNL A   1      39.880  28.670  28.588  1.00  0.00    -0.014 A 
BRANCH  34  35
ATOM     35  C   UNL A   1      41.045  27.849  28.876  1.00  0.00     0.031 A 
ATOM     36  C   UNL A   1      41.169  26.430  28.490  1.00  0.00     0.074 A 
ATOM     37  C   UNL A   1      42.072  28.598  29.344  1.00  0.00     0.049 A 
ATOM     38  N   UNL A   1      42.145  25.688  28.881  1.00  0.00    -0.248 NA
ATOM     39  C   UNL A   1      40.222  25.696  27.654  1.00  0.00     0.031 C 
ATOM     40  C   UNL A   1      43.488  28.307  29.434  1.00  0.00     0.029 A 
ATOM     41  N   UNL A   1      41.947  29.833  30.007  1.00  0.00    -0.354 N 
ATOM     42  C   UNL A   1      42.130  24.523  28.141  1.00  0.00     0.074 A 
ATOM     43  C   UNL A   1      40.869  24.536  27.445  1.00  0.00     0.031 C 
ATOM     44  C   UNL A   1      44.024  29.118  30.368  1.00  0.00     0.029 A 
ATOM     45  C   UNL A   1      42.912  29.818  31.007  1.00  0.00     0.049 A 
ATOM     46  H   UNL A   1      41.312  30.556  29.804  1.00  0.00     0.167 HD
ATOM     47  C   UNL A   1      43.262  23.764  28.120  1.00  0.00     0.031 A 
ATOM     48  C   UNL A   1      42.550  29.706  32.320  1.00  0.00     0.031 A 
ATOM     49  C   UNL A   1      44.232  24.300  29.071  1.00  0.00     0.049 A 
ATOM     50  C   UNL A   1      43.149  28.452  32.909  1.00  0.00     0.074 A 
ATOM     51  C   UNL A   1      45.305  25.160  28.920  1.00  0.00     0.029 A 
ATOM     52  N   UNL A   1      43.927  24.263  30.423  1.00  0.00    -0.354 N 
ATOM     53  N   UNL A   1      43.327  27.338  32.251  1.00  0.00    -0.248 NA
ATOM     54  C   UNL A   1      43.680  28.406  34.264  1.00  0.00     0.031 C 
ATOM     55  C   UNL A   1      45.588  25.715  30.195  1.00  0.00     0.029 A 
ATOM     56  C   UNL A   1      44.702  25.173  31.111  1.00  0.00     0.049 A 
ATOM     57  H   UNL A   1      43.253  23.674  30.833  1.00  0.00     0.167 HD
ATOM     58  C   UNL A   1      44.082  26.485  33.018  1.00  0.00     0.074 A 
ATOM     59  C   UNL A   1      44.241  27.185  34.281  1.00  0.00     0.031 C 
ATOM     60  C   UNL A   1      44.579  25.299  32.555  1.00  0.00     0.031 A 
BRANCH  47  61
ATOM     61  C   UNL A   1      43.637  22.707  27.106  1.00  0.00    -0.014 A 
ATOM     62  C   UNL A   1      42.789  21.579  26.986  1.00  0.00     0.010 A 
ATOM     63  C   UNL A   1      44.774  22.717  26.280  1.00  0.00     0.010 A 
ATOM     64  C   UNL A   1      43.072  20.502  26.140  1.00  0.00     0.020 A 
ATOM     65  C   UNL A   1      45.073  21.635  25.420  1.00  0.00     0.020 A 
ATOM     66  C   UNL A   1      44.222  20.529  25.364  1.00  0.00     0.054 A 
BRANCH  66  67
ATOM     67  S   UNL A   1      44.565  19.104  24.295  1.00  0.00     0.124 S 
ATOM     68  O   UNL A   1      45.937  18.758  24.664  1.00  0.00    -0.237 OA
ATOM     69  O   UNL A   1      43.546  18.143  24.708  1.00  0.00    -0.237 OA
ATOM     70  O   UNL A   1      44.406  19.635  22.943  1.00  0.00    -0.744 OA
ENDBRANCH  66  67
ENDBRANCH  47  61
BRANCH  48  71
ATOM     71  C   UNL A   1      41.197  30.259  32.669  1.00  0.00    -0.014 A 
ATOM     72  C   UNL A   1      40.337  29.464  33.464  1.00  0.00     0.010 A 
ATOM     73  C   UNL A   1      40.891  31.626  32.534  1.00  0.00     0.010 A 
ATOM     74  C   UNL A   1      39.282  30.032  34.190  1.00  0.00     0.020 A 
ATOM     75  C   UNL A   1      39.818  32.197  33.246  1.00  0.00     0.020 A 
ATOM     76  C   UNL A   1      39.046  31.404  34.100  1.00  0.00     0.054 A 
BRANCH  76  77
ATOM     77  S   UNL A   1      37.854  32.148  35.260  1.00  0.00     0.124 S 
ATOM     78  O   UNL A   1      36.664  32.301  34.429  1.00  0.00    -0.237 OA
ATOM     79  O   UNL A   1      37.767  31.127  36.302  1.00  0.00    -0.237 OA
ATOM     80  O   UNL A   1      38.503  33.392  35.666  1.00  0.00    -0.744 OA
ENDBRANCH  76  77
ENDBRANCH  48  71
BRANCH  60  81
ATOM     81  C   UNL A   1      45.114  24.164  33.397  1.00  0.00    -0.014 A 
ATOM     82  C   UNL A   1      46.438  24.073  33.845  1.00  0.00     0.010 A 
ATOM     83  C   UNL A   1      44.209  23.189  33.893  1.00  0.00     0.010 A 
ATOM     84  C   UNL A   1      46.855  23.027  34.677  1.00  0.00     0.020 A 
ATOM     85  C   UNL A   1      44.598  22.180  34.774  1.00  0.00     0.020 A 
ATOM     86  C   UNL A   1      45.933  22.087  35.135  1.00  0.00     0.054 A 
BRANCH  86  87
ATOM     87  S   UNL A   1      46.489  20.777  36.247  1.00  0.00     0.124 S 
ATOM     88  O   UNL A   1      45.606  20.967  37.395  1.00  0.00    -0.237 OA
ATOM     89  O   UNL A   1      46.247  19.566  35.465  1.00  0.00    -0.237 OA
ATOM     90  O   UNL A   1      47.896  21.091  36.478  1.00  0.00    -0.744 OA
ENDBRANCH  86  87
ENDBRANCH  60  81
ENDBRANCH  34  35
ENDBRANCH  27  29
ENDBRANCH  26  27
ENDBRANCH   1  26
TORSDOF 16
ENDMDL
MODEL 3
REMARK VINA RESULT:     -13.4      4.800     11.448
REMARK SMILES Cc1ccc(S(=O)(=O)N2c3ccc(C(=O)OCCOC(=O)c4ccc(-c5c6nc(c(-c7ccc(S(=O)(=O)[O-])cc7)c7ccc([nH]7)c(-c7ccc(S(=O)(=O)[O-])cc7)c7nc(c(-c8ccc(S(=O)(=O)[O-])cc8)c8ccc5[nH]8)C=C7)C=C6)cc4)cc3C[C@H]2C)cc1
REMARK SMILES IDX 18 1 17 2 16 3 14 4 15 5 13 6 9 7 10 8 85 9 11 10 83 11
REMARK SMILES IDX 84 12 86 13 12 14 82 15 6 16 7 17 8 18 5 19 1 20 2 21 3 22
REMARK SMILES IDX 88 23 4 24 87 25 19 26 20 27 21 28 22 29 23 30 81 31 24 32
REMARK SMILES IDX 80 33 25 34 26 35 27 36 74 37 28 38 79 39 73 40 75 41 29 42
REMARK SMILES IDX 78 43 72 44 71 45 30 47 60 48 41 49 59 50 42 51 45 52 58 53
REMARK SMILES IDX 76 54 43 55 44 56 57 58 77 59 46 60 31 61 32 62 40 63 33 64
REMARK SMILES IDX 39 65 34 66 35 67 36 68 37 69 38 70 61 71 62 72 70 73 63 74
REMARK SMILES IDX 69 75 64 76 65 77 66 78 67 79 68 80 47 81 48 82 56 83 49 84
REMARK SMILES IDX 55 85 50 86 51 87 52 88 53 89 54 90
REMARK H PARENT 75 46 45 57
REMARK Flexibility Score: inf
ROOT
ATOM      1  C   UNL A   1      37.885  23.099  26.133  1.00  0.00     0.275 C 
ENDROOT
BRANCH   1   2
ATOM      2  C   UNL A   1      37.865  21.970  25.085  1.00  0.00     0.275 C 
BRANCH   2   3
ATOM      3  O   UNL A   1      36.972  22.241  23.989  1.00  0.00    -0.458 OA
BRANCH   3   4
ATOM      4  C   UNL A   1      35.668  22.085  24.328  1.00  0.00     0.338 C 
ATOM      5  O   UNL A   1      35.138  21.023  24.627  1.00  0.00    -0.246 OA
BRANCH   4   6
ATOM      6  C   UNL A   1      34.874  23.324  24.158  1.00  0.00     0.060 A 
ATOM      7  N   UNL A   1      32.382  26.688  23.698  1.00  0.00    -0.263 N 
ATOM      8  C   UNL A   1      33.155  25.469  23.760  1.00  0.00     0.055 A 
ATOM      9  C   UNL A   1      33.022  27.584  24.754  1.00  0.00     0.101 C 
ATOM     10  C   UNL A   1      33.113  24.416  22.865  1.00  0.00     0.028 A 
ATOM     11  C   UNL A   1      34.035  25.463  24.841  1.00  0.00    -0.021 A 
ATOM     12  C   UNL A   1      33.775  26.644  25.724  1.00  0.00     0.063 C 
ATOM     13  C   UNL A   1      34.008  28.523  24.044  1.00  0.00     0.032 C 
ATOM     14  C   UNL A   1      33.955  23.325  23.090  1.00  0.00     0.018 A 
ATOM     15  C   UNL A   1      34.932  24.416  25.033  1.00  0.00     0.021 A 
BRANCH   7  16
ATOM     16  S   UNL A   1      30.685  26.408  23.865  1.00  0.00     0.264 S 
ATOM     17  O   UNL A   1      30.364  26.396  25.287  1.00  0.00    -0.201 OA
ATOM     18  O   UNL A   1      30.313  25.316  23.003  1.00  0.00    -0.201 OA
BRANCH  16  19
ATOM     19  C   UNL A   1      29.838  27.830  23.186  1.00  0.00     0.088 A 
ATOM     20  C   UNL A   1      28.017  31.256  21.309  1.00  0.00     0.044 C 
ATOM     21  C   UNL A   1      28.650  30.078  21.985  1.00  0.00    -0.051 A 
ATOM     22  C   UNL A   1      30.031  29.873  21.885  1.00  0.00     0.005 A 
ATOM     23  C   UNL A   1      27.881  29.173  22.725  1.00  0.00     0.005 A 
ATOM     24  C   UNL A   1      30.622  28.755  22.480  1.00  0.00     0.022 A 
ATOM     25  C   UNL A   1      28.472  28.056  23.328  1.00  0.00     0.022 A 
ENDBRANCH  16  19
ENDBRANCH   7  16
ENDBRANCH   4   6
ENDBRANCH   3   4
ENDBRANCH   2   3
ENDBRANCH   1   2
BRANCH   1  26
ATOM     26  O   UNL A   1      38.872  24.146  26.001  1.00  0.00    -0.458 OA
BRANCH  26  27
ATOM     27  C   UNL A   1      39.736  24.312  27.041  1.00  0.00     0.338 C 
ATOM     28  O   UNL A   1      40.703  23.594  27.240  1.00  0.00    -0.246 OA
BRANCH  27  29
ATOM     29  C   UNL A   1      39.484  25.650  27.646  1.00  0.00     0.060 A 
ATOM     30  C   UNL A   1      39.276  25.762  29.028  1.00  0.00     0.016 A 
ATOM     31  C   UNL A   1      39.790  26.779  26.887  1.00  0.00     0.016 A 
ATOM     32  C   UNL A   1      39.521  26.972  29.678  1.00  0.00     0.010 A 
ATOM     33  C   UNL A   1      40.154  27.931  27.533  1.00  0.00     0.010 A 
ATOM     34  C   UNL A   1      40.002  28.039  28.924  1.00  0.00    -0.014 A 
BRANCH  34  35
ATOM     35  C   UNL A   1      40.092  29.414  29.387  1.00  0.00     0.031 A 
ATOM     36  C   UNL A   1      38.987  30.389  29.295  1.00  0.00     0.074 A 
ATOM     37  C   UNL A   1      41.227  29.621  30.098  1.00  0.00     0.049 A 
ATOM     38  N   UNL A   1      39.137  31.635  29.578  1.00  0.00    -0.248 NA
ATOM     39  C   UNL A   1      37.624  30.082  28.867  1.00  0.00     0.031 C 
ATOM     40  C   UNL A   1      41.582  30.680  31.021  1.00  0.00     0.029 A 
ATOM     41  N   UNL A   1      42.417  28.883  29.971  1.00  0.00    -0.354 N 
ATOM     42  C   UNL A   1      37.888  32.215  29.666  1.00  0.00     0.074 A 
ATOM     43  C   UNL A   1      36.979  31.230  29.138  1.00  0.00     0.031 C 
ATOM     44  C   UNL A   1      42.926  30.729  31.105  1.00  0.00     0.029 A 
ATOM     45  C   UNL A   1      43.446  29.809  30.096  1.00  0.00     0.049 A 
ATOM     46  H   UNL A   1      42.504  27.914  29.826  1.00  0.00     0.167 HD
ATOM     47  C   UNL A   1      37.783  33.414  30.305  1.00  0.00     0.031 A 
ATOM     48  C   UNL A   1      44.201  30.159  29.012  1.00  0.00     0.031 A 
ATOM     49  C   UNL A   1      39.115  33.920  30.624  1.00  0.00     0.049 A 
ATOM     50  C   UNL A   1      44.054  31.638  28.745  1.00  0.00     0.074 A 
ATOM     51  C   UNL A   1      39.888  33.848  31.770  1.00  0.00     0.029 A 
ATOM     52  N   UNL A   1      39.963  34.262  29.581  1.00  0.00    -0.354 N 
ATOM     53  N   UNL A   1      42.959  32.320  28.944  1.00  0.00    -0.248 NA
ATOM     54  C   UNL A   1      45.175  32.466  28.325  1.00  0.00     0.031 C 
ATOM     55  C   UNL A   1      41.236  34.064  31.386  1.00  0.00     0.029 A 
ATOM     56  C   UNL A   1      41.270  34.287  30.019  1.00  0.00     0.049 A 
ATOM     57  H   UNL A   1      39.673  34.457  28.661  1.00  0.00     0.167 HD
ATOM     58  C   UNL A   1      43.237  33.658  28.805  1.00  0.00     0.074 A 
ATOM     59  C   UNL A   1      44.626  33.691  28.378  1.00  0.00     0.031 C 
ATOM     60  C   UNL A   1      42.343  34.647  29.107  1.00  0.00     0.031 A 
BRANCH  47  61
ATOM     61  C   UNL A   1      36.531  34.038  30.880  1.00  0.00    -0.014 A 
ATOM     62  C   UNL A   1      35.370  34.051  30.070  1.00  0.00     0.010 A 
ATOM     63  C   UNL A   1      36.412  34.643  32.144  1.00  0.00     0.010 A 
ATOM     64  C   UNL A   1      34.177  34.668  30.462  1.00  0.00     0.020 A 
ATOM     65  C   UNL A   1      35.212  35.270  32.552  1.00  0.00     0.020 A 
ATOM     66  C   UNL A   1      34.105  35.286  31.702  1.00  0.00     0.054 A 
BRANCH  66  67
ATOM     67  S   UNL A   1      32.547  36.092  32.165  1.00  0.00     0.124 S 
ATOM     68  O   UNL A   1      31.694  34.954  32.504  1.00  0.00    -0.237 OA
ATOM     69  O   UNL A   1      32.945  36.931  33.292  1.00  0.00    -0.237 OA
ATOM     70  O   UNL A   1      32.156  36.817  30.958  1.00  0.00    -0.744 OA
ENDBRANCH  66  67
ENDBRANCH  47  61
BRANCH  48  71
ATOM     71  C   UNL A   1      44.343  29.104  27.952  1.00  0.00    -0.014 A 
ATOM     72  C   UNL A   1      45.115  27.956  28.253  1.00  0.00     0.010 A 
ATOM     73  C   UNL A   1      43.489  29.048  26.835  1.00  0.00     0.010 A 
ATOM     74  C   UNL A   1      44.954  26.761  27.540  1.00  0.00     0.020 A 
ATOM     75  C   UNL A   1      43.340  27.854  26.102  1.00  0.00     0.020 A 
ATOM     76  C   UNL A   1      44.043  26.708  26.484  1.00  0.00     0.054 A 
BRANCH  76  77
ATOM     77  S   UNL A   1      43.659  25.079  25.763  1.00  0.00     0.124 S 
ATOM     78  O   UNL A   1      43.519  24.238  26.947  1.00  0.00    -0.237 OA
ATOM     79  O   UNL A   1      42.422  25.354  25.036  1.00  0.00    -0.237 OA
ATOM     80  O   UNL A   1      44.820  24.795  24.922  1.00  0.00    -0.744 OA
ENDBRANCH  76  77
ENDBRANCH  48  71
BRANCH  60  81
ATOM     81  C   UNL A   1      42.431  36.093  28.676  1.00  0.00    -0.014 A 
ATOM     82  C   UNL A   1      43.126  37.083  29.381  1.00  0.00     0.010 A 
ATOM     83  C   UNL A   1      41.901  36.468  27.414  1.00  0.00     0.010 A 
ATOM     84  C   UNL A   1      43.223  38.392  28.894  1.00  0.00     0.020 A 
ATOM     85  C   UNL A   1      42.046  37.752  26.888  1.00  0.00     0.020 A 
ATOM     86  C   UNL A   1      42.681  38.719  27.652  1.00  0.00     0.054 A 
BRANCH  86  87
ATOM     87  S   UNL A   1      42.864  40.402  27.027  1.00  0.00     0.124 S 
ATOM     88  O   UNL A   1      43.782  40.206  25.908  1.00  0.00    -0.237 OA
ATOM     89  O   UNL A   1      41.495  40.759  26.657  1.00  0.00    -0.237 OA
ATOM     90  O   UNL A   1      43.407  41.139  28.164  1.00  0.00    -0.744 OA
ENDBRANCH  86  87
ENDBRANCH  60  81
ENDBRANCH  34  35
ENDBRANCH  27  29
ENDBRANCH  26  27
ENDBRANCH   1  26
TORSDOF 16
ENDMDL
