MODEL 1
REMARK VINA RESULT:     -13.1      0.000      0.000
REMARK SMILES CC1(C)O[C@@H]2CC3[C@H]4CCC5=CC(=O)C=C[C@@]5(C)[C@]4(F)[C@H](O)C[C@]3(C)[C@]2(C(=O)OCCOC(=O)c2ccc(-c3c4nc(c(-c5ccc(S(=O)(=O)[O-])cc5)c5ccc([nH]5)c(-c5ccc(S(=O)(=O)[O-])cc5)c5nc(c(-c6ccc(S(=O)(=O)[O-])cc6)c6ccc3[nH]6)C=C5)C=C4)cc2)O1
REMARK SMILES IDX 31 1 30 2 29 3 27 4 28 5 26 6 1 7 2 8 4 9 95 10 3 11 5 12
REMARK SMILES IDX 6 13 24 14 7 15 23 16 25 17 8 18 21 19 9 20 19 21 10 22
REMARK SMILES IDX 17 23 20 24 11 25 16 26 18 27 12 28 15 29 13 30 14 31 22 32
REMARK SMILES IDX 32 34 33 35 34 36 35 37 36 38 94 39 37 40 93 41 38 42 39 43
REMARK SMILES IDX 40 44 87 45 41 46 92 47 86 48 88 49 42 50 91 51 85 52 84 53
REMARK SMILES IDX 43 55 73 56 54 57 72 58 55 59 58 60 71 61 89 62 56 63 57 64
REMARK SMILES IDX 70 66 90 67 59 68 44 69 45 70 53 71 46 72 52 73 47 74 48 75
REMARK SMILES IDX 49 76 50 77 51 78 74 79 75 80 83 81 76 82 82 83 77 84 78 85
REMARK SMILES IDX 79 86 80 87 81 88 60 89 61 90 69 91 62 92 68 93 63 94 64 95
REMARK SMILES IDX 65 96 66 97 67 98
REMARK H PARENT 22 33 88 54 58 65
REMARK Flexibility Score: inf
ROOT
ATOM      1  C   UNL A   1      39.622  21.956  26.413  1.00  0.00     0.275 C 
ENDROOT
BRANCH   1   2
ATOM      2  C   UNL A   1      38.701  21.350  25.343  1.00  0.00     0.274 C 
BRANCH   2   3
ATOM      3  O   UNL A   1      37.347  21.129  25.798  1.00  0.00    -0.460 OA
BRANCH   3   4
ATOM      4  C   UNL A   1      36.443  21.696  24.970  1.00  0.00     0.342 C 
ATOM      5  O   UNL A   1      36.700  21.997  23.801  1.00  0.00    -0.249 OA
BRANCH   4   6
ATOM      6  C   UNL A   1      35.069  21.978  25.542  1.00  0.00     0.200 C 
ATOM      7  C   UNL A   1      33.691  19.100  24.384  1.00  0.00     0.075 C 
ATOM      8  C   UNL A   1      33.340  20.471  24.952  1.00  0.00     0.165 C 
ATOM      9  O   UNL A   1      33.480  20.358  26.368  1.00  0.00    -0.344 OA
ATOM     10  O   UNL A   1      34.210  21.508  24.454  1.00  0.00    -0.329 OA
ATOM     11  C   UNL A   1      31.880  20.783  24.574  1.00  0.00     0.075 C 
ATOM     12  C   UNL A   1      34.357  21.397  26.798  1.00  0.00     0.166 C 
ATOM     13  C   UNL A   1      33.409  22.569  27.365  1.00  0.00     0.040 C 
ATOM     14  C   UNL A   1      35.029  23.547  25.897  1.00  0.00     0.016 C 
ATOM     15  C   UNL A   1      33.528  23.603  26.237  1.00  0.00     0.008 C 
ATOM     16  C   UNL A   1      35.452  24.695  24.961  1.00  0.00     0.046 C 
ATOM     17  C   UNL A   1      35.994  23.758  27.126  1.00  0.00     0.015 C 
ATOM     18  C   UNL A   1      32.538  24.528  25.485  1.00  0.00     0.035 C 
ATOM     19  C   UNL A   1      34.459  25.096  23.895  1.00  0.00     0.154 C 
ATOM     20  C   UNL A   1      31.324  25.021  26.254  1.00  0.00     0.012 C 
ATOM     21  C   UNL A   1      33.138  25.602  24.547  1.00  0.00     0.152 C 
ATOM     22  C   UNL A   1      30.219  25.312  25.227  1.00  0.00     0.032 C 
ATOM     23  C   UNL A   1      32.050  26.089  23.489  1.00  0.00     0.044 C 
ATOM     24  F   UNL A   1      33.468  26.670  25.351  1.00  0.00    -0.239 F 
ATOM     25  C   UNL A   1      30.654  26.264  24.135  1.00  0.00    -0.053 C 
ATOM     26  C   UNL A   1      32.478  27.395  22.814  1.00  0.00    -0.009 C 
ATOM     27  C   UNL A   1      31.874  25.084  22.314  1.00  0.00     0.024 C 
ATOM     28  C   UNL A   1      29.784  27.188  23.687  1.00  0.00     0.052 C 
ATOM     29  C   UNL A   1      31.609  28.322  22.382  1.00  0.00     0.048 C 
ATOM     30  C   UNL A   1      30.164  28.168  22.649  1.00  0.00     0.178 C 
ATOM     31  O   UNL A   1      29.325  28.870  22.101  1.00  0.00    -0.290 OA
BRANCH  19  32
ATOM     32  O   UNL A   1      34.306  23.984  23.028  1.00  0.00    -0.390 OA
ATOM     33  H   UNL A   1      35.164  23.756  22.639  1.00  0.00     0.211 HD
ENDBRANCH  19  32
ENDBRANCH   4   6
ENDBRANCH   3   4
ENDBRANCH   2   3
ENDBRANCH   1   2
BRANCH   1  34
ATOM     34  O   UNL A   1      39.413  23.372  26.588  1.00  0.00    -0.458 OA
BRANCH  34  35
ATOM     35  C   UNL A   1      40.528  24.104  26.807  1.00  0.00     0.338 C 
ATOM     36  O   UNL A   1      41.670  23.790  26.474  1.00  0.00    -0.246 OA
BRANCH  35  37
ATOM     37  C   UNL A   1      40.254  25.387  27.493  1.00  0.00     0.060 A 
ATOM     38  C   UNL A   1      41.063  26.505  27.285  1.00  0.00     0.016 A 
ATOM     39  C   UNL A   1      39.332  25.399  28.541  1.00  0.00     0.016 A 
ATOM     40  C   UNL A   1      41.065  27.554  28.212  1.00  0.00     0.010 A 
ATOM     41  C   UNL A   1      39.256  26.501  29.402  1.00  0.00     0.010 A 
ATOM     42  C   UNL A   1      40.166  27.566  29.290  1.00  0.00    -0.014 A 
BRANCH  42  43
ATOM     43  C   UNL A   1      40.204  28.639  30.331  1.00  0.00     0.031 A 
ATOM     44  C   UNL A   1      41.200  28.566  31.470  1.00  0.00     0.074 A 
ATOM     45  C   UNL A   1      39.352  29.684  30.283  1.00  0.00     0.049 A 
ATOM     46  N   UNL A   1      41.247  29.264  32.577  1.00  0.00    -0.248 NA
ATOM     47  C   UNL A   1      42.279  27.571  31.348  1.00  0.00     0.031 C 
ATOM     48  C   UNL A   1      38.369  29.933  29.227  1.00  0.00     0.029 A 
ATOM     49  N   UNL A   1      39.175  30.735  31.152  1.00  0.00    -0.354 N 
ATOM     50  C   UNL A   1      42.309  28.746  33.315  1.00  0.00     0.074 A 
ATOM     51  C   UNL A   1      42.888  27.682  32.522  1.00  0.00     0.031 C 
ATOM     52  C   UNL A   1      37.715  31.073  29.493  1.00  0.00     0.029 A 
ATOM     53  C   UNL A   1      38.164  31.591  30.781  1.00  0.00     0.049 A 
ATOM     54  H   UNL A   1      39.719  30.863  31.961  1.00  0.00     0.167 HD
ATOM     55  C   UNL A   1      42.758  29.115  34.539  1.00  0.00     0.031 A 
ATOM     56  C   UNL A   1      37.615  32.643  31.420  1.00  0.00     0.031 A 
ATOM     57  C   UNL A   1      42.219  30.208  35.309  1.00  0.00     0.049 A 
ATOM     58  C   UNL A   1      38.112  33.023  32.785  1.00  0.00     0.074 A 
ATOM     59  C   UNL A   1      42.615  30.663  36.556  1.00  0.00     0.029 A 
ATOM     60  N   UNL A   1      41.183  31.032  34.897  1.00  0.00    -0.354 N 
ATOM     61  N   UNL A   1      39.066  32.473  33.496  1.00  0.00    -0.248 NA
ATOM     62  C   UNL A   1      37.444  34.156  33.440  1.00  0.00     0.031 C 
ATOM     63  C   UNL A   1      41.796  31.740  36.913  1.00  0.00     0.029 A 
ATOM     64  C   UNL A   1      40.919  31.984  35.868  1.00  0.00     0.049 A 
ATOM     65  H   UNL A   1      40.704  30.952  34.040  1.00  0.00     0.167 HD
ATOM     66  C   UNL A   1      39.114  33.195  34.684  1.00  0.00     0.074 A 
ATOM     67  C   UNL A   1      38.111  34.236  34.583  1.00  0.00     0.031 C 
ATOM     68  C   UNL A   1      39.912  33.007  35.762  1.00  0.00     0.031 A 
BRANCH  55  69
ATOM     69  C   UNL A   1      43.862  28.297  35.158  1.00  0.00    -0.014 A 
ATOM     70  C   UNL A   1      45.216  28.639  34.993  1.00  0.00     0.010 A 
ATOM     71  C   UNL A   1      43.530  27.189  35.959  1.00  0.00     0.010 A 
ATOM     72  C   UNL A   1      46.218  27.864  35.589  1.00  0.00     0.020 A 
ATOM     73  C   UNL A   1      44.526  26.426  36.575  1.00  0.00     0.020 A 
ATOM     74  C   UNL A   1      45.865  26.758  36.371  1.00  0.00     0.054 A 
BRANCH  74  75
ATOM     75  S   UNL A   1      47.181  25.778  37.147  1.00  0.00     0.124 S 
ATOM     76  O   UNL A   1      46.931  26.012  38.568  1.00  0.00    -0.237 OA
ATOM     77  O   UNL A   1      46.900  24.425  36.676  1.00  0.00    -0.237 OA
ATOM     78  O   UNL A   1      48.409  26.373  36.626  1.00  0.00    -0.744 OA
ENDBRANCH  74  75
ENDBRANCH  55  69
BRANCH  56  79
ATOM     79  C   UNL A   1      36.474  33.367  30.796  1.00  0.00    -0.014 A 
ATOM     80  C   UNL A   1      35.236  33.461  31.453  1.00  0.00     0.010 A 
ATOM     81  C   UNL A   1      36.636  33.988  29.544  1.00  0.00     0.010 A 
ATOM     82  C   UNL A   1      34.176  34.160  30.864  1.00  0.00     0.020 A 
ATOM     83  C   UNL A   1      35.590  34.710  28.966  1.00  0.00     0.020 A 
ATOM     84  C   UNL A   1      34.361  34.782  29.625  1.00  0.00     0.054 A 
BRANCH  84  85
ATOM     85  S   UNL A   1      33.001  35.742  28.903  1.00  0.00     0.124 S 
ATOM     86  O   UNL A   1      33.718  36.808  28.212  1.00  0.00    -0.237 OA
ATOM     87  O   UNL A   1      32.336  34.765  28.045  1.00  0.00    -0.237 OA
ATOM     88  O   UNL A   1      32.226  36.160  30.069  1.00  0.00    -0.744 OA
ENDBRANCH  84  85
ENDBRANCH  56  79
BRANCH  68  89
ATOM     89  C   UNL A   1      39.745  33.962  36.913  1.00  0.00    -0.014 A 
ATOM     90  C   UNL A   1      39.006  33.599  38.053  1.00  0.00     0.010 A 
ATOM     91  C   UNL A   1      40.357  35.227  36.864  1.00  0.00     0.010 A 
ATOM     92  C   UNL A   1      38.850  34.501  39.109  1.00  0.00     0.020 A 
ATOM     93  C   UNL A   1      40.221  36.123  37.927  1.00  0.00     0.020 A 
ATOM     94  C   UNL A   1      39.454  35.760  39.037  1.00  0.00     0.054 A 
BRANCH  94  95
ATOM     95  S   UNL A   1      39.262  36.908  40.428  1.00  0.00     0.124 S 
ATOM     96  O   UNL A   1      38.357  36.171  41.306  1.00  0.00    -0.237 OA
ATOM     97  O   UNL A   1      40.631  37.055  40.919  1.00  0.00    -0.237 OA
ATOM     98  O   UNL A   1      38.697  38.107  39.813  1.00  0.00    -0.744 OA
ENDBRANCH  94  95
ENDBRANCH  68  89
ENDBRANCH  42  43
ENDBRANCH  35  37
ENDBRANCH  34  35
ENDBRANCH   1  34
TORSDOF 15
ENDMDL
MODEL 2
REMARK VINA RESULT:     -13.0      5.236     10.873
REMARK SMILES CC1(C)O[C@@H]2CC3[C@H]4CCC5=CC(=O)C=C[C@@]5(C)[C@]4(F)[C@H](O)C[C@]3(C)[C@]2(C(=O)OCCOC(=O)c2ccc(-c3c4nc(c(-c5ccc(S(=O)(=O)[O-])cc5)c5ccc([nH]5)c(-c5ccc(S(=O)(=O)[O-])cc5)c5nc(c(-c6ccc(S(=O)(=O)[O-])cc6)c6ccc3[nH]6)C=C5)C=C4)cc2)O1
REMARK SMILES IDX 31 1 30 2 29 3 27 4 28 5 26 6 1 7 2 8 4 9 95 10 3 11 5 12
REMARK SMILES IDX 6 13 24 14 7 15 23 16 25 17 8 18 21 19 9 20 19 21 10 22
REMARK SMILES IDX 17 23 20 24 11 25 16 26 18 27 12 28 15 29 13 30 14 31 22 32
REMARK SMILES IDX 32 34 33 35 34 36 35 37 36 38 94 39 37 40 93 41 38 42 39 43
REMARK SMILES IDX 40 44 87 45 41 46 92 47 86 48 88 49 42 50 91 51 85 52 84 53
REMARK SMILES IDX 43 55 73 56 54 57 72 58 55 59 58 60 71 61 89 62 56 63 57 64
REMARK SMILES IDX 70 66 90 67 59 68 44 69 45 70 53 71 46 72 52 73 47 74 48 75
REMARK SMILES IDX 49 76 50 77 51 78 74 79 75 80 83 81 76 82 82 83 77 84 78 85
REMARK SMILES IDX 79 86 80 87 81 88 60 89 61 90 69 91 62 92 68 93 63 94 64 95
REMARK SMILES IDX 65 96 66 97 67 98
REMARK H PARENT 22 33 88 54 58 65
REMARK Flexibility Score: inf
ROOT
ATOM      1  C   UNL A   1      33.176  31.662  27.309  1.00  0.00     0.275 C 
ENDROOT
BRANCH   1   2
ATOM      2  C   UNL A   1      31.812  31.147  26.824  1.00  0.00     0.274 C 
BRANCH   2   3
ATOM      3  O   UNL A   1      31.881  30.391  25.594  1.00  0.00    -0.460 OA
BRANCH   3   4
ATOM      4  C   UNL A   1      31.679  29.072  25.807  1.00  0.00     0.342 C 
ATOM      5  O   UNL A   1      31.401  28.606  26.915  1.00  0.00    -0.249 OA
BRANCH   4   6
ATOM      6  C   UNL A   1      31.829  28.153  24.612  1.00  0.00     0.200 C 
ATOM      7  C   UNL A   1      28.605  28.482  23.603  1.00  0.00     0.075 C 
ATOM      8  C   UNL A   1      29.852  27.623  23.421  1.00  0.00     0.165 C 
ATOM      9  O   UNL A   1      30.681  28.325  22.495  1.00  0.00    -0.344 OA
ATOM     10  O   UNL A   1      30.562  27.421  24.660  1.00  0.00    -0.329 OA
ATOM     11  C   UNL A   1      29.415  26.266  22.838  1.00  0.00     0.075 C 
ATOM     12  C   UNL A   1      31.965  28.477  23.096  1.00  0.00     0.166 C 
ATOM     13  C   UNL A   1      32.889  27.318  22.465  1.00  0.00     0.040 C 
ATOM     14  C   UNL A   1      33.182  27.313  24.842  1.00  0.00     0.016 C 
ATOM     15  C   UNL A   1      32.987  26.352  23.654  1.00  0.00     0.008 C 
ATOM     16  C   UNL A   1      33.572  26.564  26.130  1.00  0.00     0.046 C 
ATOM     17  C   UNL A   1      34.378  28.328  24.682  1.00  0.00     0.015 C 
ATOM     18  C   UNL A   1      32.907  24.814  23.830  1.00  0.00     0.035 C 
ATOM     19  C   UNL A   1      32.915  25.222  26.355  1.00  0.00     0.154 C 
ATOM     20  C   UNL A   1      33.380  23.955  22.670  1.00  0.00     0.012 C 
ATOM     21  C   UNL A   1      33.293  24.234  25.211  1.00  0.00     0.152 C 
ATOM     22  C   UNL A   1      32.633  22.615  22.759  1.00  0.00     0.032 C 
ATOM     23  C   UNL A   1      32.677  22.777  25.396  1.00  0.00     0.044 C 
ATOM     24  F   UNL A   1      34.667  24.126  25.209  1.00  0.00    -0.239 F 
ATOM     25  C   UNL A   1      32.787  21.934  24.102  1.00  0.00    -0.053 C 
ATOM     26  C   UNL A   1      33.344  22.035  26.558  1.00  0.00    -0.009 C 
ATOM     27  C   UNL A   1      31.167  22.815  25.775  1.00  0.00     0.024 C 
ATOM     28  C   UNL A   1      32.929  20.596  24.145  1.00  0.00     0.052 C 
ATOM     29  C   UNL A   1      33.498  20.702  26.591  1.00  0.00     0.048 C 
ATOM     30  C   UNL A   1      33.120  19.881  25.424  1.00  0.00     0.178 C 
ATOM     31  O   UNL A   1      33.047  18.661  25.484  1.00  0.00    -0.290 OA
BRANCH  19  32
ATOM     32  O   UNL A   1      31.524  25.457  26.501  1.00  0.00    -0.390 OA
ATOM     33  H   UNL A   1      31.030  24.831  25.951  1.00  0.00     0.211 HD
ENDBRANCH  19  32
ENDBRANCH   4   6
ENDBRANCH   3   4
ENDBRANCH   2   3
ENDBRANCH   1   2
BRANCH   1  34
ATOM     34  O   UNL A   1      34.010  30.613  27.841  1.00  0.00    -0.458 OA
BRANCH  34  35
ATOM     35  C   UNL A   1      34.894  30.993  28.789  1.00  0.00     0.338 C 
ATOM     36  O   UNL A   1      34.728  31.901  29.603  1.00  0.00    -0.246 OA
BRANCH  35  37
ATOM     37  C   UNL A   1      36.131  30.179  28.789  1.00  0.00     0.060 A 
ATOM     38  C   UNL A   1      36.658  29.666  29.974  1.00  0.00     0.016 A 
ATOM     39  C   UNL A   1      36.904  30.141  27.626  1.00  0.00     0.016 A 
ATOM     40  C   UNL A   1      38.000  29.270  30.033  1.00  0.00     0.010 A 
ATOM     41  C   UNL A   1      38.210  29.638  27.663  1.00  0.00     0.010 A 
ATOM     42  C   UNL A   1      38.800  29.256  28.880  1.00  0.00    -0.014 A 
BRANCH  42  43
ATOM     43  C   UNL A   1      40.254  28.909  28.938  1.00  0.00     0.031 A 
ATOM     44  C   UNL A   1      41.275  29.953  29.337  1.00  0.00     0.074 A 
ATOM     45  C   UNL A   1      40.684  27.667  28.630  1.00  0.00     0.049 A 
ATOM     46  N   UNL A   1      42.581  29.919  29.235  1.00  0.00    -0.248 NA
ATOM     47  C   UNL A   1      40.757  31.204  29.918  1.00  0.00     0.031 C 
ATOM     48  C   UNL A   1      39.828  26.532  28.279  1.00  0.00     0.029 A 
ATOM     49  N   UNL A   1      41.957  27.153  28.560  1.00  0.00    -0.354 N 
ATOM     50  C   UNL A   1      43.034  31.162  29.668  1.00  0.00     0.074 A 
ATOM     51  C   UNL A   1      41.863  31.925  30.046  1.00  0.00     0.031 C 
ATOM     52  C   UNL A   1      40.594  25.454  28.060  1.00  0.00     0.029 A 
ATOM     53  C   UNL A   1      41.998  25.837  28.165  1.00  0.00     0.049 A 
ATOM     54  H   UNL A   1      42.762  27.677  28.774  1.00  0.00     0.167 HD
ATOM     55  C   UNL A   1      44.305  31.629  29.739  1.00  0.00     0.031 A 
ATOM     56  C   UNL A   1      43.038  25.034  27.865  1.00  0.00     0.031 A 
ATOM     57  C   UNL A   1      45.476  30.856  29.415  1.00  0.00     0.049 A 
ATOM     58  C   UNL A   1      44.436  25.576  27.930  1.00  0.00     0.074 A 
ATOM     59  C   UNL A   1      46.806  31.242  29.465  1.00  0.00     0.029 A 
ATOM     60  N   UNL A   1      45.463  29.533  29.000  1.00  0.00    -0.354 N 
ATOM     61  N   UNL A   1      44.839  26.777  28.268  1.00  0.00    -0.248 NA
ATOM     62  C   UNL A   1      45.520  24.658  27.552  1.00  0.00     0.031 C 
ATOM     63  C   UNL A   1      47.594  30.162  29.049  1.00  0.00     0.029 A 
ATOM     64  C   UNL A   1      46.757  29.091  28.782  1.00  0.00     0.049 A 
ATOM     65  H   UNL A   1      44.651  28.988  28.879  1.00  0.00     0.167 HD
ATOM     66  C   UNL A   1      46.224  26.758  28.147  1.00  0.00     0.074 A 
ATOM     67  C   UNL A   1      46.591  25.421  27.729  1.00  0.00     0.031 C 
ATOM     68  C   UNL A   1      47.110  27.762  28.356  1.00  0.00     0.031 A 
BRANCH  55  69
ATOM     69  C   UNL A   1      44.501  33.070  30.137  1.00  0.00    -0.014 A 
ATOM     70  C   UNL A   1      44.477  34.108  29.189  1.00  0.00     0.010 A 
ATOM     71  C   UNL A   1      44.667  33.390  31.497  1.00  0.00     0.010 A 
ATOM     72  C   UNL A   1      44.653  35.437  29.592  1.00  0.00     0.020 A 
ATOM     73  C   UNL A   1      44.821  34.718  31.907  1.00  0.00     0.020 A 
ATOM     74  C   UNL A   1      44.830  35.732  30.949  1.00  0.00     0.054 A 
BRANCH  74  75
ATOM     75  S   UNL A   1      45.039  37.464  31.449  1.00  0.00     0.124 S 
ATOM     76  O   UNL A   1      46.403  37.462  31.973  1.00  0.00    -0.237 OA
ATOM     77  O   UNL A   1      44.850  38.189  30.195  1.00  0.00    -0.237 OA
ATOM     78  O   UNL A   1      43.990  37.665  32.445  1.00  0.00    -0.744 OA
ENDBRANCH  74  75
ENDBRANCH  55  69
BRANCH  56  79
ATOM     79  C   UNL A   1      42.781  23.643  27.402  1.00  0.00    -0.014 A 
ATOM     80  C   UNL A   1      42.752  23.334  26.031  1.00  0.00     0.010 A 
ATOM     81  C   UNL A   1      42.589  22.613  28.341  1.00  0.00     0.010 A 
ATOM     82  C   UNL A   1      42.527  22.019  25.608  1.00  0.00     0.020 A 
ATOM     83  C   UNL A   1      42.393  21.295  27.923  1.00  0.00     0.020 A 
ATOM     84  C   UNL A   1      42.352  21.008  26.557  1.00  0.00     0.054 A 
BRANCH  84  85
ATOM     85  S   UNL A   1      42.130  19.296  25.999  1.00  0.00     0.124 S 
ATOM     86  O   UNL A   1      40.697  19.250  25.725  1.00  0.00    -0.237 OA
ATOM     87  O   UNL A   1      43.002  19.222  24.830  1.00  0.00    -0.237 OA
ATOM     88  O   UNL A   1      42.576  18.506  27.145  1.00  0.00    -0.744 OA
ENDBRANCH  84  85
ENDBRANCH  56  79
BRANCH  68  89
ATOM     89  C   UNL A   1      48.566  27.443  28.154  1.00  0.00    -0.014 A 
ATOM     90  C   UNL A   1      49.332  26.869  29.185  1.00  0.00     0.010 A 
ATOM     91  C   UNL A   1      49.170  27.698  26.910  1.00  0.00     0.010 A 
ATOM     92  C   UNL A   1      50.686  26.590  28.986  1.00  0.00     0.020 A 
ATOM     93  C   UNL A   1      50.519  27.401  26.700  1.00  0.00     0.020 A 
ATOM     94  C   UNL A   1      51.273  26.863  27.746  1.00  0.00     0.054 A 
BRANCH  94  95
ATOM     95  S   UNL A   1      53.026  26.471  27.498  1.00  0.00     0.124 S 
ATOM     96  O   UNL A   1      53.513  26.377  28.872  1.00  0.00    -0.237 OA
ATOM     97  O   UNL A   1      52.975  25.209  26.763  1.00  0.00    -0.237 OA
ATOM     98  O   UNL A   1      53.531  27.609  26.734  1.00  0.00    -0.744 OA
ENDBRANCH  94  95
ENDBRANCH  68  89
ENDBRANCH  42  43
ENDBRANCH  35  37
ENDBRANCH  34  35
ENDBRANCH   1  34
TORSDOF 15
ENDMDL
MODEL 3
REMARK VINA RESULT:     -12.8      6.128     10.347
REMARK SMILES CC1(C)O[C@@H]2CC3[C@H]4CCC5=CC(=O)C=C[C@@]5(C)[C@]4(F)[C@H](O)C[C@]3(C)[C@]2(C(=O)OCCOC(=O)c2ccc(-c3c4nc(c(-c5ccc(S(=O)(=O)[O-])cc5)c5ccc([nH]5)c(-c5ccc(S(=O)(=O)[O-])cc5)c5nc(c(-c6ccc(S(=O)(=O)[O-])cc6)c6ccc3[nH]6)C=C5)C=C4)cc2)O1
REMARK SMILES IDX 31 1 30 2 29 3 27 4 28 5 26 6 1 7 2 8 4 9 95 10 3 11 5 12
REMARK SMILES IDX 6 13 24 14 7 15 23 16 25 17 8 18 21 19 9 20 19 21 10 22
REMARK SMILES IDX 17 23 20 24 11 25 16 26 18 27 12 28 15 29 13 30 14 31 22 32
REMARK SMILES IDX 32 34 33 35 34 36 35 37 36 38 94 39 37 40 93 41 38 42 39 43
REMARK SMILES IDX 40 44 87 45 41 46 92 47 86 48 88 49 42 50 91 51 85 52 84 53
REMARK SMILES IDX 43 55 73 56 54 57 72 58 55 59 58 60 71 61 89 62 56 63 57 64
REMARK SMILES IDX 70 66 90 67 59 68 44 69 45 70 53 71 46 72 52 73 47 74 48 75
REMARK SMILES IDX 49 76 50 77 51 78 74 79 75 80 83 81 76 82 82 83 77 84 78 85
REMARK SMILES IDX 79 86 80 87 81 88 60 89 61 90 69 91 62 92 68 93 63 94 64 95
REMARK SMILES IDX 65 96 66 97 67 98
REMARK H PARENT 22 33 88 54 58 65
REMARK Flexibility Score: inf
ROOT
ATOM      1  C   UNL A   1      38.898  19.329  25.698  1.00  0.00     0.275 C 
ENDROOT
BRANCH   1   2
ATOM      2  C   UNL A   1      37.753  19.964  24.894  1.00  0.00     0.274 C 
BRANCH   2   3
ATOM      3  O   UNL A   1      37.697  21.404  25.002  1.00  0.00    -0.460 OA
BRANCH   3   4
ATOM      4  C   UNL A   1      36.626  21.912  24.352  1.00  0.00     0.342 C 
ATOM      5  O   UNL A   1      36.654  22.229  23.160  1.00  0.00    -0.249 OA
BRANCH   4   6
ATOM      6  C   UNL A   1      35.360  22.104  25.160  1.00  0.00     0.200 C 
ATOM      7  C   UNL A   1      34.027  19.101  24.306  1.00  0.00     0.075 C 
ATOM      8  C   UNL A   1      33.677  20.457  24.912  1.00  0.00     0.165 C 
ATOM      9  O   UNL A   1      34.078  20.392  26.280  1.00  0.00    -0.344 OA
ATOM     10  O   UNL A   1      34.358  21.543  24.251  1.00  0.00    -0.329 OA
ATOM     11  C   UNL A   1      32.153  20.648  24.801  1.00  0.00     0.075 C 
ATOM     12  C   UNL A   1      34.933  21.504  26.531  1.00  0.00     0.166 C 
ATOM     13  C   UNL A   1      34.013  22.616  27.246  1.00  0.00     0.040 C 
ATOM     14  C   UNL A   1      35.261  23.674  25.498  1.00  0.00     0.016 C 
ATOM     15  C   UNL A   1      33.845  23.626  26.103  1.00  0.00     0.008 C 
ATOM     16  C   UNL A   1      35.416  24.826  24.487  1.00  0.00     0.046 C 
ATOM     17  C   UNL A   1      36.411  23.989  26.529  1.00  0.00     0.015 C 
ATOM     18  C   UNL A   1      32.666  24.454  25.532  1.00  0.00     0.035 C 
ATOM     19  C   UNL A   1      34.220  25.123  23.613  1.00  0.00     0.154 C 
ATOM     20  C   UNL A   1      31.576  24.874  26.502  1.00  0.00     0.012 C 
ATOM     21  C   UNL A   1      33.001  25.545  24.488  1.00  0.00     0.152 C 
ATOM     22  C   UNL A   1      30.284  25.054  25.690  1.00  0.00     0.032 C 
ATOM     23  C   UNL A   1      31.706  25.921  23.639  1.00  0.00     0.044 C 
ATOM     24  F   UNL A   1      33.386  26.656  25.206  1.00  0.00    -0.239 F 
ATOM     25  C   UNL A   1      30.439  26.007  24.525  1.00  0.00    -0.053 C 
ATOM     26  C   UNL A   1      31.902  27.237  22.882  1.00  0.00    -0.009 C 
ATOM     27  C   UNL A   1      31.402  24.875  22.527  1.00  0.00     0.024 C 
ATOM     28  C   UNL A   1      29.433  26.851  24.231  1.00  0.00     0.052 C 
ATOM     29  C   UNL A   1      30.898  28.085  22.603  1.00  0.00     0.048 C 
ATOM     30  C   UNL A   1      29.542  27.829  23.129  1.00  0.00     0.178 C 
ATOM     31  O   UNL A   1      28.565  28.451  22.734  1.00  0.00    -0.290 OA
BRANCH  19  32
ATOM     32  O   UNL A   1      34.001  23.980  22.802  1.00  0.00    -0.390 OA
ATOM     33  H   UNL A   1      34.492  23.227  23.165  1.00  0.00     0.211 HD
ENDBRANCH  19  32
ENDBRANCH   4   6
ENDBRANCH   3   4
ENDBRANCH   2   3
ENDBRANCH   1   2
BRANCH   1  34
ATOM     34  O   UNL A   1      39.904  20.288  26.084  1.00  0.00    -0.458 OA
BRANCH  34  35
ATOM     35  C   UNL A   1      41.177  19.835  26.072  1.00  0.00     0.338 C 
ATOM     36  O   UNL A   1      41.529  18.689  25.797  1.00  0.00    -0.246 OA
BRANCH  35  37
ATOM     37  C   UNL A   1      42.169  20.882  26.409  1.00  0.00     0.060 A 
ATOM     38  C   UNL A   1      42.401  21.258  27.732  1.00  0.00     0.016 A 
ATOM     39  C   UNL A   1      42.686  21.668  25.376  1.00  0.00     0.016 A 
ATOM     40  C   UNL A   1      43.001  22.490  28.018  1.00  0.00     0.010 A 
ATOM     41  C   UNL A   1      43.386  22.844  25.668  1.00  0.00     0.010 A 
ATOM     42  C   UNL A   1      43.498  23.307  26.990  1.00  0.00    -0.014 A 
BRANCH  42  43
ATOM     43  C   UNL A   1      44.074  24.659  27.271  1.00  0.00     0.031 A 
ATOM     44  C   UNL A   1      43.183  25.786  27.748  1.00  0.00     0.074 A 
ATOM     45  C   UNL A   1      45.390  24.902  27.098  1.00  0.00     0.049 A 
ATOM     46  N   UNL A   1      43.439  27.068  27.832  1.00  0.00    -0.248 NA
ATOM     47  C   UNL A   1      41.821  25.423  28.179  1.00  0.00     0.031 C 
ATOM     48  C   UNL A   1      46.393  23.915  26.696  1.00  0.00     0.029 A 
ATOM     49  N   UNL A   1      46.110  26.065  27.236  1.00  0.00    -0.354 N 
ATOM     50  C   UNL A   1      42.256  27.671  28.253  1.00  0.00     0.074 A 
ATOM     51  C   UNL A   1      41.284  26.612  28.419  1.00  0.00     0.031 C 
ATOM     52  C   UNL A   1      47.597  24.503  26.648  1.00  0.00     0.029 A 
ATOM     53  C   UNL A   1      47.442  25.927  26.926  1.00  0.00     0.049 A 
ATOM     54  H   UNL A   1      45.710  26.915  27.530  1.00  0.00     0.167 HD
ATOM     55  C   UNL A   1      42.000  28.984  28.474  1.00  0.00     0.031 A 
ATOM     56  C   UNL A   1      48.427  26.841  26.821  1.00  0.00     0.031 A 
ATOM     57  C   UNL A   1      42.979  30.035  28.362  1.00  0.00     0.049 A 
ATOM     58  C   UNL A   1      48.118  28.293  27.050  1.00  0.00     0.074 A 
ATOM     59  C   UNL A   1      42.815  31.394  28.576  1.00  0.00     0.029 A 
ATOM     60  N   UNL A   1      44.311  29.845  28.026  1.00  0.00    -0.354 N 
ATOM     61  N   UNL A   1      46.976  28.851  27.372  1.00  0.00    -0.248 NA
ATOM     62  C   UNL A   1      49.229  29.240  26.882  1.00  0.00     0.031 C 
ATOM     63  C   UNL A   1      44.039  32.029  28.336  1.00  0.00     0.029 A 
ATOM     64  C   UNL A   1      44.976  31.060  28.017  1.00  0.00     0.049 A 
ATOM     65  H   UNL A   1      44.723  28.974  27.824  1.00  0.00     0.167 HD
ATOM     66  C   UNL A   1      47.232  30.216  27.447  1.00  0.00     0.074 A 
ATOM     67  C   UNL A   1      48.641  30.396  27.163  1.00  0.00     0.031 C 
ATOM     68  C   UNL A   1      46.375  31.228  27.721  1.00  0.00     0.031 A 
BRANCH  55  69
ATOM     69  C   UNL A   1      40.584  29.375  28.812  1.00  0.00    -0.014 A 
ATOM     70  C   UNL A   1      39.565  29.367  27.845  1.00  0.00     0.010 A 
ATOM     71  C   UNL A   1      40.264  29.712  30.140  1.00  0.00     0.010 A 
ATOM     72  C   UNL A   1      38.258  29.726  28.193  1.00  0.00     0.020 A 
ATOM     73  C   UNL A   1      38.955  30.049  30.497  1.00  0.00     0.020 A 
ATOM     74  C   UNL A   1      37.963  30.071  29.517  1.00  0.00     0.054 A 
BRANCH  74  75
ATOM     75  S   UNL A   1      36.257  30.517  29.949  1.00  0.00     0.124 S 
ATOM     76  O   UNL A   1      35.530  30.119  28.746  1.00  0.00    -0.237 OA
ATOM     77  O   UNL A   1      35.999  29.703  31.134  1.00  0.00    -0.237 OA
ATOM     78  O   UNL A   1      36.326  31.956  30.187  1.00  0.00    -0.744 OA
ENDBRANCH  74  75
ENDBRANCH  55  69
BRANCH  56  79
ATOM     79  C   UNL A   1      49.789  26.409  26.407  1.00  0.00    -0.014 A 
ATOM     80  C   UNL A   1      50.190  26.482  25.062  1.00  0.00     0.010 A 
ATOM     81  C   UNL A   1      50.702  25.943  27.371  1.00  0.00     0.010 A 
ATOM     82  C   UNL A   1      51.480  26.089  24.688  1.00  0.00     0.020 A 
ATOM     83  C   UNL A   1      51.999  25.577  27.006  1.00  0.00     0.020 A 
ATOM     84  C   UNL A   1      52.377  25.641  25.663  1.00  0.00     0.054 A 
BRANCH  84  85
ATOM     85  S   UNL A   1      54.068  25.199  25.176  1.00  0.00     0.124 S 
ATOM     86  O   UNL A   1      54.843  25.655  26.325  1.00  0.00    -0.237 OA
ATOM     87  O   UNL A   1      53.985  23.751  25.001  1.00  0.00    -0.237 OA
ATOM     88  O   UNL A   1      54.273  25.953  23.942  1.00  0.00    -0.744 OA
ENDBRANCH  84  85
ENDBRANCH  56  79
BRANCH  68  89
ATOM     89  C   UNL A   1      46.944  32.621  27.744  1.00  0.00    -0.014 A 
ATOM     90  C   UNL A   1      46.958  33.417  26.585  1.00  0.00     0.010 A 
ATOM     91  C   UNL A   1      47.447  33.149  28.946  1.00  0.00     0.010 A 
ATOM     92  C   UNL A   1      47.500  34.704  26.619  1.00  0.00     0.020 A 
ATOM     93  C   UNL A   1      47.971  34.443  28.990  1.00  0.00     0.020 A 
ATOM     94  C   UNL A   1      48.009  35.207  27.821  1.00  0.00     0.054 A 
BRANCH  94  95
ATOM     95  S   UNL A   1      48.685  36.890  27.852  1.00  0.00     0.124 S 
ATOM     96  O   UNL A   1      48.470  37.277  29.244  1.00  0.00    -0.237 OA
ATOM     97  O   UNL A   1      50.080  36.685  27.467  1.00  0.00    -0.237 OA
ATOM     98  O   UNL A   1      47.875  37.608  26.871  1.00  0.00    -0.744 OA
ENDBRANCH  94  95
ENDBRANCH  68  89
ENDBRANCH  42  43
ENDBRANCH  35  37
ENDBRANCH  34  35
ENDBRANCH   1  34
TORSDOF 15
ENDMDL
