MODEL 1
REMARK VINA RESULT:      -9.9      0.000      0.000
REMARK SMILES C[C@@H]1C[C@H]([NH3+])CN(S(=O)(=O)CCCC(=O)OCCOC(=O)c2ccc(-c3c4nc(c(-c5ccc(S(=O)(=O)[O-])cc5)c5ccc([nH]5)c(-c5ccc(S(=O)(=O)[O-])cc5)c5nc(c(-c6ccc(S(=O)(=O)[O-])cc6)c6ccc3[nH]6)C=C5)C=C4)cc2)C1
REMARK SMILES IDX 17 1 16 2 14 3 15 4 13 5 12 6 11 7 8 8 9 9 10 10 7 11 1 12
REMARK SMILES IDX 2 13 3 14 82 15 4 16 6 17 5 18 18 22 19 23 20 24 21 25 22 26
REMARK SMILES IDX 23 27 81 28 24 29 80 30 25 31 26 32 27 33 74 34 28 35 79 36
REMARK SMILES IDX 73 37 75 38 29 39 78 40 72 41 71 42 30 44 60 45 41 46 59 47
REMARK SMILES IDX 42 48 45 49 58 50 76 51 43 52 44 53 57 55 77 56 46 57 31 58
REMARK SMILES IDX 32 59 40 60 33 61 39 62 34 63 35 64 36 65 37 66 38 67 61 68
REMARK SMILES IDX 62 69 70 70 63 71 69 72 64 73 65 74 66 75 67 76 68 77 47 78
REMARK SMILES IDX 48 79 56 80 49 81 55 82 50 83 51 84 52 85 53 86 54 87
REMARK H PARENT 5 19 5 20 5 21 75 43 45 54
REMARK Flexibility Score: inf
ROOT
ATOM      1  C   UNL A   1      44.046  25.868  25.457  1.00  0.00     0.274 C 
ENDROOT
BRANCH   1   2
ATOM      2  O   UNL A   1      44.996  24.798  25.648  1.00  0.00    -0.462 OA
BRANCH   2   3
ATOM      3  C   UNL A   1      46.129  24.853  24.905  1.00  0.00     0.305 C 
ATOM      4  O   UNL A   1      46.620  25.900  24.500  1.00  0.00    -0.252 OA
BRANCH   3   5
ATOM      5  C   UNL A   1      46.711  23.499  24.544  1.00  0.00     0.124 C 
BRANCH   5   6
ATOM      6  C   UNL A   1      45.731  22.392  24.202  1.00  0.00     0.029 C 
BRANCH   6   7
ATOM      7  C   UNL A   1      45.789  21.156  25.085  1.00  0.00     0.155 C 
BRANCH   7   8
ATOM      8  S   UNL A   1      44.605  19.865  24.717  1.00  0.00     0.214 S 
ATOM      9  O   UNL A   1      45.007  18.685  25.460  1.00  0.00    -0.212 OA
ATOM     10  O   UNL A   1      44.447  19.804  23.280  1.00  0.00    -0.212 OA
BRANCH   8  11
ATOM     11  N   UNL A   1      43.093  20.368  25.383  1.00  0.00    -0.196 NA
ATOM     12  C   UNL A   1      39.904  19.437  25.820  1.00  0.00     0.009 C 
ATOM     13  C   UNL A   1      41.101  19.531  26.775  1.00  0.00     0.007 C 
ATOM     14  C   UNL A   1      41.158  20.852  27.562  1.00  0.00     0.071 C 
ATOM     15  C   UNL A   1      42.429  19.196  26.074  1.00  0.00     0.106 C 
ATOM     16  C   UNL A   1      41.776  21.997  26.766  1.00  0.00     0.196 C 
ATOM     17  C   UNL A   1      43.182  21.546  26.306  1.00  0.00     0.167 C 
BRANCH  16  18
ATOM     18  N   UNL A   1      40.835  22.360  25.710  1.00  0.00    -0.354 N 
ATOM     19  H   UNL A   1      40.480  23.300  25.881  1.00  0.00     0.344 HD
ATOM     20  H   UNL A   1      40.059  21.699  25.704  1.00  0.00     0.344 HD
ATOM     21  H   UNL A   1      41.311  22.335  24.808  1.00  0.00     0.344 HD
ENDBRANCH  16  18
ENDBRANCH   8  11
ENDBRANCH   7   8
ENDBRANCH   6   7
ENDBRANCH   5   6
ENDBRANCH   3   5
ENDBRANCH   2   3
ENDBRANCH   1   2
BRANCH   1  22
ATOM     22  C   UNL A   1      42.632  25.339  25.210  1.00  0.00     0.275 C 
BRANCH  22  23
ATOM     23  O   UNL A   1      41.641  26.350  25.449  1.00  0.00    -0.458 OA
BRANCH  23  24
ATOM     24  C   UNL A   1      40.630  25.961  26.262  1.00  0.00     0.338 C 
ATOM     25  O   UNL A   1      39.826  25.065  26.066  1.00  0.00    -0.246 OA
BRANCH  24  26
ATOM     26  C   UNL A   1      40.739  26.665  27.544  1.00  0.00     0.060 A 
ATOM     27  C   UNL A   1      39.865  26.296  28.567  1.00  0.00     0.016 A 
ATOM     28  C   UNL A   1      41.610  27.735  27.708  1.00  0.00     0.016 A 
ATOM     29  C   UNL A   1      39.822  26.997  29.755  1.00  0.00     0.010 A 
ATOM     30  C   UNL A   1      41.582  28.440  28.911  1.00  0.00     0.010 A 
ATOM     31  C   UNL A   1      40.673  28.084  29.927  1.00  0.00    -0.014 A 
BRANCH  31  32
ATOM     32  C   UNL A   1      40.526  28.909  31.137  1.00  0.00     0.031 A 
ATOM     33  C   UNL A   1      39.474  29.974  31.154  1.00  0.00     0.074 A 
ATOM     34  C   UNL A   1      41.304  28.668  32.208  1.00  0.00     0.049 A 
ATOM     35  N   UNL A   1      39.267  30.911  32.037  1.00  0.00    -0.248 NA
ATOM     36  C   UNL A   1      38.533  29.990  30.020  1.00  0.00     0.031 C 
ATOM     37  C   UNL A   1      42.285  27.585  32.317  1.00  0.00     0.029 A 
ATOM     38  N   UNL A   1      41.392  29.322  33.406  1.00  0.00    -0.354 N 
ATOM     39  C   UNL A   1      38.206  31.660  31.543  1.00  0.00     0.074 A 
ATOM     40  C   UNL A   1      37.817  31.073  30.281  1.00  0.00     0.031 C 
ATOM     41  C   UNL A   1      42.883  27.656  33.516  1.00  0.00     0.029 A 
ATOM     42  C   UNL A   1      42.379  28.828  34.224  1.00  0.00     0.049 A 
ATOM     43  H   UNL A   1      40.806  30.073  33.657  1.00  0.00     0.167 HD
ATOM     44  C   UNL A   1      37.623  32.745  32.100  1.00  0.00     0.031 A 
ATOM     45  C   UNL A   1      42.855  29.304  35.389  1.00  0.00     0.031 A 
ATOM     46  C   UNL A   1      38.033  33.299  33.363  1.00  0.00     0.049 A 
ATOM     47  C   UNL A   1      42.243  30.558  35.948  1.00  0.00     0.074 A 
ATOM     48  C   UNL A   1      37.519  34.395  34.031  1.00  0.00     0.029 A 
ATOM     49  N   UNL A   1      39.061  32.794  34.150  1.00  0.00    -0.354 N 
ATOM     50  N   UNL A   1      41.262  31.283  35.463  1.00  0.00    -0.248 NA
ATOM     51  C   UNL A   1      42.801  31.060  37.208  1.00  0.00     0.031 C 
ATOM     52  C   UNL A   1      38.277  34.591  35.190  1.00  0.00     0.029 A 
ATOM     53  C   UNL A   1      39.214  33.571  35.283  1.00  0.00     0.049 A 
ATOM     54  H   UNL A   1      39.599  32.000  33.933  1.00  0.00     0.167 HD
ATOM     55  C   UNL A   1      41.064  32.313  36.374  1.00  0.00     0.074 A 
ATOM     56  C   UNL A   1      42.019  32.105  37.446  1.00  0.00     0.031 C 
ATOM     57  C   UNL A   1      40.174  33.335  36.333  1.00  0.00     0.031 A 
BRANCH  44  58
ATOM     58  C   UNL A   1      36.534  33.431  31.321  1.00  0.00    -0.014 A 
ATOM     59  C   UNL A   1      36.736  33.873  30.001  1.00  0.00     0.010 A 
ATOM     60  C   UNL A   1      35.276  33.621  31.919  1.00  0.00     0.010 A 
ATOM     61  C   UNL A   1      35.709  34.522  29.307  1.00  0.00     0.020 A 
ATOM     62  C   UNL A   1      34.237  34.241  31.219  1.00  0.00     0.020 A 
ATOM     63  C   UNL A   1      34.465  34.701  29.921  1.00  0.00     0.054 A 
BRANCH  63  64
ATOM     64  S   UNL A   1      33.143  35.519  28.988  1.00  0.00     0.124 S 
ATOM     65  O   UNL A   1      33.892  36.488  28.190  1.00  0.00    -0.237 OA
ATOM     66  O   UNL A   1      32.550  34.414  28.241  1.00  0.00    -0.237 OA
ATOM     67  O   UNL A   1      32.290  36.095  30.026  1.00  0.00    -0.744 OA
ENDBRANCH  63  64
ENDBRANCH  44  58
BRANCH  45  68
ATOM     68  C   UNL A   1      43.988  28.618  36.065  1.00  0.00    -0.014 A 
ATOM     69  C   UNL A   1      45.306  29.078  35.903  1.00  0.00     0.010 A 
ATOM     70  C   UNL A   1      43.752  27.505  36.896  1.00  0.00     0.010 A 
ATOM     71  C   UNL A   1      46.366  28.429  36.543  1.00  0.00     0.020 A 
ATOM     72  C   UNL A   1      44.805  26.874  37.562  1.00  0.00     0.020 A 
ATOM     73  C   UNL A   1      46.108  27.332  37.371  1.00  0.00     0.054 A 
BRANCH  73  74
ATOM     74  S   UNL A   1      47.497  26.534  38.223  1.00  0.00     0.124 S 
ATOM     75  O   UNL A   1      46.824  25.837  39.314  1.00  0.00    -0.237 OA
ATOM     76  O   UNL A   1      48.059  25.682  37.176  1.00  0.00    -0.237 OA
ATOM     77  O   UNL A   1      48.344  27.655  38.624  1.00  0.00    -0.744 OA
ENDBRANCH  73  74
ENDBRANCH  45  68
BRANCH  57  78
ATOM     78  C   UNL A   1      40.161  34.280  37.505  1.00  0.00    -0.014 A 
ATOM     79  C   UNL A   1      39.344  34.049  38.625  1.00  0.00     0.010 A 
ATOM     80  C   UNL A   1      41.029  35.388  37.503  1.00  0.00     0.010 A 
ATOM     81  C   UNL A   1      39.370  34.929  39.709  1.00  0.00     0.020 A 
ATOM     82  C   UNL A   1      41.084  36.250  38.598  1.00  0.00     0.020 A 
ATOM     83  C   UNL A   1      40.242  36.023  39.689  1.00  0.00     0.054 A 
BRANCH  83  84
ATOM     84  S   UNL A   1      40.291  37.123  41.129  1.00  0.00     0.124 S 
ATOM     85  O   UNL A   1      41.476  37.931  40.854  1.00  0.00    -0.237 OA
ATOM     86  O   UNL A   1      39.014  37.826  41.036  1.00  0.00    -0.237 OA
ATOM     87  O   UNL A   1      40.411  36.207  42.262  1.00  0.00    -0.744 OA
ENDBRANCH  83  84
ENDBRANCH  57  78
ENDBRANCH  31  32
ENDBRANCH  24  26
ENDBRANCH  23  24
ENDBRANCH  22  23
ENDBRANCH   1  22
TORSDOF 19
ENDMDL
MODEL 2
REMARK VINA RESULT:      -9.8      5.620     10.875
REMARK SMILES C[C@@H]1C[C@H]([NH3+])CN(S(=O)(=O)CCCC(=O)OCCOC(=O)c2ccc(-c3c4nc(c(-c5ccc(S(=O)(=O)[O-])cc5)c5ccc([nH]5)c(-c5ccc(S(=O)(=O)[O-])cc5)c5nc(c(-c6ccc(S(=O)(=O)[O-])cc6)c6ccc3[nH]6)C=C5)C=C4)cc2)C1
REMARK SMILES IDX 17 1 16 2 14 3 15 4 13 5 12 6 11 7 8 8 9 9 10 10 7 11 1 12
REMARK SMILES IDX 2 13 3 14 82 15 4 16 6 17 5 18 18 22 19 23 20 24 21 25 22 26
REMARK SMILES IDX 23 27 81 28 24 29 80 30 25 31 26 32 27 33 74 34 28 35 79 36
REMARK SMILES IDX 73 37 75 38 29 39 78 40 72 41 71 42 30 44 60 45 41 46 59 47
REMARK SMILES IDX 42 48 45 49 58 50 76 51 43 52 44 53 57 55 77 56 46 57 31 58
REMARK SMILES IDX 32 59 40 60 33 61 39 62 34 63 35 64 36 65 37 66 38 67 61 68
REMARK SMILES IDX 62 69 70 70 63 71 69 72 64 73 65 74 66 75 67 76 68 77 47 78
REMARK SMILES IDX 48 79 56 80 49 81 55 82 50 83 51 84 52 85 53 86 54 87
REMARK H PARENT 5 19 5 20 5 21 75 43 45 54
REMARK Flexibility Score: inf
ROOT
ATOM      1  C   UNL A   1      32.108  27.469  26.321  1.00  0.00     0.274 C 
ENDROOT
BRANCH   1   2
ATOM      2  O   UNL A   1      31.107  26.615  26.914  1.00  0.00    -0.462 OA
BRANCH   2   3
ATOM      3  C   UNL A   1      30.522  25.706  26.095  1.00  0.00     0.305 C 
ATOM      4  O   UNL A   1      30.230  24.569  26.449  1.00  0.00    -0.252 OA
BRANCH   3   5
ATOM      5  C   UNL A   1      30.319  26.183  24.670  1.00  0.00     0.124 C 
BRANCH   5   6
ATOM      6  C   UNL A   1      30.725  25.235  23.556  1.00  0.00     0.029 C 
BRANCH   6   7
ATOM      7  C   UNL A   1      32.218  25.095  23.312  1.00  0.00     0.155 C 
BRANCH   7   8
ATOM      8  S   UNL A   1      32.810  23.444  22.955  1.00  0.00     0.214 S 
ATOM      9  O   UNL A   1      33.555  23.511  21.712  1.00  0.00    -0.212 OA
ATOM     10  O   UNL A   1      31.694  22.534  23.088  1.00  0.00    -0.212 OA
BRANCH   8  11
ATOM     11  N   UNL A   1      33.953  23.045  24.187  1.00  0.00    -0.196 NA
ATOM     12  C   UNL A   1      34.234  22.084  27.385  1.00  0.00     0.009 C 
ATOM     13  C   UNL A   1      34.422  21.342  26.054  1.00  0.00     0.007 C 
ATOM     14  C   UNL A   1      35.884  21.295  25.579  1.00  0.00     0.071 C 
ATOM     15  C   UNL A   1      33.456  21.847  24.969  1.00  0.00     0.106 C 
ATOM     16  C   UNL A   1      36.323  22.570  24.864  1.00  0.00     0.196 C 
ATOM     17  C   UNL A   1      35.347  22.811  23.689  1.00  0.00     0.167 C 
BRANCH  16  18
ATOM     18  N   UNL A   1      36.406  23.631  25.864  1.00  0.00    -0.354 N 
ATOM     19  H   UNL A   1      35.562  24.203  25.822  1.00  0.00     0.344 HD
ATOM     20  H   UNL A   1      37.221  24.214  25.673  1.00  0.00     0.344 HD
ATOM     21  H   UNL A   1      36.491  23.218  26.792  1.00  0.00     0.344 HD
ENDBRANCH  16  18
ENDBRANCH   8  11
ENDBRANCH   7   8
ENDBRANCH   6   7
ENDBRANCH   5   6
ENDBRANCH   3   5
ENDBRANCH   2   3
ENDBRANCH   1   2
BRANCH   1  22
ATOM     22  C   UNL A   1      32.577  28.558  27.287  1.00  0.00     0.275 C 
BRANCH  22  23
ATOM     23  O   UNL A   1      34.002  28.725  27.243  1.00  0.00    -0.458 OA
BRANCH  23  24
ATOM     24  C   UNL A   1      34.433  29.952  27.624  1.00  0.00     0.338 C 
ATOM     25  O   UNL A   1      33.776  30.976  27.700  1.00  0.00    -0.246 OA
BRANCH  24  26
ATOM     26  C   UNL A   1      35.807  29.849  28.127  1.00  0.00     0.060 A 
ATOM     27  C   UNL A   1      36.848  29.989  27.210  1.00  0.00     0.016 A 
ATOM     28  C   UNL A   1      36.069  29.521  29.452  1.00  0.00     0.016 A 
ATOM     29  C   UNL A   1      38.160  29.780  27.583  1.00  0.00     0.010 A 
ATOM     30  C   UNL A   1      37.394  29.321  29.840  1.00  0.00     0.010 A 
ATOM     31  C   UNL A   1      38.438  29.429  28.901  1.00  0.00    -0.014 A 
BRANCH  31  32
ATOM     32  C   UNL A   1      39.821  29.073  29.259  1.00  0.00     0.031 A 
ATOM     33  C   UNL A   1      40.669  30.098  29.945  1.00  0.00     0.074 A 
ATOM     34  C   UNL A   1      40.278  27.835  29.002  1.00  0.00     0.049 A 
ATOM     35  N   UNL A   1      41.945  30.063  30.212  1.00  0.00    -0.248 NA
ATOM     36  C   UNL A   1      39.991  31.331  30.382  1.00  0.00     0.031 C 
ATOM     37  C   UNL A   1      39.489  26.740  28.431  1.00  0.00     0.029 A 
ATOM     38  N   UNL A   1      41.520  27.292  29.188  1.00  0.00    -0.354 N 
ATOM     39  C   UNL A   1      42.236  31.287  30.802  1.00  0.00     0.074 A 
ATOM     40  C   UNL A   1      41.005  32.045  30.848  1.00  0.00     0.031 C 
ATOM     41  C   UNL A   1      40.272  25.658  28.303  1.00  0.00     0.029 A 
ATOM     42  C   UNL A   1      41.627  26.006  28.715  1.00  0.00     0.049 A 
ATOM     43  H   UNL A   1      42.264  27.775  29.616  1.00  0.00     0.167 HD
ATOM     44  C   UNL A   1      43.430  31.731  31.254  1.00  0.00     0.031 A 
ATOM     45  C   UNL A   1      42.711  25.220  28.585  1.00  0.00     0.031 A 
ATOM     46  C   UNL A   1      44.635  30.947  31.197  1.00  0.00     0.049 A 
ATOM     47  C   UNL A   1      44.042  25.767  29.020  1.00  0.00     0.074 A 
ATOM     48  C   UNL A   1      45.905  31.287  31.624  1.00  0.00     0.029 A 
ATOM     49  N   UNL A   1      44.715  29.659  30.681  1.00  0.00    -0.354 N 
ATOM     50  N   UNL A   1      44.320  26.937  29.549  1.00  0.00    -0.248 NA
ATOM     51  C   UNL A   1      45.206  24.892  28.844  1.00  0.00     0.031 C 
ATOM     52  C   UNL A   1      46.765  30.230  31.308  1.00  0.00     0.029 A 
ATOM     53  C   UNL A   1      46.017  29.201  30.754  1.00  0.00     0.049 A 
ATOM     54  H   UNL A   1      43.956  29.149  30.317  1.00  0.00     0.167 HD
ATOM     55  C   UNL A   1      45.687  26.928  29.794  1.00  0.00     0.074 A 
ATOM     56  C   UNL A   1      46.174  25.629  29.370  1.00  0.00     0.031 C 
ATOM     57  C   UNL A   1      46.470  27.901  30.324  1.00  0.00     0.031 A 
BRANCH  44  58
ATOM     58  C   UNL A   1      43.499  33.138  31.783  1.00  0.00    -0.014 A 
ATOM     59  C   UNL A   1      43.325  33.424  33.149  1.00  0.00     0.010 A 
ATOM     60  C   UNL A   1      43.761  34.195  30.893  1.00  0.00     0.010 A 
ATOM     61  C   UNL A   1      43.379  34.744  33.608  1.00  0.00     0.020 A 
ATOM     62  C   UNL A   1      43.847  35.512  31.351  1.00  0.00     0.020 A 
ATOM     63  C   UNL A   1      43.641  35.779  32.706  1.00  0.00     0.054 A 
BRANCH  63  64
ATOM     64  S   UNL A   1      43.734  37.478  33.334  1.00  0.00     0.124 S 
ATOM     65  O   UNL A   1      42.516  37.571  34.135  1.00  0.00    -0.237 OA
ATOM     66  O   UNL A   1      44.984  37.470  34.088  1.00  0.00    -0.237 OA
ATOM     67  O   UNL A   1      43.746  38.297  32.123  1.00  0.00    -0.744 OA
ENDBRANCH  63  64
ENDBRANCH  44  58
BRANCH  45  68
ATOM     68  C   UNL A   1      42.582  23.868  27.979  1.00  0.00    -0.014 A 
ATOM     69  C   UNL A   1      42.265  22.752  28.772  1.00  0.00     0.010 A 
ATOM     70  C   UNL A   1      42.759  23.691  26.592  1.00  0.00     0.010 A 
ATOM     71  C   UNL A   1      42.145  21.484  28.194  1.00  0.00     0.020 A 
ATOM     72  C   UNL A   1      42.607  22.432  26.007  1.00  0.00     0.020 A 
ATOM     73  C   UNL A   1      42.314  21.334  26.815  1.00  0.00     0.054 A 
BRANCH  73  74
ATOM     74  S   UNL A   1      42.111  19.685  26.085  1.00  0.00     0.124 S 
ATOM     75  O   UNL A   1      42.535  18.815  27.177  1.00  0.00    -0.237 OA
ATOM     76  O   UNL A   1      40.684  19.656  25.768  1.00  0.00    -0.237 OA
ATOM     77  O   UNL A   1      42.998  19.712  24.924  1.00  0.00    -0.744 OA
ENDBRANCH  73  74
ENDBRANCH  45  68
BRANCH  57  78
ATOM     78  C   UNL A   1      47.927  27.578  30.518  1.00  0.00    -0.014 A 
ATOM     79  C   UNL A   1      48.413  27.087  31.741  1.00  0.00     0.010 A 
ATOM     80  C   UNL A   1      48.811  27.719  29.432  1.00  0.00     0.010 A 
ATOM     81  C   UNL A   1      49.766  26.773  31.885  1.00  0.00     0.020 A 
ATOM     82  C   UNL A   1      50.156  27.373  29.561  1.00  0.00     0.020 A 
ATOM     83  C   UNL A   1      50.628  26.915  30.793  1.00  0.00     0.054 A 
BRANCH  83  84
ATOM     84  S   UNL A   1      52.370  26.456  30.993  1.00  0.00     0.124 S 
ATOM     85  O   UNL A   1      52.845  26.455  29.613  1.00  0.00    -0.237 OA
ATOM     86  O   UNL A   1      52.888  27.530  31.837  1.00  0.00    -0.237 OA
ATOM     87  O   UNL A   1      52.312  25.143  31.632  1.00  0.00    -0.744 OA
ENDBRANCH  83  84
ENDBRANCH  57  78
ENDBRANCH  31  32
ENDBRANCH  24  26
ENDBRANCH  23  24
ENDBRANCH  22  23
ENDBRANCH   1  22
TORSDOF 19
ENDMDL
MODEL 3
REMARK VINA RESULT:      -9.7      2.723      9.337
REMARK SMILES C[C@@H]1C[C@H]([NH3+])CN(S(=O)(=O)CCCC(=O)OCCOC(=O)c2ccc(-c3c4nc(c(-c5ccc(S(=O)(=O)[O-])cc5)c5ccc([nH]5)c(-c5ccc(S(=O)(=O)[O-])cc5)c5nc(c(-c6ccc(S(=O)(=O)[O-])cc6)c6ccc3[nH]6)C=C5)C=C4)cc2)C1
REMARK SMILES IDX 17 1 16 2 14 3 15 4 13 5 12 6 11 7 8 8 9 9 10 10 7 11 1 12
REMARK SMILES IDX 2 13 3 14 82 15 4 16 6 17 5 18 18 22 19 23 20 24 21 25 22 26
REMARK SMILES IDX 23 27 81 28 24 29 80 30 25 31 26 32 27 33 74 34 28 35 79 36
REMARK SMILES IDX 73 37 75 38 29 39 78 40 72 41 71 42 30 44 60 45 41 46 59 47
REMARK SMILES IDX 42 48 45 49 58 50 76 51 43 52 44 53 57 55 77 56 46 57 31 58
REMARK SMILES IDX 32 59 40 60 33 61 39 62 34 63 35 64 36 65 37 66 38 67 61 68
REMARK SMILES IDX 62 69 70 70 63 71 69 72 64 73 65 74 66 75 67 76 68 77 47 78
REMARK SMILES IDX 48 79 56 80 49 81 55 82 50 83 51 84 52 85 53 86 54 87
REMARK H PARENT 5 19 5 20 5 21 75 43 45 54
REMARK Flexibility Score: inf
ROOT
ATOM      1  C   UNL A   1      41.306  19.928  26.131  1.00  0.00     0.274 C 
ENDROOT
BRANCH   1   2
ATOM      2  O   UNL A   1      42.701  19.943  26.501  1.00  0.00    -0.462 OA
BRANCH   2   3
ATOM      3  C   UNL A   1      43.583  19.527  25.559  1.00  0.00     0.305 C 
ATOM      4  O   UNL A   1      43.464  18.475  24.942  1.00  0.00    -0.252 OA
BRANCH   3   5
ATOM      5  C   UNL A   1      44.782  20.437  25.376  1.00  0.00     0.124 C 
BRANCH   5   6
ATOM      6  C   UNL A   1      44.582  21.690  24.542  1.00  0.00     0.029 C 
BRANCH   6   7
ATOM      7  C   UNL A   1      44.058  22.907  25.285  1.00  0.00     0.155 C 
BRANCH   7   8
ATOM      8  S   UNL A   1      45.083  23.526  26.615  1.00  0.00     0.214 S 
ATOM      9  O   UNL A   1      46.403  22.948  26.449  1.00  0.00    -0.212 OA
ATOM     10  O   UNL A   1      44.358  23.347  27.854  1.00  0.00    -0.212 OA
BRANCH   8  11
ATOM     11  N   UNL A   1      45.260  25.225  26.361  1.00  0.00    -0.196 NA
ATOM     12  C   UNL A   1      45.358  28.183  27.933  1.00  0.00     0.009 C 
ATOM     13  C   UNL A   1      46.443  27.310  27.287  1.00  0.00     0.007 C 
ATOM     14  C   UNL A   1      46.771  27.709  25.838  1.00  0.00     0.071 C 
ATOM     15  C   UNL A   1      46.145  25.809  27.441  1.00  0.00     0.106 C 
ATOM     16  C   UNL A   1      45.787  27.137  24.822  1.00  0.00     0.196 C 
ATOM     17  C   UNL A   1      45.766  25.601  25.001  1.00  0.00     0.167 C 
BRANCH  16  18
ATOM     18  N   UNL A   1      44.513  27.827  25.003  1.00  0.00    -0.354 N 
ATOM     19  H   UNL A   1      44.464  28.206  25.948  1.00  0.00     0.344 HD
ATOM     20  H   UNL A   1      43.747  27.169  24.860  1.00  0.00     0.344 HD
ATOM     21  H   UNL A   1      44.440  28.587  24.328  1.00  0.00     0.344 HD
ENDBRANCH  16  18
ENDBRANCH   8  11
ENDBRANCH   7   8
ENDBRANCH   6   7
ENDBRANCH   5   6
ENDBRANCH   3   5
ENDBRANCH   2   3
ENDBRANCH   1   2
BRANCH   1  22
ATOM     22  C   UNL A   1      40.521  21.050  26.813  1.00  0.00     0.275 C 
BRANCH  22  23
ATOM     23  O   UNL A   1      40.555  22.261  26.043  1.00  0.00    -0.458 OA
BRANCH  23  24
ATOM     24  C   UNL A   1      39.379  22.935  26.009  1.00  0.00     0.338 C 
ATOM     25  O   UNL A   1      38.317  22.545  25.556  1.00  0.00    -0.246 OA
BRANCH  24  26
ATOM     26  C   UNL A   1      39.509  24.176  26.778  1.00  0.00     0.060 A 
ATOM     27  C   UNL A   1      40.378  25.155  26.296  1.00  0.00     0.016 A 
ATOM     28  C   UNL A   1      38.869  24.338  28.002  1.00  0.00     0.016 A 
ATOM     29  C   UNL A   1      40.647  26.293  27.029  1.00  0.00     0.010 A 
ATOM     30  C   UNL A   1      39.127  25.491  28.742  1.00  0.00     0.010 A 
ATOM     31  C   UNL A   1      40.031  26.459  28.265  1.00  0.00    -0.014 A 
BRANCH  31  32
ATOM     32  C   UNL A   1      40.428  27.604  29.101  1.00  0.00     0.031 A 
ATOM     33  C   UNL A   1      41.727  27.534  29.843  1.00  0.00     0.074 A 
ATOM     34  C   UNL A   1      39.645  28.697  29.151  1.00  0.00     0.049 A 
ATOM     35  N   UNL A   1      42.201  28.343  30.748  1.00  0.00    -0.248 NA
ATOM     36  C   UNL A   1      42.605  26.393  29.529  1.00  0.00     0.031 C 
ATOM     37  C   UNL A   1      38.414  28.894  28.381  1.00  0.00     0.029 A 
ATOM     38  N   UNL A   1      39.769  29.845  29.885  1.00  0.00    -0.354 N 
ATOM     39  C   UNL A   1      43.409  27.786  31.150  1.00  0.00     0.074 A 
ATOM     40  C   UNL A   1      43.591  26.567  30.395  1.00  0.00     0.031 C 
ATOM     41  C   UNL A   1      37.891  30.090  28.692  1.00  0.00     0.029 A 
ATOM     42  C   UNL A   1      38.709  30.706  29.732  1.00  0.00     0.049 A 
ATOM     43  H   UNL A   1      40.541  30.034  30.467  1.00  0.00     0.167 HD
ATOM     44  C   UNL A   1      44.276  28.257  32.074  1.00  0.00     0.031 A 
ATOM     45  C   UNL A   1      38.412  31.837  30.395  1.00  0.00     0.031 A 
ATOM     46  C   UNL A   1      44.065  29.479  32.803  1.00  0.00     0.049 A 
ATOM     47  C   UNL A   1      39.352  32.297  31.475  1.00  0.00     0.074 A 
ATOM     48  C   UNL A   1      44.872  30.060  33.763  1.00  0.00     0.029 A 
ATOM     49  N   UNL A   1      42.963  30.310  32.646  1.00  0.00    -0.354 N 
ATOM     50  N   UNL A   1      40.477  31.751  31.875  1.00  0.00    -0.248 NA
ATOM     51  C   UNL A   1      38.985  33.522  32.193  1.00  0.00     0.031 C 
ATOM     52  C   UNL A   1      44.228  31.209  34.233  1.00  0.00     0.029 A 
ATOM     53  C   UNL A   1      43.056  31.385  33.511  1.00  0.00     0.049 A 
ATOM     54  H   UNL A   1      42.226  30.157  32.013  1.00  0.00     0.167 HD
ATOM     55  C   UNL A   1      40.968  32.583  32.874  1.00  0.00     0.074 A 
ATOM     56  C   UNL A   1      40.023  33.675  33.003  1.00  0.00     0.031 C 
ATOM     57  C   UNL A   1      42.097  32.459  33.614  1.00  0.00     0.031 A 
BRANCH  44  58
ATOM     58  C   UNL A   1      45.486  27.419  32.388  1.00  0.00    -0.014 A 
ATOM     59  C   UNL A   1      46.699  27.582  31.695  1.00  0.00     0.010 A 
ATOM     60  C   UNL A   1      45.411  26.459  33.413  1.00  0.00     0.010 A 
ATOM     61  C   UNL A   1      47.802  26.778  31.999  1.00  0.00     0.020 A 
ATOM     62  C   UNL A   1      46.518  25.674  33.742  1.00  0.00     0.020 A 
ATOM     63  C   UNL A   1      47.704  25.829  33.022  1.00  0.00     0.054 A 
BRANCH  63  64
ATOM     64  S   UNL A   1      49.159  24.820  33.415  1.00  0.00     0.124 S 
ATOM     65  O   UNL A   1      48.549  23.629  34.002  1.00  0.00    -0.237 OA
ATOM     66  O   UNL A   1      49.777  24.629  32.106  1.00  0.00    -0.237 OA
ATOM     67  O   UNL A   1      49.919  25.652  34.345  1.00  0.00    -0.744 OA
ENDBRANCH  63  64
ENDBRANCH  44  58
BRANCH  45  68
ATOM     68  C   UNL A   1      37.156  32.572  30.087  1.00  0.00    -0.014 A 
ATOM     69  C   UNL A   1      35.985  32.336  30.826  1.00  0.00     0.010 A 
ATOM     70  C   UNL A   1      37.130  33.533  29.056  1.00  0.00     0.010 A 
ATOM     71  C   UNL A   1      34.808  33.032  30.531  1.00  0.00     0.020 A 
ATOM     72  C   UNL A   1      35.965  34.253  28.780  1.00  0.00     0.020 A 
ATOM     73  C   UNL A   1      34.808  33.988  29.512  1.00  0.00     0.054 A 
BRANCH  73  74
ATOM     74  S   UNL A   1      33.279  34.907  29.176  1.00  0.00     0.124 S 
ATOM     75  O   UNL A   1      32.658  34.954  30.496  1.00  0.00    -0.237 OA
ATOM     76  O   UNL A   1      33.784  36.181  28.668  1.00  0.00    -0.237 OA
ATOM     77  O   UNL A   1      32.591  34.080  28.189  1.00  0.00    -0.744 OA
ENDBRANCH  73  74
ENDBRANCH  45  68
BRANCH  57  78
ATOM     78  C   UNL A   1      42.396  33.558  34.598  1.00  0.00    -0.014 A 
ATOM     79  C   UNL A   1      43.094  34.716  34.215  1.00  0.00     0.010 A 
ATOM     80  C   UNL A   1      41.915  33.447  35.916  1.00  0.00     0.010 A 
ATOM     81  C   UNL A   1      43.336  35.731  35.144  1.00  0.00     0.020 A 
ATOM     82  C   UNL A   1      42.123  34.475  36.837  1.00  0.00     0.020 A 
ATOM     83  C   UNL A   1      42.846  35.604  36.448  1.00  0.00     0.054 A 
BRANCH  83  84
ATOM     84  S   UNL A   1      43.132  36.958  37.620  1.00  0.00     0.124 S 
ATOM     85  O   UNL A   1      44.108  36.369  38.532  1.00  0.00    -0.237 OA
ATOM     86  O   UNL A   1      43.639  38.023  36.759  1.00  0.00    -0.237 OA
ATOM     87  O   UNL A   1      41.812  37.204  38.195  1.00  0.00    -0.744 OA
ENDBRANCH  83  84
ENDBRANCH  57  78
ENDBRANCH  31  32
ENDBRANCH  24  26
ENDBRANCH  23  24
ENDBRANCH  22  23
ENDBRANCH   1  22
TORSDOF 19
ENDMDL
