MODEL 1
REMARK VINA RESULT:     -12.5      0.000      0.000
REMARK SMILES CCOc1ccccc1[C@H]1CC(C(=O)OCCOC(=O)c2ccc(-c3c4nc(c(-c5ccc(S(=O)(=O)[O-])cc5)c5ccc([nH]5)c(-c5ccc(S(=O)(=O)[O-])cc5)c5nc(c(-c6ccc(S(=O)(=O)[O-])cc6)c6ccc3[nH]6)C=C5)C=C4)cc2)=Nc2c(C(=O)Nc3ccccc3)cnn21
REMARK SMILES IDX 16 1 15 2 13 3 14 4 12 5 10 6 11 7 95 8 82 9 94 10 81 11
REMARK SMILES IDX 83 12 93 13 9 14 4 15 5 16 6 17 8 18 7 19 3 20 2 21 1 22
REMARK SMILES IDX 84 23 85 24 86 25 87 27 88 28 92 29 89 30 91 31 90 32 17 33
REMARK SMILES IDX 18 34 19 35 20 36 21 37 22 38 80 39 23 40 79 41 24 42 25 43
REMARK SMILES IDX 26 44 73 45 27 46 78 47 72 48 74 49 28 50 77 51 71 52 70 53
REMARK SMILES IDX 29 55 59 56 40 57 58 58 41 59 44 60 57 61 75 62 42 63 43 64
REMARK SMILES IDX 56 66 76 67 45 68 30 69 31 70 39 71 32 72 38 73 33 74 34 75
REMARK SMILES IDX 35 76 36 77 37 78 60 79 61 80 69 81 62 82 68 83 63 84 64 85
REMARK SMILES IDX 65 86 66 87 67 88 46 89 47 90 55 91 48 92 54 93 49 94 50 95
REMARK SMILES IDX 51 96 52 97 53 98
REMARK H PARENT 86 26 74 54 44 65
REMARK Flexibility Score: inf
ROOT
ATOM      1  C   UNL A   1      32.027  30.931  26.859  1.00  0.00     0.275 C 
ENDROOT
BRANCH   1   2
ATOM      2  O   UNL A   1      33.020  30.357  25.951  1.00  0.00    -0.458 OA
BRANCH   2   3
ATOM      3  C   UNL A   1      33.556  29.139  26.274  1.00  0.00     0.352 C 
ATOM      4  O   UNL A   1      34.432  28.935  27.092  1.00  0.00    -0.245 OA
BRANCH   3   5
ATOM      5  C   UNL A   1      32.827  27.990  25.495  1.00  0.00     0.130 C 
ATOM      6  C   UNL A   1      31.193  27.562  23.444  1.00  0.00     0.150 C 
ATOM      7  C   UNL A   1      31.798  28.497  24.509  1.00  0.00     0.096 C 
ATOM      8  N   UNL A   1      31.511  26.167  23.669  1.00  0.00    -0.239 N 
ATOM      9  C   UNL A   1      32.294  25.757  25.284  1.00  0.00     0.164 A 
ATOM     10  N   UNL A   1      30.675  24.666  22.948  1.00  0.00    -0.178 NA
ATOM     11  N   UNL A   1      33.069  26.745  25.829  1.00  0.00    -0.225 NA
ATOM     12  C   UNL A   1      31.855  24.050  25.648  1.00  0.00     0.104 A 
ATOM     13  C   UNL A   1      30.865  23.391  24.103  1.00  0.00     0.151 A 
BRANCH   6  14
ATOM     14  C   UNL A   1      29.706  27.799  23.424  1.00  0.00     0.019 A 
ATOM     15  C   UNL A   1      29.122  28.919  22.834  1.00  0.00     0.124 A 
ATOM     16  C   UNL A   1      27.728  29.045  22.826  1.00  0.00     0.047 A 
ATOM     17  C   UNL A   1      26.910  28.047  23.362  1.00  0.00     0.004 A 
ATOM     18  C   UNL A   1      28.867  26.803  23.977  1.00  0.00     0.010 A 
ATOM     19  C   UNL A   1      27.481  26.919  23.935  1.00  0.00     0.001 A 
BRANCH  15  20
ATOM     20  O   UNL A   1      29.802  29.986  22.320  1.00  0.00    -0.494 OA
BRANCH  20  21
ATOM     21  C   UNL A   1      29.120  31.401  22.147  1.00  0.00     0.226 C 
ATOM     22  C   UNL A   1      27.896  32.170  20.414  1.00  0.00     0.049 C 
ENDBRANCH  20  21
ENDBRANCH  15  20
ENDBRANCH   6  14
BRANCH  12  23
ATOM     23  C   UNL A   1      32.157  23.114  26.759  1.00  0.00     0.261 C 
ATOM     24  O   UNL A   1      31.383  23.019  27.709  1.00  0.00    -0.269 OA
ATOM     25  N   UNL A   1      33.277  22.315  26.736  1.00  0.00    -0.322 N 
ATOM     26  H   UNL A   1      33.316  21.558  27.365  1.00  0.00     0.170 HD
BRANCH  25  27
ATOM     27  C   UNL A   1      34.350  22.510  25.889  1.00  0.00     0.041 A 
ATOM     28  C   UNL A   1      34.306  21.920  24.626  1.00  0.00     0.026 A 
ATOM     29  C   UNL A   1      35.321  23.443  26.255  1.00  0.00     0.026 A 
ATOM     30  C   UNL A   1      35.134  22.421  23.649  1.00  0.00     0.002 A 
ATOM     31  C   UNL A   1      36.082  24.011  25.265  1.00  0.00     0.002 A 
ATOM     32  C   UNL A   1      35.965  23.478  23.985  1.00  0.00     0.000 A 
ENDBRANCH  25  27
ENDBRANCH  12  23
ENDBRANCH   3   5
ENDBRANCH   2   3
ENDBRANCH   1   2
BRANCH   1  33
ATOM     33  C   UNL A   1      32.257  32.437  27.161  1.00  0.00     0.275 C 
BRANCH  33  34
ATOM     34  O   UNL A   1      33.432  32.713  27.953  1.00  0.00    -0.458 OA
BRANCH  34  35
ATOM     35  C   UNL A   1      33.431  33.926  28.565  1.00  0.00     0.338 C 
ATOM     36  O   UNL A   1      32.543  34.761  28.504  1.00  0.00    -0.246 OA
BRANCH  35  37
ATOM     37  C   UNL A   1      34.651  34.121  29.375  1.00  0.00     0.060 A 
ATOM     38  C   UNL A   1      35.829  34.498  28.720  1.00  0.00     0.016 A 
ATOM     39  C   UNL A   1      34.728  33.395  30.543  1.00  0.00     0.016 A 
ATOM     40  C   UNL A   1      36.971  33.783  28.852  1.00  0.00     0.010 A 
ATOM     41  C   UNL A   1      35.952  32.868  30.859  1.00  0.00     0.010 A 
ATOM     42  C   UNL A   1      36.971  32.894  29.898  1.00  0.00    -0.014 A 
BRANCH  42  43
ATOM     43  C   UNL A   1      38.197  32.208  30.190  1.00  0.00     0.031 A 
ATOM     44  C   UNL A   1      38.069  30.793  29.708  1.00  0.00     0.074 A 
ATOM     45  C   UNL A   1      39.206  32.954  30.696  1.00  0.00     0.049 A 
ATOM     46  N   UNL A   1      38.024  29.727  30.438  1.00  0.00    -0.248 NA
ATOM     47  C   UNL A   1      37.583  30.537  28.324  1.00  0.00     0.031 C 
ATOM     48  C   UNL A   1      39.221  34.378  31.084  1.00  0.00     0.029 A 
ATOM     49  N   UNL A   1      40.513  32.624  30.852  1.00  0.00    -0.354 N 
ATOM     50  C   UNL A   1      37.919  28.672  29.533  1.00  0.00     0.074 A 
ATOM     51  C   UNL A   1      37.353  29.224  28.340  1.00  0.00     0.031 C 
ATOM     52  C   UNL A   1      40.499  34.835  31.126  1.00  0.00     0.029 A 
ATOM     53  C   UNL A   1      41.396  33.719  30.913  1.00  0.00     0.049 A 
ATOM     54  H   UNL A   1      40.820  31.691  30.918  1.00  0.00     0.167 HD
ATOM     55  C   UNL A   1      38.723  27.583  29.683  1.00  0.00     0.031 A 
ATOM     56  C   UNL A   1      42.751  33.637  30.736  1.00  0.00     0.031 A 
ATOM     57  C   UNL A   1      39.214  27.520  31.036  1.00  0.00     0.049 A 
ATOM     58  C   UNL A   1      43.089  32.196  30.944  1.00  0.00     0.074 A 
ATOM     59  C   UNL A   1      38.616  27.401  32.273  1.00  0.00     0.029 A 
ATOM     60  N   UNL A   1      40.442  28.104  31.237  1.00  0.00    -0.354 N 
ATOM     61  N   UNL A   1      42.916  31.613  32.102  1.00  0.00    -0.248 NA
ATOM     62  C   UNL A   1      42.981  31.329  29.775  1.00  0.00     0.031 C 
ATOM     63  C   UNL A   1      39.321  28.318  33.105  1.00  0.00     0.029 A 
ATOM     64  C   UNL A   1      40.410  28.830  32.397  1.00  0.00     0.049 A 
ATOM     65  H   UNL A   1      41.221  28.015  30.641  1.00  0.00     0.167 HD
ATOM     66  C   UNL A   1      42.229  30.441  31.802  1.00  0.00     0.074 A 
ATOM     67  C   UNL A   1      42.317  30.313  30.340  1.00  0.00     0.031 C 
ATOM     68  C   UNL A   1      41.353  29.886  32.696  1.00  0.00     0.031 A 
BRANCH  55  69
ATOM     69  C   UNL A   1      39.487  26.960  28.533  1.00  0.00    -0.014 A 
ATOM     70  C   UNL A   1      39.627  25.558  28.522  1.00  0.00     0.010 A 
ATOM     71  C   UNL A   1      40.309  27.685  27.641  1.00  0.00     0.010 A 
ATOM     72  C   UNL A   1      40.570  24.922  27.706  1.00  0.00     0.020 A 
ATOM     73  C   UNL A   1      41.233  27.058  26.797  1.00  0.00     0.020 A 
ATOM     74  C   UNL A   1      41.370  25.679  26.849  1.00  0.00     0.054 A 
BRANCH  74  75
ATOM     75  S   UNL A   1      42.593  24.836  25.818  1.00  0.00     0.124 S 
ATOM     76  O   UNL A   1      41.990  23.520  25.640  1.00  0.00    -0.237 OA
ATOM     77  O   UNL A   1      42.625  25.686  24.631  1.00  0.00    -0.237 OA
ATOM     78  O   UNL A   1      43.807  24.867  26.631  1.00  0.00    -0.744 OA
ENDBRANCH  74  75
ENDBRANCH  55  69
BRANCH  56  79
ATOM     79  C   UNL A   1      43.660  34.568  29.991  1.00  0.00    -0.014 A 
ATOM     80  C   UNL A   1      44.930  34.956  30.477  1.00  0.00     0.010 A 
ATOM     81  C   UNL A   1      43.391  34.834  28.635  1.00  0.00     0.010 A 
ATOM     82  C   UNL A   1      45.903  35.536  29.625  1.00  0.00     0.020 A 
ATOM     83  C   UNL A   1      44.353  35.401  27.783  1.00  0.00     0.020 A 
ATOM     84  C   UNL A   1      45.613  35.732  28.272  1.00  0.00     0.054 A 
BRANCH  84  85
ATOM     85  S   UNL A   1      46.909  36.301  27.118  1.00  0.00     0.124 S 
ATOM     86  O   UNL A   1      47.036  37.717  27.456  1.00  0.00    -0.237 OA
ATOM     87  O   UNL A   1      48.050  35.463  27.476  1.00  0.00    -0.237 OA
ATOM     88  O   UNL A   1      46.338  36.031  25.800  1.00  0.00    -0.744 OA
ENDBRANCH  84  85
ENDBRANCH  56  79
BRANCH  68  89
ATOM     89  C   UNL A   1      41.280  30.453  34.099  1.00  0.00    -0.014 A 
ATOM     90  C   UNL A   1      42.033  30.020  35.215  1.00  0.00     0.010 A 
ATOM     91  C   UNL A   1      40.510  31.617  34.231  1.00  0.00     0.010 A 
ATOM     92  C   UNL A   1      41.963  30.714  36.439  1.00  0.00     0.020 A 
ATOM     93  C   UNL A   1      40.455  32.321  35.432  1.00  0.00     0.020 A 
ATOM     94  C   UNL A   1      41.161  31.856  36.538  1.00  0.00     0.054 A 
BRANCH  94  95
ATOM     95  S   UNL A   1      41.029  32.746  38.115  1.00  0.00     0.124 S 
ATOM     96  O   UNL A   1      41.536  34.071  37.772  1.00  0.00    -0.237 OA
ATOM     97  O   UNL A   1      39.601  32.677  38.412  1.00  0.00    -0.237 OA
ATOM     98  O   UNL A   1      41.881  31.976  39.021  1.00  0.00    -0.744 OA
ENDBRANCH  94  95
ENDBRANCH  68  89
ENDBRANCH  42  43
ENDBRANCH  35  37
ENDBRANCH  34  35
ENDBRANCH  33  34
ENDBRANCH   1  33
TORSDOF 19
ENDMDL
MODEL 2
REMARK VINA RESULT:     -11.6      1.725      4.635
REMARK SMILES CCOc1ccccc1[C@H]1CC(C(=O)OCCOC(=O)c2ccc(-c3c4nc(c(-c5ccc(S(=O)(=O)[O-])cc5)c5ccc([nH]5)c(-c5ccc(S(=O)(=O)[O-])cc5)c5nc(c(-c6ccc(S(=O)(=O)[O-])cc6)c6ccc3[nH]6)C=C5)C=C4)cc2)=Nc2c(C(=O)Nc3ccccc3)cnn21
REMARK SMILES IDX 16 1 15 2 13 3 14 4 12 5 10 6 11 7 95 8 82 9 94 10 81 11
REMARK SMILES IDX 83 12 93 13 9 14 4 15 5 16 6 17 8 18 7 19 3 20 2 21 1 22
REMARK SMILES IDX 84 23 85 24 86 25 87 27 88 28 92 29 89 30 91 31 90 32 17 33
REMARK SMILES IDX 18 34 19 35 20 36 21 37 22 38 80 39 23 40 79 41 24 42 25 43
REMARK SMILES IDX 26 44 73 45 27 46 78 47 72 48 74 49 28 50 77 51 71 52 70 53
REMARK SMILES IDX 29 55 59 56 40 57 58 58 41 59 44 60 57 61 75 62 42 63 43 64
REMARK SMILES IDX 56 66 76 67 45 68 30 69 31 70 39 71 32 72 38 73 33 74 34 75
REMARK SMILES IDX 35 76 36 77 37 78 60 79 61 80 69 81 62 82 68 83 63 84 64 85
REMARK SMILES IDX 65 86 66 87 67 88 46 89 47 90 55 91 48 92 54 93 49 94 50 95
REMARK SMILES IDX 51 96 52 97 53 98
REMARK H PARENT 86 26 74 54 44 65
REMARK Flexibility Score: inf
ROOT
ATOM      1  C   UNL A   1      32.113  29.618  25.978  1.00  0.00     0.275 C 
ENDROOT
BRANCH   1   2
ATOM      2  O   UNL A   1      32.357  28.364  26.689  1.00  0.00    -0.458 OA
BRANCH   2   3
ATOM      3  C   UNL A   1      33.594  27.789  26.569  1.00  0.00     0.352 C 
ATOM      4  O   UNL A   1      34.632  28.215  27.039  1.00  0.00    -0.245 OA
BRANCH   3   5
ATOM      5  C   UNL A   1      33.500  26.430  25.793  1.00  0.00     0.130 C 
ATOM      6  C   UNL A   1      34.069  23.845  26.024  1.00  0.00     0.150 C 
ATOM      7  C   UNL A   1      34.274  25.311  26.454  1.00  0.00     0.096 C 
ATOM      8  N   UNL A   1      33.299  23.715  24.805  1.00  0.00    -0.239 N 
ATOM      9  C   UNL A   1      32.976  25.269  23.871  1.00  0.00     0.164 A 
ATOM     10  N   UNL A   1      33.171  22.237  23.677  1.00  0.00    -0.178 NA
ATOM     11  N   UNL A   1      32.891  26.403  24.632  1.00  0.00    -0.225 NA
ATOM     12  C   UNL A   1      32.770  24.798  22.146  1.00  0.00     0.104 A 
ATOM     13  C   UNL A   1      32.856  22.851  22.090  1.00  0.00     0.151 A 
BRANCH   6  14
ATOM     14  C   UNL A   1      35.432  23.217  25.892  1.00  0.00     0.019 A 
ATOM     15  C   UNL A   1      35.633  21.837  25.852  1.00  0.00     0.124 A 
ATOM     16  C   UNL A   1      36.930  21.335  25.689  1.00  0.00     0.047 A 
ATOM     17  C   UNL A   1      38.021  22.192  25.525  1.00  0.00     0.004 A 
ATOM     18  C   UNL A   1      36.547  24.074  25.740  1.00  0.00     0.010 A 
ATOM     19  C   UNL A   1      37.828  23.567  25.545  1.00  0.00     0.001 A 
BRANCH  15  20
ATOM     20  O   UNL A   1      34.667  20.892  26.047  1.00  0.00    -0.494 OA
BRANCH  20  21
ATOM     21  C   UNL A   1      34.561  19.610  25.128  1.00  0.00     0.226 C 
ATOM     22  C   UNL A   1      32.761  18.822  24.018  1.00  0.00     0.049 C 
ENDBRANCH  20  21
ENDBRANCH  15  20
ENDBRANCH   6  14
BRANCH  12  23
ATOM     23  C   UNL A   1      32.483  25.540  20.895  1.00  0.00     0.261 C 
ATOM     24  O   UNL A   1      33.086  25.257  19.861  1.00  0.00    -0.269 OA
ATOM     25  N   UNL A   1      31.524  26.525  20.850  1.00  0.00    -0.322 N 
ATOM     26  H   UNL A   1      31.208  26.823  19.966  1.00  0.00     0.170 HD
BRANCH  25  27
ATOM     27  C   UNL A   1      30.976  27.123  21.969  1.00  0.00     0.041 A 
ATOM     28  C   UNL A   1      31.222  28.481  22.176  1.00  0.00     0.026 A 
ATOM     29  C   UNL A   1      30.047  26.400  22.717  1.00  0.00     0.026 A 
ATOM     30  C   UNL A   1      30.381  29.169  23.018  1.00  0.00     0.002 A 
ATOM     31  C   UNL A   1      29.147  27.096  23.485  1.00  0.00     0.002 A 
ATOM     32  C   UNL A   1      29.345  28.467  23.613  1.00  0.00     0.000 A 
ENDBRANCH  25  27
ENDBRANCH  12  23
ENDBRANCH   3   5
ENDBRANCH   2   3
ENDBRANCH   1   2
BRANCH   1  33
ATOM     33  C   UNL A   1      31.911  30.837  26.918  1.00  0.00     0.275 C 
BRANCH  33  34
ATOM     34  O   UNL A   1      33.133  31.505  27.299  1.00  0.00    -0.458 OA
BRANCH  34  35
ATOM     35  C   UNL A   1      32.979  32.806  27.660  1.00  0.00     0.338 C 
ATOM     36  O   UNL A   1      32.037  33.526  27.369  1.00  0.00    -0.246 OA
BRANCH  35  37
ATOM     37  C   UNL A   1      34.100  33.266  28.505  1.00  0.00     0.060 A 
ATOM     38  C   UNL A   1      35.227  33.805  27.876  1.00  0.00     0.016 A 
ATOM     39  C   UNL A   1      34.240  32.639  29.724  1.00  0.00     0.016 A 
ATOM     40  C   UNL A   1      36.469  33.315  28.107  1.00  0.00     0.010 A 
ATOM     41  C   UNL A   1      35.518  32.360  30.128  1.00  0.00     0.010 A 
ATOM     42  C   UNL A   1      36.568  32.507  29.212  1.00  0.00    -0.014 A 
BRANCH  42  43
ATOM     43  C   UNL A   1      37.877  32.071  29.604  1.00  0.00     0.031 A 
ATOM     44  C   UNL A   1      38.003  30.613  29.275  1.00  0.00     0.074 A 
ATOM     45  C   UNL A   1      38.729  33.024  30.048  1.00  0.00     0.049 A 
ATOM     46  N   UNL A   1      38.105  29.635  30.114  1.00  0.00    -0.248 NA
ATOM     47  C   UNL A   1      37.621  30.137  27.916  1.00  0.00     0.031 C 
ATOM     48  C   UNL A   1      38.493  34.462  30.281  1.00  0.00     0.029 A 
ATOM     49  N   UNL A   1      40.064  32.935  30.269  1.00  0.00    -0.354 N 
ATOM     50  C   UNL A   1      38.212  28.489  29.326  1.00  0.00     0.074 A 
ATOM     51  C   UNL A   1      37.611  28.813  28.069  1.00  0.00     0.031 C 
ATOM     52  C   UNL A   1      39.675  35.129  30.302  1.00  0.00     0.029 A 
ATOM     53  C   UNL A   1      40.752  34.164  30.230  1.00  0.00     0.049 A 
ATOM     54  H   UNL A   1      40.518  32.079  30.442  1.00  0.00     0.167 HD
ATOM     55  C   UNL A   1      39.177  27.573  29.611  1.00  0.00     0.031 A 
ATOM     56  C   UNL A   1      42.107  34.293  30.094  1.00  0.00     0.031 A 
ATOM     57  C   UNL A   1      39.618  27.732  30.973  1.00  0.00     0.049 A 
ATOM     58  C   UNL A   1      42.670  32.958  30.463  1.00  0.00     0.074 A 
ATOM     59  C   UNL A   1      38.998  27.642  32.202  1.00  0.00     0.029 A 
ATOM     60  N   UNL A   1      40.723  28.532  31.138  1.00  0.00    -0.354 N 
ATOM     61  N   UNL A   1      42.549  32.476  31.674  1.00  0.00    -0.248 NA
ATOM     62  C   UNL A   1      42.753  31.970  29.393  1.00  0.00     0.031 C 
ATOM     63  C   UNL A   1      39.508  28.746  32.947  1.00  0.00     0.029 A 
ATOM     64  C   UNL A   1      40.526  29.357  32.211  1.00  0.00     0.049 A 
ATOM     65  H   UNL A   1      41.529  28.514  30.573  1.00  0.00     0.167 HD
ATOM     66  C   UNL A   1      42.077  31.182  31.487  1.00  0.00     0.074 A 
ATOM     67  C   UNL A   1      42.244  30.920  30.050  1.00  0.00     0.031 C 
ATOM     68  C   UNL A   1      41.269  30.582  32.416  1.00  0.00     0.031 A 
BRANCH  55  69
ATOM     69  C   UNL A   1      40.079  26.972  28.552  1.00  0.00    -0.014 A 
ATOM     70  C   UNL A   1      40.067  25.571  28.399  1.00  0.00     0.010 A 
ATOM     71  C   UNL A   1      41.132  27.669  27.917  1.00  0.00     0.010 A 
ATOM     72  C   UNL A   1      41.077  24.902  27.698  1.00  0.00     0.020 A 
ATOM     73  C   UNL A   1      42.129  27.014  27.187  1.00  0.00     0.020 A 
ATOM     74  C   UNL A   1      42.104  25.630  27.097  1.00  0.00     0.054 A 
BRANCH  74  75
ATOM     75  S   UNL A   1      43.408  24.742  26.212  1.00  0.00     0.124 S 
ATOM     76  O   UNL A   1      43.962  25.787  25.356  1.00  0.00    -0.237 OA
ATOM     77  O   UNL A   1      44.266  24.295  27.305  1.00  0.00    -0.237 OA
ATOM     78  O   UNL A   1      42.688  23.678  25.517  1.00  0.00    -0.744 OA
ENDBRANCH  74  75
ENDBRANCH  55  69
BRANCH  56  79
ATOM     79  C   UNL A   1      42.880  35.281  29.274  1.00  0.00    -0.014 A 
ATOM     80  C   UNL A   1      42.359  35.889  28.107  1.00  0.00     0.010 A 
ATOM     81  C   UNL A   1      44.038  35.861  29.826  1.00  0.00     0.010 A 
ATOM     82  C   UNL A   1      42.945  37.055  27.555  1.00  0.00     0.020 A 
ATOM     83  C   UNL A   1      44.620  37.021  29.290  1.00  0.00     0.020 A 
ATOM     84  C   UNL A   1      44.062  37.629  28.169  1.00  0.00     0.054 A 
BRANCH  84  85
ATOM     85  S   UNL A   1      44.718  39.232  27.589  1.00  0.00     0.124 S 
ATOM     86  O   UNL A   1      46.157  38.982  27.531  1.00  0.00    -0.237 OA
ATOM     87  O   UNL A   1      44.056  39.405  26.301  1.00  0.00    -0.237 OA
ATOM     88  O   UNL A   1      44.298  40.170  28.628  1.00  0.00    -0.744 OA
ENDBRANCH  84  85
ENDBRANCH  56  79
BRANCH  68  89
ATOM     89  C   UNL A   1      41.048  31.270  33.747  1.00  0.00    -0.014 A 
ATOM     90  C   UNL A   1      40.073  32.255  34.027  1.00  0.00     0.010 A 
ATOM     91  C   UNL A   1      41.783  30.742  34.818  1.00  0.00     0.010 A 
ATOM     92  C   UNL A   1      39.888  32.727  35.341  1.00  0.00     0.020 A 
ATOM     93  C   UNL A   1      41.589  31.189  36.123  1.00  0.00     0.020 A 
ATOM     94  C   UNL A   1      40.661  32.196  36.379  1.00  0.00     0.054 A 
BRANCH  94  95
ATOM     95  S   UNL A   1      40.463  32.814  38.074  1.00  0.00     0.124 S 
ATOM     96  O   UNL A   1      39.142  32.314  38.440  1.00  0.00    -0.237 OA
ATOM     97  O   UNL A   1      41.586  32.200  38.779  1.00  0.00    -0.237 OA
ATOM     98  O   UNL A   1      40.554  34.266  37.927  1.00  0.00    -0.744 OA
ENDBRANCH  94  95
ENDBRANCH  68  89
ENDBRANCH  42  43
ENDBRANCH  35  37
ENDBRANCH  34  35
ENDBRANCH  33  34
ENDBRANCH   1  33
TORSDOF 19
ENDMDL
MODEL 3
REMARK VINA RESULT:     -11.5      2.992      8.566
REMARK SMILES CCOc1ccccc1[C@H]1CC(C(=O)OCCOC(=O)c2ccc(-c3c4nc(c(-c5ccc(S(=O)(=O)[O-])cc5)c5ccc([nH]5)c(-c5ccc(S(=O)(=O)[O-])cc5)c5nc(c(-c6ccc(S(=O)(=O)[O-])cc6)c6ccc3[nH]6)C=C5)C=C4)cc2)=Nc2c(C(=O)Nc3ccccc3)cnn21
REMARK SMILES IDX 16 1 15 2 13 3 14 4 12 5 10 6 11 7 95 8 82 9 94 10 81 11
REMARK SMILES IDX 83 12 93 13 9 14 4 15 5 16 6 17 8 18 7 19 3 20 2 21 1 22
REMARK SMILES IDX 84 23 85 24 86 25 87 27 88 28 92 29 89 30 91 31 90 32 17 33
REMARK SMILES IDX 18 34 19 35 20 36 21 37 22 38 80 39 23 40 79 41 24 42 25 43
REMARK SMILES IDX 26 44 73 45 27 46 78 47 72 48 74 49 28 50 77 51 71 52 70 53
REMARK SMILES IDX 29 55 59 56 40 57 58 58 41 59 44 60 57 61 75 62 42 63 43 64
REMARK SMILES IDX 56 66 76 67 45 68 30 69 31 70 39 71 32 72 38 73 33 74 34 75
REMARK SMILES IDX 35 76 36 77 37 78 60 79 61 80 69 81 62 82 68 83 63 84 64 85
REMARK SMILES IDX 65 86 66 87 67 88 46 89 47 90 55 91 48 92 54 93 49 94 50 95
REMARK SMILES IDX 51 96 52 97 53 98
REMARK H PARENT 86 26 74 54 44 65
REMARK Flexibility Score: inf
ROOT
ATOM      1  C   UNL A   1      39.423  24.359  27.187  1.00  0.00     0.275 C 
ENDROOT
BRANCH   1   2
ATOM      2  O   UNL A   1      38.537  24.205  26.034  1.00  0.00    -0.458 OA
BRANCH   2   3
ATOM      3  C   UNL A   1      37.935  22.989  25.846  1.00  0.00     0.352 C 
ATOM      4  O   UNL A   1      38.497  21.914  25.766  1.00  0.00    -0.245 OA
BRANCH   3   5
ATOM      5  C   UNL A   1      36.375  23.143  25.822  1.00  0.00     0.130 C 
ATOM      6  C   UNL A   1      34.135  21.841  26.412  1.00  0.00     0.150 C 
ATOM      7  C   UNL A   1      35.643  21.847  26.097  1.00  0.00     0.096 C 
ATOM      8  N   UNL A   1      33.498  23.117  26.158  1.00  0.00    -0.239 N 
ATOM      9  C   UNL A   1      34.506  24.369  25.259  1.00  0.00     0.164 A 
ATOM     10  N   UNL A   1      31.680  23.476  25.959  1.00  0.00    -0.178 NA
ATOM     11  N   UNL A   1      35.856  24.294  25.465  1.00  0.00    -0.225 NA
ATOM     12  C   UNL A   1      33.344  25.439  24.395  1.00  0.00     0.104 A 
ATOM     13  C   UNL A   1      31.558  24.852  24.917  1.00  0.00     0.151 A 
BRANCH   6  14
ATOM     14  C   UNL A   1      33.508  20.735  25.605  1.00  0.00     0.019 A 
ATOM     15  C   UNL A   1      33.360  20.793  24.219  1.00  0.00     0.124 A 
ATOM     16  C   UNL A   1      32.801  19.704  23.541  1.00  0.00     0.047 A 
ATOM     17  C   UNL A   1      32.426  18.544  24.222  1.00  0.00     0.004 A 
ATOM     18  C   UNL A   1      33.110  19.560  26.285  1.00  0.00     0.010 A 
ATOM     19  C   UNL A   1      32.586  18.469  25.599  1.00  0.00     0.001 A 
BRANCH  15  20
ATOM     20  O   UNL A   1      33.640  21.879  23.440  1.00  0.00    -0.494 OA
BRANCH  20  21
ATOM     21  C   UNL A   1      32.613  22.417  22.365  1.00  0.00     0.226 C 
ATOM     22  C   UNL A   1      33.025  23.656  20.525  1.00  0.00     0.049 C 
ENDBRANCH  20  21
ENDBRANCH  15  20
ENDBRANCH   6  14
BRANCH  12  23
ATOM     23  C   UNL A   1      33.480  26.626  23.518  1.00  0.00     0.261 C 
ATOM     24  O   UNL A   1      33.787  26.484  22.335  1.00  0.00    -0.269 OA
ATOM     25  N   UNL A   1      33.236  27.896  23.988  1.00  0.00    -0.322 N 
ATOM     26  H   UNL A   1      33.113  28.617  23.329  1.00  0.00     0.170 HD
BRANCH  25  27
ATOM     27  C   UNL A   1      33.155  28.223  25.328  1.00  0.00     0.041 A 
ATOM     28  C   UNL A   1      34.341  28.476  26.017  1.00  0.00     0.026 A 
ATOM     29  C   UNL A   1      31.896  28.481  25.870  1.00  0.00     0.026 A 
ATOM     30  C   UNL A   1      34.267  29.183  27.194  1.00  0.00     0.002 A 
ATOM     31  C   UNL A   1      31.820  29.266  26.993  1.00  0.00     0.002 A 
ATOM     32  C   UNL A   1      33.015  29.593  27.624  1.00  0.00     0.000 A 
ENDBRANCH  25  27
ENDBRANCH  12  23
ENDBRANCH   3   5
ENDBRANCH   2   3
ENDBRANCH   1   2
BRANCH   1  33
ATOM     33  C   UNL A   1      40.920  24.512  26.805  1.00  0.00     0.275 C 
BRANCH  33  34
ATOM     34  O   UNL A   1      41.171  25.451  25.738  1.00  0.00    -0.458 OA
BRANCH  34  35
ATOM     35  C   UNL A   1      42.474  25.554  25.369  1.00  0.00     0.338 C 
ATOM     36  O   UNL A   1      43.172  24.652  24.932  1.00  0.00    -0.246 OA
BRANCH  35  37
ATOM     37  C   UNL A   1      42.970  26.938  25.525  1.00  0.00     0.060 A 
ATOM     38  C   UNL A   1      44.000  27.173  26.443  1.00  0.00     0.016 A 
ATOM     39  C   UNL A   1      42.068  27.941  25.246  1.00  0.00     0.016 A 
ATOM     40  C   UNL A   1      43.871  28.093  27.430  1.00  0.00     0.010 A 
ATOM     41  C   UNL A   1      42.086  29.031  26.075  1.00  0.00     0.010 A 
ATOM     42  C   UNL A   1      42.830  28.971  27.261  1.00  0.00    -0.014 A 
BRANCH  42  43
ATOM     43  C   UNL A   1      42.720  30.060  28.186  1.00  0.00     0.031 A 
ATOM     44  C   UNL A   1      43.800  31.053  27.872  1.00  0.00     0.074 A 
ATOM     45  C   UNL A   1      41.658  30.043  29.026  1.00  0.00     0.049 A 
ATOM     46  N   UNL A   1      44.822  31.346  28.608  1.00  0.00    -0.248 NA
ATOM     47  C   UNL A   1      43.983  31.509  26.466  1.00  0.00     0.031 C 
ATOM     48  C   UNL A   1      40.617  29.013  29.204  1.00  0.00     0.029 A 
ATOM     49  N   UNL A   1      41.194  31.031  29.832  1.00  0.00    -0.354 N 
ATOM     50  C   UNL A   1      45.514  32.324  27.896  1.00  0.00     0.074 A 
ATOM     51  C   UNL A   1      45.150  32.150  26.523  1.00  0.00     0.031 C 
ATOM     52  C   UNL A   1      39.526  29.554  29.804  1.00  0.00     0.029 A 
ATOM     53  C   UNL A   1      39.835  30.916  30.183  1.00  0.00     0.049 A 
ATOM     54  H   UNL A   1      41.762  31.770  30.146  1.00  0.00     0.167 HD
ATOM     55  C   UNL A   1      45.935  33.446  28.542  1.00  0.00     0.031 A 
ATOM     56  C   UNL A   1      39.075  31.933  30.693  1.00  0.00     0.031 A 
ATOM     57  C   UNL A   1      45.994  33.202  29.960  1.00  0.00     0.049 A 
ATOM     58  C   UNL A   1      40.055  32.939  31.205  1.00  0.00     0.074 A 
ATOM     59  C   UNL A   1      46.703  32.329  30.758  1.00  0.00     0.029 A 
ATOM     60  N   UNL A   1      44.866  33.562  30.659  1.00  0.00    -0.354 N 
ATOM     61  N   UNL A   1      40.865  32.662  32.195  1.00  0.00    -0.248 NA
ATOM     62  C   UNL A   1      40.544  33.918  30.240  1.00  0.00     0.031 C 
ATOM     63  C   UNL A   1      45.755  31.861  31.714  1.00  0.00     0.029 A 
ATOM     64  C   UNL A   1      44.567  32.581  31.566  1.00  0.00     0.049 A 
ATOM     65  H   UNL A   1      44.355  34.393  30.529  1.00  0.00     0.167 HD
ATOM     66  C   UNL A   1      42.117  33.059  31.740  1.00  0.00     0.074 A 
ATOM     67  C   UNL A   1      41.850  33.849  30.529  1.00  0.00     0.031 C 
ATOM     68  C   UNL A   1      43.256  32.423  32.157  1.00  0.00     0.031 A 
BRANCH  55  69
ATOM     69  C   UNL A   1      45.731  34.841  27.985  1.00  0.00    -0.014 A 
ATOM     70  C   UNL A   1      46.812  35.741  28.062  1.00  0.00     0.010 A 
ATOM     71  C   UNL A   1      44.469  35.392  27.668  1.00  0.00     0.010 A 
ATOM     72  C   UNL A   1      46.632  37.118  27.884  1.00  0.00     0.020 A 
ATOM     73  C   UNL A   1      44.283  36.762  27.456  1.00  0.00     0.020 A 
ATOM     74  C   UNL A   1      45.366  37.620  27.584  1.00  0.00     0.054 A 
BRANCH  74  75
ATOM     75  S   UNL A   1      45.155  39.404  27.377  1.00  0.00     0.124 S 
ATOM     76  O   UNL A   1      45.404  39.578  25.949  1.00  0.00    -0.237 OA
ATOM     77  O   UNL A   1      43.773  39.598  27.807  1.00  0.00    -0.237 OA
ATOM     78  O   UNL A   1      46.164  39.975  28.266  1.00  0.00    -0.744 OA
ENDBRANCH  74  75
ENDBRANCH  55  69
BRANCH  56  79
ATOM     79  C   UNL A   1      37.655  32.296  30.377  1.00  0.00    -0.014 A 
ATOM     80  C   UNL A   1      36.839  33.048  31.254  1.00  0.00     0.010 A 
ATOM     81  C   UNL A   1      37.199  32.155  29.053  1.00  0.00     0.010 A 
ATOM     82  C   UNL A   1      35.648  33.672  30.806  1.00  0.00     0.020 A 
ATOM     83  C   UNL A   1      36.025  32.777  28.598  1.00  0.00     0.020 A 
ATOM     84  C   UNL A   1      35.262  33.551  29.468  1.00  0.00     0.054 A 
BRANCH  84  85
ATOM     85  S   UNL A   1      33.839  34.497  28.823  1.00  0.00     0.124 S 
ATOM     86  O   UNL A   1      33.274  33.584  27.833  1.00  0.00    -0.237 OA
ATOM     87  O   UNL A   1      33.028  34.714  30.017  1.00  0.00    -0.237 OA
ATOM     88  O   UNL A   1      34.452  35.704  28.270  1.00  0.00    -0.744 OA
ENDBRANCH  84  85
ENDBRANCH  56  79
BRANCH  68  89
ATOM     89  C   UNL A   1      43.158  31.403  33.273  1.00  0.00    -0.014 A 
ATOM     90  C   UNL A   1      43.109  31.683  34.658  1.00  0.00     0.010 A 
ATOM     91  C   UNL A   1      42.930  30.084  32.855  1.00  0.00     0.010 A 
ATOM     92  C   UNL A   1      42.892  30.649  35.590  1.00  0.00     0.020 A 
ATOM     93  C   UNL A   1      42.692  29.062  33.771  1.00  0.00     0.020 A 
ATOM     94  C   UNL A   1      42.697  29.341  35.135  1.00  0.00     0.054 A 
BRANCH  94  95
ATOM     95  S   UNL A   1      42.449  27.988  36.320  1.00  0.00     0.124 S 
ATOM     96  O   UNL A   1      42.765  26.807  35.522  1.00  0.00    -0.237 OA
ATOM     97  O   UNL A   1      43.402  28.303  37.381  1.00  0.00    -0.237 OA
ATOM     98  O   UNL A   1      41.043  28.115  36.703  1.00  0.00    -0.744 OA
ENDBRANCH  94  95
ENDBRANCH  68  89
ENDBRANCH  42  43
ENDBRANCH  35  37
ENDBRANCH  34  35
ENDBRANCH  33  34
ENDBRANCH   1  33
TORSDOF 19
ENDMDL
