MODEL 1
REMARK VINA RESULT:     -10.6      0.000      0.000
REMARK SMILES O=C(Cc1ccccc1Cl)Nc1ccc(C(=O)OCCOC(=O)c2ccc(-c3c4nc(c(-c5ccc(S(=O)(=O)[O-])cc5)c5ccc([nH]5)c(-c5ccc(S(=O)(=O)[O-])cc5)c5nc(c(-c6ccc(S(=O)(=O)[O-])cc6)c6ccc3[nH]6)C=C5)C=C4)cc2)cc1
REMARK SMILES IDX 19 1 18 2 16 3 17 4 15 5 12 6 13 7 85 8 14 9 84 10 11 11
REMARK SMILES IDX 1 12 2 13 3 15 4 16 5 17 9 18 6 19 8 20 10 21 7 22 20 23
REMARK SMILES IDX 21 24 22 25 23 26 24 27 25 28 83 29 26 30 82 31 27 32 28 33
REMARK SMILES IDX 29 34 76 35 30 36 81 37 75 38 77 39 31 40 80 41 74 42 73 43
REMARK SMILES IDX 32 45 62 46 43 47 61 48 44 49 47 50 60 51 78 52 45 53 46 54
REMARK SMILES IDX 59 56 79 57 48 58 33 59 34 60 42 61 35 62 41 63 36 64 37 65
REMARK SMILES IDX 38 66 39 67 40 68 63 69 64 70 72 71 65 72 71 73 66 74 67 75
REMARK SMILES IDX 68 76 69 77 70 78 49 79 50 80 58 81 51 82 57 83 52 84 53 85
REMARK SMILES IDX 54 86 55 87 56 88
REMARK H PARENT 11 14 77 44 47 55
REMARK Flexibility Score: inf
ROOT
ATOM      1  C   UNL A   1      42.832  21.856  26.071  1.00  0.00     0.275 C 
ENDROOT
BRANCH   1   2
ATOM      2  O   UNL A   1      41.517  21.667  25.507  1.00  0.00    -0.458 OA
BRANCH   2   3
ATOM      3  C   UNL A   1      40.579  21.209  26.370  1.00  0.00     0.338 C 
ATOM      4  O   UNL A   1      40.724  20.322  27.194  1.00  0.00    -0.246 OA
BRANCH   3   5
ATOM      5  C   UNL A   1      39.314  21.962  26.235  1.00  0.00     0.060 A 
ATOM      6  C   UNL A   1      37.066  23.505  25.607  1.00  0.00     0.041 A 
ATOM      7  C   UNL A   1      37.170  22.210  25.115  1.00  0.00     0.027 A 
ATOM      8  C   UNL A   1      38.042  23.996  26.484  1.00  0.00     0.027 A 
ATOM      9  C   UNL A   1      38.314  21.469  25.389  1.00  0.00     0.018 A 
ATOM     10  C   UNL A   1      39.155  23.216  26.821  1.00  0.00     0.018 A 
BRANCH   6  11
ATOM     11  N   UNL A   1      36.007  24.283  25.115  1.00  0.00    -0.326 N 
ATOM     12  O   UNL A   1      34.375  23.609  26.623  1.00  0.00    -0.274 OA
ATOM     13  C   UNL A   1      34.746  24.314  25.686  1.00  0.00     0.228 C 
ATOM     14  H   UNL A   1      36.170  24.839  24.319  1.00  0.00     0.169 HD
BRANCH  13  15
ATOM     15  C   UNL A   1      33.810  25.318  25.047  1.00  0.00     0.137 C 
BRANCH  15  16
ATOM     16  C   UNL A   1      33.292  26.475  25.886  1.00  0.00    -0.020 A 
ATOM     17  C   UNL A   1      34.069  27.600  26.220  1.00  0.00     0.006 A 
ATOM     18  C   UNL A   1      31.945  26.473  26.307  1.00  0.00     0.044 A 
ATOM     19  C   UNL A   1      33.514  28.689  26.903  1.00  0.00     0.000 A 
ATOM     20  C   UNL A   1      31.399  27.553  27.009  1.00  0.00     0.021 A 
ATOM     21  Cl  UNL A   1      30.886  25.144  25.971  1.00  0.00    -0.084 Cl
ATOM     22  C   UNL A   1      32.180  28.668  27.294  1.00  0.00     0.002 A 
ENDBRANCH  15  16
ENDBRANCH  13  15
ENDBRANCH   6  11
ENDBRANCH   3   5
ENDBRANCH   2   3
ENDBRANCH   1   2
BRANCH   1  23
ATOM     23  C   UNL A   1      43.256  23.327  26.047  1.00  0.00     0.275 C 
BRANCH  23  24
ATOM     24  O   UNL A   1      42.115  24.204  26.105  1.00  0.00    -0.458 OA
BRANCH  24  25
ATOM     25  C   UNL A   1      42.407  25.518  25.988  1.00  0.00     0.338 C 
ATOM     26  O   UNL A   1      42.574  26.149  24.956  1.00  0.00    -0.246 OA
BRANCH  25  27
ATOM     27  C   UNL A   1      42.416  26.172  27.303  1.00  0.00     0.060 A 
ATOM     28  C   UNL A   1      41.522  25.707  28.256  1.00  0.00     0.016 A 
ATOM     29  C   UNL A   1      43.097  27.366  27.516  1.00  0.00     0.016 A 
ATOM     30  C   UNL A   1      41.154  26.515  29.323  1.00  0.00     0.010 A 
ATOM     31  C   UNL A   1      42.853  28.095  28.689  1.00  0.00     0.010 A 
ATOM     32  C   UNL A   1      41.835  27.710  29.582  1.00  0.00    -0.014 A 
BRANCH  32  33
ATOM     33  C   UNL A   1      41.472  28.534  30.775  1.00  0.00     0.031 A 
ATOM     34  C   UNL A   1      40.281  29.462  30.739  1.00  0.00     0.074 A 
ATOM     35  C   UNL A   1      42.203  28.439  31.908  1.00  0.00     0.049 A 
ATOM     36  N   UNL A   1      39.908  30.362  31.616  1.00  0.00    -0.248 NA
ATOM     37  C   UNL A   1      39.403  29.385  29.560  1.00  0.00     0.031 C 
ATOM     38  C   UNL A   1      43.355  27.553  32.108  1.00  0.00     0.029 A 
ATOM     39  N   UNL A   1      42.084  29.087  33.114  1.00  0.00    -0.354 N 
ATOM     40  C   UNL A   1      38.796  30.994  31.070  1.00  0.00     0.074 A 
ATOM     41  C   UNL A   1      38.559  30.385  29.780  1.00  0.00     0.031 C 
ATOM     42  C   UNL A   1      43.794  27.669  33.368  1.00  0.00     0.029 A 
ATOM     43  C   UNL A   1      43.042  28.723  34.031  1.00  0.00     0.049 A 
ATOM     44  H   UNL A   1      41.378  29.748  33.303  1.00  0.00     0.167 HD
ATOM     45  C   UNL A   1      38.043  31.993  31.593  1.00  0.00     0.031 A 
ATOM     46  C   UNL A   1      43.334  29.213  35.252  1.00  0.00     0.031 A 
ATOM     47  C   UNL A   1      38.267  32.574  32.893  1.00  0.00     0.049 A 
ATOM     48  C   UNL A   1      42.524  30.358  35.785  1.00  0.00     0.074 A 
ATOM     49  C   UNL A   1      37.550  33.579  33.522  1.00  0.00     0.029 A 
ATOM     50  N   UNL A   1      39.278  32.201  33.767  1.00  0.00    -0.354 N 
ATOM     51  N   UNL A   1      41.498  30.964  35.238  1.00  0.00    -0.248 NA
ATOM     52  C   UNL A   1      42.916  30.891  37.095  1.00  0.00     0.031 C 
ATOM     53  C   UNL A   1      38.164  33.854  34.747  1.00  0.00     0.029 A 
ATOM     54  C   UNL A   1      39.220  32.973  34.917  1.00  0.00     0.049 A 
ATOM     55  H   UNL A   1      39.941  31.494  33.595  1.00  0.00     0.167 HD
ATOM     56  C   UNL A   1      41.108  31.939  36.147  1.00  0.00     0.074 A 
ATOM     57  C   UNL A   1      41.994  31.824  37.289  1.00  0.00     0.031 C 
ATOM     58  C   UNL A   1      40.109  32.849  36.045  1.00  0.00     0.031 A 
BRANCH  45  59
ATOM     59  C   UNL A   1      36.931  32.560  30.743  1.00  0.00    -0.014 A 
ATOM     60  C   UNL A   1      37.154  33.603  29.828  1.00  0.00     0.010 A 
ATOM     61  C   UNL A   1      35.641  31.999  30.833  1.00  0.00     0.010 A 
ATOM     62  C   UNL A   1      36.104  34.101  29.049  1.00  0.00     0.020 A 
ATOM     63  C   UNL A   1      34.596  32.472  30.034  1.00  0.00     0.020 A 
ATOM     64  C   UNL A   1      34.830  33.533  29.158  1.00  0.00     0.054 A 
BRANCH  64  65
ATOM     65  S   UNL A   1      33.493  34.186  28.121  1.00  0.00     0.124 S 
ATOM     66  O   UNL A   1      34.230  34.989  27.148  1.00  0.00    -0.237 OA
ATOM     67  O   UNL A   1      32.877  32.971  27.593  1.00  0.00    -0.237 OA
ATOM     68  O   UNL A   1      32.666  34.945  29.055  1.00  0.00    -0.744 OA
ENDBRANCH  64  65
ENDBRANCH  45  59
BRANCH  46  69
ATOM     69  C   UNL A   1      44.482  28.656  36.022  1.00  0.00    -0.014 A 
ATOM     70  C   UNL A   1      45.774  29.189  35.871  1.00  0.00     0.010 A 
ATOM     71  C   UNL A   1      44.284  27.597  36.928  1.00  0.00     0.010 A 
ATOM     72  C   UNL A   1      46.845  28.665  36.601  1.00  0.00     0.020 A 
ATOM     73  C   UNL A   1      45.343  27.097  37.688  1.00  0.00     0.020 A 
ATOM     74  C   UNL A   1      46.621  27.626  37.509  1.00  0.00     0.054 A 
BRANCH  74  75
ATOM     75  S   UNL A   1      48.018  26.998  38.482  1.00  0.00     0.124 S 
ATOM     76  O   UNL A   1      47.468  26.995  39.834  1.00  0.00    -0.237 OA
ATOM     77  O   UNL A   1      48.248  25.683  37.889  1.00  0.00    -0.237 OA
ATOM     78  O   UNL A   1      49.073  27.978  38.238  1.00  0.00    -0.744 OA
ENDBRANCH  74  75
ENDBRANCH  46  69
BRANCH  58  79
ATOM     79  C   UNL A   1      39.890  33.763  37.221  1.00  0.00    -0.014 A 
ATOM     80  C   UNL A   1      40.524  35.015  37.306  1.00  0.00     0.010 A 
ATOM     81  C   UNL A   1      39.005  33.372  38.243  1.00  0.00     0.010 A 
ATOM     82  C   UNL A   1      40.307  35.841  38.411  1.00  0.00     0.020 A 
ATOM     83  C   UNL A   1      38.760  34.210  39.332  1.00  0.00     0.020 A 
ATOM     84  C   UNL A   1      39.426  35.434  39.417  1.00  0.00     0.054 A 
BRANCH  84  85
ATOM     85  S   UNL A   1      39.136  36.540  40.824  1.00  0.00     0.124 S 
ATOM     86  O   UNL A   1      40.494  36.796  41.295  1.00  0.00    -0.237 OA
ATOM     87  O   UNL A   1      38.461  37.677  40.202  1.00  0.00    -0.237 OA
ATOM     88  O   UNL A   1      38.304  35.746  41.724  1.00  0.00    -0.744 OA
ENDBRANCH  84  85
ENDBRANCH  58  79
ENDBRANCH  32  33
ENDBRANCH  25  27
ENDBRANCH  24  25
ENDBRANCH  23  24
ENDBRANCH   1  23
TORSDOF 17
ENDMDL
MODEL 2
REMARK VINA RESULT:     -10.6      4.467     10.213
REMARK SMILES O=C(Cc1ccccc1Cl)Nc1ccc(C(=O)OCCOC(=O)c2ccc(-c3c4nc(c(-c5ccc(S(=O)(=O)[O-])cc5)c5ccc([nH]5)c(-c5ccc(S(=O)(=O)[O-])cc5)c5nc(c(-c6ccc(S(=O)(=O)[O-])cc6)c6ccc3[nH]6)C=C5)C=C4)cc2)cc1
REMARK SMILES IDX 19 1 18 2 16 3 17 4 15 5 12 6 13 7 85 8 14 9 84 10 11 11
REMARK SMILES IDX 1 12 2 13 3 15 4 16 5 17 9 18 6 19 8 20 10 21 7 22 20 23
REMARK SMILES IDX 21 24 22 25 23 26 24 27 25 28 83 29 26 30 82 31 27 32 28 33
REMARK SMILES IDX 29 34 76 35 30 36 81 37 75 38 77 39 31 40 80 41 74 42 73 43
REMARK SMILES IDX 32 45 62 46 43 47 61 48 44 49 47 50 60 51 78 52 45 53 46 54
REMARK SMILES IDX 59 56 79 57 48 58 33 59 34 60 42 61 35 62 41 63 36 64 37 65
REMARK SMILES IDX 38 66 39 67 40 68 63 69 64 70 72 71 65 72 71 73 66 74 67 75
REMARK SMILES IDX 68 76 69 77 70 78 49 79 50 80 58 81 51 82 57 83 52 84 53 85
REMARK SMILES IDX 54 86 55 87 56 88
REMARK H PARENT 11 14 77 44 47 55
REMARK Flexibility Score: inf
ROOT
ATOM      1  C   UNL A   1      41.578  19.984  26.422  1.00  0.00     0.275 C 
ENDROOT
BRANCH   1   2
ATOM      2  O   UNL A   1      42.630  20.934  26.693  1.00  0.00    -0.458 OA
BRANCH   2   3
ATOM      3  C   UNL A   1      43.558  21.062  25.714  1.00  0.00     0.338 C 
ATOM      4  O   UNL A   1      43.868  20.216  24.893  1.00  0.00    -0.246 OA
BRANCH   3   5
ATOM      5  C   UNL A   1      44.151  22.418  25.713  1.00  0.00     0.060 A 
ATOM      6  C   UNL A   1      45.302  24.933  26.125  1.00  0.00     0.041 A 
ATOM      7  C   UNL A   1      46.116  23.810  26.048  1.00  0.00     0.027 A 
ATOM      8  C   UNL A   1      43.924  24.810  25.908  1.00  0.00     0.027 A 
ATOM      9  C   UNL A   1      45.531  22.558  25.895  1.00  0.00     0.018 A 
ATOM     10  C   UNL A   1      43.348  23.555  25.676  1.00  0.00     0.018 A 
BRANCH   6  11
ATOM     11  N   UNL A   1      45.921  26.134  26.506  1.00  0.00    -0.326 N 
ATOM     12  O   UNL A   1      46.267  27.015  24.386  1.00  0.00    -0.274 OA
ATOM     13  C   UNL A   1      46.320  27.111  25.611  1.00  0.00     0.228 C 
ATOM     14  H   UNL A   1      46.080  26.290  27.466  1.00  0.00     0.169 HD
BRANCH  13  15
ATOM     15  C   UNL A   1      46.855  28.365  26.271  1.00  0.00     0.137 C 
BRANCH  15  16
ATOM     16  C   UNL A   1      45.871  29.427  26.732  1.00  0.00    -0.020 A 
ATOM     17  C   UNL A   1      44.479  29.330  26.544  1.00  0.00     0.006 A 
ATOM     18  C   UNL A   1      46.349  30.546  27.448  1.00  0.00     0.044 A 
ATOM     19  C   UNL A   1      43.605  30.283  27.083  1.00  0.00     0.000 A 
ATOM     20  C   UNL A   1      45.475  31.509  27.965  1.00  0.00     0.021 A 
ATOM     21  Cl  UNL A   1      48.040  30.790  27.736  1.00  0.00    -0.084 Cl
ATOM     22  C   UNL A   1      44.102  31.369  27.795  1.00  0.00     0.002 A 
ENDBRANCH  15  16
ENDBRANCH  13  15
ENDBRANCH   6  11
ENDBRANCH   3   5
ENDBRANCH   2   3
ENDBRANCH   1   2
BRANCH   1  23
ATOM     23  C   UNL A   1      40.225  20.674  26.228  1.00  0.00     0.275 C 
BRANCH  23  24
ATOM     24  O   UNL A   1      40.322  22.093  26.454  1.00  0.00    -0.458 OA
BRANCH  24  25
ATOM     25  C   UNL A   1      39.166  22.771  26.286  1.00  0.00     0.338 C 
ATOM     26  O   UNL A   1      38.127  22.352  25.800  1.00  0.00    -0.246 OA
BRANCH  25  27
ATOM     27  C   UNL A   1      39.259  24.119  26.863  1.00  0.00     0.060 A 
ATOM     28  C   UNL A   1      39.927  25.085  26.127  1.00  0.00     0.016 A 
ATOM     29  C   UNL A   1      38.927  24.364  28.191  1.00  0.00     0.016 A 
ATOM     30  C   UNL A   1      40.441  26.212  26.755  1.00  0.00     0.010 A 
ATOM     31  C   UNL A   1      39.294  25.586  28.775  1.00  0.00     0.010 A 
ATOM     32  C   UNL A   1      40.107  26.504  28.083  1.00  0.00    -0.014 A 
BRANCH  32  33
ATOM     33  C   UNL A   1      40.612  27.756  28.723  1.00  0.00     0.031 A 
ATOM     34  C   UNL A   1      42.036  27.851  29.217  1.00  0.00     0.074 A 
ATOM     35  C   UNL A   1      39.795  28.827  28.848  1.00  0.00     0.049 A 
ATOM     36  N   UNL A   1      42.602  28.794  29.931  1.00  0.00    -0.248 NA
ATOM     37  C   UNL A   1      42.940  26.738  28.882  1.00  0.00     0.031 C 
ATOM     38  C   UNL A   1      38.408  28.900  28.378  1.00  0.00     0.029 A 
ATOM     39  N   UNL A   1      40.014  30.067  29.399  1.00  0.00    -0.354 N 
ATOM     40  C   UNL A   1      43.900  28.361  30.180  1.00  0.00     0.074 A 
ATOM     41  C   UNL A   1      44.037  27.065  29.552  1.00  0.00     0.031 C 
ATOM     42  C   UNL A   1      37.924  30.128  28.606  1.00  0.00     0.029 A 
ATOM     43  C   UNL A   1      38.915  30.893  29.348  1.00  0.00     0.049 A 
ATOM     44  H   UNL A   1      40.875  30.337  29.793  1.00  0.00     0.167 HD
ATOM     45  C   UNL A   1      44.886  28.983  30.873  1.00  0.00     0.031 A 
ATOM     46  C   UNL A   1      38.693  32.109  29.882  1.00  0.00     0.031 A 
ATOM     47  C   UNL A   1      44.750  30.288  31.470  1.00  0.00     0.049 A 
ATOM     48  C   UNL A   1      39.779  32.752  30.694  1.00  0.00     0.074 A 
ATOM     49  C   UNL A   1      45.696  31.013  32.177  1.00  0.00     0.029 A 
ATOM     50  N   UNL A   1      43.603  31.067  31.428  1.00  0.00    -0.354 N 
ATOM     51  N   UNL A   1      40.988  32.310  30.946  1.00  0.00    -0.248 NA
ATOM     52  C   UNL A   1      39.468  34.052  31.301  1.00  0.00     0.031 C 
ATOM     53  C   UNL A   1      45.100  32.200  32.613  1.00  0.00     0.029 A 
ATOM     54  C   UNL A   1      43.808  32.251  32.117  1.00  0.00     0.049 A 
ATOM     55  H   UNL A   1      42.766  30.814  30.976  1.00  0.00     0.167 HD
ATOM     56  C   UNL A   1      41.591  33.289  31.726  1.00  0.00     0.074 A 
ATOM     57  C   UNL A   1      40.621  34.356  31.882  1.00  0.00     0.031 C 
ATOM     58  C   UNL A   1      42.833  33.303  32.266  1.00  0.00     0.031 A 
BRANCH  45  59
ATOM     59  C   UNL A   1      46.190  28.245  31.066  1.00  0.00    -0.014 A 
ATOM     60  C   UNL A   1      47.263  28.387  30.169  1.00  0.00     0.010 A 
ATOM     61  C   UNL A   1      46.356  27.427  32.201  1.00  0.00     0.010 A 
ATOM     62  C   UNL A   1      48.460  27.695  30.380  1.00  0.00     0.020 A 
ATOM     63  C   UNL A   1      47.562  26.758  32.433  1.00  0.00     0.020 A 
ATOM     64  C   UNL A   1      48.602  26.884  31.510  1.00  0.00     0.054 A 
BRANCH  64  65
ATOM     65  S   UNL A   1      50.174  26.015  31.769  1.00  0.00     0.124 S 
ATOM     66  O   UNL A   1      51.013  27.070  32.332  1.00  0.00    -0.237 OA
ATOM     67  O   UNL A   1      49.800  24.949  32.696  1.00  0.00    -0.237 OA
ATOM     68  O   UNL A   1      50.550  25.570  30.429  1.00  0.00    -0.744 OA
ENDBRANCH  64  65
ENDBRANCH  45  59
BRANCH  46  69
ATOM     69  C   UNL A   1      37.365  32.765  29.712  1.00  0.00    -0.014 A 
ATOM     70  C   UNL A   1      36.365  32.626  30.688  1.00  0.00     0.010 A 
ATOM     71  C   UNL A   1      37.102  33.553  28.574  1.00  0.00     0.010 A 
ATOM     72  C   UNL A   1      35.124  33.250  30.525  1.00  0.00     0.020 A 
ATOM     73  C   UNL A   1      35.879  34.209  28.425  1.00  0.00     0.020 A 
ATOM     74  C   UNL A   1      34.892  34.042  29.396  1.00  0.00     0.054 A 
BRANCH  74  75
ATOM     75  S   UNL A   1      33.292  34.883  29.231  1.00  0.00     0.124 S 
ATOM     76  O   UNL A   1      33.696  36.225  28.824  1.00  0.00    -0.237 OA
ATOM     77  O   UNL A   1      32.623  34.085  28.207  1.00  0.00    -0.237 OA
ATOM     78  O   UNL A   1      32.713  34.781  30.568  1.00  0.00    -0.744 OA
ENDBRANCH  74  75
ENDBRANCH  46  69
BRANCH  58  79
ATOM     79  C   UNL A   1      43.233  34.532  33.038  1.00  0.00    -0.014 A 
ATOM     80  C   UNL A   1      43.067  34.611  34.432  1.00  0.00     0.010 A 
ATOM     81  C   UNL A   1      43.817  35.615  32.356  1.00  0.00     0.010 A 
ATOM     82  C   UNL A   1      43.441  35.765  35.123  1.00  0.00     0.020 A 
ATOM     83  C   UNL A   1      44.224  36.757  33.048  1.00  0.00     0.020 A 
ATOM     84  C   UNL A   1      44.018  36.831  34.427  1.00  0.00     0.054 A 
BRANCH  84  85
ATOM     85  S   UNL A   1      44.527  38.305  35.352  1.00  0.00     0.124 S 
ATOM     86  O   UNL A   1      43.892  39.377  34.590  1.00  0.00    -0.237 OA
ATOM     87  O   UNL A   1      43.966  38.058  36.678  1.00  0.00    -0.237 OA
ATOM     88  O   UNL A   1      45.986  38.272  35.282  1.00  0.00    -0.744 OA
ENDBRANCH  84  85
ENDBRANCH  58  79
ENDBRANCH  32  33
ENDBRANCH  25  27
ENDBRANCH  24  25
ENDBRANCH  23  24
ENDBRANCH   1  23
TORSDOF 17
ENDMDL
MODEL 3
REMARK VINA RESULT:     -10.5      1.568      8.457
REMARK SMILES O=C(Cc1ccccc1Cl)Nc1ccc(C(=O)OCCOC(=O)c2ccc(-c3c4nc(c(-c5ccc(S(=O)(=O)[O-])cc5)c5ccc([nH]5)c(-c5ccc(S(=O)(=O)[O-])cc5)c5nc(c(-c6ccc(S(=O)(=O)[O-])cc6)c6ccc3[nH]6)C=C5)C=C4)cc2)cc1
REMARK SMILES IDX 19 1 18 2 16 3 17 4 15 5 12 6 13 7 85 8 14 9 84 10 11 11
REMARK SMILES IDX 1 12 2 13 3 15 4 16 5 17 9 18 6 19 8 20 10 21 7 22 20 23
REMARK SMILES IDX 21 24 22 25 23 26 24 27 25 28 83 29 26 30 82 31 27 32 28 33
REMARK SMILES IDX 29 34 76 35 30 36 81 37 75 38 77 39 31 40 80 41 74 42 73 43
REMARK SMILES IDX 32 45 62 46 43 47 61 48 44 49 47 50 60 51 78 52 45 53 46 54
REMARK SMILES IDX 59 56 79 57 48 58 33 59 34 60 42 61 35 62 41 63 36 64 37 65
REMARK SMILES IDX 38 66 39 67 40 68 63 69 64 70 72 71 65 72 71 73 66 74 67 75
REMARK SMILES IDX 68 76 69 77 70 78 49 79 50 80 58 81 51 82 57 83 52 84 53 85
REMARK SMILES IDX 54 86 55 87 56 88
REMARK H PARENT 11 14 77 44 47 55
REMARK Flexibility Score: inf
ROOT
ATOM      1  C   UNL A   1      39.283  21.193  26.004  1.00  0.00     0.275 C 
ENDROOT
BRANCH   1   2
ATOM      2  O   UNL A   1      38.208  21.858  25.308  1.00  0.00    -0.458 OA
BRANCH   2   3
ATOM      3  C   UNL A   1      37.086  21.118  25.140  1.00  0.00     0.338 C 
ATOM      4  O   UNL A   1      37.033  19.927  24.887  1.00  0.00    -0.246 OA
BRANCH   3   5
ATOM      5  C   UNL A   1      35.870  21.936  25.351  1.00  0.00     0.060 A 
ATOM      6  C   UNL A   1      33.723  23.725  25.448  1.00  0.00     0.041 A 
ATOM      7  C   UNL A   1      33.737  22.721  24.488  1.00  0.00     0.027 A 
ATOM      8  C   UNL A   1      34.736  23.779  26.413  1.00  0.00     0.027 A 
ATOM      9  C   UNL A   1      34.833  21.869  24.414  1.00  0.00     0.018 A 
ATOM     10  C   UNL A   1      35.800  22.868  26.383  1.00  0.00     0.018 A 
BRANCH   6  11
ATOM     11  N   UNL A   1      32.712  24.692  25.334  1.00  0.00    -0.326 N 
ATOM     12  O   UNL A   1      33.855  26.209  23.998  1.00  0.00    -0.274 OA
ATOM     13  C   UNL A   1      32.833  25.846  24.579  1.00  0.00     0.228 C 
ATOM     14  H   UNL A   1      31.868  24.540  25.818  1.00  0.00     0.169 HD
BRANCH  13  15
ATOM     15  C   UNL A   1      31.567  26.674  24.519  1.00  0.00     0.137 C 
BRANCH  15  16
ATOM     16  C   UNL A   1      31.530  28.011  25.240  1.00  0.00    -0.020 A 
ATOM     17  C   UNL A   1      31.916  28.180  26.583  1.00  0.00     0.006 A 
ATOM     18  C   UNL A   1      31.157  29.170  24.525  1.00  0.00     0.044 A 
ATOM     19  C   UNL A   1      31.969  29.451  27.169  1.00  0.00     0.000 A 
ATOM     20  C   UNL A   1      31.188  30.436  25.120  1.00  0.00     0.021 A 
ATOM     21  Cl  UNL A   1      30.650  29.097  22.870  1.00  0.00    -0.084 Cl
ATOM     22  C   UNL A   1      31.608  30.578  26.438  1.00  0.00     0.002 A 
ENDBRANCH  15  16
ENDBRANCH  13  15
ENDBRANCH   6  11
ENDBRANCH   3   5
ENDBRANCH   2   3
ENDBRANCH   1   2
BRANCH   1  23
ATOM     23  C   UNL A   1      40.051  22.154  26.916  1.00  0.00     0.275 C 
BRANCH  23  24
ATOM     24  O   UNL A   1      39.760  23.528  26.595  1.00  0.00    -0.458 OA
BRANCH  24  25
ATOM     25  C   UNL A   1      40.814  24.367  26.695  1.00  0.00     0.338 C 
ATOM     26  O   UNL A   1      41.898  24.260  26.142  1.00  0.00    -0.246 OA
BRANCH  25  27
ATOM     27  C   UNL A   1      40.476  25.539  27.513  1.00  0.00     0.060 A 
ATOM     28  C   UNL A   1      41.304  26.647  27.416  1.00  0.00     0.016 A 
ATOM     29  C   UNL A   1      39.531  25.465  28.531  1.00  0.00     0.016 A 
ATOM     30  C   UNL A   1      41.333  27.590  28.435  1.00  0.00     0.010 A 
ATOM     31  C   UNL A   1      39.442  26.512  29.461  1.00  0.00     0.010 A 
ATOM     32  C   UNL A   1      40.381  27.562  29.461  1.00  0.00    -0.014 A 
BRANCH  32  33
ATOM     33  C   UNL A   1      40.383  28.624  30.513  1.00  0.00     0.031 A 
ATOM     34  C   UNL A   1      41.378  28.584  31.648  1.00  0.00     0.074 A 
ATOM     35  C   UNL A   1      39.498  29.644  30.443  1.00  0.00     0.049 A 
ATOM     36  N   UNL A   1      41.431  29.327  32.727  1.00  0.00    -0.248 NA
ATOM     37  C   UNL A   1      42.444  27.571  31.574  1.00  0.00     0.031 C 
ATOM     38  C   UNL A   1      38.506  29.841  29.382  1.00  0.00     0.029 A 
ATOM     39  N   UNL A   1      39.294  30.718  31.277  1.00  0.00    -0.354 N 
ATOM     40  C   UNL A   1      42.489  28.833  33.483  1.00  0.00     0.074 A 
ATOM     41  C   UNL A   1      43.046  27.720  32.747  1.00  0.00     0.031 C 
ATOM     42  C   UNL A   1      37.846  30.987  29.595  1.00  0.00     0.029 A 
ATOM     43  C   UNL A   1      38.274  31.545  30.868  1.00  0.00     0.049 A 
ATOM     44  H   UNL A   1      39.829  30.879  32.089  1.00  0.00     0.167 HD
ATOM     45  C   UNL A   1      42.952  29.265  34.682  1.00  0.00     0.031 A 
ATOM     46  C   UNL A   1      37.697  32.605  31.467  1.00  0.00     0.031 A 
ATOM     47  C   UNL A   1      42.411  30.394  35.395  1.00  0.00     0.049 A 
ATOM     48  C   UNL A   1      38.188  33.028  32.820  1.00  0.00     0.074 A 
ATOM     49  C   UNL A   1      42.820  30.924  36.608  1.00  0.00     0.029 A 
ATOM     50  N   UNL A   1      41.349  31.175  34.960  1.00  0.00    -0.354 N 
ATOM     51  N   UNL A   1      39.168  32.526  33.533  1.00  0.00    -0.248 NA
ATOM     52  C   UNL A   1      37.490  34.152  33.454  1.00  0.00     0.031 C 
ATOM     53  C   UNL A   1      41.968  31.982  36.934  1.00  0.00     0.029 A 
ATOM     54  C   UNL A   1      41.073  32.162  35.892  1.00  0.00     0.049 A 
ATOM     55  H   UNL A   1      40.862  31.044  34.115  1.00  0.00     0.167 HD
ATOM     56  C   UNL A   1      39.217  33.288  34.693  1.00  0.00     0.074 A 
ATOM     57  C   UNL A   1      38.185  34.299  34.574  1.00  0.00     0.031 C 
ATOM     58  C   UNL A   1      40.042  33.161  35.762  1.00  0.00     0.031 A 
BRANCH  45  59
ATOM     59  C   UNL A   1      44.074  28.488  35.329  1.00  0.00    -0.014 A 
ATOM     60  C   UNL A   1      43.827  27.388  36.169  1.00  0.00     0.010 A 
ATOM     61  C   UNL A   1      45.409  28.840  35.047  1.00  0.00     0.010 A 
ATOM     62  C   UNL A   1      44.888  26.684  36.747  1.00  0.00     0.020 A 
ATOM     63  C   UNL A   1      46.473  28.120  35.596  1.00  0.00     0.020 A 
ATOM     64  C   UNL A   1      46.206  27.055  36.458  1.00  0.00     0.054 A 
BRANCH  64  65
ATOM     65  S   UNL A   1      47.562  26.110  37.205  1.00  0.00     0.124 S 
ATOM     66  O   UNL A   1      48.675  27.051  37.108  1.00  0.00    -0.237 OA
ATOM     67  O   UNL A   1      47.068  25.859  38.558  1.00  0.00    -0.237 OA
ATOM     68  O   UNL A   1      47.672  24.926  36.356  1.00  0.00    -0.744 OA
ENDBRANCH  64  65
ENDBRANCH  45  59
BRANCH  46  69
ATOM     69  C   UNL A   1      36.552  33.297  30.810  1.00  0.00    -0.014 A 
ATOM     70  C   UNL A   1      35.304  33.384  31.449  1.00  0.00     0.010 A 
ATOM     71  C   UNL A   1      36.713  33.893  29.544  1.00  0.00     0.010 A 
ATOM     72  C   UNL A   1      34.236  34.041  30.829  1.00  0.00     0.020 A 
ATOM     73  C   UNL A   1      35.661  34.584  28.939  1.00  0.00     0.020 A 
ATOM     74  C   UNL A   1      34.424  34.641  29.580  1.00  0.00     0.054 A 
BRANCH  74  75
ATOM     75  S   UNL A   1      33.038  35.532  28.820  1.00  0.00     0.124 S 
ATOM     76  O   UNL A   1      33.726  36.568  28.056  1.00  0.00    -0.237 OA
ATOM     77  O   UNL A   1      32.390  34.487  28.030  1.00  0.00    -0.237 OA
ATOM     78  O   UNL A   1      32.266  36.006  29.966  1.00  0.00    -0.744 OA
ENDBRANCH  74  75
ENDBRANCH  46  69
BRANCH  58  79
ATOM     79  C   UNL A   1      39.891  34.171  36.868  1.00  0.00    -0.014 A 
ATOM     80  C   UNL A   1      40.533  35.421  36.813  1.00  0.00     0.010 A 
ATOM     81  C   UNL A   1      39.064  33.872  37.966  1.00  0.00     0.010 A 
ATOM     82  C   UNL A   1      40.380  36.338  37.856  1.00  0.00     0.020 A 
ATOM     83  C   UNL A   1      38.883  34.800  38.994  1.00  0.00     0.020 A 
ATOM     84  C   UNL A   1      39.556  36.021  38.940  1.00  0.00     0.054 A 
BRANCH  84  85
ATOM     85  S   UNL A   1      39.348  37.242  40.264  1.00  0.00     0.124 S 
ATOM     86  O   UNL A   1      40.732  37.560  40.605  1.00  0.00    -0.237 OA
ATOM     87  O   UNL A   1      38.603  38.309  39.599  1.00  0.00    -0.237 OA
ATOM     88  O   UNL A   1      38.605  36.517  41.291  1.00  0.00    -0.744 OA
ENDBRANCH  84  85
ENDBRANCH  58  79
ENDBRANCH  32  33
ENDBRANCH  25  27
ENDBRANCH  24  25
ENDBRANCH  23  24
ENDBRANCH   1  23
TORSDOF 17
ENDMDL
