MODEL 1
REMARK VINA RESULT:     -10.9      0.000      0.000
REMARK SMILES O=C(OCCOC(=O)[C@H]1[C@@H](C(=O)NN2CCOCC2)[C@H]2C=C[C@@H]1CC2)c1ccc(-c2c3nc(c(-c4ccc(S(=O)(=O)[O-])cc4)c4ccc([nH]4)c(-c4ccc(S(=O)(=O)[O-])cc4)c4nc(c(-c5ccc(S(=O)(=O)[O-])cc5)c5ccc2[nH]5)C=C4)C=C3)cc1
REMARK SMILES IDX 4 1 3 2 2 3 1 4 26 5 27 6 85 7 28 8 84 9 29 10 30 11 31 12
REMARK SMILES IDX 78 13 32 14 83 15 77 16 79 17 33 18 82 19 76 20 75 21 34 23
REMARK SMILES IDX 64 24 45 25 63 26 46 27 49 28 62 29 80 30 47 31 48 32 61 34
REMARK SMILES IDX 81 35 50 36 35 37 36 38 44 39 37 40 43 41 38 42 39 43 40 44
REMARK SMILES IDX 41 45 42 46 65 47 66 48 74 49 67 50 73 51 68 52 69 53 70 54
REMARK SMILES IDX 71 55 72 56 51 57 52 58 60 59 53 60 59 61 54 62 55 63 56 64
REMARK SMILES IDX 57 65 58 66 5 67 6 68 7 69 8 70 9 71 10 72 23 73 20 74 22 75
REMARK SMILES IDX 24 76 21 77 25 78 11 79 12 80 13 81 14 83 15 84 19 85 16 86
REMARK SMILES IDX 18 87 17 88
REMARK H PARENT 79 22 49 33 13 82
REMARK Flexibility Score: inf
ROOT
ATOM      1  C   UNL A   1      33.133  29.086  27.277  1.00  0.00     0.275 C 
ENDROOT
BRANCH   1   2
ATOM      2  O   UNL A   1      33.550  30.464  27.392  1.00  0.00    -0.458 OA
BRANCH   2   3
ATOM      3  C   UNL A   1      34.516  30.989  28.190  1.00  0.00     0.338 C 
ATOM      4  O   UNL A   1      34.276  32.036  28.792  1.00  0.00    -0.246 OA
BRANCH   3   5
ATOM      5  C   UNL A   1      35.878  30.379  28.350  1.00  0.00     0.060 A 
ATOM      6  C   UNL A   1      36.772  30.111  27.312  1.00  0.00     0.016 A 
ATOM      7  C   UNL A   1      36.268  30.018  29.651  1.00  0.00     0.016 A 
ATOM      8  C   UNL A   1      38.089  29.675  27.582  1.00  0.00     0.010 A 
ATOM      9  C   UNL A   1      37.571  29.563  29.920  1.00  0.00     0.010 A 
ATOM     10  C   UNL A   1      38.531  29.474  28.896  1.00  0.00    -0.014 A 
BRANCH  10  11
ATOM     11  C   UNL A   1      39.884  28.923  29.211  1.00  0.00     0.031 A 
ATOM     12  C   UNL A   1      40.880  29.924  29.684  1.00  0.00     0.074 A 
ATOM     13  C   UNL A   1      40.281  27.628  29.146  1.00  0.00     0.049 A 
ATOM     14  N   UNL A   1      42.079  29.702  30.138  1.00  0.00    -0.248 NA
ATOM     15  C   UNL A   1      40.428  31.323  29.782  1.00  0.00     0.031 C 
ATOM     16  C   UNL A   1      39.427  26.460  29.046  1.00  0.00     0.029 A 
ATOM     17  N   UNL A   1      41.539  27.060  29.130  1.00  0.00    -0.354 N 
ATOM     18  C   UNL A   1      42.457  30.891  30.725  1.00  0.00     0.074 A 
ATOM     19  C   UNL A   1      41.425  31.867  30.458  1.00  0.00     0.031 C 
ATOM     20  C   UNL A   1      40.145  25.364  28.744  1.00  0.00     0.029 A 
ATOM     21  C   UNL A   1      41.547  25.728  28.750  1.00  0.00     0.049 A 
ATOM     22  H   UNL A   1      42.357  27.556  29.365  1.00  0.00     0.167 HD
ATOM     23  C   UNL A   1      43.543  31.116  31.489  1.00  0.00     0.031 A 
ATOM     24  C   UNL A   1      42.555  24.870  28.493  1.00  0.00     0.031 A 
ATOM     25  C   UNL A   1      44.619  30.184  31.637  1.00  0.00     0.049 A 
ATOM     26  C   UNL A   1      43.907  25.276  28.999  1.00  0.00     0.074 A 
ATOM     27  C   UNL A   1      45.821  30.364  32.289  1.00  0.00     0.029 A 
ATOM     28  N   UNL A   1      44.647  28.915  31.073  1.00  0.00    -0.354 N 
ATOM     29  N   UNL A   1      44.232  26.386  29.616  1.00  0.00    -0.248 NA
ATOM     30  C   UNL A   1      44.986  24.286  28.913  1.00  0.00     0.031 C 
ATOM     31  C   UNL A   1      46.615  29.240  32.042  1.00  0.00     0.029 A 
ATOM     32  C   UNL A   1      45.879  28.328  31.302  1.00  0.00     0.049 A 
ATOM     33  H   UNL A   1      43.902  28.496  30.585  1.00  0.00     0.167 HD
ATOM     34  C   UNL A   1      45.520  26.190  30.085  1.00  0.00     0.074 A 
ATOM     35  C   UNL A   1      45.922  24.864  29.655  1.00  0.00     0.031 C 
ATOM     36  C   UNL A   1      46.276  27.022  30.840  1.00  0.00     0.031 A 
BRANCH  23  37
ATOM     37  C   UNL A   1      43.593  32.448  32.158  1.00  0.00    -0.014 A 
ATOM     38  C   UNL A   1      44.201  33.545  31.516  1.00  0.00     0.010 A 
ATOM     39  C   UNL A   1      43.092  32.588  33.459  1.00  0.00     0.010 A 
ATOM     40  C   UNL A   1      44.320  34.764  32.181  1.00  0.00     0.020 A 
ATOM     41  C   UNL A   1      43.194  33.811  34.118  1.00  0.00     0.020 A 
ATOM     42  C   UNL A   1      43.813  34.889  33.477  1.00  0.00     0.054 A 
BRANCH  42  43
ATOM     43  S   UNL A   1      43.949  36.493  34.307  1.00  0.00     0.124 S 
ATOM     44  O   UNL A   1      43.273  36.235  35.576  1.00  0.00    -0.237 OA
ATOM     45  O   UNL A   1      45.394  36.683  34.392  1.00  0.00    -0.237 OA
ATOM     46  O   UNL A   1      43.253  37.409  33.406  1.00  0.00    -0.744 OA
ENDBRANCH  42  43
ENDBRANCH  23  37
BRANCH  24  47
ATOM     47  C   UNL A   1      42.337  23.532  27.856  1.00  0.00    -0.014 A 
ATOM     48  C   UNL A   1      42.142  22.367  28.620  1.00  0.00     0.010 A 
ATOM     49  C   UNL A   1      42.420  23.403  26.454  1.00  0.00     0.010 A 
ATOM     50  C   UNL A   1      42.084  21.106  28.008  1.00  0.00     0.020 A 
ATOM     51  C   UNL A   1      42.346  22.145  25.835  1.00  0.00     0.020 A 
ATOM     52  C   UNL A   1      42.197  21.001  26.619  1.00  0.00     0.054 A 
BRANCH  52  53
ATOM     53  S   UNL A   1      42.149  19.350  25.856  1.00  0.00     0.124 S 
ATOM     54  O   UNL A   1      42.660  18.501  26.929  1.00  0.00    -0.237 OA
ATOM     55  O   UNL A   1      40.731  19.190  25.545  1.00  0.00    -0.237 OA
ATOM     56  O   UNL A   1      43.024  19.481  24.694  1.00  0.00    -0.744 OA
ENDBRANCH  52  53
ENDBRANCH  24  47
BRANCH  36  57
ATOM     57  C   UNL A   1      47.627  26.517  31.251  1.00  0.00    -0.014 A 
ATOM     58  C   UNL A   1      47.795  25.787  32.440  1.00  0.00     0.010 A 
ATOM     59  C   UNL A   1      48.734  26.739  30.412  1.00  0.00     0.010 A 
ATOM     60  C   UNL A   1      49.057  25.324  32.805  1.00  0.00     0.020 A 
ATOM     61  C   UNL A   1      49.991  26.242  30.754  1.00  0.00     0.020 A 
ATOM     62  C   UNL A   1      50.146  25.552  31.959  1.00  0.00     0.054 A 
BRANCH  62  63
ATOM     63  S   UNL A   1      51.765  24.894  32.436  1.00  0.00     0.124 S 
ATOM     64  O   UNL A   1      51.916  25.417  33.790  1.00  0.00    -0.237 OA
ATOM     65  O   UNL A   1      51.564  23.450  32.337  1.00  0.00    -0.237 OA
ATOM     66  O   UNL A   1      52.674  25.461  31.443  1.00  0.00    -0.744 OA
ENDBRANCH  62  63
ENDBRANCH  36  57
ENDBRANCH  10  11
ENDBRANCH   3   5
ENDBRANCH   2   3
ENDBRANCH   1   2
BRANCH   1  67
ATOM     67  C   UNL A   1      31.625  28.887  27.149  1.00  0.00     0.274 C 
BRANCH  67  68
ATOM     68  O   UNL A   1      31.309  28.209  25.932  1.00  0.00    -0.462 OA
BRANCH  68  69
ATOM     69  C   UNL A   1      31.173  26.858  25.922  1.00  0.00     0.310 C 
ATOM     70  O   UNL A   1      30.560  26.200  26.758  1.00  0.00    -0.252 OA
BRANCH  69  71
ATOM     71  C   UNL A   1      31.852  26.313  24.689  1.00  0.00     0.119 C 
ATOM     72  C   UNL A   1      31.038  26.468  23.380  1.00  0.00     0.101 C 
ATOM     73  C   UNL A   1      33.329  26.726  24.423  1.00  0.00     0.026 C 
ATOM     74  C   UNL A   1      32.010  26.622  22.188  1.00  0.00     0.025 C 
ATOM     75  C   UNL A   1      33.441  27.958  23.534  1.00  0.00    -0.027 C 
ATOM     76  C   UNL A   1      33.918  25.588  23.546  1.00  0.00     0.009 C 
ATOM     77  C   UNL A   1      32.769  27.894  22.374  1.00  0.00    -0.027 C 
ATOM     78  C   UNL A   1      33.053  25.451  22.264  1.00  0.00     0.009 C 
BRANCH  72  79
ATOM     79  C   UNL A   1      29.696  27.210  23.488  1.00  0.00     0.238 C 
ATOM     80  O   UNL A   1      28.677  26.544  23.754  1.00  0.00    -0.273 OA
ATOM     81  N   UNL A   1      29.337  28.497  23.466  1.00  0.00    -0.288 N 
ATOM     82  H   UNL A   1      28.404  28.623  23.753  1.00  0.00     0.185 HD
BRANCH  81  83
ATOM     83  N   UNL A   1      29.946  29.697  23.143  1.00  0.00    -0.217 NA
ATOM     84  C   UNL A   1      29.408  30.870  23.854  1.00  0.00     0.136 C 
ATOM     85  C   UNL A   1      29.715  29.934  21.681  1.00  0.00     0.136 C 
ATOM     86  C   UNL A   1      28.006  31.338  23.441  1.00  0.00     0.177 C 
ATOM     87  C   UNL A   1      28.248  30.298  21.365  1.00  0.00     0.177 C 
ATOM     88  O   UNL A   1      27.883  31.512  22.028  1.00  0.00    -0.379 OA
ENDBRANCH  81  83
ENDBRANCH  72  79
ENDBRANCH  69  71
ENDBRANCH  68  69
ENDBRANCH  67  68
ENDBRANCH   1  67
TORSDOF 16
ENDMDL
MODEL 2
REMARK VINA RESULT:     -10.9      2.165      2.773
REMARK SMILES O=C(OCCOC(=O)[C@H]1[C@@H](C(=O)NN2CCOCC2)[C@H]2C=C[C@@H]1CC2)c1ccc(-c2c3nc(c(-c4ccc(S(=O)(=O)[O-])cc4)c4ccc([nH]4)c(-c4ccc(S(=O)(=O)[O-])cc4)c4nc(c(-c5ccc(S(=O)(=O)[O-])cc5)c5ccc2[nH]5)C=C4)C=C3)cc1
REMARK SMILES IDX 4 1 3 2 2 3 1 4 26 5 27 6 85 7 28 8 84 9 29 10 30 11 31 12
REMARK SMILES IDX 78 13 32 14 83 15 77 16 79 17 33 18 82 19 76 20 75 21 34 23
REMARK SMILES IDX 64 24 45 25 63 26 46 27 49 28 62 29 80 30 47 31 48 32 61 34
REMARK SMILES IDX 81 35 50 36 35 37 36 38 44 39 37 40 43 41 38 42 39 43 40 44
REMARK SMILES IDX 41 45 42 46 65 47 66 48 74 49 67 50 73 51 68 52 69 53 70 54
REMARK SMILES IDX 71 55 72 56 51 57 52 58 60 59 53 60 59 61 54 62 55 63 56 64
REMARK SMILES IDX 57 65 58 66 5 67 6 68 7 69 8 70 9 71 10 72 23 73 20 74 22 75
REMARK SMILES IDX 24 76 21 77 25 78 11 79 12 80 13 81 14 83 15 84 19 85 16 86
REMARK SMILES IDX 18 87 17 88
REMARK H PARENT 79 22 49 33 13 82
REMARK Flexibility Score: inf
ROOT
ATOM      1  C   UNL A   1      33.177  28.572  27.243  1.00  0.00     0.275 C 
ENDROOT
BRANCH   1   2
ATOM      2  O   UNL A   1      33.410  29.985  27.061  1.00  0.00    -0.458 OA
BRANCH   2   3
ATOM      3  C   UNL A   1      34.392  30.755  27.600  1.00  0.00     0.338 C 
ATOM      4  O   UNL A   1      34.200  31.967  27.698  1.00  0.00    -0.246 OA
BRANCH   3   5
ATOM      5  C   UNL A   1      35.715  30.210  28.052  1.00  0.00     0.060 A 
ATOM      6  C   UNL A   1      36.854  30.086  27.255  1.00  0.00     0.016 A 
ATOM      7  C   UNL A   1      35.800  29.757  29.380  1.00  0.00     0.016 A 
ATOM      8  C   UNL A   1      38.093  29.702  27.814  1.00  0.00     0.010 A 
ATOM      9  C   UNL A   1      37.028  29.353  29.933  1.00  0.00     0.010 A 
ATOM     10  C   UNL A   1      38.213  29.409  29.179  1.00  0.00    -0.014 A 
BRANCH  10  11
ATOM     11  C   UNL A   1      39.486  28.910  29.783  1.00  0.00     0.031 A 
ATOM     12  C   UNL A   1      40.043  29.754  30.875  1.00  0.00     0.074 A 
ATOM     13  C   UNL A   1      40.154  27.772  29.469  1.00  0.00     0.049 A 
ATOM     14  N   UNL A   1      41.057  29.492  31.647  1.00  0.00    -0.248 NA
ATOM     15  C   UNL A   1      39.290  30.969  31.231  1.00  0.00     0.031 C 
ATOM     16  C   UNL A   1      39.650  26.650  28.702  1.00  0.00     0.029 A 
ATOM     17  N   UNL A   1      41.447  27.369  29.741  1.00  0.00    -0.354 N 
ATOM     18  C   UNL A   1      40.965  30.411  32.670  1.00  0.00     0.074 A 
ATOM     19  C   UNL A   1      39.883  31.317  32.361  1.00  0.00     0.031 C 
ATOM     20  C   UNL A   1      40.646  25.813  28.361  1.00  0.00     0.029 A 
ATOM     21  C   UNL A   1      41.861  26.278  28.996  1.00  0.00     0.049 A 
ATOM     22  H   UNL A   1      42.022  27.817  30.404  1.00  0.00     0.167 HD
ATOM     23  C   UNL A   1      41.682  30.438  33.810  1.00  0.00     0.031 A 
ATOM     24  C   UNL A   1      43.060  25.672  28.875  1.00  0.00     0.031 A 
ATOM     25  C   UNL A   1      42.834  29.621  34.046  1.00  0.00     0.049 A 
ATOM     26  C   UNL A   1      44.064  25.986  29.944  1.00  0.00     0.074 A 
ATOM     27  C   UNL A   1      43.703  29.659  35.117  1.00  0.00     0.029 A 
ATOM     28  N   UNL A   1      43.311  28.658  33.167  1.00  0.00    -0.354 N 
ATOM     29  N   UNL A   1      43.931  26.816  30.951  1.00  0.00    -0.248 NA
ATOM     30  C   UNL A   1      45.304  25.202  29.959  1.00  0.00     0.031 C 
ATOM     31  C   UNL A   1      44.758  28.784  34.844  1.00  0.00     0.029 A 
ATOM     32  C   UNL A   1      44.506  28.144  33.639  1.00  0.00     0.049 A 
ATOM     33  H   UNL A   1      42.866  28.381  32.334  1.00  0.00     0.167 HD
ATOM     34  C   UNL A   1      45.018  26.582  31.775  1.00  0.00     0.074 A 
ATOM     35  C   UNL A   1      45.813  25.551  31.133  1.00  0.00     0.031 C 
ATOM     36  C   UNL A   1      45.302  27.143  32.975  1.00  0.00     0.031 A 
BRANCH  23  37
ATOM     37  C   UNL A   1      41.230  31.429  34.829  1.00  0.00    -0.014 A 
ATOM     38  C   UNL A   1      40.224  31.090  35.755  1.00  0.00     0.010 A 
ATOM     39  C   UNL A   1      41.763  32.725  34.818  1.00  0.00     0.010 A 
ATOM     40  C   UNL A   1      39.747  32.047  36.649  1.00  0.00     0.020 A 
ATOM     41  C   UNL A   1      41.300  33.678  35.723  1.00  0.00     0.020 A 
ATOM     42  C   UNL A   1      40.290  33.335  36.627  1.00  0.00     0.054 A 
BRANCH  42  43
ATOM     43  S   UNL A   1      39.678  34.551  37.821  1.00  0.00     0.124 S 
ATOM     44  O   UNL A   1      39.961  35.812  37.140  1.00  0.00    -0.237 OA
ATOM     45  O   UNL A   1      38.265  34.200  37.932  1.00  0.00    -0.237 OA
ATOM     46  O   UNL A   1      40.478  34.296  39.016  1.00  0.00    -0.744 OA
ENDBRANCH  42  43
ENDBRANCH  23  37
BRANCH  24  47
ATOM     47  C   UNL A   1      43.348  24.649  27.821  1.00  0.00    -0.014 A 
ATOM     48  C   UNL A   1      43.087  23.281  28.019  1.00  0.00     0.010 A 
ATOM     49  C   UNL A   1      43.985  25.038  26.624  1.00  0.00     0.010 A 
ATOM     50  C   UNL A   1      43.496  22.325  27.078  1.00  0.00     0.020 A 
ATOM     51  C   UNL A   1      44.382  24.087  25.671  1.00  0.00     0.020 A 
ATOM     52  C   UNL A   1      44.151  22.733  25.913  1.00  0.00     0.054 A 
BRANCH  52  53
ATOM     53  S   UNL A   1      44.697  21.468  24.724  1.00  0.00     0.124 S 
ATOM     54  O   UNL A   1      46.081  21.241  25.131  1.00  0.00    -0.237 OA
ATOM     55  O   UNL A   1      43.772  20.370  24.988  1.00  0.00    -0.237 OA
ATOM     56  O   UNL A   1      44.528  22.119  23.426  1.00  0.00    -0.744 OA
ENDBRANCH  52  53
ENDBRANCH  24  47
BRANCH  36  57
ATOM     57  C   UNL A   1      46.532  26.650  33.675  1.00  0.00    -0.014 A 
ATOM     58  C   UNL A   1      47.770  27.291  33.497  1.00  0.00     0.010 A 
ATOM     59  C   UNL A   1      46.437  25.559  34.557  1.00  0.00     0.010 A 
ATOM     60  C   UNL A   1      48.903  26.821  34.157  1.00  0.00     0.020 A 
ATOM     61  C   UNL A   1      47.561  25.111  35.250  1.00  0.00     0.020 A 
ATOM     62  C   UNL A   1      48.791  25.736  35.032  1.00  0.00     0.054 A 
BRANCH  62  63
ATOM     63  S   UNL A   1      50.271  25.179  35.914  1.00  0.00     0.124 S 
ATOM     64  O   UNL A   1      50.738  24.089  35.062  1.00  0.00    -0.237 OA
ATOM     65  O   UNL A   1      51.108  26.376  35.921  1.00  0.00    -0.237 OA
ATOM     66  O   UNL A   1      49.762  24.774  37.222  1.00  0.00    -0.744 OA
ENDBRANCH  62  63
ENDBRANCH  36  57
ENDBRANCH  10  11
ENDBRANCH   3   5
ENDBRANCH   2   3
ENDBRANCH   1   2
BRANCH   1  67
ATOM     67  C   UNL A   1      31.705  28.172  27.299  1.00  0.00     0.274 C 
BRANCH  67  68
ATOM     68  O   UNL A   1      31.248  27.755  26.012  1.00  0.00    -0.462 OA
BRANCH  68  69
ATOM     69  C   UNL A   1      30.965  26.447  25.782  1.00  0.00     0.310 C 
ATOM     70  O   UNL A   1      30.273  25.733  26.503  1.00  0.00    -0.252 OA
BRANCH  69  71
ATOM     71  C   UNL A   1      31.594  26.039  24.472  1.00  0.00     0.119 C 
ATOM     72  C   UNL A   1      30.793  26.454  23.212  1.00  0.00     0.101 C 
ATOM     73  C   UNL A   1      33.100  26.365  24.250  1.00  0.00     0.026 C 
ATOM     74  C   UNL A   1      31.773  26.704  22.043  1.00  0.00     0.025 C 
ATOM     75  C   UNL A   1      33.312  27.703  23.553  1.00  0.00    -0.027 C 
ATOM     76  C   UNL A   1      33.591  25.327  23.205  1.00  0.00     0.009 C 
ATOM     77  C   UNL A   1      32.636  27.868  22.406  1.00  0.00    -0.027 C 
ATOM     78  C   UNL A   1      32.716  25.454  21.929  1.00  0.00     0.009 C 
BRANCH  72  79
ATOM     79  C   UNL A   1      29.518  27.279  23.448  1.00  0.00     0.238 C 
ATOM     80  O   UNL A   1      28.481  26.674  23.779  1.00  0.00    -0.273 OA
ATOM     81  N   UNL A   1      29.247  28.587  23.488  1.00  0.00    -0.288 N 
ATOM     82  H   UNL A   1      28.351  28.765  23.854  1.00  0.00     0.185 HD
BRANCH  81  83
ATOM     83  N   UNL A   1      29.908  29.754  23.148  1.00  0.00    -0.217 NA
ATOM     84  C   UNL A   1      29.455  30.952  23.876  1.00  0.00     0.136 C 
ATOM     85  C   UNL A   1      29.646  30.006  21.693  1.00  0.00     0.136 C 
ATOM     86  C   UNL A   1      28.068  31.494  23.506  1.00  0.00     0.177 C 
ATOM     87  C   UNL A   1      28.192  30.448  21.423  1.00  0.00     0.177 C 
ATOM     88  O   UNL A   1      27.912  31.677  22.097  1.00  0.00    -0.379 OA
ENDBRANCH  81  83
ENDBRANCH  72  79
ENDBRANCH  69  71
ENDBRANCH  68  69
ENDBRANCH  67  68
ENDBRANCH   1  67
TORSDOF 16
ENDMDL
MODEL 3
REMARK VINA RESULT:     -10.4      4.357     10.052
REMARK SMILES O=C(OCCOC(=O)[C@H]1[C@@H](C(=O)NN2CCOCC2)[C@H]2C=C[C@@H]1CC2)c1ccc(-c2c3nc(c(-c4ccc(S(=O)(=O)[O-])cc4)c4ccc([nH]4)c(-c4ccc(S(=O)(=O)[O-])cc4)c4nc(c(-c5ccc(S(=O)(=O)[O-])cc5)c5ccc2[nH]5)C=C4)C=C3)cc1
REMARK SMILES IDX 4 1 3 2 2 3 1 4 26 5 27 6 85 7 28 8 84 9 29 10 30 11 31 12
REMARK SMILES IDX 78 13 32 14 83 15 77 16 79 17 33 18 82 19 76 20 75 21 34 23
REMARK SMILES IDX 64 24 45 25 63 26 46 27 49 28 62 29 80 30 47 31 48 32 61 34
REMARK SMILES IDX 81 35 50 36 35 37 36 38 44 39 37 40 43 41 38 42 39 43 40 44
REMARK SMILES IDX 41 45 42 46 65 47 66 48 74 49 67 50 73 51 68 52 69 53 70 54
REMARK SMILES IDX 71 55 72 56 51 57 52 58 60 59 53 60 59 61 54 62 55 63 56 64
REMARK SMILES IDX 57 65 58 66 5 67 6 68 7 69 8 70 9 71 10 72 23 73 20 74 22 75
REMARK SMILES IDX 24 76 21 77 25 78 11 79 12 80 13 81 14 83 15 84 19 85 16 86
REMARK SMILES IDX 18 87 17 88
REMARK H PARENT 79 22 49 33 13 82
REMARK Flexibility Score: inf
ROOT
ATOM      1  C   UNL A   1      36.712  23.011  25.729  1.00  0.00     0.275 C 
ENDROOT
BRANCH   1   2
ATOM      2  O   UNL A   1      37.961  22.288  25.779  1.00  0.00    -0.458 OA
BRANCH   2   3
ATOM      3  C   UNL A   1      39.075  22.576  26.502  1.00  0.00     0.338 C 
ATOM      4  O   UNL A   1      39.839  21.656  26.795  1.00  0.00    -0.246 OA
BRANCH   3   5
ATOM      5  C   UNL A   1      39.407  23.954  26.995  1.00  0.00     0.060 A 
ATOM      6  C   UNL A   1      39.139  24.444  28.274  1.00  0.00     0.016 A 
ATOM      7  C   UNL A   1      40.009  24.833  26.077  1.00  0.00     0.016 A 
ATOM      8  C   UNL A   1      39.627  25.704  28.686  1.00  0.00     0.010 A 
ATOM      9  C   UNL A   1      40.476  26.097  26.479  1.00  0.00     0.010 A 
ATOM     10  C   UNL A   1      40.373  26.512  27.818  1.00  0.00    -0.014 A 
BRANCH  10  11
ATOM     11  C   UNL A   1      40.822  27.888  28.192  1.00  0.00     0.031 A 
ATOM     12  C   UNL A   1      42.296  28.096  28.186  1.00  0.00     0.074 A 
ATOM     13  C   UNL A   1      40.041  28.954  28.496  1.00  0.00     0.049 A 
ATOM     14  N   UNL A   1      42.945  29.213  28.349  1.00  0.00    -0.248 NA
ATOM     15  C   UNL A   1      43.134  26.940  27.822  1.00  0.00     0.031 C 
ATOM     16  C   UNL A   1      38.619  29.091  28.246  1.00  0.00     0.029 A 
ATOM     17  N   UNL A   1      40.334  30.151  29.120  1.00  0.00    -0.354 N 
ATOM     18  C   UNL A   1      44.233  28.931  27.946  1.00  0.00     0.074 A 
ATOM     19  C   UNL A   1      44.312  27.517  27.658  1.00  0.00     0.031 C 
ATOM     20  C   UNL A   1      38.116  30.154  28.898  1.00  0.00     0.029 A 
ATOM     21  C   UNL A   1      39.215  30.859  29.524  1.00  0.00     0.049 A 
ATOM     22  H   UNL A   1      41.254  30.471  29.265  1.00  0.00     0.167 HD
ATOM     23  C   UNL A   1      45.240  29.806  27.761  1.00  0.00     0.031 A 
ATOM     24  C   UNL A   1      39.076  31.982  30.259  1.00  0.00     0.031 A 
ATOM     25  C   UNL A   1      45.190  31.177  28.173  1.00  0.00     0.049 A 
ATOM     26  C   UNL A   1      40.309  32.819  30.416  1.00  0.00     0.074 A 
ATOM     27  C   UNL A   1      46.201  32.114  28.143  1.00  0.00     0.029 A 
ATOM     28  N   UNL A   1      44.083  31.788  28.746  1.00  0.00    -0.354 N 
ATOM     29  N   UNL A   1      41.515  32.565  29.967  1.00  0.00    -0.248 NA
ATOM     30  C   UNL A   1      40.156  34.139  31.039  1.00  0.00     0.031 C 
ATOM     31  C   UNL A   1      45.736  33.267  28.782  1.00  0.00     0.029 A 
ATOM     32  C   UNL A   1      44.410  33.073  29.141  1.00  0.00     0.049 A 
ATOM     33  H   UNL A   1      43.198  31.371  28.855  1.00  0.00     0.167 HD
ATOM     34  C   UNL A   1      42.238  33.730  30.157  1.00  0.00     0.074 A 
ATOM     35  C   UNL A   1      41.340  34.680  30.788  1.00  0.00     0.031 C 
ATOM     36  C   UNL A   1      43.517  33.995  29.797  1.00  0.00     0.031 A 
BRANCH  23  37
ATOM     37  C   UNL A   1      46.469  29.246  27.128  1.00  0.00    -0.014 A 
ATOM     38  C   UNL A   1      46.483  28.935  25.754  1.00  0.00     0.010 A 
ATOM     39  C   UNL A   1      47.589  28.967  27.921  1.00  0.00     0.010 A 
ATOM     40  C   UNL A   1      47.605  28.333  25.187  1.00  0.00     0.020 A 
ATOM     41  C   UNL A   1      48.719  28.381  27.352  1.00  0.00     0.020 A 
ATOM     42  C   UNL A   1      48.716  28.062  25.990  1.00  0.00     0.054 A 
BRANCH  42  43
ATOM     43  S   UNL A   1      50.175  27.311  25.223  1.00  0.00     0.124 S 
ATOM     44  O   UNL A   1      50.494  28.275  24.173  1.00  0.00    -0.237 OA
ATOM     45  O   UNL A   1      51.121  27.253  26.333  1.00  0.00    -0.237 OA
ATOM     46  O   UNL A   1      49.689  26.016  24.752  1.00  0.00    -0.744 OA
ENDBRANCH  42  43
ENDBRANCH  23  37
BRANCH  24  47
ATOM     47  C   UNL A   1      37.753  32.445  30.787  1.00  0.00    -0.014 A 
ATOM     48  C   UNL A   1      36.928  33.322  30.060  1.00  0.00     0.010 A 
ATOM     49  C   UNL A   1      37.351  32.076  32.087  1.00  0.00     0.010 A 
ATOM     50  C   UNL A   1      35.764  33.856  30.632  1.00  0.00     0.020 A 
ATOM     51  C   UNL A   1      36.179  32.594  32.659  1.00  0.00     0.020 A 
ATOM     52  C   UNL A   1      35.401  33.497  31.933  1.00  0.00     0.054 A 
BRANCH  52  53
ATOM     53  S   UNL A   1      33.902  34.229  32.661  1.00  0.00     0.124 S 
ATOM     54  O   UNL A   1      34.459  35.180  33.619  1.00  0.00    -0.237 OA
ATOM     55  O   UNL A   1      33.244  34.816  31.496  1.00  0.00    -0.237 OA
ATOM     56  O   UNL A   1      33.210  33.085  33.249  1.00  0.00    -0.744 OA
ENDBRANCH  52  53
ENDBRANCH  24  47
BRANCH  36  57
ATOM     57  C   UNL A   1      44.025  35.376  30.083  1.00  0.00    -0.014 A 
ATOM     58  C   UNL A   1      44.732  35.655  31.265  1.00  0.00     0.010 A 
ATOM     59  C   UNL A   1      43.829  36.396  29.135  1.00  0.00     0.010 A 
ATOM     60  C   UNL A   1      45.199  36.945  31.513  1.00  0.00     0.020 A 
ATOM     61  C   UNL A   1      44.330  37.677  29.362  1.00  0.00     0.020 A 
ATOM     62  C   UNL A   1      44.997  37.946  30.559  1.00  0.00     0.054 A 
BRANCH  62  63
ATOM     63  S   UNL A   1      45.659  39.600  30.888  1.00  0.00     0.124 S 
ATOM     64  O   UNL A   1      45.389  39.754  32.314  1.00  0.00    -0.237 OA
ATOM     65  O   UNL A   1      47.066  39.458  30.524  1.00  0.00    -0.237 OA
ATOM     66  O   UNL A   1      44.877  40.466  30.008  1.00  0.00    -0.744 OA
ENDBRANCH  62  63
ENDBRANCH  36  57
ENDBRANCH  10  11
ENDBRANCH   3   5
ENDBRANCH   2   3
ENDBRANCH   1   2
BRANCH   1  67
ATOM     67  C   UNL A   1      36.148  23.211  24.325  1.00  0.00     0.274 C 
BRANCH  67  68
ATOM     68  O   UNL A   1      34.721  23.184  24.347  1.00  0.00    -0.462 OA
BRANCH  68  69
ATOM     69  C   UNL A   1      34.012  24.103  23.641  1.00  0.00     0.310 C 
ATOM     70  O   UNL A   1      34.336  24.561  22.548  1.00  0.00    -0.252 OA
BRANCH  69  71
ATOM     71  C   UNL A   1      32.744  24.420  24.395  1.00  0.00     0.119 C 
ATOM     72  C   UNL A   1      31.645  23.332  24.300  1.00  0.00     0.101 C 
ATOM     73  C   UNL A   1      32.870  24.890  25.874  1.00  0.00     0.026 C 
ATOM     74  C   UNL A   1      30.805  23.338  25.597  1.00  0.00     0.025 C 
ATOM     75  C   UNL A   1      32.775  23.736  26.864  1.00  0.00    -0.027 C 
ATOM     76  C   UNL A   1      31.583  25.714  26.149  1.00  0.00     0.009 C 
ATOM     77  C   UNL A   1      31.700  22.946  26.727  1.00  0.00    -0.027 C 
ATOM     78  C   UNL A   1      30.348  24.815  25.868  1.00  0.00     0.009 C 
BRANCH  72  79
ATOM     79  C   UNL A   1      32.005  22.056  23.523  1.00  0.00     0.238 C 
ATOM     80  O   UNL A   1      31.955  22.093  22.278  1.00  0.00    -0.273 OA
ATOM     81  N   UNL A   1      32.492  20.860  23.867  1.00  0.00    -0.288 N 
ATOM     82  H   UNL A   1      32.781  20.341  23.082  1.00  0.00     0.185 HD
BRANCH  81  83
ATOM     83  N   UNL A   1      32.694  20.167  25.047  1.00  0.00    -0.217 NA
ATOM     84  C   UNL A   1      34.037  20.327  25.632  1.00  0.00     0.136 C 
ATOM     85  C   UNL A   1      32.525  18.709  24.743  1.00  0.00     0.136 C 
ATOM     86  C   UNL A   1      35.191  19.635  24.895  1.00  0.00     0.177 C 
ATOM     87  C   UNL A   1      33.693  18.140  23.909  1.00  0.00     0.177 C 
ATOM     88  O   UNL A   1      34.922  18.256  24.632  1.00  0.00    -0.379 OA
ENDBRANCH  81  83
ENDBRANCH  72  79
ENDBRANCH  69  71
ENDBRANCH  68  69
ENDBRANCH  67  68
ENDBRANCH   1  67
TORSDOF 16
ENDMDL
