MODEL 1
REMARK VINA RESULT:     -11.2      0.000      0.000
REMARK SMILES Cn1ccc(NC(=O)[C@@H]2CCCC[C@@H]2C(=O)OCCOC(=O)c2ccc(-c3c4nc(c(-c5ccc(S(=O)(=O)[O-])cc5)c5ccc([nH]5)c(-c5ccc(S(=O)(=O)[O-])cc5)c5nc(c(-c6ccc(S(=O)(=O)[O-])cc6)c6ccc3[nH]6)C=C5)C=C4)cc2)n1
REMARK SMILES IDX 19 1 18 2 17 3 15 4 16 5 14 6 9 7 10 8 11 9 13 10 12 11 7 12
REMARK SMILES IDX 6 13 8 15 5 16 1 17 2 18 3 19 83 20 4 21 20 22 21 23 22 24
REMARK SMILES IDX 23 25 24 26 82 27 25 28 81 29 26 30 27 31 28 32 75 33 29 34
REMARK SMILES IDX 80 35 74 36 76 37 30 38 79 39 73 40 72 41 31 43 61 44 42 45
REMARK SMILES IDX 60 46 43 47 46 48 59 49 77 50 44 51 45 52 58 54 78 55 47 56
REMARK SMILES IDX 32 57 33 58 41 59 34 60 40 61 35 62 36 63 37 64 38 65 39 66
REMARK SMILES IDX 62 67 63 68 71 69 64 70 70 71 65 72 66 73 67 74 68 75 69 76
REMARK SMILES IDX 48 77 49 78 57 79 50 80 56 81 51 82 52 83 53 84 54 85 55 86
REMARK H PARENT 6 14 76 42 46 53
REMARK Flexibility Score: inf
ROOT
ATOM      1  C   UNL A   1      32.897  30.943  27.164  1.00  0.00     0.275 C 
ENDROOT
BRANCH   1   2
ATOM      2  C   UNL A   1      31.817  29.944  26.764  1.00  0.00     0.274 C 
BRANCH   2   3
ATOM      3  O   UNL A   1      31.708  29.863  25.328  1.00  0.00    -0.462 OA
BRANCH   3   4
ATOM      4  C   UNL A   1      31.669  28.615  24.803  1.00  0.00     0.309 C 
ATOM      5  O   UNL A   1      31.638  27.586  25.473  1.00  0.00    -0.252 OA
BRANCH   4   6
ATOM      6  C   UNL A   1      31.715  28.578  23.283  1.00  0.00     0.111 C 
ATOM      7  C   UNL A   1      30.639  27.755  22.535  1.00  0.00     0.093 C 
ATOM      8  C   UNL A   1      31.119  26.300  22.326  1.00  0.00     0.014 C 
ATOM      9  C   UNL A   1      32.484  26.225  21.652  1.00  0.00     0.001 C 
ATOM     10  C   UNL A   1      33.132  28.393  22.723  1.00  0.00     0.016 C 
ATOM     11  C   UNL A   1      33.526  26.945  22.487  1.00  0.00     0.001 C 
BRANCH   7  12
ATOM     12  C   UNL A   1      29.231  27.736  23.166  1.00  0.00     0.229 C 
ATOM     13  N   UNL A   1      28.420  28.827  23.211  1.00  0.00    -0.309 N 
ATOM     14  H   UNL A   1      27.585  28.703  23.717  1.00  0.00     0.171 HD
ATOM     15  O   UNL A   1      28.775  26.707  23.684  1.00  0.00    -0.274 OA
BRANCH  13  16
ATOM     16  C   UNL A   1      28.579  30.074  22.665  1.00  0.00     0.154 A 
ATOM     17  C   UNL A   1      28.893  33.501  23.051  1.00  0.00     0.173 C 
ATOM     18  N   UNL A   1      28.807  32.168  22.506  1.00  0.00    -0.274 N 
ATOM     19  C   UNL A   1      28.309  31.796  21.294  1.00  0.00     0.110 A 
ATOM     20  N   UNL A   1      29.114  31.121  23.289  1.00  0.00    -0.155 NA
ATOM     21  C   UNL A   1      28.175  30.427  21.357  1.00  0.00     0.068 A 
ENDBRANCH  13  16
ENDBRANCH   7  12
ENDBRANCH   4   6
ENDBRANCH   3   4
ENDBRANCH   2   3
ENDBRANCH   1   2
BRANCH   1  22
ATOM     22  O   UNL A   1      34.034  30.218  27.656  1.00  0.00    -0.458 OA
BRANCH  22  23
ATOM     23  C   UNL A   1      34.805  30.867  28.555  1.00  0.00     0.338 C 
ATOM     24  O   UNL A   1      34.474  31.820  29.246  1.00  0.00    -0.246 OA
BRANCH  23  25
ATOM     25  C   UNL A   1      36.141  30.235  28.634  1.00  0.00     0.060 A 
ATOM     26  C   UNL A   1      36.624  29.714  29.835  1.00  0.00     0.016 A 
ATOM     27  C   UNL A   1      36.979  30.276  27.519  1.00  0.00     0.016 A 
ATOM     28  C   UNL A   1      37.965  29.351  29.955  1.00  0.00     0.010 A 
ATOM     29  C   UNL A   1      38.291  29.798  27.613  1.00  0.00     0.010 A 
ATOM     30  C   UNL A   1      38.818  29.364  28.843  1.00  0.00    -0.014 A 
BRANCH  30  31
ATOM     31  C   UNL A   1      40.252  28.962  28.954  1.00  0.00     0.031 A 
ATOM     32  C   UNL A   1      41.288  29.963  29.408  1.00  0.00     0.074 A 
ATOM     33  C   UNL A   1      40.654  27.714  28.634  1.00  0.00     0.049 A 
ATOM     34  N   UNL A   1      42.591  29.918  29.283  1.00  0.00    -0.248 NA
ATOM     35  C   UNL A   1      40.794  31.184  30.066  1.00  0.00     0.031 C 
ATOM     36  C   UNL A   1      39.780  26.610  28.232  1.00  0.00     0.029 A 
ATOM     37  N   UNL A   1      41.913  27.163  28.600  1.00  0.00    -0.354 N 
ATOM     38  C   UNL A   1      43.062  31.138  29.757  1.00  0.00     0.074 A 
ATOM     39  C   UNL A   1      41.908  31.892  30.198  1.00  0.00     0.031 C 
ATOM     40  C   UNL A   1      40.519  25.506  28.043  1.00  0.00     0.029 A 
ATOM     41  C   UNL A   1      41.926  25.849  28.192  1.00  0.00     0.049 A 
ATOM     42  H   UNL A   1      42.726  27.661  28.842  1.00  0.00     0.167 HD
ATOM     43  C   UNL A   1      44.337  31.593  29.800  1.00  0.00     0.031 A 
ATOM     44  C   UNL A   1      42.950  25.021  27.904  1.00  0.00     0.031 A 
ATOM     45  C   UNL A   1      45.490  30.811  29.431  1.00  0.00     0.049 A 
ATOM     46  C   UNL A   1      44.355  25.538  27.967  1.00  0.00     0.074 A 
ATOM     47  C   UNL A   1      46.824  31.181  29.446  1.00  0.00     0.029 A 
ATOM     48  N   UNL A   1      45.448  29.491  29.012  1.00  0.00    -0.354 N 
ATOM     49  N   UNL A   1      44.776  26.735  28.299  1.00  0.00    -0.248 NA
ATOM     50  C   UNL A   1      45.421  24.604  27.582  1.00  0.00     0.031 C 
ATOM     51  C   UNL A   1      47.587  30.091  29.013  1.00  0.00     0.029 A 
ATOM     52  C   UNL A   1      46.730  29.031  28.765  1.00  0.00     0.049 A 
ATOM     53  H   UNL A   1      44.626  28.958  28.904  1.00  0.00     0.167 HD
ATOM     54  C   UNL A   1      46.157  26.700  28.152  1.00  0.00     0.074 A 
ATOM     55  C   UNL A   1      46.502  25.357  27.732  1.00  0.00     0.031 C 
ATOM     56  C   UNL A   1      47.057  27.698  28.335  1.00  0.00     0.031 A 
BRANCH  43  57
ATOM     57  C   UNL A   1      44.559  33.024  30.212  1.00  0.00    -0.014 A 
ATOM     58  C   UNL A   1      44.864  33.375  31.537  1.00  0.00     0.010 A 
ATOM     59  C   UNL A   1      44.520  34.031  29.228  1.00  0.00     0.010 A 
ATOM     60  C   UNL A   1      45.097  34.712  31.877  1.00  0.00     0.020 A 
ATOM     61  C   UNL A   1      44.774  35.364  29.560  1.00  0.00     0.020 A 
ATOM     62  C   UNL A   1      45.047  35.698  30.886  1.00  0.00     0.054 A 
BRANCH  62  63
ATOM     63  S   UNL A   1      45.392  37.421  31.341  1.00  0.00     0.124 S 
ATOM     64  O   UNL A   1      44.292  38.130  30.692  1.00  0.00    -0.237 OA
ATOM     65  O   UNL A   1      45.342  37.388  32.801  1.00  0.00    -0.237 OA
ATOM     66  O   UNL A   1      46.715  37.671  30.774  1.00  0.00    -0.744 OA
ENDBRANCH  62  63
ENDBRANCH  43  57
BRANCH  44  67
ATOM     67  C   UNL A   1      42.661  23.633  27.453  1.00  0.00    -0.014 A 
ATOM     68  C   UNL A   1      42.569  23.335  26.083  1.00  0.00     0.010 A 
ATOM     69  C   UNL A   1      42.537  22.594  28.394  1.00  0.00     0.010 A 
ATOM     70  C   UNL A   1      42.371  22.017  25.660  1.00  0.00     0.020 A 
ATOM     71  C   UNL A   1      42.367  21.273  27.974  1.00  0.00     0.020 A 
ATOM     72  C   UNL A   1      42.279  20.993  26.609  1.00  0.00     0.054 A 
BRANCH  72  73
ATOM     73  S   UNL A   1      42.136  19.274  26.045  1.00  0.00     0.124 S 
ATOM     74  O   UNL A   1      43.014  19.264  24.880  1.00  0.00    -0.237 OA
ATOM     75  O   UNL A   1      42.608  18.515  27.201  1.00  0.00    -0.237 OA
ATOM     76  O   UNL A   1      40.709  19.132  25.761  1.00  0.00    -0.744 OA
ENDBRANCH  72  73
ENDBRANCH  44  67
BRANCH  56  77
ATOM     77  C   UNL A   1      48.501  27.364  28.093  1.00  0.00    -0.014 A 
ATOM     78  C   UNL A   1      49.053  27.449  26.803  1.00  0.00     0.010 A 
ATOM     79  C   UNL A   1      49.319  26.983  29.171  1.00  0.00     0.010 A 
ATOM     80  C   UNL A   1      50.394  27.125  26.589  1.00  0.00     0.020 A 
ATOM     81  C   UNL A   1      50.666  26.675  28.963  1.00  0.00     0.020 A 
ATOM     82  C   UNL A   1      51.190  26.732  27.669  1.00  0.00     0.054 A 
BRANCH  82  83
ATOM     83  S   UNL A   1      52.935  26.334  27.374  1.00  0.00     0.124 S 
ATOM     84  O   UNL A   1      53.405  27.531  26.683  1.00  0.00    -0.237 OA
ATOM     85  O   UNL A   1      53.458  26.142  28.724  1.00  0.00    -0.237 OA
ATOM     86  O   UNL A   1      52.879  25.123  26.558  1.00  0.00    -0.744 OA
ENDBRANCH  82  83
ENDBRANCH  56  77
ENDBRANCH  30  31
ENDBRANCH  23  25
ENDBRANCH  22  23
ENDBRANCH   1  22
TORSDOF 16
ENDMDL
MODEL 2
REMARK VINA RESULT:     -10.8      5.547     11.102
REMARK SMILES Cn1ccc(NC(=O)[C@@H]2CCCC[C@@H]2C(=O)OCCOC(=O)c2ccc(-c3c4nc(c(-c5ccc(S(=O)(=O)[O-])cc5)c5ccc([nH]5)c(-c5ccc(S(=O)(=O)[O-])cc5)c5nc(c(-c6ccc(S(=O)(=O)[O-])cc6)c6ccc3[nH]6)C=C5)C=C4)cc2)n1
REMARK SMILES IDX 19 1 18 2 17 3 15 4 16 5 14 6 9 7 10 8 11 9 13 10 12 11 7 12
REMARK SMILES IDX 6 13 8 15 5 16 1 17 2 18 3 19 83 20 4 21 20 22 21 23 22 24
REMARK SMILES IDX 23 25 24 26 82 27 25 28 81 29 26 30 27 31 28 32 75 33 29 34
REMARK SMILES IDX 80 35 74 36 76 37 30 38 79 39 73 40 72 41 31 43 61 44 42 45
REMARK SMILES IDX 60 46 43 47 46 48 59 49 77 50 44 51 45 52 58 54 78 55 47 56
REMARK SMILES IDX 32 57 33 58 41 59 34 60 40 61 35 62 36 63 37 64 38 65 39 66
REMARK SMILES IDX 62 67 63 68 71 69 64 70 70 71 65 72 66 73 67 74 68 75 69 76
REMARK SMILES IDX 48 77 49 78 57 79 50 80 56 81 51 82 52 83 53 84 54 85 55 86
REMARK H PARENT 6 14 76 42 46 53
REMARK Flexibility Score: inf
ROOT
ATOM      1  C   UNL A   1      38.006  21.449  25.188  1.00  0.00     0.275 C 
ENDROOT
BRANCH   1   2
ATOM      2  C   UNL A   1      36.579  21.030  25.522  1.00  0.00     0.274 C 
BRANCH   2   3
ATOM      3  O   UNL A   1      35.675  21.426  24.470  1.00  0.00    -0.462 OA
BRANCH   3   4
ATOM      4  C   UNL A   1      34.662  22.249  24.835  1.00  0.00     0.309 C 
ATOM      5  O   UNL A   1      34.564  23.421  24.481  1.00  0.00    -0.252 OA
BRANCH   4   6
ATOM      6  C   UNL A   1      33.654  21.612  25.778  1.00  0.00     0.111 C 
ATOM      7  C   UNL A   1      32.310  21.116  25.193  1.00  0.00     0.093 C 
ATOM      8  C   UNL A   1      31.252  22.242  25.238  1.00  0.00     0.014 C 
ATOM      9  C   UNL A   1      31.094  22.842  26.630  1.00  0.00     0.001 C 
ATOM     10  C   UNL A   1      33.505  22.367  27.107  1.00  0.00     0.016 C 
ATOM     11  C   UNL A   1      32.412  23.421  27.108  1.00  0.00     0.001 C 
BRANCH   7  12
ATOM     12  C   UNL A   1      32.361  20.528  23.766  1.00  0.00     0.229 C 
ATOM     13  N   UNL A   1      32.795  19.268  23.496  1.00  0.00    -0.309 N 
ATOM     14  H   UNL A   1      32.859  19.048  22.538  1.00  0.00     0.171 HD
ATOM     15  O   UNL A   1      32.016  21.199  22.784  1.00  0.00    -0.274 OA
BRANCH  13  16
ATOM     16  C   UNL A   1      33.161  18.254  24.342  1.00  0.00     0.154 A 
ATOM     17  C   UNL A   1      35.405  15.790  25.282  1.00  0.00     0.173 C 
ATOM     18  N   UNL A   1      34.277  16.687  25.213  1.00  0.00    -0.274 N 
ATOM     19  C   UNL A   1      32.997  16.446  25.615  1.00  0.00     0.110 A 
ATOM     20  N   UNL A   1      34.410  17.857  24.568  1.00  0.00    -0.155 NA
ATOM     21  C   UNL A   1      32.246  17.470  25.084  1.00  0.00     0.068 A 
ENDBRANCH  13  16
ENDBRANCH   7  12
ENDBRANCH   4   6
ENDBRANCH   3   4
ENDBRANCH   2   3
ENDBRANCH   1   2
BRANCH   1  22
ATOM     22  O   UNL A   1      38.279  22.702  25.833  1.00  0.00    -0.458 OA
BRANCH  22  23
ATOM     23  C   UNL A   1      39.571  22.931  26.154  1.00  0.00     0.338 C 
ATOM     24  O   UNL A   1      40.526  22.213  25.892  1.00  0.00    -0.246 OA
BRANCH  23  25
ATOM     25  C   UNL A   1      39.701  24.229  26.854  1.00  0.00     0.060 A 
ATOM     26  C   UNL A   1      40.552  25.226  26.374  1.00  0.00     0.016 A 
ATOM     27  C   UNL A   1      39.059  24.407  28.079  1.00  0.00     0.016 A 
ATOM     28  C   UNL A   1      40.853  26.333  27.167  1.00  0.00     0.010 A 
ATOM     29  C   UNL A   1      39.273  25.578  28.816  1.00  0.00     0.010 A 
ATOM     30  C   UNL A   1      40.204  26.542  28.391  1.00  0.00    -0.014 A 
BRANCH  30  31
ATOM     31  C   UNL A   1      40.505  27.732  29.242  1.00  0.00     0.031 A 
ATOM     32  C   UNL A   1      41.767  27.773  30.071  1.00  0.00     0.074 A 
ATOM     33  C   UNL A   1      39.654  28.778  29.305  1.00  0.00     0.049 A 
ATOM     34  N   UNL A   1      42.064  28.546  31.085  1.00  0.00    -0.248 NA
ATOM     35  C   UNL A   1      42.821  26.802  29.732  1.00  0.00     0.031 C 
ATOM     36  C   UNL A   1      38.421  28.928  28.529  1.00  0.00     0.029 A 
ATOM     37  N   UNL A   1      39.704  29.924  30.062  1.00  0.00    -0.354 N 
ATOM     38  C   UNL A   1      43.290  28.095  31.562  1.00  0.00     0.074 A 
ATOM     39  C   UNL A   1      43.696  26.998  30.709  1.00  0.00     0.031 C 
ATOM     40  C   UNL A   1      37.861  30.114  28.810  1.00  0.00     0.029 A 
ATOM     41  C   UNL A   1      38.626  30.757  29.870  1.00  0.00     0.049 A 
ATOM     42  H   UNL A   1      40.439  30.129  30.684  1.00  0.00     0.167 HD
ATOM     43  C   UNL A   1      44.001  28.543  32.625  1.00  0.00     0.031 A 
ATOM     44  C   UNL A   1      38.247  31.880  30.511  1.00  0.00     0.031 A 
ATOM     45  C   UNL A   1      43.632  29.683  33.425  1.00  0.00     0.049 A 
ATOM     46  C   UNL A   1      39.051  32.367  31.680  1.00  0.00     0.074 A 
ATOM     47  C   UNL A   1      44.290  30.218  34.519  1.00  0.00     0.029 A 
ATOM     48  N   UNL A   1      42.524  30.483  33.196  1.00  0.00    -0.354 N 
ATOM     49  N   UNL A   1      40.143  31.856  32.195  1.00  0.00    -0.248 NA
ATOM     50  C   UNL A   1      38.552  33.561  32.374  1.00  0.00     0.031 C 
ATOM     51  C   UNL A   1      43.565  31.329  34.967  1.00  0.00     0.029 A 
ATOM     52  C   UNL A   1      42.478  31.506  34.128  1.00  0.00     0.049 A 
ATOM     53  H   UNL A   1      41.864  30.343  32.478  1.00  0.00     0.167 HD
ATOM     54  C   UNL A   1      40.455  32.661  33.284  1.00  0.00     0.074 A 
ATOM     55  C   UNL A   1      39.456  33.710  33.332  1.00  0.00     0.031 C 
ATOM     56  C   UNL A   1      41.471  32.534  34.171  1.00  0.00     0.031 A 
BRANCH  43  57
ATOM     57  C   UNL A   1      45.228  27.768  33.027  1.00  0.00    -0.014 A 
ATOM     58  C   UNL A   1      45.157  26.669  33.899  1.00  0.00     0.010 A 
ATOM     59  C   UNL A   1      46.470  28.118  32.464  1.00  0.00     0.010 A 
ATOM     60  C   UNL A   1      46.314  25.952  34.223  1.00  0.00     0.020 A 
ATOM     61  C   UNL A   1      47.623  27.391  32.769  1.00  0.00     0.020 A 
ATOM     62  C   UNL A   1      47.540  26.319  33.659  1.00  0.00     0.054 A 
BRANCH  62  63
ATOM     63  S   UNL A   1      49.021  25.350  34.062  1.00  0.00     0.124 S 
ATOM     64  O   UNL A   1      49.370  25.869  35.382  1.00  0.00    -0.237 OA
ATOM     65  O   UNL A   1      48.526  23.976  34.039  1.00  0.00    -0.237 OA
ATOM     66  O   UNL A   1      49.957  25.688  32.993  1.00  0.00    -0.744 OA
ENDBRANCH  62  63
ENDBRANCH  43  57
BRANCH  44  67
ATOM     67  C   UNL A   1      36.996  32.571  30.098  1.00  0.00    -0.014 A 
ATOM     68  C   UNL A   1      35.792  32.327  30.778  1.00  0.00     0.010 A 
ATOM     69  C   UNL A   1      37.021  33.520  29.060  1.00  0.00     0.010 A 
ATOM     70  C   UNL A   1      34.634  33.033  30.436  1.00  0.00     0.020 A 
ATOM     71  C   UNL A   1      35.873  34.246  28.733  1.00  0.00     0.020 A 
ATOM     72  C   UNL A   1      34.685  33.994  29.421  1.00  0.00     0.054 A 
BRANCH  72  73
ATOM     73  S   UNL A   1      33.206  34.982  29.061  1.00  0.00     0.124 S 
ATOM     74  O   UNL A   1      32.547  35.025  30.363  1.00  0.00    -0.237 OA
ATOM     75  O   UNL A   1      33.768  36.247  28.593  1.00  0.00    -0.237 OA
ATOM     76  O   UNL A   1      32.520  34.200  28.035  1.00  0.00    -0.744 OA
ENDBRANCH  72  73
ENDBRANCH  44  67
BRANCH  56  77
ATOM     77  C   UNL A   1      41.556  33.564  35.261  1.00  0.00    -0.014 A 
ATOM     78  C   UNL A   1      42.343  34.717  35.101  1.00  0.00     0.010 A 
ATOM     79  C   UNL A   1      40.825  33.386  36.448  1.00  0.00     0.010 A 
ATOM     80  C   UNL A   1      42.424  35.662  36.126  1.00  0.00     0.020 A 
ATOM     81  C   UNL A   1      40.889  34.338  37.468  1.00  0.00     0.020 A 
ATOM     82  C   UNL A   1      41.703  35.462  37.307  1.00  0.00     0.054 A 
BRANCH  82  83
ATOM     83  S   UNL A   1      41.805  36.710  38.619  1.00  0.00     0.124 S 
ATOM     84  O   UNL A   1      42.195  35.903  39.773  1.00  0.00    -0.237 OA
ATOM     85  O   UNL A   1      42.826  37.626  38.119  1.00  0.00    -0.237 OA
ATOM     86  O   UNL A   1      40.454  37.264  38.674  1.00  0.00    -0.744 OA
ENDBRANCH  82  83
ENDBRANCH  56  77
ENDBRANCH  30  31
ENDBRANCH  23  25
ENDBRANCH  22  23
ENDBRANCH   1  22
TORSDOF 16
ENDMDL
MODEL 3
REMARK VINA RESULT:     -10.5      4.662      9.177
REMARK SMILES Cn1ccc(NC(=O)[C@@H]2CCCC[C@@H]2C(=O)OCCOC(=O)c2ccc(-c3c4nc(c(-c5ccc(S(=O)(=O)[O-])cc5)c5ccc([nH]5)c(-c5ccc(S(=O)(=O)[O-])cc5)c5nc(c(-c6ccc(S(=O)(=O)[O-])cc6)c6ccc3[nH]6)C=C5)C=C4)cc2)n1
REMARK SMILES IDX 19 1 18 2 17 3 15 4 16 5 14 6 9 7 10 8 11 9 13 10 12 11 7 12
REMARK SMILES IDX 6 13 8 15 5 16 1 17 2 18 3 19 83 20 4 21 20 22 21 23 22 24
REMARK SMILES IDX 23 25 24 26 82 27 25 28 81 29 26 30 27 31 28 32 75 33 29 34
REMARK SMILES IDX 80 35 74 36 76 37 30 38 79 39 73 40 72 41 31 43 61 44 42 45
REMARK SMILES IDX 60 46 43 47 46 48 59 49 77 50 44 51 45 52 58 54 78 55 47 56
REMARK SMILES IDX 32 57 33 58 41 59 34 60 40 61 35 62 36 63 37 64 38 65 39 66
REMARK SMILES IDX 62 67 63 68 71 69 64 70 70 71 65 72 66 73 67 74 68 75 69 76
REMARK SMILES IDX 48 77 49 78 57 79 50 80 56 81 51 82 52 83 53 84 54 85 55 86
REMARK H PARENT 6 14 76 42 46 53
REMARK Flexibility Score: inf
ROOT
ATOM      1  C   UNL A   1      32.378  30.939  27.037  1.00  0.00     0.275 C 
ENDROOT
BRANCH   1   2
ATOM      2  C   UNL A   1      31.880  29.506  26.896  1.00  0.00     0.274 C 
BRANCH   2   3
ATOM      3  O   UNL A   1      31.363  29.277  25.568  1.00  0.00    -0.462 OA
BRANCH   3   4
ATOM      4  C   UNL A   1      31.861  28.200  24.914  1.00  0.00     0.309 C 
ATOM      5  O   UNL A   1      32.281  27.189  25.470  1.00  0.00    -0.252 OA
BRANCH   4   6
ATOM      6  C   UNL A   1      31.905  28.358  23.402  1.00  0.00     0.111 C 
ATOM      7  C   UNL A   1      30.818  27.653  22.557  1.00  0.00     0.093 C 
ATOM      8  C   UNL A   1      31.277  26.231  22.162  1.00  0.00     0.014 C 
ATOM      9  C   UNL A   1      32.640  26.224  21.480  1.00  0.00     0.001 C 
ATOM     10  C   UNL A   1      33.320  28.227  22.819  1.00  0.00     0.016 C 
ATOM     11  C   UNL A   1      33.693  26.816  22.398  1.00  0.00     0.001 C 
BRANCH   7  12
ATOM     12  C   UNL A   1      29.409  27.573  23.183  1.00  0.00     0.229 C 
ATOM     13  N   UNL A   1      28.545  28.623  23.209  1.00  0.00    -0.309 N 
ATOM     14  H   UNL A   1      27.715  28.464  23.714  1.00  0.00     0.171 HD
ATOM     15  O   UNL A   1      29.003  26.531  23.715  1.00  0.00    -0.274 OA
BRANCH  13  16
ATOM     16  C   UNL A   1      28.644  29.868  22.646  1.00  0.00     0.154 A 
ATOM     17  C   UNL A   1      28.905  33.305  22.985  1.00  0.00     0.173 C 
ATOM     18  N   UNL A   1      28.816  31.965  22.457  1.00  0.00    -0.274 N 
ATOM     19  C   UNL A   1      28.254  31.571  21.280  1.00  0.00     0.110 A 
ATOM     20  N   UNL A   1      29.191  30.932  23.228  1.00  0.00    -0.155 NA
ATOM     21  C   UNL A   1      28.155  30.200  21.361  1.00  0.00     0.068 A 
ENDBRANCH  13  16
ENDBRANCH   7  12
ENDBRANCH   4   6
ENDBRANCH   3   4
ENDBRANCH   2   3
ENDBRANCH   1   2
BRANCH   1  22
ATOM     22  O   UNL A   1      33.812  30.926  27.073  1.00  0.00    -0.458 OA
BRANCH  22  23
ATOM     23  C   UNL A   1      34.395  31.914  27.787  1.00  0.00     0.338 C 
ATOM     24  O   UNL A   1      33.926  33.019  28.020  1.00  0.00    -0.246 OA
BRANCH  23  25
ATOM     25  C   UNL A   1      35.704  31.462  28.310  1.00  0.00     0.060 A 
ATOM     26  C   UNL A   1      35.869  30.180  28.836  1.00  0.00     0.016 A 
ATOM     27  C   UNL A   1      36.754  32.377  28.394  1.00  0.00     0.016 A 
ATOM     28  C   UNL A   1      37.025  29.855  29.545  1.00  0.00     0.010 A 
ATOM     29  C   UNL A   1      37.958  32.005  29.002  1.00  0.00     0.010 A 
ATOM     30  C   UNL A   1      38.100  30.751  29.623  1.00  0.00    -0.014 A 
BRANCH  30  31
ATOM     31  C   UNL A   1      39.349  30.410  30.366  1.00  0.00     0.031 A 
ATOM     32  C   UNL A   1      40.295  29.365  29.823  1.00  0.00     0.074 A 
ATOM     33  C   UNL A   1      39.649  31.007  31.539  1.00  0.00     0.049 A 
ATOM     34  N   UNL A   1      41.248  28.713  30.439  1.00  0.00    -0.248 NA
ATOM     35  C   UNL A   1      40.130  28.986  28.409  1.00  0.00     0.031 C 
ATOM     36  C   UNL A   1      38.877  32.075  32.178  1.00  0.00     0.029 A 
ATOM     37  N   UNL A   1      40.695  30.797  32.406  1.00  0.00    -0.354 N 
ATOM     38  C   UNL A   1      41.731  27.785  29.522  1.00  0.00     0.074 A 
ATOM     39  C   UNL A   1      40.984  27.977  28.297  1.00  0.00     0.031 C 
ATOM     40  C   UNL A   1      39.500  32.461  33.302  1.00  0.00     0.029 A 
ATOM     41  C   UNL A   1      40.646  31.591  33.528  1.00  0.00     0.049 A 
ATOM     42  H   UNL A   1      41.409  30.140  32.240  1.00  0.00     0.167 HD
ATOM     43  C   UNL A   1      42.694  26.847  29.694  1.00  0.00     0.031 A 
ATOM     44  C   UNL A   1      41.394  31.588  34.650  1.00  0.00     0.031 A 
ATOM     45  C   UNL A   1      43.486  26.710  30.889  1.00  0.00     0.049 A 
ATOM     46  C   UNL A   1      42.461  30.549  34.820  1.00  0.00     0.074 A 
ATOM     47  C   UNL A   1      44.490  25.795  31.157  1.00  0.00     0.029 A 
ATOM     48  N   UNL A   1      43.388  27.531  32.001  1.00  0.00    -0.354 N 
ATOM     49  N   UNL A   1      42.823  29.599  33.991  1.00  0.00    -0.248 NA
ATOM     50  C   UNL A   1      43.199  30.560  36.090  1.00  0.00     0.031 C 
ATOM     51  C   UNL A   1      44.983  26.048  32.443  1.00  0.00     0.029 A 
ATOM     52  C   UNL A   1      44.311  27.144  32.959  1.00  0.00     0.049 A 
ATOM     53  H   UNL A   1      42.754  28.279  32.098  1.00  0.00     0.167 HD
ATOM     54  C   UNL A   1      43.823  28.891  34.646  1.00  0.00     0.074 A 
ATOM     55  C   UNL A   1      44.031  29.541  35.924  1.00  0.00     0.031 C 
ATOM     56  C   UNL A   1      44.498  27.792  34.230  1.00  0.00     0.031 A 
BRANCH  43  57
ATOM     57  C   UNL A   1      42.913  25.854  28.585  1.00  0.00    -0.014 A 
ATOM     58  C   UNL A   1      43.850  26.079  27.563  1.00  0.00     0.010 A 
ATOM     59  C   UNL A   1      42.203  24.638  28.608  1.00  0.00     0.010 A 
ATOM     60  C   UNL A   1      44.051  25.118  26.567  1.00  0.00     0.020 A 
ATOM     61  C   UNL A   1      42.417  23.667  27.627  1.00  0.00     0.020 A 
ATOM     62  C   UNL A   1      43.331  23.919  26.603  1.00  0.00     0.054 A 
BRANCH  62  63
ATOM     63  S   UNL A   1      43.636  22.669  25.323  1.00  0.00     0.124 S 
ATOM     64  O   UNL A   1      42.312  22.074  25.161  1.00  0.00    -0.237 OA
ATOM     65  O   UNL A   1      44.108  23.468  24.195  1.00  0.00    -0.237 OA
ATOM     66  O   UNL A   1      44.642  21.796  25.925  1.00  0.00    -0.744 OA
ENDBRANCH  62  63
ENDBRANCH  43  57
BRANCH  44  67
ATOM     67  C   UNL A   1      41.091  32.563  35.731  1.00  0.00    -0.014 A 
ATOM     68  C   UNL A   1      41.739  33.809  35.767  1.00  0.00     0.010 A 
ATOM     69  C   UNL A   1      40.109  32.270  36.694  1.00  0.00     0.010 A 
ATOM     70  C   UNL A   1      41.399  34.752  36.741  1.00  0.00     0.020 A 
ATOM     71  C   UNL A   1      39.747  33.220  37.652  1.00  0.00     0.020 A 
ATOM     72  C   UNL A   1      40.399  34.455  37.673  1.00  0.00     0.054 A 
BRANCH  72  73
ATOM     73  S   UNL A   1      39.888  35.727  38.861  1.00  0.00     0.124 S 
ATOM     74  O   UNL A   1      39.596  36.858  37.986  1.00  0.00    -0.237 OA
ATOM     75  O   UNL A   1      38.731  35.116  39.512  1.00  0.00    -0.237 OA
ATOM     76  O   UNL A   1      41.062  35.880  39.717  1.00  0.00    -0.744 OA
ENDBRANCH  72  73
ENDBRANCH  44  67
BRANCH  56  77
ATOM     77  C   UNL A   1      45.533  27.235  35.164  1.00  0.00    -0.014 A 
ATOM     78  C   UNL A   1      45.199  26.236  36.095  1.00  0.00     0.010 A 
ATOM     79  C   UNL A   1      46.857  27.700  35.095  1.00  0.00     0.010 A 
ATOM     80  C   UNL A   1      46.168  25.735  36.967  1.00  0.00     0.020 A 
ATOM     81  C   UNL A   1      47.833  27.188  35.954  1.00  0.00     0.020 A 
ATOM     82  C   UNL A   1      47.477  26.220  36.897  1.00  0.00     0.054 A 
BRANCH  82  83
ATOM     83  S   UNL A   1      48.726  25.542  38.024  1.00  0.00     0.124 S 
ATOM     84  O   UNL A   1      48.633  26.455  39.161  1.00  0.00    -0.237 OA
ATOM     85  O   UNL A   1      48.244  24.186  38.267  1.00  0.00    -0.237 OA
ATOM     86  O   UNL A   1      49.966  25.628  37.256  1.00  0.00    -0.744 OA
ENDBRANCH  82  83
ENDBRANCH  56  77
ENDBRANCH  30  31
ENDBRANCH  23  25
ENDBRANCH  22  23
ENDBRANCH   1  22
TORSDOF 16
ENDMDL
