MODEL 1
REMARK VINA RESULT:     -11.2      0.000      0.000
REMARK SMILES CCc1c(C)nn(CC(=O)N[C@H](C(=O)OCCOC(=O)c2ccc(-c3c4nc(c(-c5ccc(S(=O)(=O)[O-])cc5)c5ccc([nH]5)c(-c5ccc(S(=O)(=O)[O-])cc5)c5nc(c(-c6ccc(S(=O)(=O)[O-])cc6)c6ccc3[nH]6)C=C5)C=C4)cc2)c2c(C)n[nH]c2C)c1C
REMARK SMILES IDX 16 1 15 2 13 3 14 4 12 5 11 6 9 7 10 8 8 10 7 11 3 12 4 13
REMARK SMILES IDX 88 14 5 15 6 16 89 17 2 18 1 19 81 20 82 21 86 22 83 23
REMARK SMILES IDX 84 24 85 25 87 26 17 28 18 29 19 30 20 31 21 32 22 33 80 34
REMARK SMILES IDX 23 35 79 36 24 37 25 38 26 39 73 40 27 41 78 42 72 43 74 44
REMARK SMILES IDX 28 45 77 46 71 47 70 48 29 50 59 51 40 52 58 53 41 54 44 55
REMARK SMILES IDX 57 56 75 57 42 58 43 59 56 61 76 62 45 63 30 64 31 65 39 66
REMARK SMILES IDX 32 67 38 68 33 69 34 70 35 71 36 72 37 73 60 74 61 75 69 76
REMARK SMILES IDX 62 77 68 78 63 79 64 80 65 81 66 82 67 83 46 84 47 85 55 86
REMARK SMILES IDX 48 87 54 88 49 89 50 90 51 91 52 92 53 93
REMARK H PARENT 11 9 85 27 74 49 44 60
REMARK Flexibility Score: inf
ROOT
ATOM      1  C   UNL A   1      36.210  21.363  24.847  1.00  0.00     0.274 C 
ENDROOT
BRANCH   1   2
ATOM      2  O   UNL A   1      35.506  22.379  24.119  1.00  0.00    -0.460 OA
BRANCH   2   3
ATOM      3  C   UNL A   1      34.863  23.294  24.896  1.00  0.00     0.333 C 
ATOM      4  O   UNL A   1      35.291  23.725  25.963  1.00  0.00    -0.249 OA
BRANCH   3   5
ATOM      5  C   UNL A   1      33.480  23.654  24.365  1.00  0.00     0.227 C 
BRANCH   5   6
ATOM      6  N   UNL A   1      33.258  24.124  22.942  1.00  0.00    -0.337 N 
ATOM      7  C   UNL A   1      32.806  25.251  22.287  1.00  0.00     0.242 C 
ATOM      8  O   UNL A   1      33.230  25.318  21.114  1.00  0.00    -0.273 OA
ATOM      9  H   UNL A   1      33.509  23.423  22.299  1.00  0.00     0.164 HD
BRANCH   7  10
ATOM     10  C   UNL A   1      31.842  26.440  22.694  1.00  0.00     0.244 C 
BRANCH  10  11
ATOM     11  N   UNL A   1      31.745  26.946  24.091  1.00  0.00    -0.260 N 
ATOM     12  C   UNL A   1      32.131  29.658  25.424  1.00  0.00    -0.004 A 
ATOM     13  C   UNL A   1      33.346  28.288  26.076  1.00  0.00     0.063 A 
ATOM     14  C   UNL A   1      30.981  28.574  24.098  1.00  0.00     0.039 A 
ATOM     15  C   UNL A   1      34.586  28.591  26.845  1.00  0.00     0.069 C 
ATOM     16  N   UNL A   1      32.995  26.827  25.381  1.00  0.00    -0.177 NA
ATOM     17  C   UNL A   1      29.550  28.472  23.388  1.00  0.00     0.066 C 
BRANCH  12  18
ATOM     18  C   UNL A   1      32.199  31.010  26.293  1.00  0.00     0.036 C 
ATOM     19  C   UNL A   1      30.922  31.868  26.309  1.00  0.00     0.009 C 
ENDBRANCH  12  18
ENDBRANCH  10  11
ENDBRANCH   7  10
ENDBRANCH   5   6
BRANCH   5  20
ATOM     20  C   UNL A   1      32.599  22.495  24.702  1.00  0.00     0.029 A 
ATOM     21  C   UNL A   1      32.500  21.001  23.542  1.00  0.00     0.065 A 
ATOM     22  C   UNL A   1      32.718  21.895  26.342  1.00  0.00     0.038 A 
ATOM     23  C   UNL A   1      32.183  21.197  22.100  1.00  0.00     0.069 C 
ATOM     24  N   UNL A   1      32.724  19.493  24.311  1.00  0.00    -0.180 NA
ATOM     25  N   UNL A   1      32.925  19.838  26.147  1.00  0.00    -0.282 N 
ATOM     26  C   UNL A   1      32.578  22.949  27.580  1.00  0.00     0.066 C 
ATOM     27  H   UNL A   1      33.094  19.183  26.863  1.00  0.00     0.190 HD
ENDBRANCH   5  20
ENDBRANCH   3   5
ENDBRANCH   2   3
ENDBRANCH   1   2
BRANCH   1  28
ATOM     28  C   UNL A   1      37.695  21.710  24.984  1.00  0.00     0.275 C 
BRANCH  28  29
ATOM     29  O   UNL A   1      37.953  22.632  26.062  1.00  0.00    -0.458 OA
BRANCH  29  30
ATOM     30  C   UNL A   1      39.259  22.818  26.372  1.00  0.00     0.338 C 
ATOM     31  O   UNL A   1      40.198  22.089  26.088  1.00  0.00    -0.246 OA
BRANCH  30  32
ATOM     32  C   UNL A   1      39.457  24.155  26.947  1.00  0.00     0.060 A 
ATOM     33  C   UNL A   1      40.116  25.119  26.172  1.00  0.00     0.016 A 
ATOM     34  C   UNL A   1      39.083  24.436  28.258  1.00  0.00     0.016 A 
ATOM     35  C   UNL A   1      40.431  26.359  26.707  1.00  0.00     0.010 A 
ATOM     36  C   UNL A   1      39.398  25.684  28.797  1.00  0.00     0.010 A 
ATOM     37  C   UNL A   1      40.092  26.639  28.032  1.00  0.00    -0.014 A 
BRANCH  37  38
ATOM     38  C   UNL A   1      40.560  27.896  28.650  1.00  0.00     0.031 A 
ATOM     39  C   UNL A   1      41.973  27.974  29.149  1.00  0.00     0.074 A 
ATOM     40  C   UNL A   1      39.727  28.947  28.750  1.00  0.00     0.049 A 
ATOM     41  N   UNL A   1      42.553  28.926  29.829  1.00  0.00    -0.248 NA
ATOM     42  C   UNL A   1      42.847  26.826  28.852  1.00  0.00     0.031 C 
ATOM     43  C   UNL A   1      38.358  28.998  28.231  1.00  0.00     0.029 A 
ATOM     44  N   UNL A   1      39.910  30.174  29.331  1.00  0.00    -0.354 N 
ATOM     45  C   UNL A   1      43.845  28.477  30.077  1.00  0.00     0.074 A 
ATOM     46  C   UNL A   1      43.961  27.164  29.484  1.00  0.00     0.031 C 
ATOM     47  C   UNL A   1      37.824  30.196  28.523  1.00  0.00     0.029 A 
ATOM     48  C   UNL A   1      38.789  30.969  29.298  1.00  0.00     0.049 A 
ATOM     49  H   UNL A   1      40.761  30.459  29.734  1.00  0.00     0.167 HD
ATOM     50  C   UNL A   1      44.836  29.107  30.746  1.00  0.00     0.031 A 
ATOM     51  C   UNL A   1      38.558  32.169  29.866  1.00  0.00     0.031 A 
ATOM     52  C   UNL A   1      44.702  30.421  31.319  1.00  0.00     0.049 A 
ATOM     53  C   UNL A   1      39.660  32.810  30.669  1.00  0.00     0.074 A 
ATOM     54  C   UNL A   1      45.656  31.164  31.991  1.00  0.00     0.029 A 
ATOM     55  N   UNL A   1      43.544  31.183  31.291  1.00  0.00    -0.354 N 
ATOM     56  N   UNL A   1      40.882  32.383  30.886  1.00  0.00    -0.248 NA
ATOM     57  C   UNL A   1      39.352  34.101  31.300  1.00  0.00     0.031 C 
ATOM     58  C   UNL A   1      45.052  32.344  32.436  1.00  0.00     0.029 A 
ATOM     59  C   UNL A   1      43.749  32.374  31.966  1.00  0.00     0.049 A 
ATOM     60  H   UNL A   1      42.702  30.918  30.856  1.00  0.00     0.167 HD
ATOM     61  C   UNL A   1      41.501  33.375  31.640  1.00  0.00     0.074 A 
ATOM     62  C   UNL A   1      40.523  34.426  31.829  1.00  0.00     0.031 C 
ATOM     63  C   UNL A   1      42.765  33.415  32.130  1.00  0.00     0.031 A 
BRANCH  50  64
ATOM     64  C   UNL A   1      46.137  28.374  30.946  1.00  0.00    -0.014 A 
ATOM     65  C   UNL A   1      47.249  28.603  30.118  1.00  0.00     0.010 A 
ATOM     66  C   UNL A   1      46.265  27.494  32.037  1.00  0.00     0.010 A 
ATOM     67  C   UNL A   1      48.462  27.953  30.370  1.00  0.00     0.020 A 
ATOM     68  C   UNL A   1      47.482  26.867  32.310  1.00  0.00     0.020 A 
ATOM     69  C   UNL A   1      48.572  27.096  31.470  1.00  0.00     0.054 A 
BRANCH  69  70
ATOM     70  S   UNL A   1      50.176  26.321  31.812  1.00  0.00     0.124 S 
ATOM     71  O   UNL A   1      50.998  26.831  30.718  1.00  0.00    -0.237 OA
ATOM     72  O   UNL A   1      50.503  26.840  33.138  1.00  0.00    -0.237 OA
ATOM     73  O   UNL A   1      49.890  24.889  31.759  1.00  0.00    -0.744 OA
ENDBRANCH  69  70
ENDBRANCH  50  64
BRANCH  51  74
ATOM     74  C   UNL A   1      37.229  32.829  29.732  1.00  0.00    -0.014 A 
ATOM     75  C   UNL A   1      36.907  33.559  28.574  1.00  0.00     0.010 A 
ATOM     76  C   UNL A   1      36.292  32.765  30.779  1.00  0.00     0.010 A 
ATOM     77  C   UNL A   1      35.696  34.249  28.484  1.00  0.00     0.020 A 
ATOM     78  C   UNL A   1      35.062  33.422  30.678  1.00  0.00     0.020 A 
ATOM     79  C   UNL A   1      34.781  34.178  29.540  1.00  0.00     0.054 A 
BRANCH  79  80
ATOM     80  S   UNL A   1      33.214  35.081  29.399  1.00  0.00     0.124 S 
ATOM     81  O   UNL A   1      32.512  34.312  28.377  1.00  0.00    -0.237 OA
ATOM     82  O   UNL A   1      32.672  34.983  30.751  1.00  0.00    -0.237 OA
ATOM     83  O   UNL A   1      33.629  36.423  28.997  1.00  0.00    -0.744 OA
ENDBRANCH  79  80
ENDBRANCH  51  74
BRANCH  63  84
ATOM     84  C   UNL A   1      43.188  34.664  32.858  1.00  0.00    -0.014 A 
ATOM     85  C   UNL A   1      43.748  35.762  32.181  1.00  0.00     0.010 A 
ATOM     86  C   UNL A   1      42.970  34.754  34.246  1.00  0.00     0.010 A 
ATOM     87  C   UNL A   1      44.119  36.910  32.885  1.00  0.00     0.020 A 
ATOM     88  C   UNL A   1      43.303  35.914  34.947  1.00  0.00     0.020 A 
ATOM     89  C   UNL A   1      43.891  36.980  34.264  1.00  0.00     0.054 A 
BRANCH  89  90
ATOM     90  S   UNL A   1      44.344  38.497  35.146  1.00  0.00     0.124 S 
ATOM     91  O   UNL A   1      43.878  38.213  36.500  1.00  0.00    -0.237 OA
ATOM     92  O   UNL A   1      45.794  38.543  34.977  1.00  0.00    -0.237 OA
ATOM     93  O   UNL A   1      43.606  39.543  34.440  1.00  0.00    -0.744 OA
ENDBRANCH  89  90
ENDBRANCH  63  84
ENDBRANCH  37  38
ENDBRANCH  30  32
ENDBRANCH  29  30
ENDBRANCH  28  29
ENDBRANCH   1  28
TORSDOF 19
ENDMDL
MODEL 2
REMARK VINA RESULT:     -11.1      2.476      8.267
REMARK SMILES CCc1c(C)nn(CC(=O)N[C@H](C(=O)OCCOC(=O)c2ccc(-c3c4nc(c(-c5ccc(S(=O)(=O)[O-])cc5)c5ccc([nH]5)c(-c5ccc(S(=O)(=O)[O-])cc5)c5nc(c(-c6ccc(S(=O)(=O)[O-])cc6)c6ccc3[nH]6)C=C5)C=C4)cc2)c2c(C)n[nH]c2C)c1C
REMARK SMILES IDX 16 1 15 2 13 3 14 4 12 5 11 6 9 7 10 8 8 10 7 11 3 12 4 13
REMARK SMILES IDX 88 14 5 15 6 16 89 17 2 18 1 19 81 20 82 21 86 22 83 23
REMARK SMILES IDX 84 24 85 25 87 26 17 28 18 29 19 30 20 31 21 32 22 33 80 34
REMARK SMILES IDX 23 35 79 36 24 37 25 38 26 39 73 40 27 41 78 42 72 43 74 44
REMARK SMILES IDX 28 45 77 46 71 47 70 48 29 50 59 51 40 52 58 53 41 54 44 55
REMARK SMILES IDX 57 56 75 57 42 58 43 59 56 61 76 62 45 63 30 64 31 65 39 66
REMARK SMILES IDX 32 67 38 68 33 69 34 70 35 71 36 72 37 73 60 74 61 75 69 76
REMARK SMILES IDX 62 77 68 78 63 79 64 80 65 81 66 82 67 83 46 84 47 85 55 86
REMARK SMILES IDX 48 87 54 88 49 89 50 90 51 91 52 92 53 93
REMARK H PARENT 11 9 85 27 74 49 44 60
REMARK Flexibility Score: inf
ROOT
ATOM      1  C   UNL A   1      35.905  21.785  24.598  1.00  0.00     0.274 C 
ENDROOT
BRANCH   1   2
ATOM      2  O   UNL A   1      35.518  23.062  24.070  1.00  0.00    -0.460 OA
BRANCH   2   3
ATOM      3  C   UNL A   1      34.803  23.840  24.930  1.00  0.00     0.333 C 
ATOM      4  O   UNL A   1      35.029  23.938  26.133  1.00  0.00    -0.249 OA
BRANCH   3   5
ATOM      5  C   UNL A   1      33.599  24.502  24.268  1.00  0.00     0.227 C 
BRANCH   5   6
ATOM      6  N   UNL A   1      33.703  25.230  22.944  1.00  0.00    -0.337 N 
ATOM      7  C   UNL A   1      33.008  26.189  22.236  1.00  0.00     0.242 C 
ATOM      8  O   UNL A   1      33.730  26.779  21.405  1.00  0.00    -0.273 OA
ATOM      9  H   UNL A   1      34.497  24.933  22.443  1.00  0.00     0.164 HD
BRANCH   7  10
ATOM     10  C   UNL A   1      31.497  26.663  22.232  1.00  0.00     0.244 C 
BRANCH  10  11
ATOM     11  N   UNL A   1      30.850  27.277  23.424  1.00  0.00    -0.260 N 
ATOM     12  C   UNL A   1      31.536  29.587  25.288  1.00  0.00    -0.004 A 
ATOM     13  C   UNL A   1      31.411  27.869  26.188  1.00  0.00     0.063 A 
ATOM     14  C   UNL A   1      31.024  29.065  23.359  1.00  0.00     0.039 A 
ATOM     15  C   UNL A   1      31.964  27.614  27.548  1.00  0.00     0.069 C 
ATOM     16  N   UNL A   1      30.928  26.694  25.126  1.00  0.00    -0.177 NA
ATOM     17  C   UNL A   1      30.393  29.593  21.986  1.00  0.00     0.066 C 
BRANCH  12  18
ATOM     18  C   UNL A   1      31.675  30.816  26.316  1.00  0.00     0.036 C 
ATOM     19  C   UNL A   1      33.046  30.975  26.998  1.00  0.00     0.009 C 
ENDBRANCH  12  18
ENDBRANCH  10  11
ENDBRANCH   7  10
ENDBRANCH   5   6
BRANCH   5  20
ATOM     20  C   UNL A   1      32.527  23.460  24.237  1.00  0.00     0.029 A 
ATOM     21  C   UNL A   1      32.595  22.056  22.967  1.00  0.00     0.065 A 
ATOM     22  C   UNL A   1      32.090  22.766  25.783  1.00  0.00     0.038 A 
ATOM     23  C   UNL A   1      32.738  22.369  21.518  1.00  0.00     0.069 C 
ATOM     24  N   UNL A   1      32.404  20.495  23.629  1.00  0.00    -0.180 NA
ATOM     25  N   UNL A   1      32.100  20.713  25.470  1.00  0.00    -0.282 N 
ATOM     26  C   UNL A   1      31.721  23.763  27.020  1.00  0.00     0.066 C 
ATOM     27  H   UNL A   1      31.974  20.004  26.144  1.00  0.00     0.190 HD
ENDBRANCH   5  20
ENDBRANCH   3   5
ENDBRANCH   2   3
ENDBRANCH   1   2
BRANCH   1  28
ATOM     28  C   UNL A   1      37.425  21.692  24.757  1.00  0.00     0.275 C 
BRANCH  28  29
ATOM     29  O   UNL A   1      37.894  22.293  25.980  1.00  0.00    -0.458 OA
BRANCH  29  30
ATOM     30  C   UNL A   1      39.214  22.132  26.243  1.00  0.00     0.338 C 
ATOM     31  O   UNL A   1      39.933  21.212  25.882  1.00  0.00    -0.246 OA
BRANCH  30  32
ATOM     32  C   UNL A   1      39.755  23.343  26.874  1.00  0.00     0.060 A 
ATOM     33  C   UNL A   1      39.405  24.586  26.331  1.00  0.00     0.016 A 
ATOM     34  C   UNL A   1      40.662  23.260  27.927  1.00  0.00     0.016 A 
ATOM     35  C   UNL A   1      39.979  25.753  26.814  1.00  0.00     0.010 A 
ATOM     36  C   UNL A   1      41.238  24.434  28.415  1.00  0.00     0.010 A 
ATOM     37  C   UNL A   1      40.916  25.679  27.845  1.00  0.00    -0.014 A 
BRANCH  37  38
ATOM     38  C   UNL A   1      41.640  26.900  28.258  1.00  0.00     0.031 A 
ATOM     39  C   UNL A   1      40.858  28.040  28.842  1.00  0.00     0.074 A 
ATOM     40  C   UNL A   1      42.975  26.970  28.116  1.00  0.00     0.049 A 
ATOM     41  N   UNL A   1      41.266  29.240  29.155  1.00  0.00    -0.248 NA
ATOM     42  C   UNL A   1      39.427  27.802  29.099  1.00  0.00     0.031 C 
ATOM     43  C   UNL A   1      43.836  25.891  27.627  1.00  0.00     0.029 A 
ATOM     44  N   UNL A   1      43.841  28.003  28.362  1.00  0.00    -0.354 N 
ATOM     45  C   UNL A   1      40.137  29.914  29.607  1.00  0.00     0.074 A 
ATOM     46  C   UNL A   1      39.026  28.994  29.518  1.00  0.00     0.031 C 
ATOM     47  C   UNL A   1      45.108  26.321  27.606  1.00  0.00     0.029 A 
ATOM     48  C   UNL A   1      45.142  27.720  28.021  1.00  0.00     0.049 A 
ATOM     49  H   UNL A   1      43.559  28.863  28.747  1.00  0.00     0.167 HD
ATOM     50  C   UNL A   1      40.044  31.189  30.048  1.00  0.00     0.031 A 
ATOM     51  C   UNL A   1      46.229  28.516  28.008  1.00  0.00     0.031 A 
ATOM     52  C   UNL A   1      41.166  32.085  30.140  1.00  0.00     0.049 A 
ATOM     53  C   UNL A   1      46.076  29.953  28.434  1.00  0.00     0.074 A 
ATOM     54  C   UNL A   1      41.187  33.388  30.603  1.00  0.00     0.029 A 
ATOM     55  N   UNL A   1      42.463  31.774  29.758  1.00  0.00    -0.354 N 
ATOM     56  N   UNL A   1      45.007  30.576  28.872  1.00  0.00    -0.248 NA
ATOM     57  C   UNL A   1      47.279  30.794  28.369  1.00  0.00     0.031 C 
ATOM     58  C   UNL A   1      42.480  33.890  30.430  1.00  0.00     0.029 A 
ATOM     59  C   UNL A   1      43.284  32.873  29.941  1.00  0.00     0.049 A 
ATOM     60  H   UNL A   1      42.755  30.902  29.408  1.00  0.00     0.167 HD
ATOM     61  C   UNL A   1      45.421  31.869  29.177  1.00  0.00     0.074 A 
ATOM     62  C   UNL A   1      46.839  31.931  28.887  1.00  0.00     0.031 C 
ATOM     63  C   UNL A   1      44.696  32.909  29.658  1.00  0.00     0.031 A 
BRANCH  50  64
ATOM     64  C   UNL A   1      38.682  31.715  30.418  1.00  0.00    -0.014 A 
ATOM     65  C   UNL A   1      38.230  31.728  31.749  1.00  0.00     0.010 A 
ATOM     66  C   UNL A   1      37.872  32.278  29.414  1.00  0.00     0.010 A 
ATOM     67  C   UNL A   1      36.987  32.283  32.066  1.00  0.00     0.020 A 
ATOM     68  C   UNL A   1      36.642  32.861  29.731  1.00  0.00     0.020 A 
ATOM     69  C   UNL A   1      36.205  32.853  31.056  1.00  0.00     0.054 A 
BRANCH  69  70
ATOM     70  S   UNL A   1      34.627  33.627  31.508  1.00  0.00     0.124 S 
ATOM     71  O   UNL A   1      34.015  32.598  32.346  1.00  0.00    -0.237 OA
ATOM     72  O   UNL A   1      35.055  34.834  32.209  1.00  0.00    -0.237 OA
ATOM     73  O   UNL A   1      33.970  33.853  30.223  1.00  0.00    -0.744 OA
ENDBRANCH  69  70
ENDBRANCH  50  64
BRANCH  51  74
ATOM     74  C   UNL A   1      47.546  27.994  27.546  1.00  0.00    -0.014 A 
ATOM     75  C   UNL A   1      47.891  28.029  26.184  1.00  0.00     0.010 A 
ATOM     76  C   UNL A   1      48.447  27.420  28.462  1.00  0.00     0.010 A 
ATOM     77  C   UNL A   1      49.088  27.461  25.740  1.00  0.00     0.020 A 
ATOM     78  C   UNL A   1      49.664  26.886  28.028  1.00  0.00     0.020 A 
ATOM     79  C   UNL A   1      49.966  26.890  26.666  1.00  0.00     0.054 A 
BRANCH  79  80
ATOM     80  S   UNL A   1      51.515  26.161  26.065  1.00  0.00     0.124 S 
ATOM     81  O   UNL A   1      52.517  27.012  26.701  1.00  0.00    -0.237 OA
ATOM     82  O   UNL A   1      51.434  24.793  26.568  1.00  0.00    -0.237 OA
ATOM     83  O   UNL A   1      51.414  26.293  24.614  1.00  0.00    -0.744 OA
ENDBRANCH  79  80
ENDBRANCH  51  74
BRANCH  63  84
ATOM     84  C   UNL A   1      45.436  34.186  29.967  1.00  0.00    -0.014 A 
ATOM     85  C   UNL A   1      46.087  34.385  31.197  1.00  0.00     0.010 A 
ATOM     86  C   UNL A   1      45.519  35.185  28.979  1.00  0.00     0.010 A 
ATOM     87  C   UNL A   1      46.773  35.576  31.447  1.00  0.00     0.020 A 
ATOM     88  C   UNL A   1      46.236  36.359  29.210  1.00  0.00     0.020 A 
ATOM     89  C   UNL A   1      46.846  36.555  30.450  1.00  0.00     0.054 A 
BRANCH  89  90
ATOM     90  S   UNL A   1      47.777  38.073  30.786  1.00  0.00     0.124 S 
ATOM     91  O   UNL A   1      48.903  37.573  31.570  1.00  0.00    -0.237 OA
ATOM     92  O   UNL A   1      48.107  38.547  29.445  1.00  0.00    -0.237 OA
ATOM     93  O   UNL A   1      46.828  38.907  31.521  1.00  0.00    -0.744 OA
ENDBRANCH  89  90
ENDBRANCH  63  84
ENDBRANCH  37  38
ENDBRANCH  30  32
ENDBRANCH  29  30
ENDBRANCH  28  29
ENDBRANCH   1  28
TORSDOF 19
ENDMDL
MODEL 3
REMARK VINA RESULT:     -11.0      1.850      2.440
REMARK SMILES CCc1c(C)nn(CC(=O)N[C@H](C(=O)OCCOC(=O)c2ccc(-c3c4nc(c(-c5ccc(S(=O)(=O)[O-])cc5)c5ccc([nH]5)c(-c5ccc(S(=O)(=O)[O-])cc5)c5nc(c(-c6ccc(S(=O)(=O)[O-])cc6)c6ccc3[nH]6)C=C5)C=C4)cc2)c2c(C)n[nH]c2C)c1C
REMARK SMILES IDX 16 1 15 2 13 3 14 4 12 5 11 6 9 7 10 8 8 10 7 11 3 12 4 13
REMARK SMILES IDX 88 14 5 15 6 16 89 17 2 18 1 19 81 20 82 21 86 22 83 23
REMARK SMILES IDX 84 24 85 25 87 26 17 28 18 29 19 30 20 31 21 32 22 33 80 34
REMARK SMILES IDX 23 35 79 36 24 37 25 38 26 39 73 40 27 41 78 42 72 43 74 44
REMARK SMILES IDX 28 45 77 46 71 47 70 48 29 50 59 51 40 52 58 53 41 54 44 55
REMARK SMILES IDX 57 56 75 57 42 58 43 59 56 61 76 62 45 63 30 64 31 65 39 66
REMARK SMILES IDX 32 67 38 68 33 69 34 70 35 71 36 72 37 73 60 74 61 75 69 76
REMARK SMILES IDX 62 77 68 78 63 79 64 80 65 81 66 82 67 83 46 84 47 85 55 86
REMARK SMILES IDX 48 87 54 88 49 89 50 90 51 91 52 92 53 93
REMARK H PARENT 11 9 85 27 74 49 44 60
REMARK Flexibility Score: inf
ROOT
ATOM      1  C   UNL A   1      36.122  21.321  25.182  1.00  0.00     0.274 C 
ENDROOT
BRANCH   1   2
ATOM      2  O   UNL A   1      35.334  22.152  24.318  1.00  0.00    -0.460 OA
BRANCH   2   3
ATOM      3  C   UNL A   1      34.814  23.261  24.914  1.00  0.00     0.333 C 
ATOM      4  O   UNL A   1      35.350  23.874  25.833  1.00  0.00    -0.249 OA
BRANCH   3   5
ATOM      5  C   UNL A   1      33.422  23.611  24.401  1.00  0.00     0.227 C 
BRANCH   5   6
ATOM      6  N   UNL A   1      33.178  24.090  22.985  1.00  0.00    -0.337 N 
ATOM      7  C   UNL A   1      32.959  25.280  22.322  1.00  0.00     0.242 C 
ATOM      8  O   UNL A   1      33.262  25.211  21.113  1.00  0.00    -0.273 OA
ATOM      9  H   UNL A   1      33.177  23.334  22.356  1.00  0.00     0.164 HD
BRANCH   7  10
ATOM     10  C   UNL A   1      32.373  26.685  22.762  1.00  0.00     0.244 C 
BRANCH  10  11
ATOM     11  N   UNL A   1      32.181  27.057  24.190  1.00  0.00    -0.260 N 
ATOM     12  C   UNL A   1      32.089  29.684  25.730  1.00  0.00    -0.004 A 
ATOM     13  C   UNL A   1      33.514  28.494  26.303  1.00  0.00     0.063 A 
ATOM     14  C   UNL A   1      31.150  28.527  24.303  1.00  0.00     0.039 A 
ATOM     15  C   UNL A   1      34.678  28.942  27.117  1.00  0.00     0.069 C 
ATOM     16  N   UNL A   1      33.422  27.052  25.494  1.00  0.00    -0.177 NA
ATOM     17  C   UNL A   1      29.763  28.240  23.559  1.00  0.00     0.066 C 
BRANCH  12  18
ATOM     18  C   UNL A   1      31.919  30.957  26.699  1.00  0.00     0.036 C 
ATOM     19  C   UNL A   1      31.053  32.107  26.157  1.00  0.00     0.009 C 
ENDBRANCH  12  18
ENDBRANCH  10  11
ENDBRANCH   7  10
ENDBRANCH   5   6
BRANCH   5  20
ATOM     20  C   UNL A   1      32.557  22.439  24.738  1.00  0.00     0.029 A 
ATOM     21  C   UNL A   1      32.450  20.959  23.560  1.00  0.00     0.065 A 
ATOM     22  C   UNL A   1      32.710  21.818  26.367  1.00  0.00     0.038 A 
ATOM     23  C   UNL A   1      32.105  21.172  22.127  1.00  0.00     0.069 C 
ATOM     24  N   UNL A   1      32.700  19.444  24.304  1.00  0.00    -0.180 NA
ATOM     25  N   UNL A   1      32.932  19.766  26.141  1.00  0.00    -0.282 N 
ATOM     26  C   UNL A   1      32.584  22.854  27.622  1.00  0.00     0.066 C 
ATOM     27  H   UNL A   1      33.119  19.103  26.846  1.00  0.00     0.190 HD
ENDBRANCH   5  20
ENDBRANCH   3   5
ENDBRANCH   2   3
ENDBRANCH   1   2
BRANCH   1  28
ATOM     28  C   UNL A   1      37.618  21.547  24.951  1.00  0.00     0.275 C 
BRANCH  28  29
ATOM     29  O   UNL A   1      38.145  22.630  25.743  1.00  0.00    -0.458 OA
BRANCH  29  30
ATOM     30  C   UNL A   1      39.244  22.335  26.481  1.00  0.00     0.338 C 
ATOM     31  O   UNL A   1      39.678  21.224  26.750  1.00  0.00    -0.246 OA
BRANCH  30  32
ATOM     32  C   UNL A   1      40.002  23.559  26.772  1.00  0.00     0.060 A 
ATOM     33  C   UNL A   1      40.668  23.650  28.001  1.00  0.00     0.016 A 
ATOM     34  C   UNL A   1      39.988  24.638  25.892  1.00  0.00     0.016 A 
ATOM     35  C   UNL A   1      41.300  24.826  28.374  1.00  0.00     0.010 A 
ATOM     36  C   UNL A   1      40.626  25.821  26.266  1.00  0.00     0.010 A 
ATOM     37  C   UNL A   1      41.263  25.926  27.516  1.00  0.00    -0.014 A 
BRANCH  37  38
ATOM     38  C   UNL A   1      41.802  27.223  27.974  1.00  0.00     0.031 A 
ATOM     39  C   UNL A   1      43.288  27.435  27.955  1.00  0.00     0.074 A 
ATOM     40  C   UNL A   1      40.966  28.190  28.390  1.00  0.00     0.049 A 
ATOM     41  N   UNL A   1      43.981  28.438  28.421  1.00  0.00    -0.248 NA
ATOM     42  C   UNL A   1      44.102  26.375  27.337  1.00  0.00     0.031 C 
ATOM     43  C   UNL A   1      39.503  28.111  28.380  1.00  0.00     0.029 A 
ATOM     44  N   UNL A   1      41.229  29.430  28.911  1.00  0.00    -0.354 N 
ATOM     45  C   UNL A   1      45.312  28.114  28.192  1.00  0.00     0.074 A 
ATOM     46  C   UNL A   1      45.332  26.817  27.554  1.00  0.00     0.031 C 
ATOM     47  C   UNL A   1      39.000  29.253  28.877  1.00  0.00     0.029 A 
ATOM     48  C   UNL A   1      40.100  30.115  29.294  1.00  0.00     0.049 A 
ATOM     49  H   UNL A   1      42.138  29.794  29.002  1.00  0.00     0.167 HD
ATOM     50  C   UNL A   1      46.414  28.836  28.496  1.00  0.00     0.031 A 
ATOM     51  C   UNL A   1      39.976  31.288  29.944  1.00  0.00     0.031 A 
ATOM     52  C   UNL A   1      46.372  30.132  29.122  1.00  0.00     0.049 A 
ATOM     53  C   UNL A   1      41.226  32.032  30.336  1.00  0.00     0.074 A 
ATOM     54  C   UNL A   1      47.429  30.963  29.445  1.00  0.00     0.029 A 
ATOM     55  N   UNL A   1      45.213  30.781  29.521  1.00  0.00    -0.354 N 
ATOM     56  N   UNL A   1      42.480  31.723  30.102  1.00  0.00    -0.248 NA
ATOM     57  C   UNL A   1      41.044  33.288  31.076  1.00  0.00     0.031 C 
ATOM     58  C   UNL A   1      46.915  32.080  30.109  1.00  0.00     0.029 A 
ATOM     59  C   UNL A   1      45.532  31.987  30.121  1.00  0.00     0.049 A 
ATOM     60  H   UNL A   1      44.300  30.436  29.397  1.00  0.00     0.167 HD
ATOM     61  C   UNL A   1      43.232  32.769  30.627  1.00  0.00     0.074 A 
ATOM     62  C   UNL A   1      42.291  33.723  31.176  1.00  0.00     0.031 C 
ATOM     63  C   UNL A   1      44.579  32.929  30.649  1.00  0.00     0.031 A 
BRANCH  50  64
ATOM     64  C   UNL A   1      47.763  28.230  28.209  1.00  0.00    -0.014 A 
ATOM     65  C   UNL A   1      48.431  27.431  29.153  1.00  0.00     0.010 A 
ATOM     66  C   UNL A   1      48.335  28.407  26.934  1.00  0.00     0.010 A 
ATOM     67  C   UNL A   1      49.652  26.831  28.831  1.00  0.00     0.020 A 
ATOM     68  C   UNL A   1      49.539  27.785  26.599  1.00  0.00     0.020 A 
ATOM     69  C   UNL A   1      50.194  27.005  27.553  1.00  0.00     0.054 A 
BRANCH  69  70
ATOM     70  S   UNL A   1      51.745  26.159  27.142  1.00  0.00     0.124 S 
ATOM     71  O   UNL A   1      52.493  26.274  28.391  1.00  0.00    -0.237 OA
ATOM     72  O   UNL A   1      51.291  24.812  26.804  1.00  0.00    -0.237 OA
ATOM     73  O   UNL A   1      52.279  26.934  26.024  1.00  0.00    -0.744 OA
ENDBRANCH  69  70
ENDBRANCH  50  64
BRANCH  51  74
ATOM     74  C   UNL A   1      38.630  31.818  30.300  1.00  0.00    -0.014 A 
ATOM     75  C   UNL A   1      37.927  32.644  29.405  1.00  0.00     0.010 A 
ATOM     76  C   UNL A   1      38.060  31.535  31.555  1.00  0.00     0.010 A 
ATOM     77  C   UNL A   1      36.705  33.211  29.773  1.00  0.00     0.020 A 
ATOM     78  C   UNL A   1      36.819  32.069  31.913  1.00  0.00     0.020 A 
ATOM     79  C   UNL A   1      36.159  32.922  31.028  1.00  0.00     0.054 A 
BRANCH  79  80
ATOM     80  S   UNL A   1      34.570  33.669  31.482  1.00  0.00     0.124 S 
ATOM     81  O   UNL A   1      33.985  32.641  32.337  1.00  0.00    -0.237 OA
ATOM     82  O   UNL A   1      34.981  34.897  32.156  1.00  0.00    -0.237 OA
ATOM     83  O   UNL A   1      33.905  33.865  30.196  1.00  0.00    -0.744 OA
ENDBRANCH  79  80
ENDBRANCH  51  74
BRANCH  63  84
ATOM     84  C   UNL A   1      45.116  34.214  31.225  1.00  0.00    -0.014 A 
ATOM     85  C   UNL A   1      45.305  35.359  30.432  1.00  0.00     0.010 A 
ATOM     86  C   UNL A   1      45.387  34.285  32.605  1.00  0.00     0.010 A 
ATOM     87  C   UNL A   1      45.793  36.538  31.000  1.00  0.00     0.020 A 
ATOM     88  C   UNL A   1      45.838  35.472  33.184  1.00  0.00     0.020 A 
ATOM     89  C   UNL A   1      46.054  36.588  32.373  1.00  0.00     0.054 A 
BRANCH  89  90
ATOM     90  S   UNL A   1      46.648  38.142  33.092  1.00  0.00     0.124 S 
ATOM     91  O   UNL A   1      47.300  37.682  34.316  1.00  0.00    -0.237 OA
ATOM     92  O   UNL A   1      47.544  38.650  32.056  1.00  0.00    -0.237 OA
ATOM     93  O   UNL A   1      45.428  38.922  33.291  1.00  0.00    -0.744 OA
ENDBRANCH  89  90
ENDBRANCH  63  84
ENDBRANCH  37  38
ENDBRANCH  30  32
ENDBRANCH  29  30
ENDBRANCH  28  29
ENDBRANCH   1  28
TORSDOF 19
ENDMDL
