MODEL 1
REMARK VINA RESULT:     -10.1      0.000      0.000
REMARK SMILES COc1cccc(O[C@@H](C)c2nnc(SCC(=O)OCCOC(=O)c3ccc(-c4c5nc(c(-c6ccc(S(=O)(=O)[O-])cc6)c6ccc([nH]6)c(-c6ccc(S(=O)(=O)[O-])cc6)c6nc(c(-c7ccc(S(=O)(=O)[O-])cc7)c7ccc4[nH]7)C=C6)C=C5)cc3)n2C)c1
REMARK SMILES IDX 19 1 17 2 18 3 16 4 15 5 14 6 11 7 12 8 85 9 13 10 86 11
REMARK SMILES IDX 9 12 10 13 8 14 7 15 3 16 4 17 87 18 5 19 6 20 2 21 1 22
REMARK SMILES IDX 20 23 21 24 22 25 23 26 24 27 25 28 26 29 84 30 27 31 83 32
REMARK SMILES IDX 28 33 29 34 30 35 77 36 31 37 82 38 76 39 78 40 32 41 81 42
REMARK SMILES IDX 75 43 74 44 33 46 63 47 44 48 62 49 45 50 48 51 61 52 79 53
REMARK SMILES IDX 46 54 47 55 60 57 80 58 49 59 34 60 35 61 43 62 36 63 42 64
REMARK SMILES IDX 37 65 38 66 39 67 40 68 41 69 64 70 65 71 73 72 66 73 72 74
REMARK SMILES IDX 67 75 68 76 69 77 70 78 71 79 50 80 51 81 59 82 52 83 58 84
REMARK SMILES IDX 53 85 54 86 55 87 56 88 57 89
REMARK H PARENT 78 45 48 56
REMARK Flexibility Score: inf
ROOT
ATOM      1  O   UNL A   1      37.377  23.775  24.631  1.00  0.00    -0.461 OA
ENDROOT
BRANCH   1   2
ATOM      2  C   UNL A   1      36.694  22.956  23.799  1.00  0.00     0.316 C 
ATOM      3  O   UNL A   1      36.821  22.965  22.575  1.00  0.00    -0.251 OA
BRANCH   2   4
ATOM      4  C   UNL A   1      35.669  22.061  24.445  1.00  0.00     0.200 C 
BRANCH   4   5
ATOM      5  S   UNL A   1      33.929  22.380  24.186  1.00  0.00    -0.074 SA
BRANCH   5   6
ATOM      6  C   UNL A   1      33.730  23.833  23.268  1.00  0.00     0.191 A 
ATOM      7  C   UNL A   1      33.342  25.904  22.616  1.00  0.00     0.174 A 
ATOM      8  N   UNL A   1      33.065  25.073  21.622  1.00  0.00    -0.130 NA
ATOM      9  N   UNL A   1      33.763  25.143  23.695  1.00  0.00    -0.306 N 
ATOM     10  N   UNL A   1      33.300  23.793  22.030  1.00  0.00    -0.123 NA
ATOM     11  C   UNL A   1      34.162  25.583  25.000  1.00  0.00     0.154 C 
BRANCH   7  12
ATOM     12  C   UNL A   1      33.217  27.401  22.448  1.00  0.00     0.238 C 
ATOM     13  C   UNL A   1      34.466  28.267  22.526  1.00  0.00     0.062 C 
BRANCH  12  14
ATOM     14  O   UNL A   1      32.036  27.876  23.122  1.00  0.00    -0.483 OA
BRANCH  14  15
ATOM     15  C   UNL A   1      32.102  28.236  24.434  1.00  0.00     0.124 A 
ATOM     16  C   UNL A   1      33.119  29.387  26.292  1.00  0.00     0.122 A 
ATOM     17  C   UNL A   1      32.288  28.725  27.188  1.00  0.00     0.046 A 
ATOM     18  C   UNL A   1      33.061  29.109  24.927  1.00  0.00     0.092 A 
ATOM     19  C   UNL A   1      31.355  27.807  26.703  1.00  0.00     0.008 A 
ATOM     20  C   UNL A   1      31.261  27.567  25.327  1.00  0.00     0.047 A 
BRANCH  16  21
ATOM     21  O   UNL A   1      34.080  30.246  26.755  1.00  0.00    -0.497 OA
ATOM     22  C   UNL A   1      33.491  31.208  27.633  1.00  0.00     0.278 C 
ENDBRANCH  16  21
ENDBRANCH  14  15
ENDBRANCH  12  14
ENDBRANCH   7  12
ENDBRANCH   5   6
ENDBRANCH   4   5
ENDBRANCH   2   4
ENDBRANCH   1   2
BRANCH   1  23
ATOM     23  C   UNL A   1      37.504  23.315  25.993  1.00  0.00     0.274 C 
BRANCH  23  24
ATOM     24  C   UNL A   1      38.887  23.578  26.592  1.00  0.00     0.275 C 
BRANCH  24  25
ATOM     25  O   UNL A   1      38.858  24.610  27.596  1.00  0.00    -0.458 OA
BRANCH  25  26
ATOM     26  C   UNL A   1      39.626  25.681  27.305  1.00  0.00     0.338 C 
ATOM     27  O   UNL A   1      40.315  25.844  26.312  1.00  0.00    -0.246 OA
BRANCH  26  28
ATOM     28  C   UNL A   1      39.547  26.729  28.331  1.00  0.00     0.060 A 
ATOM     29  C   UNL A   1      40.399  27.831  28.252  1.00  0.00     0.016 A 
ATOM     30  C   UNL A   1      38.832  26.469  29.502  1.00  0.00     0.016 A 
ATOM     31  C   UNL A   1      40.602  28.626  29.378  1.00  0.00     0.010 A 
ATOM     32  C   UNL A   1      38.985  27.308  30.607  1.00  0.00     0.010 A 
ATOM     33  C   UNL A   1      39.895  28.375  30.567  1.00  0.00    -0.014 A 
BRANCH  33  34
ATOM     34  C   UNL A   1      40.052  29.275  31.736  1.00  0.00     0.031 A 
ATOM     35  C   UNL A   1      41.114  29.047  32.777  1.00  0.00     0.074 A 
ATOM     36  C   UNL A   1      39.188  30.299  31.873  1.00  0.00     0.049 A 
ATOM     37  N   UNL A   1      41.342  29.718  33.878  1.00  0.00    -0.248 NA
ATOM     38  C   UNL A   1      42.049  27.935  32.553  1.00  0.00     0.031 C 
ATOM     39  C   UNL A   1      38.108  30.619  30.936  1.00  0.00     0.029 A 
ATOM     40  N   UNL A   1      39.064  31.240  32.861  1.00  0.00    -0.354 N 
ATOM     41  C   UNL A   1      42.439  29.111  34.479  1.00  0.00     0.074 A 
ATOM     42  C   UNL A   1      42.830  28.009  33.624  1.00  0.00     0.031 C 
ATOM     43  C   UNL A   1      37.420  31.670  31.404  1.00  0.00     0.029 A 
ATOM     44  C   UNL A   1      37.980  32.064  32.693  1.00  0.00     0.049 A 
ATOM     45  H   UNL A   1      39.691  31.317  33.617  1.00  0.00     0.167 HD
ATOM     46  C   UNL A   1      43.061  29.444  35.635  1.00  0.00     0.031 A 
ATOM     47  C   UNL A   1      37.453  33.000  33.503  1.00  0.00     0.031 A 
ATOM     48  C   UNL A   1      42.655  30.523  36.497  1.00  0.00     0.049 A 
ATOM     49  C   UNL A   1      38.104  33.288  34.820  1.00  0.00     0.074 A 
ATOM     50  C   UNL A   1      43.263  30.972  37.658  1.00  0.00     0.029 A 
ATOM     51  N   UNL A   1      41.526  31.303  36.312  1.00  0.00    -0.354 N 
ATOM     52  N   UNL A   1      39.175  32.740  35.339  1.00  0.00    -0.248 NA
ATOM     53  C   UNL A   1      37.474  34.314  35.658  1.00  0.00     0.031 C 
ATOM     54  C   UNL A   1      42.471  31.991  38.202  1.00  0.00     0.029 A 
ATOM     55  C   UNL A   1      41.394  32.202  37.358  1.00  0.00     0.049 A 
ATOM     56  H   UNL A   1      40.907  31.229  35.550  1.00  0.00     0.167 HD
ATOM     57  C   UNL A   1      39.351  33.358  36.570  1.00  0.00     0.074 A 
ATOM     58  C   UNL A   1      38.284  34.329  36.709  1.00  0.00     0.031 C 
ATOM     59  C   UNL A   1      40.311  33.138  37.499  1.00  0.00     0.031 A 
BRANCH  46  60
ATOM     60  C   UNL A   1      44.246  28.622  36.059  1.00  0.00    -0.014 A 
ATOM     61  C   UNL A   1      44.077  27.480  36.861  1.00  0.00     0.010 A 
ATOM     62  C   UNL A   1      45.526  28.938  35.569  1.00  0.00     0.010 A 
ATOM     63  C   UNL A   1      45.173  26.672  37.174  1.00  0.00     0.020 A 
ATOM     64  C   UNL A   1      46.622  28.126  35.872  1.00  0.00     0.020 A 
ATOM     65  C   UNL A   1      46.439  27.001  36.679  1.00  0.00     0.054 A 
BRANCH  65  66
ATOM     66  S   UNL A   1      47.836  25.912  37.072  1.00  0.00     0.124 S 
ATOM     67  O   UNL A   1      47.638  24.824  36.118  1.00  0.00    -0.237 OA
ATOM     68  O   UNL A   1      48.991  26.769  36.818  1.00  0.00    -0.237 OA
ATOM     69  O   UNL A   1      47.619  25.562  38.473  1.00  0.00    -0.744 OA
ENDBRANCH  65  66
ENDBRANCH  46  60
BRANCH  47  70
ATOM     70  C   UNL A   1      36.194  33.671  33.096  1.00  0.00    -0.014 A 
ATOM     71  C   UNL A   1      34.946  33.109  33.413  1.00  0.00     0.010 A 
ATOM     72  C   UNL A   1      36.249  34.925  32.460  1.00  0.00     0.010 A 
ATOM     73  C   UNL A   1      33.770  33.799  33.108  1.00  0.00     0.020 A 
ATOM     74  C   UNL A   1      35.078  35.625  32.174  1.00  0.00     0.020 A 
ATOM     75  C   UNL A   1      33.844  35.056  32.497  1.00  0.00     0.054 A 
BRANCH  75  76
ATOM     76  S   UNL A   1      32.319  35.996  32.208  1.00  0.00     0.124 S 
ATOM     77  O   UNL A   1      31.293  35.032  32.591  1.00  0.00    -0.237 OA
ATOM     78  O   UNL A   1      32.473  37.145  33.097  1.00  0.00    -0.237 OA
ATOM     79  O   UNL A   1      32.388  36.312  30.782  1.00  0.00    -0.744 OA
ENDBRANCH  75  76
ENDBRANCH  47  70
BRANCH  59  80
ATOM     80  C   UNL A   1      40.243  33.967  38.750  1.00  0.00    -0.014 A 
ATOM     81  C   UNL A   1      39.526  33.513  39.871  1.00  0.00     0.010 A 
ATOM     82  C   UNL A   1      40.903  35.206  38.805  1.00  0.00     0.010 A 
ATOM     83  C   UNL A   1      39.440  34.305  41.018  1.00  0.00     0.020 A 
ATOM     84  C   UNL A   1      40.832  35.993  39.957  1.00  0.00     0.020 A 
ATOM     85  C   UNL A   1      40.085  35.546  41.050  1.00  0.00     0.054 A 
BRANCH  85  86
ATOM     86  S   UNL A   1      39.973  36.559  42.549  1.00  0.00     0.124 S 
ATOM     87  O   UNL A   1      38.846  35.944  43.245  1.00  0.00    -0.237 OA
ATOM     88  O   UNL A   1      41.280  36.364  43.175  1.00  0.00    -0.237 OA
ATOM     89  O   UNL A   1      39.731  37.905  42.035  1.00  0.00    -0.744 OA
ENDBRANCH  85  86
ENDBRANCH  59  80
ENDBRANCH  33  34
ENDBRANCH  26  28
ENDBRANCH  25  26
ENDBRANCH  24  25
ENDBRANCH  23  24
ENDBRANCH   1  23
TORSDOF 20
ENDMDL
MODEL 2
REMARK VINA RESULT:      -9.8      3.110      9.223
REMARK SMILES COc1cccc(O[C@@H](C)c2nnc(SCC(=O)OCCOC(=O)c3ccc(-c4c5nc(c(-c6ccc(S(=O)(=O)[O-])cc6)c6ccc([nH]6)c(-c6ccc(S(=O)(=O)[O-])cc6)c6nc(c(-c7ccc(S(=O)(=O)[O-])cc7)c7ccc4[nH]7)C=C6)C=C5)cc3)n2C)c1
REMARK SMILES IDX 19 1 17 2 18 3 16 4 15 5 14 6 11 7 12 8 85 9 13 10 86 11
REMARK SMILES IDX 9 12 10 13 8 14 7 15 3 16 4 17 87 18 5 19 6 20 2 21 1 22
REMARK SMILES IDX 20 23 21 24 22 25 23 26 24 27 25 28 26 29 84 30 27 31 83 32
REMARK SMILES IDX 28 33 29 34 30 35 77 36 31 37 82 38 76 39 78 40 32 41 81 42
REMARK SMILES IDX 75 43 74 44 33 46 63 47 44 48 62 49 45 50 48 51 61 52 79 53
REMARK SMILES IDX 46 54 47 55 60 57 80 58 49 59 34 60 35 61 43 62 36 63 42 64
REMARK SMILES IDX 37 65 38 66 39 67 40 68 41 69 64 70 65 71 73 72 66 73 72 74
REMARK SMILES IDX 67 75 68 76 69 77 70 78 71 79 50 80 51 81 59 82 52 83 58 84
REMARK SMILES IDX 53 85 54 86 55 87 56 88 57 89
REMARK H PARENT 78 45 48 56
REMARK Flexibility Score: inf
ROOT
ATOM      1  O   UNL A   1      44.379  21.581  26.006  1.00  0.00    -0.461 OA
ENDROOT
BRANCH   1   2
ATOM      2  C   UNL A   1      43.977  20.494  25.308  1.00  0.00     0.316 C 
ATOM      3  O   UNL A   1      44.581  20.045  24.334  1.00  0.00    -0.251 OA
BRANCH   2   4
ATOM      4  C   UNL A   1      42.666  19.884  25.731  1.00  0.00     0.200 C 
BRANCH   4   5
ATOM      5  S   UNL A   1      41.838  20.495  27.193  1.00  0.00    -0.074 SA
BRANCH   5   6
ATOM      6  C   UNL A   1      40.341  21.242  26.750  1.00  0.00     0.191 A 
ATOM      7  C   UNL A   1      38.462  21.817  25.746  1.00  0.00     0.174 A 
ATOM      8  N   UNL A   1      38.958  22.867  26.386  1.00  0.00    -0.130 NA
ATOM      9  N   UNL A   1      39.330  20.755  25.949  1.00  0.00    -0.306 N 
ATOM     10  N   UNL A   1      40.121  22.510  27.000  1.00  0.00    -0.123 NA
ATOM     11  C   UNL A   1      39.235  19.414  25.452  1.00  0.00     0.154 C 
BRANCH   7  12
ATOM     12  C   UNL A   1      37.149  21.896  25.003  1.00  0.00     0.238 C 
ATOM     13  C   UNL A   1      36.960  22.962  23.934  1.00  0.00     0.062 C 
BRANCH  12  14
ATOM     14  O   UNL A   1      36.054  21.661  25.910  1.00  0.00    -0.483 OA
BRANCH  14  15
ATOM     15  C   UNL A   1      34.932  21.028  25.468  1.00  0.00     0.124 A 
ATOM     16  C   UNL A   1      32.541  20.815  25.238  1.00  0.00     0.122 A 
ATOM     17  C   UNL A   1      32.682  19.531  24.724  1.00  0.00     0.046 A 
ATOM     18  C   UNL A   1      33.656  21.542  25.654  1.00  0.00     0.092 A 
ATOM     19  C   UNL A   1      33.960  18.989  24.582  1.00  0.00     0.008 A 
ATOM     20  C   UNL A   1      35.083  19.739  24.950  1.00  0.00     0.047 A 
BRANCH  16  21
ATOM     21  O   UNL A   1      31.293  21.340  25.439  1.00  0.00    -0.497 OA
ATOM     22  C   UNL A   1      31.391  22.569  26.160  1.00  0.00     0.278 C 
ENDBRANCH  16  21
ENDBRANCH  14  15
ENDBRANCH  12  14
ENDBRANCH   7  12
ENDBRANCH   5   6
ENDBRANCH   4   5
ENDBRANCH   2   4
ENDBRANCH   1   2
BRANCH   1  23
ATOM     23  C   UNL A   1      44.106  22.856  25.389  1.00  0.00     0.274 C 
BRANCH  23  24
ATOM     24  C   UNL A   1      43.485  23.872  26.349  1.00  0.00     0.275 C 
BRANCH  24  25
ATOM     25  O   UNL A   1      42.344  24.537  25.776  1.00  0.00    -0.458 OA
BRANCH  25  26
ATOM     26  C   UNL A   1      42.437  25.884  25.772  1.00  0.00     0.338 C 
ATOM     27  O   UNL A   1      42.585  26.607  24.802  1.00  0.00    -0.246 OA
BRANCH  26  28
ATOM     28  C   UNL A   1      42.309  26.463  27.115  1.00  0.00     0.060 A 
ATOM     29  C   UNL A   1      41.309  25.999  27.970  1.00  0.00     0.016 A 
ATOM     30  C   UNL A   1      42.995  27.645  27.403  1.00  0.00     0.016 A 
ATOM     31  C   UNL A   1      40.936  26.765  29.072  1.00  0.00     0.010 A 
ATOM     32  C   UNL A   1      42.665  28.376  28.546  1.00  0.00     0.010 A 
ATOM     33  C   UNL A   1      41.611  27.961  29.373  1.00  0.00    -0.014 A 
BRANCH  33  34
ATOM     34  C   UNL A   1      41.266  28.729  30.595  1.00  0.00     0.031 A 
ATOM     35  C   UNL A   1      40.136  29.723  30.615  1.00  0.00     0.074 A 
ATOM     36  C   UNL A   1      42.017  28.546  31.697  1.00  0.00     0.049 A 
ATOM     37  N   UNL A   1      39.747  30.504  31.591  1.00  0.00    -0.248 NA
ATOM     38  C   UNL A   1      39.331  29.851  29.392  1.00  0.00     0.031 C 
ATOM     39  C   UNL A   1      43.146  27.617  31.801  1.00  0.00     0.029 A 
ATOM     40  N   UNL A   1      41.962  29.146  32.928  1.00  0.00    -0.354 N 
ATOM     41  C   UNL A   1      38.658  31.217  31.103  1.00  0.00     0.074 A 
ATOM     42  C   UNL A   1      38.450  30.783  29.737  1.00  0.00     0.031 C 
ATOM     43  C   UNL A   1      43.689  27.725  33.022  1.00  0.00     0.029 A 
ATOM     44  C   UNL A   1      42.979  28.760  33.765  1.00  0.00     0.049 A 
ATOM     45  H   UNL A   1      41.263  29.791  33.186  1.00  0.00     0.167 HD
ATOM     46  C   UNL A   1      37.904  32.146  31.736  1.00  0.00     0.031 A 
ATOM     47  C   UNL A   1      43.341  29.218  34.977  1.00  0.00     0.031 A 
ATOM     48  C   UNL A   1      38.128  32.596  33.085  1.00  0.00     0.049 A 
ATOM     49  C   UNL A   1      42.547  30.312  35.621  1.00  0.00     0.074 A 
ATOM     50  C   UNL A   1      37.378  33.491  33.830  1.00  0.00     0.029 A 
ATOM     51  N   UNL A   1      39.195  32.213  33.881  1.00  0.00    -0.354 N 
ATOM     52  N   UNL A   1      41.486  30.930  35.163  1.00  0.00    -0.248 NA
ATOM     53  C   UNL A   1      43.001  30.771  36.939  1.00  0.00     0.031 C 
ATOM     54  C   UNL A   1      38.019  33.685  35.059  1.00  0.00     0.029 A 
ATOM     55  C   UNL A   1      39.147  32.883  35.093  1.00  0.00     0.049 A 
ATOM     56  H   UNL A   1      39.886  31.561  33.624  1.00  0.00     0.167 HD
ATOM     57  C   UNL A   1      41.142  31.854  36.139  1.00  0.00     0.074 A 
ATOM     58  C   UNL A   1      42.099  31.703  37.217  1.00  0.00     0.031 C 
ATOM     59  C   UNL A   1      40.122  32.746  36.141  1.00  0.00     0.031 A 
BRANCH  46  60
ATOM     60  C   UNL A   1      36.764  32.766  30.976  1.00  0.00    -0.014 A 
ATOM     61  C   UNL A   1      35.433  32.486  31.327  1.00  0.00     0.010 A 
ATOM     62  C   UNL A   1      37.029  33.710  29.969  1.00  0.00     0.010 A 
ATOM     63  C   UNL A   1      34.381  33.136  30.675  1.00  0.00     0.020 A 
ATOM     64  C   UNL A   1      35.980  34.369  29.321  1.00  0.00     0.020 A 
ATOM     65  C   UNL A   1      34.662  34.072  29.674  1.00  0.00     0.054 A 
BRANCH  65  66
ATOM     66  S   UNL A   1      33.278  34.927  28.872  1.00  0.00     0.124 S 
ATOM     67  O   UNL A   1      33.935  36.119  28.341  1.00  0.00    -0.237 OA
ATOM     68  O   UNL A   1      32.836  33.956  27.875  1.00  0.00    -0.237 OA
ATOM     69  O   UNL A   1      32.338  35.165  29.964  1.00  0.00    -0.744 OA
ENDBRANCH  65  66
ENDBRANCH  46  60
BRANCH  47  70
ATOM     70  C   UNL A   1      44.567  28.673  35.611  1.00  0.00    -0.014 A 
ATOM     71  C   UNL A   1      45.814  29.284  35.405  1.00  0.00     0.010 A 
ATOM     72  C   UNL A   1      44.466  27.581  36.493  1.00  0.00     0.010 A 
ATOM     73  C   UNL A   1      46.943  28.818  36.085  1.00  0.00     0.020 A 
ATOM     74  C   UNL A   1      45.586  27.127  37.188  1.00  0.00     0.020 A 
ATOM     75  C   UNL A   1      46.820  27.747  36.977  1.00  0.00     0.054 A 
BRANCH  75  76
ATOM     76  S   UNL A   1      48.265  27.220  37.939  1.00  0.00     0.124 S 
ATOM     77  O   UNL A   1      49.271  28.194  37.531  1.00  0.00    -0.237 OA
ATOM     78  O   UNL A   1      47.795  27.333  39.318  1.00  0.00    -0.237 OA
ATOM     79  O   UNL A   1      48.489  25.850  37.480  1.00  0.00    -0.744 OA
ENDBRANCH  75  76
ENDBRANCH  47  70
BRANCH  59  80
ATOM     80  C   UNL A   1      39.999  33.628  37.350  1.00  0.00    -0.014 A 
ATOM     81  C   UNL A   1      40.602  34.898  37.375  1.00  0.00     0.010 A 
ATOM     82  C   UNL A   1      39.272  33.185  38.468  1.00  0.00     0.010 A 
ATOM     83  C   UNL A   1      40.510  35.698  38.516  1.00  0.00     0.020 A 
ATOM     84  C   UNL A   1      39.164  33.991  39.604  1.00  0.00     0.020 A 
ATOM     85  C   UNL A   1      39.801  35.234  39.628  1.00  0.00     0.054 A 
BRANCH  85  86
ATOM     86  S   UNL A   1      39.681  36.288  41.099  1.00  0.00     0.124 S 
ATOM     87  O   UNL A   1      40.906  35.944  41.816  1.00  0.00    -0.237 OA
ATOM     88  O   UNL A   1      39.641  37.636  40.536  1.00  0.00    -0.237 OA
ATOM     89  O   UNL A   1      38.440  35.848  41.734  1.00  0.00    -0.744 OA
ENDBRANCH  85  86
ENDBRANCH  59  80
ENDBRANCH  33  34
ENDBRANCH  26  28
ENDBRANCH  25  26
ENDBRANCH  24  25
ENDBRANCH  23  24
ENDBRANCH   1  23
TORSDOF 20
ENDMDL
MODEL 3
REMARK VINA RESULT:      -9.7      6.541     11.564
REMARK SMILES COc1cccc(O[C@@H](C)c2nnc(SCC(=O)OCCOC(=O)c3ccc(-c4c5nc(c(-c6ccc(S(=O)(=O)[O-])cc6)c6ccc([nH]6)c(-c6ccc(S(=O)(=O)[O-])cc6)c6nc(c(-c7ccc(S(=O)(=O)[O-])cc7)c7ccc4[nH]7)C=C6)C=C5)cc3)n2C)c1
REMARK SMILES IDX 19 1 17 2 18 3 16 4 15 5 14 6 11 7 12 8 85 9 13 10 86 11
REMARK SMILES IDX 9 12 10 13 8 14 7 15 3 16 4 17 87 18 5 19 6 20 2 21 1 22
REMARK SMILES IDX 20 23 21 24 22 25 23 26 24 27 25 28 26 29 84 30 27 31 83 32
REMARK SMILES IDX 28 33 29 34 30 35 77 36 31 37 82 38 76 39 78 40 32 41 81 42
REMARK SMILES IDX 75 43 74 44 33 46 63 47 44 48 62 49 45 50 48 51 61 52 79 53
REMARK SMILES IDX 46 54 47 55 60 57 80 58 49 59 34 60 35 61 43 62 36 63 42 64
REMARK SMILES IDX 37 65 38 66 39 67 40 68 41 69 64 70 65 71 73 72 66 73 72 74
REMARK SMILES IDX 67 75 68 76 69 77 70 78 71 79 50 80 51 81 59 82 52 83 58 84
REMARK SMILES IDX 53 85 54 86 55 87 56 88 57 89
REMARK H PARENT 78 45 48 56
REMARK Flexibility Score: inf
ROOT
ATOM      1  O   UNL A   1      37.979  21.473  25.145  1.00  0.00    -0.461 OA
ENDROOT
BRANCH   1   2
ATOM      2  C   UNL A   1      36.872  22.199  24.866  1.00  0.00     0.316 C 
ATOM      3  O   UNL A   1      36.677  22.763  23.790  1.00  0.00    -0.251 OA
BRANCH   2   4
ATOM      4  C   UNL A   1      35.891  22.368  25.997  1.00  0.00     0.200 C 
BRANCH   4   5
ATOM      5  S   UNL A   1      34.280  21.599  25.892  1.00  0.00    -0.074 SA
BRANCH   5   6
ATOM      6  C   UNL A   1      33.334  22.385  24.675  1.00  0.00     0.191 A 
ATOM      7  C   UNL A   1      32.051  23.778  23.543  1.00  0.00     0.174 A 
ATOM      8  N   UNL A   1      31.875  22.547  23.083  1.00  0.00    -0.130 NA
ATOM      9  N   UNL A   1      32.975  23.712  24.574  1.00  0.00    -0.306 N 
ATOM     10  N   UNL A   1      32.665  21.688  23.788  1.00  0.00    -0.123 NA
ATOM     11  C   UNL A   1      33.482  24.775  25.392  1.00  0.00     0.154 C 
BRANCH   7  12
ATOM     12  C   UNL A   1      31.337  24.958  22.927  1.00  0.00     0.238 C 
ATOM     13  C   UNL A   1      32.093  25.876  21.978  1.00  0.00     0.062 C 
BRANCH  12  14
ATOM     14  O   UNL A   1      30.473  25.575  23.901  1.00  0.00    -0.483 OA
BRANCH  14  15
ATOM     15  C   UNL A   1      30.376  26.933  23.958  1.00  0.00     0.124 A 
ATOM     16  C   UNL A   1      29.561  29.059  23.165  1.00  0.00     0.122 A 
ATOM     17  C   UNL A   1      30.432  29.735  24.012  1.00  0.00     0.046 A 
ATOM     18  C   UNL A   1      29.567  27.666  23.101  1.00  0.00     0.092 A 
ATOM     19  C   UNL A   1      31.284  29.003  24.839  1.00  0.00     0.008 A 
ATOM     20  C   UNL A   1      31.252  27.604  24.814  1.00  0.00     0.047 A 
BRANCH  16  21
ATOM     21  O   UNL A   1      28.760  29.760  22.304  1.00  0.00    -0.497 OA
ATOM     22  C   UNL A   1      27.584  30.203  22.984  1.00  0.00     0.278 C 
ENDBRANCH  16  21
ENDBRANCH  14  15
ENDBRANCH  12  14
ENDBRANCH   7  12
ENDBRANCH   5   6
ENDBRANCH   4   5
ENDBRANCH   2   4
ENDBRANCH   1   2
BRANCH   1  23
ATOM     23  C   UNL A   1      37.845  20.045  24.991  1.00  0.00     0.274 C 
BRANCH  23  24
ATOM     24  C   UNL A   1      39.064  19.267  25.490  1.00  0.00     0.275 C 
BRANCH  24  25
ATOM     25  O   UNL A   1      39.896  20.057  26.360  1.00  0.00    -0.458 OA
BRANCH  25  26
ATOM     26  C   UNL A   1      41.215  19.796  26.246  1.00  0.00     0.338 C 
ATOM     27  O   UNL A   1      41.729  18.741  25.917  1.00  0.00    -0.246 OA
BRANCH  26  28
ATOM     28  C   UNL A   1      42.051  20.967  26.541  1.00  0.00     0.060 A 
ATOM     29  C   UNL A   1      42.324  21.298  27.868  1.00  0.00     0.016 A 
ATOM     30  C   UNL A   1      42.315  21.877  25.514  1.00  0.00     0.016 A 
ATOM     31  C   UNL A   1      42.784  22.576  28.178  1.00  0.00     0.010 A 
ATOM     32  C   UNL A   1      42.841  23.133  25.822  1.00  0.00     0.010 A 
ATOM     33  C   UNL A   1      43.050  23.507  27.158  1.00  0.00    -0.014 A 
BRANCH  33  34
ATOM     34  C   UNL A   1      43.619  24.837  27.488  1.00  0.00     0.031 A 
ATOM     35  C   UNL A   1      42.750  25.989  27.914  1.00  0.00     0.074 A 
ATOM     36  C   UNL A   1      44.948  25.011  27.362  1.00  0.00     0.049 A 
ATOM     37  N   UNL A   1      43.096  27.221  28.186  1.00  0.00    -0.248 NA
ATOM     38  C   UNL A   1      41.311  25.727  28.068  1.00  0.00     0.031 C 
ATOM     39  C   UNL A   1      45.897  23.974  26.947  1.00  0.00     0.029 A 
ATOM     40  N   UNL A   1      45.727  26.124  27.544  1.00  0.00    -0.354 N 
ATOM     41  C   UNL A   1      41.925  27.882  28.539  1.00  0.00     0.074 A 
ATOM     42  C   UNL A   1      40.851  26.915  28.439  1.00  0.00     0.031 C 
ATOM     43  C   UNL A   1      47.126  24.505  26.888  1.00  0.00     0.029 A 
ATOM     44  C   UNL A   1      47.043  25.925  27.212  1.00  0.00     0.049 A 
ATOM     45  H   UNL A   1      45.376  26.981  27.879  1.00  0.00     0.167 HD
ATOM     46  C   UNL A   1      41.762  29.174  28.911  1.00  0.00     0.031 A 
ATOM     47  C   UNL A   1      48.068  26.792  27.123  1.00  0.00     0.031 A 
ATOM     48  C   UNL A   1      42.826  30.141  28.985  1.00  0.00     0.049 A 
ATOM     49  C   UNL A   1      47.845  28.235  27.450  1.00  0.00     0.074 A 
ATOM     50  C   UNL A   1      42.764  31.458  29.411  1.00  0.00     0.029 A 
ATOM     51  N   UNL A   1      44.135  29.909  28.597  1.00  0.00    -0.354 N 
ATOM     52  N   UNL A   1      46.740  28.824  27.838  1.00  0.00    -0.248 NA
ATOM     53  C   UNL A   1      49.002  29.128  27.325  1.00  0.00     0.031 C 
ATOM     54  C   UNL A   1      44.027  32.036  29.233  1.00  0.00     0.029 A 
ATOM     55  C   UNL A   1      44.882  31.068  28.734  1.00  0.00     0.049 A 
ATOM     56  H   UNL A   1      44.484  29.048  28.272  1.00  0.00     0.167 HD
ATOM     57  C   UNL A   1      47.069  30.162  28.005  1.00  0.00     0.074 A 
ATOM     58  C   UNL A   1      48.478  30.291  27.690  1.00  0.00     0.031 C 
ATOM     59  C   UNL A   1      46.273  31.190  28.386  1.00  0.00     0.031 A 
BRANCH  46  60
ATOM     60  C   UNL A   1      40.374  29.638  29.256  1.00  0.00    -0.014 A 
ATOM     61  C   UNL A   1      40.038  29.977  30.577  1.00  0.00     0.010 A 
ATOM     62  C   UNL A   1      39.429  29.832  28.232  1.00  0.00     0.010 A 
ATOM     63  C   UNL A   1      38.774  30.493  30.873  1.00  0.00     0.020 A 
ATOM     64  C   UNL A   1      38.167  30.357  28.522  1.00  0.00     0.020 A 
ATOM     65  C   UNL A   1      37.845  30.678  29.843  1.00  0.00     0.054 A 
BRANCH  65  66
ATOM     66  S   UNL A   1      36.226  31.386  30.251  1.00  0.00     0.124 S 
ATOM     67  O   UNL A   1      35.399  30.882  29.157  1.00  0.00    -0.237 OA
ATOM     68  O   UNL A   1      35.948  30.814  31.565  1.00  0.00    -0.237 OA
ATOM     69  O   UNL A   1      36.465  32.827  30.240  1.00  0.00    -0.744 OA
ENDBRANCH  65  66
ENDBRANCH  46  60
BRANCH  47  70
ATOM     70  C   UNL A   1      49.379  26.301  26.630  1.00  0.00    -0.014 A 
ATOM     71  C   UNL A   1      49.731  26.432  25.277  1.00  0.00     0.010 A 
ATOM     72  C   UNL A   1      50.312  25.776  27.543  1.00  0.00     0.010 A 
ATOM     73  C   UNL A   1      51.005  26.054  24.846  1.00  0.00     0.020 A 
ATOM     74  C   UNL A   1      51.591  25.418  27.119  1.00  0.00     0.020 A 
ATOM     75  C   UNL A   1      51.930  25.555  25.771  1.00  0.00     0.054 A 
BRANCH  75  76
ATOM     76  S   UNL A   1      53.617  25.173  25.227  1.00  0.00     0.124 S 
ATOM     77  O   UNL A   1      54.422  25.885  26.214  1.00  0.00    -0.237 OA
ATOM     78  O   UNL A   1      53.661  23.715  25.305  1.00  0.00    -0.237 OA
ATOM     79  O   UNL A   1      53.660  25.714  23.869  1.00  0.00    -0.744 OA
ENDBRANCH  75  76
ENDBRANCH  47  70
BRANCH  59  80
ATOM     80  C   UNL A   1      46.916  32.543  28.478  1.00  0.00    -0.014 A 
ATOM     81  C   UNL A   1      46.869  33.434  27.391  1.00  0.00     0.010 A 
ATOM     82  C   UNL A   1      47.568  32.929  29.662  1.00  0.00     0.010 A 
ATOM     83  C   UNL A   1      47.498  34.678  27.474  1.00  0.00     0.020 A 
ATOM     84  C   UNL A   1      48.184  34.180  29.753  1.00  0.00     0.020 A 
ATOM     85  C   UNL A   1      48.161  35.039  28.651  1.00  0.00     0.054 A 
BRANCH  85  86
ATOM     86  S   UNL A   1      48.965  36.661  28.749  1.00  0.00     0.124 S 
ATOM     87  O   UNL A   1      48.839  37.142  27.375  1.00  0.00    -0.237 OA
ATOM     88  O   UNL A   1      48.156  37.370  29.739  1.00  0.00    -0.237 OA
ATOM     89  O   UNL A   1      50.325  36.344  29.177  1.00  0.00    -0.744 OA
ENDBRANCH  85  86
ENDBRANCH  59  80
ENDBRANCH  33  34
ENDBRANCH  26  28
ENDBRANCH  25  26
ENDBRANCH  24  25
ENDBRANCH  23  24
ENDBRANCH   1  23
TORSDOF 20
ENDMDL
