MODEL 1
REMARK VINA RESULT:     -11.3      0.000      0.000
REMARK SMILES COc1ccc(/C=C(\NC(=O)c2ccccc2Br)C(=O)OCCOC(=O)c2ccc(-c3c4nc(c(-c5ccc(S(=O)(=O)[O-])cc5)c5ccc([nH]5)c(-c5ccc(S(=O)(=O)[O-])cc5)c5nc(c(-c6ccc(S(=O)(=O)[O-])cc6)c6ccc3[nH]6)C=C5)C=C4)cc2)cc1
REMARK SMILES IDX 23 1 22 2 21 3 19 4 20 5 8 6 7 7 6 8 3 9 4 10 88 11 5 12
REMARK SMILES IDX 87 13 2 14 1 15 9 16 10 17 11 19 12 20 13 21 17 22 14 23
REMARK SMILES IDX 16 24 18 25 15 26 24 27 25 28 26 29 27 30 28 31 86 32 29 33
REMARK SMILES IDX 85 34 30 35 31 36 32 37 79 38 33 39 84 40 78 41 80 42 34 43
REMARK SMILES IDX 83 44 77 45 76 46 35 48 65 49 46 50 64 51 47 52 50 53 63 54
REMARK SMILES IDX 81 55 48 56 49 57 62 59 82 60 51 61 36 62 37 63 45 64 38 65
REMARK SMILES IDX 44 66 39 67 40 68 41 69 42 70 43 71 66 72 67 73 75 74 68 75
REMARK SMILES IDX 74 76 69 77 70 78 71 79 72 80 73 81 52 82 53 83 61 84 54 85
REMARK SMILES IDX 60 86 55 87 56 88 57 89 58 90 59 91
REMARK H PARENT 9 18 80 47 50 58
REMARK Flexibility Score: inf
ROOT
ATOM      1  C   UNL A   1      38.991  22.654  26.253  1.00  0.00     0.275 C 
ENDROOT
BRANCH   1   2
ATOM      2  C   UNL A   1      37.961  23.605  25.643  1.00  0.00     0.275 C 
BRANCH   2   3
ATOM      3  O   UNL A   1      36.677  23.479  26.296  1.00  0.00    -0.457 OA
BRANCH   3   4
ATOM      4  C   UNL A   1      35.578  23.650  25.514  1.00  0.00     0.354 C 
ATOM      5  O   UNL A   1      35.397  24.581  24.742  1.00  0.00    -0.244 OA
BRANCH   4   6
ATOM      6  C   UNL A   1      34.633  22.483  25.643  1.00  0.00     0.128 C 
ATOM      7  C   UNL A   1      34.953  21.435  24.849  1.00  0.00     0.042 C 
BRANCH   7   8
ATOM      8  C   UNL A   1      34.378  20.079  24.707  1.00  0.00    -0.023 A 
ATOM      9  C   UNL A   1      33.477  17.406  24.391  1.00  0.00     0.118 A 
ATOM     10  C   UNL A   1      32.588  18.481  24.310  1.00  0.00     0.047 A 
ATOM     11  C   UNL A   1      34.826  17.669  24.602  1.00  0.00     0.047 A 
ATOM     12  C   UNL A   1      33.033  19.805  24.447  1.00  0.00     0.012 A 
ATOM     13  C   UNL A   1      35.267  18.991  24.761  1.00  0.00     0.012 A 
BRANCH   9  14
ATOM     14  O   UNL A   1      32.912  16.172  24.228  1.00  0.00    -0.497 OA
ATOM     15  C   UNL A   1      33.040  15.259  25.314  1.00  0.00     0.278 C 
ENDBRANCH   9  14
ENDBRANCH   7   8
BRANCH   6  16
ATOM     16  N   UNL A   1      33.556  22.457  26.503  1.00  0.00    -0.316 N 
ATOM     17  C   UNL A   1      32.463  23.269  26.693  1.00  0.00     0.257 C 
ATOM     18  H   UNL A   1      33.572  21.686  27.116  1.00  0.00     0.170 HD
ATOM     19  O   UNL A   1      31.639  22.972  27.562  1.00  0.00    -0.269 OA
BRANCH  17  20
ATOM     20  C   UNL A   1      32.219  24.506  25.930  1.00  0.00     0.054 A 
ATOM     21  C   UNL A   1      32.351  25.700  26.660  1.00  0.00     0.015 A 
ATOM     22  C   UNL A   1      31.814  24.554  24.592  1.00  0.00     0.030 A 
ATOM     23  C   UNL A   1      32.155  26.933  26.041  1.00  0.00     0.001 A 
ATOM     24  C   UNL A   1      31.652  25.797  23.967  1.00  0.00     0.016 A 
ATOM     25  Br  UNL A   1      31.395  23.006  23.579  1.00  0.00    -0.050 Br
ATOM     26  C   UNL A   1      31.826  26.983  24.687  1.00  0.00     0.001 A 
ENDBRANCH  17  20
ENDBRANCH   6  16
ENDBRANCH   4   6
ENDBRANCH   3   4
ENDBRANCH   2   3
ENDBRANCH   1   2
BRANCH   1  27
ATOM     27  O   UNL A   1      39.550  23.243  27.435  1.00  0.00    -0.458 OA
BRANCH  27  28
ATOM     28  C   UNL A   1      40.580  24.086  27.199  1.00  0.00     0.338 C 
ATOM     29  O   UNL A   1      41.437  23.993  26.339  1.00  0.00    -0.246 OA
BRANCH  28  30
ATOM     30  C   UNL A   1      40.366  25.295  28.000  1.00  0.00     0.060 A 
ATOM     31  C   UNL A   1      41.355  26.275  27.924  1.00  0.00     0.016 A 
ATOM     32  C   UNL A   1      39.264  25.450  28.836  1.00  0.00     0.016 A 
ATOM     33  C   UNL A   1      41.281  27.408  28.718  1.00  0.00     0.010 A 
ATOM     34  C   UNL A   1      39.185  26.594  29.633  1.00  0.00     0.010 A 
ATOM     35  C   UNL A   1      40.208  27.562  29.600  1.00  0.00    -0.014 A 
BRANCH  35  36
ATOM     36  C   UNL A   1      40.228  28.663  30.589  1.00  0.00     0.031 A 
ATOM     37  C   UNL A   1      41.231  28.606  31.706  1.00  0.00     0.074 A 
ATOM     38  C   UNL A   1      39.385  29.704  30.472  1.00  0.00     0.049 A 
ATOM     39  N   UNL A   1      41.316  29.346  32.779  1.00  0.00    -0.248 NA
ATOM     40  C   UNL A   1      42.267  27.564  31.606  1.00  0.00     0.031 C 
ATOM     41  C   UNL A   1      38.427  29.902  29.383  1.00  0.00     0.029 A 
ATOM     42  N   UNL A   1      39.196  30.791  31.287  1.00  0.00    -0.354 N 
ATOM     43  C   UNL A   1      42.370  28.816  33.514  1.00  0.00     0.074 A 
ATOM     44  C   UNL A   1      42.901  27.702  32.761  1.00  0.00     0.031 C 
ATOM     45  C   UNL A   1      37.748  31.042  29.601  1.00  0.00     0.029 A 
ATOM     46  C   UNL A   1      38.177  31.614  30.874  1.00  0.00     0.049 A 
ATOM     47  H   UNL A   1      39.738  30.964  32.091  1.00  0.00     0.167 HD
ATOM     48  C   UNL A   1      42.838  29.218  34.719  1.00  0.00     0.031 A 
ATOM     49  C   UNL A   1      37.619  32.680  31.478  1.00  0.00     0.031 A 
ATOM     50  C   UNL A   1      42.315  30.349  35.437  1.00  0.00     0.049 A 
ATOM     51  C   UNL A   1      38.143  33.103  32.823  1.00  0.00     0.074 A 
ATOM     52  C   UNL A   1      42.714  30.858  36.659  1.00  0.00     0.029 A 
ATOM     53  N   UNL A   1      41.279  31.156  34.985  1.00  0.00    -0.354 N 
ATOM     54  N   UNL A   1      39.108  32.566  33.535  1.00  0.00    -0.248 NA
ATOM     55  C   UNL A   1      37.502  34.265  33.450  1.00  0.00     0.031 C 
ATOM     56  C   UNL A   1      41.895  31.950  36.964  1.00  0.00     0.029 A 
ATOM     57  C   UNL A   1      41.017  32.152  35.908  1.00  0.00     0.049 A 
ATOM     58  H   UNL A   1      40.802  31.037  34.132  1.00  0.00     0.167 HD
ATOM     59  C   UNL A   1      39.194  33.330  34.693  1.00  0.00     0.074 A 
ATOM     60  C   UNL A   1      38.198  34.378  34.575  1.00  0.00     0.031 C 
ATOM     61  C   UNL A   1      40.016  33.178  35.760  1.00  0.00     0.031 A 
BRANCH  48  62
ATOM     62  C   UNL A   1      43.922  28.389  35.355  1.00  0.00    -0.014 A 
ATOM     63  C   UNL A   1      43.628  27.324  36.223  1.00  0.00     0.010 A 
ATOM     64  C   UNL A   1      45.269  28.690  35.074  1.00  0.00     0.010 A 
ATOM     65  C   UNL A   1      44.660  26.606  36.838  1.00  0.00     0.020 A 
ATOM     66  C   UNL A   1      46.302  27.959  35.665  1.00  0.00     0.020 A 
ATOM     67  C   UNL A   1      45.991  26.935  36.561  1.00  0.00     0.054 A 
BRANCH  67  68
ATOM     68  S   UNL A   1      47.313  25.992  37.369  1.00  0.00     0.124 S 
ATOM     69  O   UNL A   1      46.902  24.614  37.108  1.00  0.00    -0.237 OA
ATOM     70  O   UNL A   1      48.508  26.435  36.656  1.00  0.00    -0.237 OA
ATOM     71  O   UNL A   1      47.235  26.410  38.766  1.00  0.00    -0.744 OA
ENDBRANCH  67  68
ENDBRANCH  48  62
BRANCH  49  72
ATOM     72  C   UNL A   1      36.471  33.374  30.836  1.00  0.00    -0.014 A 
ATOM     73  C   UNL A   1      35.224  33.456  31.480  1.00  0.00     0.010 A 
ATOM     74  C   UNL A   1      36.636  34.002  29.587  1.00  0.00     0.010 A 
ATOM     75  C   UNL A   1      34.167  34.156  30.889  1.00  0.00     0.020 A 
ATOM     76  C   UNL A   1      35.590  34.724  29.005  1.00  0.00     0.020 A 
ATOM     77  C   UNL A   1      34.358  34.792  29.658  1.00  0.00     0.054 A 
BRANCH  77  78
ATOM     78  S   UNL A   1      33.002  35.767  28.950  1.00  0.00     0.124 S 
ATOM     79  O   UNL A   1      32.243  36.140  30.140  1.00  0.00    -0.237 OA
ATOM     80  O   UNL A   1      33.709  36.857  28.282  1.00  0.00    -0.237 OA
ATOM     81  O   UNL A   1      32.338  34.825  28.052  1.00  0.00    -0.744 OA
ENDBRANCH  77  78
ENDBRANCH  49  72
BRANCH  61  82
ATOM     82  C   UNL A   1      39.888  34.184  36.869  1.00  0.00    -0.014 A 
ATOM     83  C   UNL A   1      40.575  35.410  36.817  1.00  0.00     0.010 A 
ATOM     84  C   UNL A   1      39.026  33.919  37.948  1.00  0.00     0.010 A 
ATOM     85  C   UNL A   1      40.421  36.345  37.843  1.00  0.00     0.020 A 
ATOM     86  C   UNL A   1      38.853  34.862  38.964  1.00  0.00     0.020 A 
ATOM     87  C   UNL A   1      39.563  36.064  38.911  1.00  0.00     0.054 A 
BRANCH  87  88
ATOM     88  S   UNL A   1      39.347  37.310  40.210  1.00  0.00     0.124 S 
ATOM     89  O   UNL A   1      38.499  38.296  39.548  1.00  0.00    -0.237 OA
ATOM     90  O   UNL A   1      38.709  36.550  41.283  1.00  0.00    -0.237 OA
ATOM     91  O   UNL A   1      40.711  37.750  40.496  1.00  0.00    -0.744 OA
ENDBRANCH  87  88
ENDBRANCH  61  82
ENDBRANCH  35  36
ENDBRANCH  28  30
ENDBRANCH  27  28
ENDBRANCH   1  27
TORSDOF 18
ENDMDL
MODEL 2
REMARK VINA RESULT:     -11.3      4.780     10.295
REMARK SMILES COc1ccc(/C=C(\NC(=O)c2ccccc2Br)C(=O)OCCOC(=O)c2ccc(-c3c4nc(c(-c5ccc(S(=O)(=O)[O-])cc5)c5ccc([nH]5)c(-c5ccc(S(=O)(=O)[O-])cc5)c5nc(c(-c6ccc(S(=O)(=O)[O-])cc6)c6ccc3[nH]6)C=C5)C=C4)cc2)cc1
REMARK SMILES IDX 23 1 22 2 21 3 19 4 20 5 8 6 7 7 6 8 3 9 4 10 88 11 5 12
REMARK SMILES IDX 87 13 2 14 1 15 9 16 10 17 11 19 12 20 13 21 17 22 14 23
REMARK SMILES IDX 16 24 18 25 15 26 24 27 25 28 26 29 27 30 28 31 86 32 29 33
REMARK SMILES IDX 85 34 30 35 31 36 32 37 79 38 33 39 84 40 78 41 80 42 34 43
REMARK SMILES IDX 83 44 77 45 76 46 35 48 65 49 46 50 64 51 47 52 50 53 63 54
REMARK SMILES IDX 81 55 48 56 49 57 62 59 82 60 51 61 36 62 37 63 45 64 38 65
REMARK SMILES IDX 44 66 39 67 40 68 41 69 42 70 43 71 66 72 67 73 75 74 68 75
REMARK SMILES IDX 74 76 69 77 70 78 71 79 72 80 73 81 52 82 53 83 61 84 54 85
REMARK SMILES IDX 60 86 55 87 56 88 57 89 58 90 59 91
REMARK H PARENT 9 18 80 47 50 58
REMARK Flexibility Score: inf
ROOT
ATOM      1  C   UNL A   1      32.645  30.194  27.177  1.00  0.00     0.275 C 
ENDROOT
BRANCH   1   2
ATOM      2  C   UNL A   1      32.213  29.436  25.920  1.00  0.00     0.275 C 
BRANCH   2   3
ATOM      3  O   UNL A   1      33.028  28.262  25.708  1.00  0.00    -0.457 OA
BRANCH   3   4
ATOM      4  C   UNL A   1      33.686  28.184  24.521  1.00  0.00     0.354 C 
ATOM      5  O   UNL A   1      34.202  29.126  23.936  1.00  0.00    -0.244 OA
BRANCH   4   6
ATOM      6  C   UNL A   1      33.791  26.756  24.050  1.00  0.00     0.128 C 
ATOM      7  C   UNL A   1      34.221  25.900  25.005  1.00  0.00     0.042 C 
BRANCH   7   8
ATOM      8  C   UNL A   1      34.390  24.430  25.024  1.00  0.00    -0.023 A 
ATOM      9  C   UNL A   1      34.823  21.629  24.871  1.00  0.00     0.118 A 
ATOM     10  C   UNL A   1      33.814  22.160  25.679  1.00  0.00     0.047 A 
ATOM     11  C   UNL A   1      35.600  22.499  24.115  1.00  0.00     0.047 A 
ATOM     12  C   UNL A   1      33.584  23.543  25.742  1.00  0.00     0.012 A 
ATOM     13  C   UNL A   1      35.385  23.882  24.195  1.00  0.00     0.012 A 
BRANCH   9  14
ATOM     14  O   UNL A   1      34.930  20.266  24.895  1.00  0.00    -0.497 OA
ATOM     15  C   UNL A   1      33.756  19.537  25.238  1.00  0.00     0.278 C 
ENDBRANCH   9  14
ENDBRANCH   7   8
BRANCH   6  16
ATOM     16  N   UNL A   1      33.458  26.339  22.780  1.00  0.00    -0.316 N 
ATOM     17  C   UNL A   1      32.291  26.323  22.052  1.00  0.00     0.257 C 
ATOM     18  H   UNL A   1      34.225  25.971  22.283  1.00  0.00     0.170 HD
ATOM     19  O   UNL A   1      32.309  25.882  20.901  1.00  0.00    -0.269 OA
BRANCH  17  20
ATOM     20  C   UNL A   1      30.994  26.785  22.575  1.00  0.00     0.054 A 
ATOM     21  C   UNL A   1      30.656  28.113  22.261  1.00  0.00     0.015 A 
ATOM     22  C   UNL A   1      30.144  26.029  23.389  1.00  0.00     0.030 A 
ATOM     23  C   UNL A   1      29.448  28.658  22.691  1.00  0.00     0.001 A 
ATOM     24  C   UNL A   1      28.915  26.571  23.790  1.00  0.00     0.016 A 
ATOM     25  Br  UNL A   1      30.599  24.312  24.053  1.00  0.00    -0.050 Br
ATOM     26  C   UNL A   1      28.566  27.878  23.438  1.00  0.00     0.001 A 
ENDBRANCH  17  20
ENDBRANCH   6  16
ENDBRANCH   4   6
ENDBRANCH   3   4
ENDBRANCH   2   3
ENDBRANCH   1   2
BRANCH   1  27
ATOM     27  O   UNL A   1      33.900  29.677  27.642  1.00  0.00    -0.458 OA
BRANCH  27  28
ATOM     28  C   UNL A   1      34.712  30.608  28.191  1.00  0.00     0.338 C 
ATOM     29  O   UNL A   1      34.394  31.667  28.702  1.00  0.00    -0.246 OA
BRANCH  28  30
ATOM     30  C   UNL A   1      36.053  30.026  28.303  1.00  0.00     0.060 A 
ATOM     31  C   UNL A   1      36.397  29.490  29.544  1.00  0.00     0.016 A 
ATOM     32  C   UNL A   1      36.965  30.046  27.251  1.00  0.00     0.016 A 
ATOM     33  C   UNL A   1      37.676  29.005  29.767  1.00  0.00     0.010 A 
ATOM     34  C   UNL A   1      38.252  29.552  27.473  1.00  0.00     0.010 A 
ATOM     35  C   UNL A   1      38.622  29.059  28.739  1.00  0.00    -0.014 A 
BRANCH  35  36
ATOM     36  C   UNL A   1      40.035  28.731  29.032  1.00  0.00     0.031 A 
ATOM     37  C   UNL A   1      40.907  29.792  29.641  1.00  0.00     0.074 A 
ATOM     38  C   UNL A   1      40.520  27.501  28.781  1.00  0.00     0.049 A 
ATOM     39  N   UNL A   1      42.201  29.801  29.812  1.00  0.00    -0.248 NA
ATOM     40  C   UNL A   1      40.227  31.013  30.106  1.00  0.00     0.031 C 
ATOM     41  C   UNL A   1      39.743  26.372  28.266  1.00  0.00     0.029 A 
ATOM     42  N   UNL A   1      41.788  27.000  28.921  1.00  0.00    -0.354 N 
ATOM     43  C   UNL A   1      42.499  31.052  30.340  1.00  0.00     0.074 A 
ATOM     44  C   UNL A   1      41.251  31.769  30.472  1.00  0.00     0.031 C 
ATOM     45  C   UNL A   1      40.554  25.310  28.131  1.00  0.00     0.029 A 
ATOM     46  C   UNL A   1      41.915  25.704  28.484  1.00  0.00     0.049 A 
ATOM     47  H   UNL A   1      42.536  27.519  29.298  1.00  0.00     0.167 HD
ATOM     48  C   UNL A   1      43.712  31.557  30.667  1.00  0.00     0.031 A 
ATOM     49  C   UNL A   1      43.013  24.938  28.339  1.00  0.00     0.031 A 
ATOM     50  C   UNL A   1      44.937  30.814  30.557  1.00  0.00     0.049 A 
ATOM     51  C   UNL A   1      44.353  25.521  28.695  1.00  0.00     0.074 A 
ATOM     52  C   UNL A   1      46.223  31.216  30.868  1.00  0.00     0.029 A 
ATOM     53  N   UNL A   1      45.024  29.504  30.107  1.00  0.00    -0.354 N 
ATOM     54  N   UNL A   1      44.632  26.723  29.147  1.00  0.00    -0.248 NA
ATOM     55  C   UNL A   1      45.523  24.655  28.515  1.00  0.00     0.031 C 
ATOM     56  C   UNL A   1      47.093  30.161  30.570  1.00  0.00     0.029 A 
ATOM     57  C   UNL A   1      46.342  29.084  30.120  1.00  0.00     0.049 A 
ATOM     58  H   UNL A   1      44.259  28.953  29.821  1.00  0.00     0.167 HD
ATOM     59  C   UNL A   1      46.011  26.755  29.311  1.00  0.00     0.074 A 
ATOM     60  C   UNL A   1      46.506  25.445  28.931  1.00  0.00     0.031 C 
ATOM     61  C   UNL A   1      46.800  27.774  29.732  1.00  0.00     0.031 A 
BRANCH  48  62
ATOM     62  C   UNL A   1      43.767  32.995  31.110  1.00  0.00    -0.014 A 
ATOM     63  C   UNL A   1      43.844  34.053  30.187  1.00  0.00     0.010 A 
ATOM     64  C   UNL A   1      43.746  33.289  32.487  1.00  0.00     0.010 A 
ATOM     65  C   UNL A   1      43.947  35.375  30.634  1.00  0.00     0.020 A 
ATOM     66  C   UNL A   1      43.822  34.610  32.937  1.00  0.00     0.020 A 
ATOM     67  C   UNL A   1      43.944  35.644  32.006  1.00  0.00     0.054 A 
BRANCH  67  68
ATOM     68  S   UNL A   1      44.078  37.365  32.563  1.00  0.00     0.124 S 
ATOM     69  O   UNL A   1      45.458  37.419  33.040  1.00  0.00    -0.237 OA
ATOM     70  O   UNL A   1      43.808  38.121  31.343  1.00  0.00    -0.237 OA
ATOM     71  O   UNL A   1      43.056  37.476  33.600  1.00  0.00    -0.744 OA
ENDBRANCH  67  68
ENDBRANCH  48  62
BRANCH  49  72
ATOM     72  C   UNL A   1      42.885  23.564  27.783  1.00  0.00    -0.014 A 
ATOM     73  C   UNL A   1      42.463  22.494  28.590  1.00  0.00     0.010 A 
ATOM     74  C   UNL A   1      43.141  23.330  26.418  1.00  0.00     0.010 A 
ATOM     75  C   UNL A   1      42.296  21.218  28.043  1.00  0.00     0.020 A 
ATOM     76  C   UNL A   1      42.951  22.062  25.862  1.00  0.00     0.020 A 
ATOM     77  C   UNL A   1      42.534  21.011  26.680  1.00  0.00     0.054 A 
BRANCH  77  78
ATOM     78  S   UNL A   1      42.228  19.368  25.972  1.00  0.00     0.124 S 
ATOM     79  O   UNL A   1      42.699  18.487  27.036  1.00  0.00    -0.237 OA
ATOM     80  O   UNL A   1      40.784  19.381  25.752  1.00  0.00    -0.237 OA
ATOM     81  O   UNL A   1      43.034  19.368  24.754  1.00  0.00    -0.744 OA
ENDBRANCH  77  78
ENDBRANCH  49  72
BRANCH  61  82
ATOM     82  C   UNL A   1      48.275  27.501  29.827  1.00  0.00    -0.014 A 
ATOM     83  C   UNL A   1      49.129  27.745  28.737  1.00  0.00     0.010 A 
ATOM     84  C   UNL A   1      48.818  27.049  31.043  1.00  0.00     0.010 A 
ATOM     85  C   UNL A   1      50.501  27.513  28.854  1.00  0.00     0.020 A 
ATOM     86  C   UNL A   1      50.192  26.838  31.170  1.00  0.00     0.020 A 
ATOM     87  C   UNL A   1      51.024  27.059  30.069  1.00  0.00     0.054 A 
BRANCH  87  88
ATOM     88  S   UNL A   1      52.813  26.804  30.211  1.00  0.00     0.124 S 
ATOM     89  O   UNL A   1      53.286  28.147  30.531  1.00  0.00    -0.237 OA
ATOM     90  O   UNL A   1      52.916  25.826  31.291  1.00  0.00    -0.237 OA
ATOM     91  O   UNL A   1      53.196  26.306  28.891  1.00  0.00    -0.744 OA
ENDBRANCH  87  88
ENDBRANCH  61  82
ENDBRANCH  35  36
ENDBRANCH  28  30
ENDBRANCH  27  28
ENDBRANCH   1  27
TORSDOF 18
ENDMDL
MODEL 3
REMARK VINA RESULT:     -11.2      1.378      1.770
REMARK SMILES COc1ccc(/C=C(\NC(=O)c2ccccc2Br)C(=O)OCCOC(=O)c2ccc(-c3c4nc(c(-c5ccc(S(=O)(=O)[O-])cc5)c5ccc([nH]5)c(-c5ccc(S(=O)(=O)[O-])cc5)c5nc(c(-c6ccc(S(=O)(=O)[O-])cc6)c6ccc3[nH]6)C=C5)C=C4)cc2)cc1
REMARK SMILES IDX 23 1 22 2 21 3 19 4 20 5 8 6 7 7 6 8 3 9 4 10 88 11 5 12
REMARK SMILES IDX 87 13 2 14 1 15 9 16 10 17 11 19 12 20 13 21 17 22 14 23
REMARK SMILES IDX 16 24 18 25 15 26 24 27 25 28 26 29 27 30 28 31 86 32 29 33
REMARK SMILES IDX 85 34 30 35 31 36 32 37 79 38 33 39 84 40 78 41 80 42 34 43
REMARK SMILES IDX 83 44 77 45 76 46 35 48 65 49 46 50 64 51 47 52 50 53 63 54
REMARK SMILES IDX 81 55 48 56 49 57 62 59 82 60 51 61 36 62 37 63 45 64 38 65
REMARK SMILES IDX 44 66 39 67 40 68 41 69 42 70 43 71 66 72 67 73 75 74 68 75
REMARK SMILES IDX 74 76 69 77 70 78 71 79 72 80 73 81 52 82 53 83 61 84 54 85
REMARK SMILES IDX 60 86 55 87 56 88 57 89 58 90 59 91
REMARK H PARENT 9 18 80 47 50 58
REMARK Flexibility Score: inf
ROOT
ATOM      1  C   UNL A   1      38.711  23.564  26.190  1.00  0.00     0.275 C 
ENDROOT
BRANCH   1   2
ATOM      2  C   UNL A   1      37.450  23.320  25.360  1.00  0.00     0.275 C 
BRANCH   2   3
ATOM      3  O   UNL A   1      36.265  23.759  26.062  1.00  0.00    -0.457 OA
BRANCH   3   4
ATOM      4  C   UNL A   1      35.118  23.832  25.335  1.00  0.00     0.354 C 
ATOM      5  O   UNL A   1      34.837  24.724  24.547  1.00  0.00    -0.244 OA
BRANCH   4   6
ATOM      6  C   UNL A   1      34.262  22.611  25.547  1.00  0.00     0.128 C 
ATOM      7  C   UNL A   1      34.647  21.544  24.810  1.00  0.00     0.042 C 
BRANCH   7   8
ATOM      8  C   UNL A   1      34.169  20.144  24.757  1.00  0.00    -0.023 A 
ATOM      9  C   UNL A   1      33.448  17.406  24.568  1.00  0.00     0.118 A 
ATOM     10  C   UNL A   1      32.475  18.401  24.692  1.00  0.00     0.047 A 
ATOM     11  C   UNL A   1      34.785  17.782  24.509  1.00  0.00     0.047 A 
ATOM     12  C   UNL A   1      32.827  19.757  24.766  1.00  0.00     0.012 A 
ATOM     13  C   UNL A   1      35.138  19.136  24.605  1.00  0.00     0.012 A 
BRANCH   9  14
ATOM     14  O   UNL A   1      32.966  16.128  24.495  1.00  0.00    -0.497 OA
ATOM     15  C   UNL A   1      32.503  15.547  25.709  1.00  0.00     0.278 C 
ENDBRANCH   9  14
ENDBRANCH   7   8
BRANCH   6  16
ATOM     16  N   UNL A   1      33.200  22.559  26.423  1.00  0.00    -0.316 N 
ATOM     17  C   UNL A   1      32.078  23.331  26.615  1.00  0.00     0.257 C 
ATOM     18  H   UNL A   1      33.257  21.803  27.052  1.00  0.00     0.170 HD
ATOM     19  O   UNL A   1      31.280  23.018  27.502  1.00  0.00    -0.269 OA
BRANCH  17  20
ATOM     20  C   UNL A   1      31.772  24.540  25.831  1.00  0.00     0.054 A 
ATOM     21  C   UNL A   1      31.817  25.749  26.547  1.00  0.00     0.015 A 
ATOM     22  C   UNL A   1      31.390  24.546  24.485  1.00  0.00     0.030 A 
ATOM     23  C   UNL A   1      31.556  26.960  25.908  1.00  0.00     0.001 A 
ATOM     24  C   UNL A   1      31.163  25.770  23.841  1.00  0.00     0.016 A 
ATOM     25  Br  UNL A   1      31.085  22.963  23.486  1.00  0.00    -0.050 Br
ATOM     26  C   UNL A   1      31.251  26.973  24.549  1.00  0.00     0.001 A 
ENDBRANCH  17  20
ENDBRANCH   6  16
ENDBRANCH   4   6
ENDBRANCH   3   4
ENDBRANCH   2   3
ENDBRANCH   1   2
BRANCH   1  27
ATOM     27  O   UNL A   1      38.586  24.803  26.902  1.00  0.00    -0.458 OA
BRANCH  27  28
ATOM     28  C   UNL A   1      39.726  25.527  26.956  1.00  0.00     0.338 C 
ATOM     29  O   UNL A   1      40.635  25.548  26.146  1.00  0.00    -0.246 OA
BRANCH  28  30
ATOM     30  C   UNL A   1      39.592  26.499  28.046  1.00  0.00     0.060 A 
ATOM     31  C   UNL A   1      40.179  27.747  27.843  1.00  0.00     0.016 A 
ATOM     32  C   UNL A   1      38.958  26.189  29.247  1.00  0.00     0.016 A 
ATOM     33  C   UNL A   1      40.183  28.692  28.857  1.00  0.00     0.010 A 
ATOM     34  C   UNL A   1      38.955  27.143  30.267  1.00  0.00     0.010 A 
ATOM     35  C   UNL A   1      39.594  28.385  30.087  1.00  0.00    -0.014 A 
BRANCH  35  36
ATOM     36  C   UNL A   1      39.771  29.309  31.230  1.00  0.00     0.031 A 
ATOM     37  C   UNL A   1      40.968  29.128  32.119  1.00  0.00     0.074 A 
ATOM     38  C   UNL A   1      38.893  30.303  31.451  1.00  0.00     0.049 A 
ATOM     39  N   UNL A   1      41.235  29.685  33.270  1.00  0.00    -0.248 NA
ATOM     40  C   UNL A   1      41.995  28.181  31.654  1.00  0.00     0.031 C 
ATOM     41  C   UNL A   1      37.740  30.620  30.605  1.00  0.00     0.029 A 
ATOM     42  N   UNL A   1      38.832  31.227  32.461  1.00  0.00    -0.354 N 
ATOM     43  C   UNL A   1      42.424  29.105  33.698  1.00  0.00     0.074 A 
ATOM     44  C   UNL A   1      42.832  28.164  32.680  1.00  0.00     0.031 C 
ATOM     45  C   UNL A   1      37.084  31.665  31.136  1.00  0.00     0.029 A 
ATOM     46  C   UNL A   1      37.730  32.045  32.389  1.00  0.00     0.049 A 
ATOM     47  H   UNL A   1      39.511  31.298  33.171  1.00  0.00     0.167 HD
ATOM     48  C   UNL A   1      43.100  29.332  34.849  1.00  0.00     0.031 A 
ATOM     49  C   UNL A   1      37.268  32.962  33.260  1.00  0.00     0.031 A 
ATOM     50  C   UNL A   1      42.692  30.296  35.834  1.00  0.00     0.049 A 
ATOM     51  C   UNL A   1      38.025  33.189  34.539  1.00  0.00     0.074 A 
ATOM     52  C   UNL A   1      43.301  30.619  37.032  1.00  0.00     0.029 A 
ATOM     53  N   UNL A   1      41.567  31.103  35.725  1.00  0.00    -0.354 N 
ATOM     54  N   UNL A   1      39.122  32.601  34.960  1.00  0.00    -0.248 NA
ATOM     55  C   UNL A   1      37.483  34.192  35.463  1.00  0.00     0.031 C 
ATOM     56  C   UNL A   1      42.524  31.596  37.665  1.00  0.00     0.029 A 
ATOM     57  C   UNL A   1      41.457  31.916  36.838  1.00  0.00     0.049 A 
ATOM     58  H   UNL A   1      40.940  31.097  34.965  1.00  0.00     0.167 HD
ATOM     59  C   UNL A   1      39.404  33.167  36.197  1.00  0.00     0.074 A 
ATOM     60  C   UNL A   1      38.376  34.160  36.445  1.00  0.00     0.031 C 
ATOM     61  C   UNL A   1      40.418  32.891  37.054  1.00  0.00     0.031 A 
BRANCH  48  62
ATOM     62  C   UNL A   1      44.307  28.475  35.123  1.00  0.00    -0.014 A 
ATOM     63  C   UNL A   1      44.235  27.330  35.937  1.00  0.00     0.010 A 
ATOM     64  C   UNL A   1      45.544  28.831  34.553  1.00  0.00     0.010 A 
ATOM     65  C   UNL A   1      45.387  26.586  36.214  1.00  0.00     0.020 A 
ATOM     66  C   UNL A   1      46.692  28.075  34.806  1.00  0.00     0.020 A 
ATOM     67  C   UNL A   1      46.610  26.968  35.653  1.00  0.00     0.054 A 
BRANCH  67  68
ATOM     68  S   UNL A   1      48.090  25.989  36.026  1.00  0.00     0.124 S 
ATOM     69  O   UNL A   1      49.143  26.786  35.401  1.00  0.00    -0.237 OA
ATOM     70  O   UNL A   1      48.104  25.968  37.486  1.00  0.00    -0.237 OA
ATOM     71  O   UNL A   1      47.824  24.701  35.390  1.00  0.00    -0.744 OA
ENDBRANCH  67  68
ENDBRANCH  48  62
BRANCH  49  72
ATOM     72  C   UNL A   1      36.000  33.683  32.967  1.00  0.00    -0.014 A 
ATOM     73  C   UNL A   1      34.758  33.144  33.345  1.00  0.00     0.010 A 
ATOM     74  C   UNL A   1      36.034  34.946  32.345  1.00  0.00     0.010 A 
ATOM     75  C   UNL A   1      33.577  33.855  33.110  1.00  0.00     0.020 A 
ATOM     76  C   UNL A   1      34.858  35.671  32.132  1.00  0.00     0.020 A 
ATOM     77  C   UNL A   1      33.635  35.117  32.511  1.00  0.00     0.054 A 
BRANCH  77  78
ATOM     78  S   UNL A   1      32.099  36.060  32.295  1.00  0.00     0.124 S 
ATOM     79  O   UNL A   1      32.186  36.465  30.896  1.00  0.00    -0.237 OA
ATOM     80  O   UNL A   1      31.071  35.070  32.606  1.00  0.00    -0.237 OA
ATOM     81  O   UNL A   1      32.225  37.141  33.271  1.00  0.00    -0.744 OA
ENDBRANCH  77  78
ENDBRANCH  49  72
BRANCH  61  82
ATOM     82  C   UNL A   1      40.475  33.691  38.325  1.00  0.00    -0.014 A 
ATOM     83  C   UNL A   1      41.172  34.911  38.381  1.00  0.00     0.010 A 
ATOM     84  C   UNL A   1      39.775  33.242  39.458  1.00  0.00     0.010 A 
ATOM     85  C   UNL A   1      41.190  35.656  39.562  1.00  0.00     0.020 A 
ATOM     86  C   UNL A   1      39.772  33.996  40.634  1.00  0.00     0.020 A 
ATOM     87  C   UNL A   1      40.491  35.192  40.682  1.00  0.00     0.054 A 
BRANCH  87  88
ATOM     88  S   UNL A   1      40.494  36.196  42.191  1.00  0.00     0.124 S 
ATOM     89  O   UNL A   1      41.455  37.243  41.859  1.00  0.00    -0.237 OA
ATOM     90  O   UNL A   1      39.102  36.629  42.294  1.00  0.00    -0.237 OA
ATOM     91  O   UNL A   1      40.924  35.260  43.228  1.00  0.00    -0.744 OA
ENDBRANCH  87  88
ENDBRANCH  61  82
ENDBRANCH  35  36
ENDBRANCH  28  30
ENDBRANCH  27  28
ENDBRANCH   1  27
TORSDOF 18
ENDMDL
