MODEL 1
REMARK VINA RESULT:     -12.7      0.000      0.000
REMARK SMILES CCC[C@@](C)(NC(=O)N1CCN(C)C(=O)C1(C)C)C(=O)OCCOC(=O)c1ccc(-c2c3nc(c(-c4ccc(S(=O)(=O)[O-])cc4)c4ccc([nH]4)c(-c4ccc(S(=O)(=O)[O-])cc4)c4nc(c(-c5ccc(S(=O)(=O)[O-])cc5)c5ccc2[nH]5)C=C4)C=C3)cc1
REMARK SMILES IDX 23 1 22 2 21 3 19 4 20 5 4 6 5 7 3 8 2 9 1 10 6 11 7 12 8 14
REMARK SMILES IDX 9 15 10 16 16 17 11 18 14 19 17 20 18 21 12 22 15 23 13 24
REMARK SMILES IDX 24 25 25 26 26 27 27 28 28 29 86 30 29 31 85 32 30 33 31 34
REMARK SMILES IDX 32 35 79 36 33 37 84 38 78 39 80 40 34 41 83 42 77 43 76 44
REMARK SMILES IDX 35 46 65 47 46 48 64 49 47 50 50 51 63 52 81 53 48 54 49 55
REMARK SMILES IDX 62 57 82 58 51 59 36 60 37 61 45 62 38 63 44 64 39 65 40 66
REMARK SMILES IDX 41 67 42 68 43 69 66 70 67 71 75 72 68 73 74 74 69 75 70 76
REMARK SMILES IDX 71 77 72 78 73 79 52 80 53 81 61 82 54 83 60 84 55 85 56 86
REMARK SMILES IDX 57 87 58 88 59 89
REMARK H PARENT 6 13 80 45 50 56
REMARK Flexibility Score: inf
ROOT
ATOM      1  C   UNL A   1      38.256  19.506  24.886  1.00  0.00     0.275 C 
ENDROOT
BRANCH   1   2
ATOM      2  C   UNL A   1      37.584  21.117  25.283  1.00  0.00     0.274 C 
BRANCH   2   3
ATOM      3  O   UNL A   1      36.362  21.620  24.478  1.00  0.00    -0.460 OA
BRANCH   3   4
ATOM      4  C   UNL A   1      36.044  22.609  23.543  1.00  0.00     0.331 C 
ATOM      5  O   UNL A   1      36.876  22.982  22.725  1.00  0.00    -0.249 OA
BRANCH   4   6
ATOM      6  C   UNL A   1      34.516  23.428  23.826  1.00  0.00     0.136 C 
ATOM      7  C   UNL A   1      33.385  22.325  23.796  1.00  0.00     0.047 C 
BRANCH   6   8
ATOM      8  C   UNL A   1      34.406  23.917  25.341  1.00  0.00     0.040 C 
BRANCH   8   9
ATOM      9  C   UNL A   1      33.878  23.014  26.464  1.00  0.00    -0.000 C 
ATOM     10  C   UNL A   1      32.500  23.422  26.969  1.00  0.00     0.004 C 
ENDBRANCH   8   9
ENDBRANCH   6   8
BRANCH   6  11
ATOM     11  N   UNL A   1      33.903  24.780  22.998  1.00  0.00    -0.322 N 
ATOM     12  C   UNL A   1      33.152  25.970  22.954  1.00  0.00     0.319 C 
ATOM     13  H   UNL A   1      34.255  24.681  22.084  1.00  0.00     0.166 HD
ATOM     14  O   UNL A   1      33.213  26.626  21.915  1.00  0.00    -0.249 OA
BRANCH  12  15
ATOM     15  N   UNL A   1      32.332  26.337  24.012  1.00  0.00    -0.309 N 
ATOM     16  C   UNL A   1      32.638  27.389  25.519  1.00  0.00     0.144 C 
ATOM     17  C   UNL A   1      30.877  26.246  23.579  1.00  0.00     0.118 C 
ATOM     18  C   UNL A   1      31.739  29.173  25.568  1.00  0.00     0.140 C 
ATOM     19  C   UNL A   1      30.385  28.133  22.854  1.00  0.00     0.247 C 
ATOM     20  C   UNL A   1      30.638  24.679  23.115  1.00  0.00     0.045 C 
ATOM     21  C   UNL A   1      30.334  25.647  25.154  1.00  0.00     0.045 C 
ATOM     22  N   UNL A   1      30.600  29.521  24.070  1.00  0.00    -0.342 N 
ATOM     23  O   UNL A   1      29.849  28.519  21.802  1.00  0.00    -0.272 OA
ATOM     24  C   UNL A   1      29.792  30.733  23.993  1.00  0.00     0.146 C 
ENDBRANCH  12  15
ENDBRANCH   6  11
ENDBRANCH   4   6
ENDBRANCH   3   4
ENDBRANCH   2   3
ENDBRANCH   1   2
BRANCH   1  25
ATOM     25  O   UNL A   1      39.776  18.898  25.792  1.00  0.00    -0.458 OA
BRANCH  25  26
ATOM     26  C   UNL A   1      41.614  19.218  25.832  1.00  0.00     0.338 C 
ATOM     27  O   UNL A   1      42.456  18.289  25.848  1.00  0.00    -0.246 OA
BRANCH  26  28
ATOM     28  C   UNL A   1      42.512  20.468  26.196  1.00  0.00     0.060 A 
ATOM     29  C   UNL A   1      42.271  21.122  27.396  1.00  0.00     0.016 A 
ATOM     30  C   UNL A   1      43.194  21.233  25.231  1.00  0.00     0.016 A 
ATOM     31  C   UNL A   1      42.815  22.382  27.718  1.00  0.00     0.010 A 
ATOM     32  C   UNL A   1      43.757  22.500  25.530  1.00  0.00     0.010 A 
ATOM     33  C   UNL A   1      43.565  23.099  26.783  1.00  0.00    -0.014 A 
BRANCH  33  34
ATOM     34  C   UNL A   1      43.965  24.517  27.059  1.00  0.00     0.031 A 
ATOM     35  C   UNL A   1      45.403  24.952  26.870  1.00  0.00     0.074 A 
ATOM     36  C   UNL A   1      43.065  25.461  27.409  1.00  0.00     0.049 A 
ATOM     37  N   UNL A   1      45.957  26.118  27.104  1.00  0.00    -0.248 NA
ATOM     38  C   UNL A   1      46.332  23.945  26.336  1.00  0.00     0.031 C 
ATOM     39  C   UNL A   1      41.626  25.251  27.554  1.00  0.00     0.029 A 
ATOM     40  N   UNL A   1      43.237  26.798  27.702  1.00  0.00    -0.354 N 
ATOM     41  C   UNL A   1      47.299  25.982  26.760  1.00  0.00     0.074 A 
ATOM     42  C   UNL A   1      47.477  24.615  26.315  1.00  0.00     0.031 C 
ATOM     43  C   UNL A   1      41.048  26.415  27.900  1.00  0.00     0.029 A 
ATOM     44  C   UNL A   1      42.074  27.448  28.049  1.00  0.00     0.049 A 
ATOM     45  H   UNL A   1      44.112  27.248  27.665  1.00  0.00     0.167 HD
ATOM     46  C   UNL A   1      48.297  26.900  26.803  1.00  0.00     0.031 A 
ATOM     47  C   UNL A   1      41.852  28.714  28.465  1.00  0.00     0.031 A 
ATOM     48  C   UNL A   1      48.156  28.267  27.235  1.00  0.00     0.049 A 
ATOM     49  C   UNL A   1      42.993  29.690  28.608  1.00  0.00     0.074 A 
ATOM     50  C   UNL A   1      49.134  29.245  27.322  1.00  0.00     0.029 A 
ATOM     51  N   UNL A   1      46.974  28.854  27.650  1.00  0.00    -0.354 N 
ATOM     52  N   UNL A   1      44.260  29.528  28.315  1.00  0.00    -0.248 NA
ATOM     53  C   UNL A   1      42.672  31.021  29.151  1.00  0.00     0.031 C 
ATOM     54  C   UNL A   1      48.553  30.411  27.831  1.00  0.00     0.029 A 
ATOM     55  C   UNL A   1      47.203  30.172  28.019  1.00  0.00     0.049 A 
ATOM     56  H   UNL A   1      46.099  28.404  27.680  1.00  0.00     0.167 HD
ATOM     57  C   UNL A   1      44.880  30.737  28.623  1.00  0.00     0.074 A 
ATOM     58  C   UNL A   1      43.852  31.629  29.112  1.00  0.00     0.031 C 
ATOM     59  C   UNL A   1      46.189  31.070  28.509  1.00  0.00     0.031 A 
BRANCH  46  60
ATOM     60  C   UNL A   1      49.673  26.438  26.406  1.00  0.00    -0.014 A 
ATOM     61  C   UNL A   1      50.505  25.756  27.311  1.00  0.00     0.010 A 
ATOM     62  C   UNL A   1      50.119  26.650  25.088  1.00  0.00     0.010 A 
ATOM     63  C   UNL A   1      51.777  25.330  26.917  1.00  0.00     0.020 A 
ATOM     64  C   UNL A   1      51.382  26.209  24.685  1.00  0.00     0.020 A 
ATOM     65  C   UNL A   1      52.210  25.568  25.608  1.00  0.00     0.054 A 
BRANCH  65  66
ATOM     66  S   UNL A   1      53.864  25.008  25.117  1.00  0.00     0.124 S 
ATOM     67  O   UNL A   1      54.086  25.768  23.889  1.00  0.00    -0.237 OA
ATOM     68  O   UNL A   1      54.691  25.400  26.255  1.00  0.00    -0.237 OA
ATOM     69  O   UNL A   1      53.703  23.567  24.936  1.00  0.00    -0.744 OA
ENDBRANCH  65  66
ENDBRANCH  46  60
BRANCH  47  70
ATOM     70  C   UNL A   1      40.471  29.139  28.835  1.00  0.00    -0.014 A 
ATOM     71  C   UNL A   1      40.045  29.117  30.174  1.00  0.00     0.010 A 
ATOM     72  C   UNL A   1      39.568  29.545  27.835  1.00  0.00     0.010 A 
ATOM     73  C   UNL A   1      38.738  29.488  30.506  1.00  0.00     0.020 A 
ATOM     74  C   UNL A   1      38.269  29.940  28.166  1.00  0.00     0.020 A 
ATOM     75  C   UNL A   1      37.859  29.899  29.500  1.00  0.00     0.054 A 
BRANCH  75  76
ATOM     76  S   UNL A   1      36.185  30.438  29.953  1.00  0.00     0.124 S 
ATOM     77  O   UNL A   1      35.371  29.800  28.924  1.00  0.00    -0.237 OA
ATOM     78  O   UNL A   1      36.031  29.903  31.304  1.00  0.00    -0.237 OA
ATOM     79  O   UNL A   1      36.265  31.896  29.876  1.00  0.00    -0.744 OA
ENDBRANCH  75  76
ENDBRANCH  47  70
BRANCH  59  80
ATOM     80  C   UNL A   1      46.603  32.466  28.898  1.00  0.00    -0.014 A 
ATOM     81  C   UNL A   1      47.181  32.728  30.154  1.00  0.00     0.010 A 
ATOM     82  C   UNL A   1      46.476  33.521  27.974  1.00  0.00     0.010 A 
ATOM     83  C   UNL A   1      47.607  34.021  30.484  1.00  0.00     0.020 A 
ATOM     84  C   UNL A   1      46.916  34.810  28.294  1.00  0.00     0.020 A 
ATOM     85  C   UNL A   1      47.470  35.055  29.552  1.00  0.00     0.054 A 
BRANCH  85  86
ATOM     86  S   UNL A   1      48.079  36.711  29.980  1.00  0.00     0.124 S 
ATOM     87  O   UNL A   1      49.478  36.447  30.305  1.00  0.00    -0.237 OA
ATOM     88  O   UNL A   1      47.853  37.467  28.751  1.00  0.00    -0.237 OA
ATOM     89  O   UNL A   1      47.241  37.108  31.108  1.00  0.00    -0.744 OA
ENDBRANCH  85  86
ENDBRANCH  59  80
ENDBRANCH  33  34
ENDBRANCH  26  28
ENDBRANCH  25  26
ENDBRANCH   1  25
TORSDOF 18
ENDMDL
MODEL 2
REMARK VINA RESULT:     -12.7      6.361     10.342
REMARK SMILES CCC[C@@](C)(NC(=O)N1CCN(C)C(=O)C1(C)C)C(=O)OCCOC(=O)c1ccc(-c2c3nc(c(-c4ccc(S(=O)(=O)[O-])cc4)c4ccc([nH]4)c(-c4ccc(S(=O)(=O)[O-])cc4)c4nc(c(-c5ccc(S(=O)(=O)[O-])cc5)c5ccc2[nH]5)C=C4)C=C3)cc1
REMARK SMILES IDX 23 1 22 2 21 3 19 4 20 5 4 6 5 7 3 8 2 9 1 10 6 11 7 12 8 14
REMARK SMILES IDX 9 15 10 16 16 17 11 18 14 19 17 20 18 21 12 22 15 23 13 24
REMARK SMILES IDX 24 25 25 26 26 27 27 28 28 29 86 30 29 31 85 32 30 33 31 34
REMARK SMILES IDX 32 35 79 36 33 37 84 38 78 39 80 40 34 41 83 42 77 43 76 44
REMARK SMILES IDX 35 46 65 47 46 48 64 49 47 50 50 51 63 52 81 53 48 54 49 55
REMARK SMILES IDX 62 57 82 58 51 59 36 60 37 61 45 62 38 63 44 64 39 65 40 66
REMARK SMILES IDX 41 67 42 68 43 69 66 70 67 71 75 72 68 73 74 74 69 75 70 76
REMARK SMILES IDX 71 77 72 78 73 79 52 80 53 81 61 82 54 83 60 84 55 85 56 86
REMARK SMILES IDX 57 87 58 88 59 89
REMARK H PARENT 6 13 80 45 50 56
REMARK Flexibility Score: inf
ROOT
ATOM      1  C   UNL A   1      31.852  31.278  26.573  1.00  0.00     0.275 C 
ENDROOT
BRANCH   1   2
ATOM      2  C   UNL A   1      33.190  30.091  26.495  1.00  0.00     0.274 C 
BRANCH   2   3
ATOM      3  O   UNL A   1      32.911  28.642  26.958  1.00  0.00    -0.460 OA
BRANCH   3   4
ATOM      4  C   UNL A   1      31.830  27.768  27.108  1.00  0.00     0.331 C 
ATOM      5  O   UNL A   1      31.075  27.870  28.067  1.00  0.00    -0.249 OA
BRANCH   4   6
ATOM      6  C   UNL A   1      31.827  26.401  26.004  1.00  0.00     0.136 C 
ATOM      7  C   UNL A   1      30.616  26.608  25.010  1.00  0.00     0.047 C 
BRANCH   6   8
ATOM      8  C   UNL A   1      33.055  26.489  24.989  1.00  0.00     0.040 C 
BRANCH   8   9
ATOM      9  C   UNL A   1      33.033  27.382  23.741  1.00  0.00    -0.000 C 
ATOM     10  C   UNL A   1      33.482  26.663  22.476  1.00  0.00     0.004 C 
ENDBRANCH   8   9
ENDBRANCH   6   8
BRANCH   6  11
ATOM     11  N   UNL A   1      31.852  24.751  26.409  1.00  0.00    -0.322 N 
ATOM     12  C   UNL A   1      32.346  23.443  26.247  1.00  0.00     0.319 C 
ATOM     13  H   UNL A   1      31.176  24.668  27.119  1.00  0.00     0.166 HD
ATOM     14  O   UNL A   1      31.956  22.598  27.052  1.00  0.00    -0.249 OA
BRANCH  12  15
ATOM     15  N   UNL A   1      33.182  23.120  25.185  1.00  0.00    -0.309 N 
ATOM     16  C   UNL A   1      35.035  23.003  25.049  1.00  0.00     0.144 C 
ATOM     17  C   UNL A   1      32.410  22.291  24.171  1.00  0.00     0.118 C 
ATOM     18  C   UNL A   1      35.808  21.170  24.852  1.00  0.00     0.140 C 
ATOM     19  C   UNL A   1      32.724  20.306  24.711  1.00  0.00     0.247 C 
ATOM     20  C   UNL A   1      31.129  23.221  23.702  1.00  0.00     0.045 C 
ATOM     21  C   UNL A   1      33.207  23.050  22.784  1.00  0.00     0.045 C 
ATOM     22  N   UNL A   1      34.504  19.774  24.744  1.00  0.00    -0.342 N 
ATOM     23  O   UNL A   1      31.952  19.350  24.896  1.00  0.00    -0.272 OA
ATOM     24  C   UNL A   1      34.889  18.389  24.501  1.00  0.00     0.146 C 
ENDBRANCH  12  15
ENDBRANCH   6  11
ENDBRANCH   4   6
ENDBRANCH   3   4
ENDBRANCH   2   3
ENDBRANCH   1   2
BRANCH   1  25
ATOM     25  O   UNL A   1      32.184  32.993  27.245  1.00  0.00    -0.458 OA
BRANCH  25  26
ATOM     26  C   UNL A   1      33.607  33.982  27.937  1.00  0.00     0.338 C 
ATOM     27  O   UNL A   1      34.171  34.892  27.284  1.00  0.00    -0.246 OA
BRANCH  26  28
ATOM     28  C   UNL A   1      34.617  33.779  29.137  1.00  0.00     0.060 A 
ATOM     29  C   UNL A   1      35.920  34.231  28.981  1.00  0.00     0.016 A 
ATOM     30  C   UNL A   1      34.446  32.795  30.129  1.00  0.00     0.016 A 
ATOM     31  C   UNL A   1      36.972  33.889  29.855  1.00  0.00     0.010 A 
ATOM     32  C   UNL A   1      35.485  32.437  31.025  1.00  0.00     0.010 A 
ATOM     33  C   UNL A   1      36.773  32.976  30.892  1.00  0.00    -0.014 A 
BRANCH  33  34
ATOM     34  C   UNL A   1      37.939  32.464  31.685  1.00  0.00     0.031 A 
ATOM     35  C   UNL A   1      38.798  31.345  31.135  1.00  0.00     0.074 A 
ATOM     36  C   UNL A   1      38.305  33.017  32.860  1.00  0.00     0.049 A 
ATOM     37  N   UNL A   1      39.817  30.731  31.687  1.00  0.00    -0.248 NA
ATOM     38  C   UNL A   1      38.474  30.868  29.782  1.00  0.00     0.031 C 
ATOM     39  C   UNL A   1      37.654  34.156  33.504  1.00  0.00     0.029 A 
ATOM     40  N   UNL A   1      39.331  32.690  33.723  1.00  0.00    -0.354 N 
ATOM     41  C   UNL A   1      40.247  29.788  30.759  1.00  0.00     0.074 A 
ATOM     42  C   UNL A   1      39.367  29.902  29.613  1.00  0.00     0.031 C 
ATOM     43  C   UNL A   1      38.296  34.435  34.652  1.00  0.00     0.029 A 
ATOM     44  C   UNL A   1      39.379  33.471  34.855  1.00  0.00     0.049 A 
ATOM     45  H   UNL A   1      39.971  31.964  33.545  1.00  0.00     0.167 HD
ATOM     46  C   UNL A   1      41.276  28.906  30.838  1.00  0.00     0.031 A 
ATOM     47  C   UNL A   1      40.175  33.412  35.945  1.00  0.00     0.031 A 
ATOM     48  C   UNL A   1      42.172  28.768  31.958  1.00  0.00     0.049 A 
ATOM     49  C   UNL A   1      41.245  32.354  36.061  1.00  0.00     0.074 A 
ATOM     50  C   UNL A   1      43.224  27.878  32.110  1.00  0.00     0.029 A 
ATOM     51  N   UNL A   1      42.130  29.530  33.111  1.00  0.00    -0.354 N 
ATOM     52  N   UNL A   1      41.607  31.447  35.188  1.00  0.00    -0.248 NA
ATOM     53  C   UNL A   1      42.007  32.308  37.321  1.00  0.00     0.031 C 
ATOM     54  C   UNL A   1      43.791  28.073  33.374  1.00  0.00     0.029 A 
ATOM     55  C   UNL A   1      43.120  29.114  33.990  1.00  0.00     0.049 A 
ATOM     56  H   UNL A   1      41.492  30.260  33.284  1.00  0.00     0.167 HD
ATOM     57  C   UNL A   1      42.646  30.736  35.786  1.00  0.00     0.074 A 
ATOM     58  C   UNL A   1      42.867  31.324  37.089  1.00  0.00     0.031 C 
ATOM     59  C   UNL A   1      43.349  29.688  35.291  1.00  0.00     0.031 A 
BRANCH  46  60
ATOM     60  C   UNL A   1      41.468  27.969  29.676  1.00  0.00    -0.014 A 
ATOM     61  C   UNL A   1      40.735  26.774  29.572  1.00  0.00     0.010 A 
ATOM     62  C   UNL A   1      42.366  28.317  28.650  1.00  0.00     0.010 A 
ATOM     63  C   UNL A   1      40.926  25.922  28.481  1.00  0.00     0.020 A 
ATOM     64  C   UNL A   1      42.545  27.478  27.547  1.00  0.00     0.020 A 
ATOM     65  C   UNL A   1      41.837  26.276  27.480  1.00  0.00     0.054 A 
BRANCH  65  66
ATOM     66  S   UNL A   1      42.071  25.156  26.072  1.00  0.00     0.124 S 
ATOM     67  O   UNL A   1      41.890  26.059  24.937  1.00  0.00    -0.237 OA
ATOM     68  O   UNL A   1      43.431  24.664  26.270  1.00  0.00    -0.237 OA
ATOM     69  O   UNL A   1      41.019  24.157  26.245  1.00  0.00    -0.744 OA
ENDBRANCH  65  66
ENDBRANCH  46  60
BRANCH  47  70
ATOM     70  C   UNL A   1      39.963  34.369  37.070  1.00  0.00    -0.014 A 
ATOM     71  C   UNL A   1      40.613  35.615  37.087  1.00  0.00     0.010 A 
ATOM     72  C   UNL A   1      39.124  34.019  38.143  1.00  0.00     0.010 A 
ATOM     73  C   UNL A   1      40.431  36.492  38.161  1.00  0.00     0.020 A 
ATOM     74  C   UNL A   1      38.921  34.903  39.206  1.00  0.00     0.020 A 
ATOM     75  C   UNL A   1      39.584  36.131  39.213  1.00  0.00     0.054 A 
BRANCH  75  76
ATOM     76  S   UNL A   1      39.309  37.305  40.571  1.00  0.00     0.124 S 
ATOM     77  O   UNL A   1      40.628  37.911  40.720  1.00  0.00    -0.237 OA
ATOM     78  O   UNL A   1      38.269  38.179  40.032  1.00  0.00    -0.237 OA
ATOM     79  O   UNL A   1      38.882  36.451  41.677  1.00  0.00    -0.744 OA
ENDBRANCH  75  76
ENDBRANCH  47  70
BRANCH  59  80
ATOM     80  C   UNL A   1      44.447  29.104  36.143  1.00  0.00    -0.014 A 
ATOM     81  C   UNL A   1      44.203  28.009  36.991  1.00  0.00     0.010 A 
ATOM     82  C   UNL A   1      45.757  29.612  36.047  1.00  0.00     0.010 A 
ATOM     83  C   UNL A   1      45.242  27.444  37.740  1.00  0.00     0.020 A 
ATOM     84  C   UNL A   1      46.802  29.039  36.780  1.00  0.00     0.020 A 
ATOM     85  C   UNL A   1      46.536  27.964  37.632  1.00  0.00     0.054 A 
BRANCH  85  86
ATOM     86  S   UNL A   1      47.880  27.182  38.569  1.00  0.00     0.124 S 
ATOM     87  O   UNL A   1      47.705  25.771  38.234  1.00  0.00    -0.237 OA
ATOM     88  O   UNL A   1      49.075  27.814  38.013  1.00  0.00    -0.237 OA
ATOM     89  O   UNL A   1      47.587  27.535  39.955  1.00  0.00    -0.744 OA
ENDBRANCH  85  86
ENDBRANCH  59  80
ENDBRANCH  33  34
ENDBRANCH  26  28
ENDBRANCH  25  26
ENDBRANCH   1  25
TORSDOF 18
ENDMDL
MODEL 3
REMARK VINA RESULT:     -12.7      6.621      8.610
REMARK SMILES CCC[C@@](C)(NC(=O)N1CCN(C)C(=O)C1(C)C)C(=O)OCCOC(=O)c1ccc(-c2c3nc(c(-c4ccc(S(=O)(=O)[O-])cc4)c4ccc([nH]4)c(-c4ccc(S(=O)(=O)[O-])cc4)c4nc(c(-c5ccc(S(=O)(=O)[O-])cc5)c5ccc2[nH]5)C=C4)C=C3)cc1
REMARK SMILES IDX 23 1 22 2 21 3 19 4 20 5 4 6 5 7 3 8 2 9 1 10 6 11 7 12 8 14
REMARK SMILES IDX 9 15 10 16 16 17 11 18 14 19 17 20 18 21 12 22 15 23 13 24
REMARK SMILES IDX 24 25 25 26 26 27 27 28 28 29 86 30 29 31 85 32 30 33 31 34
REMARK SMILES IDX 32 35 79 36 33 37 84 38 78 39 80 40 34 41 83 42 77 43 76 44
REMARK SMILES IDX 35 46 65 47 46 48 64 49 47 50 50 51 63 52 81 53 48 54 49 55
REMARK SMILES IDX 62 57 82 58 51 59 36 60 37 61 45 62 38 63 44 64 39 65 40 66
REMARK SMILES IDX 41 67 42 68 43 69 66 70 67 71 75 72 68 73 74 74 69 75 70 76
REMARK SMILES IDX 71 77 72 78 73 79 52 80 53 81 61 82 54 83 60 84 55 85 56 86
REMARK SMILES IDX 57 87 58 88 59 89
REMARK H PARENT 6 13 80 45 50 56
REMARK Flexibility Score: inf
ROOT
ATOM      1  C   UNL A   1      39.818  22.163  25.797  1.00  0.00     0.275 C 
ENDROOT
BRANCH   1   2
ATOM      2  C   UNL A   1      38.070  21.778  25.783  1.00  0.00     0.274 C 
BRANCH   2   3
ATOM      3  O   UNL A   1      37.340  21.737  24.420  1.00  0.00    -0.460 OA
BRANCH   3   4
ATOM      4  C   UNL A   1      36.341  22.433  23.733  1.00  0.00     0.331 C 
ATOM      5  O   UNL A   1      36.632  23.230  22.850  1.00  0.00    -0.249 OA
BRANCH   4   6
ATOM      6  C   UNL A   1      34.730  22.279  24.419  1.00  0.00     0.136 C 
ATOM      7  C   UNL A   1      34.463  20.737  24.637  1.00  0.00     0.047 C 
BRANCH   6   8
ATOM      8  C   UNL A   1      34.704  22.796  25.928  1.00  0.00     0.040 C 
BRANCH   8   9
ATOM      9  C   UNL A   1      34.419  21.866  27.115  1.00  0.00    -0.000 C 
ATOM     10  C   UNL A   1      33.407  22.438  28.099  1.00  0.00     0.004 C 
ENDBRANCH   8   9
ENDBRANCH   6   8
BRANCH   6  11
ATOM     11  N   UNL A   1      33.287  22.945  23.817  1.00  0.00    -0.322 N 
ATOM     12  C   UNL A   1      32.407  24.028  23.628  1.00  0.00     0.319 C 
ATOM     13  H   UNL A   1      32.840  22.189  23.375  1.00  0.00     0.166 HD
ATOM     14  O   UNL A   1      31.434  23.831  22.901  1.00  0.00    -0.249 OA
BRANCH  12  15
ATOM     15  N   UNL A   1      32.603  25.233  24.290  1.00  0.00    -0.309 N 
ATOM     16  C   UNL A   1      33.723  26.678  23.942  1.00  0.00     0.144 C 
ATOM     17  C   UNL A   1      31.366  25.563  25.111  1.00  0.00     0.118 C 
ATOM     18  C   UNL A   1      32.849  28.364  23.316  1.00  0.00     0.140 C 
ATOM     19  C   UNL A   1      30.156  26.714  23.870  1.00  0.00     0.247 C 
ATOM     20  C   UNL A   1      31.161  24.300  26.155  1.00  0.00     0.045 C 
ATOM     21  C   UNL A   1      32.305  26.247  26.447  1.00  0.00     0.045 C 
ATOM     22  N   UNL A   1      30.939  28.278  23.243  1.00  0.00    -0.342 N 
ATOM     23  O   UNL A   1      28.956  26.640  23.556  1.00  0.00    -0.272 OA
ATOM     24  C   UNL A   1      30.137  29.447  22.902  1.00  0.00     0.146 C 
ENDBRANCH  12  15
ENDBRANCH   6  11
ENDBRANCH   4   6
ENDBRANCH   3   4
ENDBRANCH   2   3
ENDBRANCH   1   2
BRANCH   1  25
ATOM     25  O   UNL A   1      40.426  23.632  26.784  1.00  0.00    -0.458 OA
BRANCH  25  26
ATOM     26  C   UNL A   1      40.245  25.490  26.799  1.00  0.00     0.338 C 
ATOM     27  O   UNL A   1      40.741  26.219  25.907  1.00  0.00    -0.246 OA
BRANCH  26  28
ATOM     28  C   UNL A   1      39.857  26.555  27.901  1.00  0.00     0.060 A 
ATOM     29  C   UNL A   1      40.589  27.733  27.961  1.00  0.00     0.016 A 
ATOM     30  C   UNL A   1      39.168  26.225  29.083  1.00  0.00     0.016 A 
ATOM     31  C   UNL A   1      40.519  28.638  29.040  1.00  0.00     0.010 A 
ATOM     32  C   UNL A   1      39.076  27.119  30.179  1.00  0.00     0.010 A 
ATOM     33  C   UNL A   1      39.762  28.342  30.175  1.00  0.00    -0.014 A 
BRANCH  33  34
ATOM     34  C   UNL A   1      39.855  29.210  31.395  1.00  0.00     0.031 A 
ATOM     35  C   UNL A   1      41.014  29.047  32.355  1.00  0.00     0.074 A 
ATOM     36  C   UNL A   1      38.969  30.198  31.642  1.00  0.00     0.049 A 
ATOM     37  N   UNL A   1      41.247  29.665  33.490  1.00  0.00    -0.248 NA
ATOM     38  C   UNL A   1      42.050  28.073  31.981  1.00  0.00     0.031 C 
ATOM     39  C   UNL A   1      37.841  30.561  30.787  1.00  0.00     0.029 A 
ATOM     40  N   UNL A   1      38.888  31.087  32.694  1.00  0.00    -0.354 N 
ATOM     41  C   UNL A   1      42.445  29.146  33.971  1.00  0.00     0.074 A 
ATOM     42  C   UNL A   1      42.882  28.152  33.011  1.00  0.00     0.031 C 
ATOM     43  C   UNL A   1      37.186  31.596  31.343  1.00  0.00     0.029 A 
ATOM     44  C   UNL A   1      37.817  31.947  32.617  1.00  0.00     0.049 A 
ATOM     45  H   UNL A   1      39.539  31.106  33.432  1.00  0.00     0.167 HD
ATOM     46  C   UNL A   1      43.129  29.459  35.100  1.00  0.00     0.031 A 
ATOM     47  C   UNL A   1      37.368  32.889  33.475  1.00  0.00     0.031 A 
ATOM     48  C   UNL A   1      42.728  30.443  36.073  1.00  0.00     0.049 A 
ATOM     49  C   UNL A   1      38.084  33.149  34.778  1.00  0.00     0.074 A 
ATOM     50  C   UNL A   1      43.366  30.795  37.252  1.00  0.00     0.029 A 
ATOM     51  N   UNL A   1      41.594  31.232  35.988  1.00  0.00    -0.354 N 
ATOM     52  N   UNL A   1      39.193  32.617  35.231  1.00  0.00    -0.248 NA
ATOM     53  C   UNL A   1      37.475  34.131  35.692  1.00  0.00     0.031 C 
ATOM     54  C   UNL A   1      42.596  31.765  37.902  1.00  0.00     0.029 A 
ATOM     55  C   UNL A   1      41.501  32.050  37.105  1.00  0.00     0.049 A 
ATOM     56  H   UNL A   1      40.948  31.216  35.245  1.00  0.00     0.167 HD
ATOM     57  C   UNL A   1      39.421  33.212  36.470  1.00  0.00     0.074 A 
ATOM     58  C   UNL A   1      38.346  34.153  36.694  1.00  0.00     0.031 C 
ATOM     59  C   UNL A   1      40.436  32.989  37.341  1.00  0.00     0.031 A 
BRANCH  46  60
ATOM     60  C   UNL A   1      44.389  28.684  35.378  1.00  0.00    -0.014 A 
ATOM     61  C   UNL A   1      45.644  29.153  34.953  1.00  0.00     0.010 A 
ATOM     62  C   UNL A   1      44.316  27.490  36.119  1.00  0.00     0.010 A 
ATOM     63  C   UNL A   1      46.802  28.420  35.228  1.00  0.00     0.020 A 
ATOM     64  C   UNL A   1      45.473  26.764  36.414  1.00  0.00     0.020 A 
ATOM     65  C   UNL A   1      46.707  27.225  35.949  1.00  0.00     0.054 A 
BRANCH  65  66
ATOM     66  S   UNL A   1      48.221  26.288  36.296  1.00  0.00     0.124 S 
ATOM     67  O   UNL A   1      48.601  25.828  34.962  1.00  0.00    -0.237 OA
ATOM     68  O   UNL A   1      49.099  27.295  36.885  1.00  0.00    -0.237 OA
ATOM     69  O   UNL A   1      47.779  25.240  37.213  1.00  0.00    -0.744 OA
ENDBRANCH  65  66
ENDBRANCH  46  60
BRANCH  47  70
ATOM     70  C   UNL A   1      36.124  33.648  33.157  1.00  0.00    -0.014 A 
ATOM     71  C   UNL A   1      34.858  33.067  33.346  1.00  0.00     0.010 A 
ATOM     72  C   UNL A   1      36.209  34.952  32.636  1.00  0.00     0.010 A 
ATOM     73  C   UNL A   1      33.699  33.776  33.015  1.00  0.00     0.020 A 
ATOM     74  C   UNL A   1      35.052  35.672  32.327  1.00  0.00     0.020 A 
ATOM     75  C   UNL A   1      33.803  35.076  32.509  1.00  0.00     0.054 A 
BRANCH  75  76
ATOM     76  S   UNL A   1      32.288  36.007  32.143  1.00  0.00     0.124 S 
ATOM     77  O   UNL A   1      32.468  37.209  32.949  1.00  0.00    -0.237 OA
ATOM     78  O   UNL A   1      32.370  36.196  30.696  1.00  0.00    -0.237 OA
ATOM     79  O   UNL A   1      31.223  35.108  32.585  1.00  0.00    -0.744 OA
ENDBRANCH  75  76
ENDBRANCH  47  70
BRANCH  59  80
ATOM     80  C   UNL A   1      40.460  33.786  38.621  1.00  0.00    -0.014 A 
ATOM     81  C   UNL A   1      40.014  33.227  39.832  1.00  0.00     0.010 A 
ATOM     82  C   UNL A   1      40.998  35.087  38.629  1.00  0.00     0.010 A 
ATOM     83  C   UNL A   1      40.088  33.960  41.023  1.00  0.00     0.020 A 
ATOM     84  C   UNL A   1      41.091  35.816  39.820  1.00  0.00     0.020 A 
ATOM     85  C   UNL A   1      40.624  35.252  41.009  1.00  0.00     0.054 A 
BRANCH  85  86
ATOM     86  S   UNL A   1      40.763  36.164  42.573  1.00  0.00     0.124 S 
ATOM     87  O   UNL A   1      41.231  35.128  43.490  1.00  0.00    -0.237 OA
ATOM     88  O   UNL A   1      41.735  37.207  42.256  1.00  0.00    -0.237 OA
ATOM     89  O   UNL A   1      39.405  36.643  42.816  1.00  0.00    -0.744 OA
ENDBRANCH  85  86
ENDBRANCH  59  80
ENDBRANCH  33  34
ENDBRANCH  26  28
ENDBRANCH  25  26
ENDBRANCH   1  25
TORSDOF 18
ENDMDL
