MODEL 1
REMARK VINA RESULT:     -10.3      0.000      0.000
REMARK SMILES C[C@H](NC(=O)c1ccncc1/C=C/C(=O)OCCOC(=O)c1ccc(-c2c3nc(c(-c4ccc(S(=O)(=O)[O-])cc4)c4ccc([nH]4)c(-c4ccc(S(=O)(=O)[O-])cc4)c4nc(c(-c5ccc(S(=O)(=O)[O-])cc5)c5ccc2[nH]5)C=C4)C=C3)cc1)c1ccco1
REMARK SMILES IDX 17 1 16 2 14 3 15 4 13 5 12 6 11 7 6 8 7 9 8 10 10 11 9 12
REMARK SMILES IDX 4 13 3 14 5 16 2 17 1 18 82 19 83 20 86 21 84 22 85 23 18 24
REMARK SMILES IDX 19 25 20 26 21 27 22 28 23 29 81 30 24 31 80 32 25 33 26 34
REMARK SMILES IDX 27 35 74 36 28 37 79 38 73 39 75 40 29 41 78 42 72 43 71 44
REMARK SMILES IDX 30 46 60 47 41 48 59 49 42 50 45 51 58 52 76 53 43 54 44 55
REMARK SMILES IDX 57 57 77 58 46 59 31 60 32 61 40 62 33 63 39 64 34 65 35 66
REMARK SMILES IDX 36 67 37 68 38 69 61 70 62 71 70 72 63 73 69 74 64 75 65 76
REMARK SMILES IDX 66 77 67 78 68 79 47 80 48 81 56 82 49 83 55 84 50 85 51 86
REMARK SMILES IDX 52 87 53 88 54 89
REMARK H PARENT 3 15 75 45 45 56
REMARK Flexibility Score: inf
ROOT
ATOM      1  C   UNL A   1      36.656  22.967  23.718  1.00  0.00     0.275 C 
ENDROOT
BRANCH   1   2
ATOM      2  O   UNL A   1      35.310  22.490  23.534  1.00  0.00    -0.459 OA
BRANCH   2   3
ATOM      3  C   UNL A   1      34.439  23.393  23.028  1.00  0.00     0.330 C 
ATOM      4  O   UNL A   1      34.121  23.507  21.853  1.00  0.00    -0.247 OA
BRANCH   3   5
ATOM      5  C   UNL A   1      33.809  24.233  24.067  1.00  0.00     0.094 C 
ATOM      6  C   UNL A   1      33.396  25.504  23.924  1.00  0.00     0.018 C 
BRANCH   6   7
ATOM      7  C   UNL A   1      32.862  26.278  25.060  1.00  0.00     0.006 A 
ATOM      8  C   UNL A   1      31.527  26.241  25.476  1.00  0.00     0.050 A 
ATOM      9  C   UNL A   1      31.092  26.974  26.586  1.00  0.00     0.034 A 
ATOM     10  C   UNL A   1      32.001  27.796  27.217  1.00  0.00     0.112 A 
ATOM     11  C   UNL A   1      33.676  27.166  25.764  1.00  0.00     0.119 A 
ATOM     12  N   UNL A   1      33.279  27.922  26.818  1.00  0.00    -0.264 NA
BRANCH   8  13
ATOM     13  C   UNL A   1      30.515  25.417  24.794  1.00  0.00     0.252 C 
ATOM     14  N   UNL A   1      30.279  24.150  25.262  1.00  0.00    -0.342 N 
ATOM     15  H   UNL A   1      29.667  23.602  24.719  1.00  0.00     0.164 HD
ATOM     16  O   UNL A   1      29.931  25.852  23.808  1.00  0.00    -0.269 OA
BRANCH  14  17
ATOM     17  C   UNL A   1      30.815  23.505  26.457  1.00  0.00     0.145 C 
ATOM     18  C   UNL A   1      29.673  22.991  27.330  1.00  0.00     0.039 C 
BRANCH  17  19
ATOM     19  C   UNL A   1      31.734  22.384  26.083  1.00  0.00     0.125 A 
ATOM     20  C   UNL A   1      32.860  21.863  26.694  1.00  0.00     0.048 A 
ATOM     21  O   UNL A   1      31.473  21.690  24.934  1.00  0.00    -0.467 OA
ATOM     22  C   UNL A   1      33.314  20.806  25.869  1.00  0.00     0.042 A 
ATOM     23  C   UNL A   1      32.441  20.746  24.810  1.00  0.00     0.195 A 
ENDBRANCH  17  19
ENDBRANCH  14  17
ENDBRANCH   8  13
ENDBRANCH   6   7
ENDBRANCH   3   5
ENDBRANCH   2   3
ENDBRANCH   1   2
BRANCH   1  24
ATOM     24  C   UNL A   1      37.435  22.084  24.699  1.00  0.00     0.275 C 
BRANCH  24  25
ATOM     25  O   UNL A   1      37.725  22.764  25.934  1.00  0.00    -0.458 OA
BRANCH  25  26
ATOM     26  C   UNL A   1      39.041  22.863  26.241  1.00  0.00     0.338 C 
ATOM     27  O   UNL A   1      39.920  22.061  25.969  1.00  0.00    -0.246 OA
BRANCH  26  28
ATOM     28  C   UNL A   1      39.318  24.164  26.878  1.00  0.00     0.060 A 
ATOM     29  C   UNL A   1      40.064  25.098  26.154  1.00  0.00     0.016 A 
ATOM     30  C   UNL A   1      38.920  24.441  28.189  1.00  0.00     0.016 A 
ATOM     31  C   UNL A   1      40.425  26.311  26.740  1.00  0.00     0.010 A 
ATOM     32  C   UNL A   1      39.284  25.659  28.776  1.00  0.00     0.010 A 
ATOM     33  C   UNL A   1      40.049  26.596  28.060  1.00  0.00    -0.014 A 
BRANCH  33  34
ATOM     34  C   UNL A   1      40.491  27.864  28.695  1.00  0.00     0.031 A 
ATOM     35  C   UNL A   1      41.897  28.000  29.210  1.00  0.00     0.074 A 
ATOM     36  C   UNL A   1      39.635  28.900  28.788  1.00  0.00     0.049 A 
ATOM     37  N   UNL A   1      42.464  29.022  29.799  1.00  0.00    -0.248 NA
ATOM     38  C   UNL A   1      42.781  26.836  29.041  1.00  0.00     0.031 C 
ATOM     39  C   UNL A   1      38.255  28.903  28.299  1.00  0.00     0.029 A 
ATOM     40  N   UNL A   1      39.803  30.153  29.324  1.00  0.00    -0.354 N 
ATOM     41  C   UNL A   1      43.764  28.623  30.085  1.00  0.00     0.074 A 
ATOM     42  C   UNL A   1      43.899  27.258  29.619  1.00  0.00     0.031 C 
ATOM     43  C   UNL A   1      37.706  30.104  28.549  1.00  0.00     0.029 A 
ATOM     44  C   UNL A   1      38.679  30.941  29.246  1.00  0.00     0.049 A 
ATOM     45  H   UNL A   1      40.648  30.458  29.725  1.00  0.00     0.167 HD
ATOM     46  C   UNL A   1      44.755  29.328  30.681  1.00  0.00     0.031 A 
ATOM     47  C   UNL A   1      38.453  32.190  29.698  1.00  0.00     0.031 A 
ATOM     48  C   UNL A   1      44.624  30.686  31.140  1.00  0.00     0.049 A 
ATOM     49  C   UNL A   1      39.557  32.929  30.406  1.00  0.00     0.074 A 
ATOM     50  C   UNL A   1      45.587  31.495  31.721  1.00  0.00     0.029 A 
ATOM     51  N   UNL A   1      43.460  31.436  31.076  1.00  0.00    -0.354 N 
ATOM     52  N   UNL A   1      40.791  32.548  30.634  1.00  0.00    -0.248 NA
ATOM     53  C   UNL A   1      39.236  34.271  30.916  1.00  0.00     0.031 C 
ATOM     54  C   UNL A   1      44.990  32.715  32.055  1.00  0.00     0.029 A 
ATOM     55  C   UNL A   1      43.670  32.685  31.636  1.00  0.00     0.049 A 
ATOM     56  H   UNL A   1      42.608  31.126  30.691  1.00  0.00     0.167 HD
ATOM     57  C   UNL A   1      41.400  33.613  31.290  1.00  0.00     0.074 A 
ATOM     58  C   UNL A   1      40.404  34.658  31.411  1.00  0.00     0.031 C 
ATOM     59  C   UNL A   1      42.672  33.717  31.747  1.00  0.00     0.031 A 
BRANCH  46  60
ATOM     60  C   UNL A   1      46.072  28.635  30.905  1.00  0.00    -0.014 A 
ATOM     61  C   UNL A   1      46.349  27.966  32.110  1.00  0.00     0.010 A 
ATOM     62  C   UNL A   1      47.020  28.597  29.865  1.00  0.00     0.010 A 
ATOM     63  C   UNL A   1      47.562  27.292  32.280  1.00  0.00     0.020 A 
ATOM     64  C   UNL A   1      48.225  27.908  30.026  1.00  0.00     0.020 A 
ATOM     65  C   UNL A   1      48.494  27.270  31.238  1.00  0.00     0.054 A 
BRANCH  65  66
ATOM     66  S   UNL A   1      50.046  26.361  31.473  1.00  0.00     0.124 S 
ATOM     67  O   UNL A   1      50.507  26.879  32.759  1.00  0.00    -0.237 OA
ATOM     68  O   UNL A   1      49.606  24.968  31.480  1.00  0.00    -0.237 OA
ATOM     69  O   UNL A   1      50.854  26.749  30.320  1.00  0.00    -0.744 OA
ENDBRANCH  65  66
ENDBRANCH  46  60
BRANCH  47  70
ATOM     70  C   UNL A   1      37.118  32.821  29.519  1.00  0.00    -0.014 A 
ATOM     71  C   UNL A   1      36.790  33.474  28.317  1.00  0.00     0.010 A 
ATOM     72  C   UNL A   1      36.174  32.794  30.562  1.00  0.00     0.010 A 
ATOM     73  C   UNL A   1      35.554  34.112  28.172  1.00  0.00     0.020 A 
ATOM     74  C   UNL A   1      34.928  33.407  30.411  1.00  0.00     0.020 A 
ATOM     75  C   UNL A   1      34.632  34.077  29.222  1.00  0.00     0.054 A 
BRANCH  75  76
ATOM     76  S   UNL A   1      33.024  34.889  29.008  1.00  0.00     0.124 S 
ATOM     77  O   UNL A   1      33.411  36.191  28.476  1.00  0.00    -0.237 OA
ATOM     78  O   UNL A   1      32.340  33.999  28.071  1.00  0.00    -0.237 OA
ATOM     79  O   UNL A   1      32.468  34.903  30.359  1.00  0.00    -0.744 OA
ENDBRANCH  75  76
ENDBRANCH  47  70
BRANCH  59  80
ATOM     80  C   UNL A   1      43.073  35.017  32.390  1.00  0.00    -0.014 A 
ATOM     81  C   UNL A   1      43.609  36.071  31.629  1.00  0.00     0.010 A 
ATOM     82  C   UNL A   1      42.861  35.203  33.767  1.00  0.00     0.010 A 
ATOM     83  C   UNL A   1      43.952  37.280  32.242  1.00  0.00     0.020 A 
ATOM     84  C   UNL A   1      43.181  36.419  34.380  1.00  0.00     0.020 A 
ATOM     85  C   UNL A   1      43.738  37.445  33.614  1.00  0.00     0.054 A 
BRANCH  85  86
ATOM     86  S   UNL A   1      44.151  39.037  34.380  1.00  0.00     0.124 S 
ATOM     87  O   UNL A   1      45.459  39.325  33.797  1.00  0.00    -0.237 OA
ATOM     88  O   UNL A   1      43.060  39.902  33.935  1.00  0.00    -0.237 OA
ATOM     89  O   UNL A   1      44.157  38.741  35.811  1.00  0.00    -0.744 OA
ENDBRANCH  85  86
ENDBRANCH  59  80
ENDBRANCH  33  34
ENDBRANCH  26  28
ENDBRANCH  25  26
ENDBRANCH  24  25
ENDBRANCH   1  24
TORSDOF 18
ENDMDL
MODEL 2
REMARK VINA RESULT:     -10.2      1.459      2.766
REMARK SMILES C[C@H](NC(=O)c1ccncc1/C=C/C(=O)OCCOC(=O)c1ccc(-c2c3nc(c(-c4ccc(S(=O)(=O)[O-])cc4)c4ccc([nH]4)c(-c4ccc(S(=O)(=O)[O-])cc4)c4nc(c(-c5ccc(S(=O)(=O)[O-])cc5)c5ccc2[nH]5)C=C4)C=C3)cc1)c1ccco1
REMARK SMILES IDX 17 1 16 2 14 3 15 4 13 5 12 6 11 7 6 8 7 9 8 10 10 11 9 12
REMARK SMILES IDX 4 13 3 14 5 16 2 17 1 18 82 19 83 20 86 21 84 22 85 23 18 24
REMARK SMILES IDX 19 25 20 26 21 27 22 28 23 29 81 30 24 31 80 32 25 33 26 34
REMARK SMILES IDX 27 35 74 36 28 37 79 38 73 39 75 40 29 41 78 42 72 43 71 44
REMARK SMILES IDX 30 46 60 47 41 48 59 49 42 50 45 51 58 52 76 53 43 54 44 55
REMARK SMILES IDX 57 57 77 58 46 59 31 60 32 61 40 62 33 63 39 64 34 65 35 66
REMARK SMILES IDX 36 67 37 68 38 69 61 70 62 71 70 72 63 73 69 74 64 75 65 76
REMARK SMILES IDX 66 77 67 78 68 79 47 80 48 81 56 82 49 83 55 84 50 85 51 86
REMARK SMILES IDX 52 87 53 88 54 89
REMARK H PARENT 3 15 75 45 45 56
REMARK Flexibility Score: inf
ROOT
ATOM      1  C   UNL A   1      36.142  21.820  24.549  1.00  0.00     0.275 C 
ENDROOT
BRANCH   1   2
ATOM      2  O   UNL A   1      35.414  22.868  25.215  1.00  0.00    -0.459 OA
BRANCH   2   3
ATOM      3  C   UNL A   1      35.063  23.916  24.435  1.00  0.00     0.330 C 
ATOM      4  O   UNL A   1      35.041  23.930  23.212  1.00  0.00    -0.247 OA
BRANCH   3   5
ATOM      5  C   UNL A   1      34.614  25.090  25.212  1.00  0.00     0.094 C 
ATOM      6  C   UNL A   1      33.389  25.641  25.190  1.00  0.00     0.018 C 
BRANCH   6   7
ATOM      7  C   UNL A   1      33.078  26.872  25.942  1.00  0.00     0.006 A 
ATOM      8  C   UNL A   1      31.783  27.358  26.149  1.00  0.00     0.050 A 
ATOM      9  C   UNL A   1      31.555  28.515  26.903  1.00  0.00     0.034 A 
ATOM     10  C   UNL A   1      32.649  29.208  27.375  1.00  0.00     0.112 A 
ATOM     11  C   UNL A   1      34.100  27.676  26.447  1.00  0.00     0.119 A 
ATOM     12  N   UNL A   1      33.917  28.823  27.148  1.00  0.00    -0.264 NA
BRANCH   8  13
ATOM     13  C   UNL A   1      30.593  26.675  25.615  1.00  0.00     0.252 C 
ATOM     14  N   UNL A   1      30.221  26.926  24.319  1.00  0.00    -0.342 N 
ATOM     15  H   UNL A   1      29.368  26.523  24.035  1.00  0.00     0.164 HD
ATOM     16  O   UNL A   1      29.937  25.931  26.335  1.00  0.00    -0.269 OA
BRANCH  14  17
ATOM     17  C   UNL A   1      30.921  27.708  23.305  1.00  0.00     0.145 C 
ATOM     18  C   UNL A   1      31.156  26.859  22.059  1.00  0.00     0.039 C 
BRANCH  17  19
ATOM     19  C   UNL A   1      30.143  28.940  22.961  1.00  0.00     0.125 A 
ATOM     20  C   UNL A   1      29.710  30.009  23.723  1.00  0.00     0.048 A 
ATOM     21  O   UNL A   1      29.754  29.116  21.662  1.00  0.00    -0.467 OA
ATOM     22  C   UNL A   1      29.013  30.874  22.846  1.00  0.00     0.042 A 
ATOM     23  C   UNL A   1      29.063  30.284  21.607  1.00  0.00     0.195 A 
ENDBRANCH  17  19
ENDBRANCH  14  17
ENDBRANCH   8  13
ENDBRANCH   6   7
ENDBRANCH   3   5
ENDBRANCH   2   3
ENDBRANCH   1   2
BRANCH   1  24
ATOM     24  C   UNL A   1      37.595  21.750  25.033  1.00  0.00     0.275 C 
BRANCH  24  25
ATOM     25  O   UNL A   1      38.037  22.990  25.616  1.00  0.00    -0.458 OA
BRANCH  25  26
ATOM     26  C   UNL A   1      39.238  22.937  26.239  1.00  0.00     0.338 C 
ATOM     27  O   UNL A   1      40.043  22.020  26.204  1.00  0.00    -0.246 OA
BRANCH  26  28
ATOM     28  C   UNL A   1      39.522  24.222  26.907  1.00  0.00     0.060 A 
ATOM     29  C   UNL A   1      40.304  25.155  26.222  1.00  0.00     0.016 A 
ATOM     30  C   UNL A   1      39.092  24.482  28.212  1.00  0.00     0.016 A 
ATOM     31  C   UNL A   1      40.670  26.350  26.840  1.00  0.00     0.010 A 
ATOM     32  C   UNL A   1      39.462  25.682  28.832  1.00  0.00     0.010 A 
ATOM     33  C   UNL A   1      40.263  26.618  28.155  1.00  0.00    -0.014 A 
BRANCH  33  34
ATOM     34  C   UNL A   1      40.710  27.865  28.825  1.00  0.00     0.031 A 
ATOM     35  C   UNL A   1      42.111  27.972  29.362  1.00  0.00     0.074 A 
ATOM     36  C   UNL A   1      39.865  28.908  28.932  1.00  0.00     0.049 A 
ATOM     37  N   UNL A   1      42.681  28.974  29.982  1.00  0.00    -0.248 NA
ATOM     38  C   UNL A   1      42.985  26.803  29.177  1.00  0.00     0.031 C 
ATOM     39  C   UNL A   1      38.492  28.938  28.425  1.00  0.00     0.029 A 
ATOM     40  N   UNL A   1      40.039  30.146  29.500  1.00  0.00    -0.354 N 
ATOM     41  C   UNL A   1      43.973  28.554  30.276  1.00  0.00     0.074 A 
ATOM     42  C   UNL A   1      44.099  27.199  29.780  1.00  0.00     0.031 C 
ATOM     43  C   UNL A   1      37.953  30.139  28.696  1.00  0.00     0.029 A 
ATOM     44  C   UNL A   1      38.925  30.948  29.425  1.00  0.00     0.049 A 
ATOM     45  H   UNL A   1      40.882  30.432  29.918  1.00  0.00     0.167 HD
ATOM     46  C   UNL A   1      44.964  29.233  30.902  1.00  0.00     0.031 A 
ATOM     47  C   UNL A   1      38.707  32.188  29.905  1.00  0.00     0.031 A 
ATOM     48  C   UNL A   1      44.841  30.581  31.391  1.00  0.00     0.049 A 
ATOM     49  C   UNL A   1      39.810  32.899  30.644  1.00  0.00     0.074 A 
ATOM     50  C   UNL A   1      45.805  31.365  32.003  1.00  0.00     0.029 A 
ATOM     51  N   UNL A   1      43.686  31.345  31.329  1.00  0.00    -0.354 N 
ATOM     52  N   UNL A   1      41.037  32.498  30.879  1.00  0.00    -0.248 NA
ATOM     53  C   UNL A   1      39.497  34.231  31.182  1.00  0.00     0.031 C 
ATOM     54  C   UNL A   1      45.217  32.584  32.359  1.00  0.00     0.029 A 
ATOM     55  C   UNL A   1      43.903  32.578  31.922  1.00  0.00     0.049 A 
ATOM     56  H   UNL A   1      42.837  31.054  30.926  1.00  0.00     0.167 HD
ATOM     57  C   UNL A   1      41.648  33.541  31.568  1.00  0.00     0.074 A 
ATOM     58  C   UNL A   1      40.663  34.593  31.701  1.00  0.00     0.031 C 
ATOM     59  C   UNL A   1      42.915  33.619  32.044  1.00  0.00     0.031 A 
BRANCH  46  60
ATOM     60  C   UNL A   1      46.270  28.520  31.126  1.00  0.00    -0.014 A 
ATOM     61  C   UNL A   1      46.487  27.739  32.275  1.00  0.00     0.010 A 
ATOM     62  C   UNL A   1      47.270  28.579  30.137  1.00  0.00     0.010 A 
ATOM     63  C   UNL A   1      47.693  27.051  32.443  1.00  0.00     0.020 A 
ATOM     64  C   UNL A   1      48.468  27.877  30.294  1.00  0.00     0.020 A 
ATOM     65  C   UNL A   1      48.677  27.127  31.452  1.00  0.00     0.054 A 
BRANCH  65  66
ATOM     66  S   UNL A   1      50.218  26.197  31.679  1.00  0.00     0.124 S 
ATOM     67  O   UNL A   1      51.085  26.802  30.670  1.00  0.00    -0.237 OA
ATOM     68  O   UNL A   1      50.571  26.490  33.066  1.00  0.00    -0.237 OA
ATOM     69  O   UNL A   1      49.831  24.814  31.417  1.00  0.00    -0.744 OA
ENDBRANCH  65  66
ENDBRANCH  46  60
BRANCH  47  70
ATOM     70  C   UNL A   1      37.382  32.839  29.722  1.00  0.00    -0.014 A 
ATOM     71  C   UNL A   1      36.350  32.637  30.656  1.00  0.00     0.010 A 
ATOM     72  C   UNL A   1      37.137  33.647  28.597  1.00  0.00     0.010 A 
ATOM     73  C   UNL A   1      35.090  33.208  30.453  1.00  0.00     0.020 A 
ATOM     74  C   UNL A   1      35.888  34.241  28.405  1.00  0.00     0.020 A 
ATOM     75  C   UNL A   1      34.865  34.003  29.326  1.00  0.00     0.054 A 
BRANCH  75  76
ATOM     76  S   UNL A   1      33.232  34.757  29.091  1.00  0.00     0.124 S 
ATOM     77  O   UNL A   1      32.694  34.742  30.448  1.00  0.00    -0.237 OA
ATOM     78  O   UNL A   1      33.563  36.076  28.556  1.00  0.00    -0.237 OA
ATOM     79  O   UNL A   1      32.575  33.857  28.146  1.00  0.00    -0.744 OA
ENDBRANCH  75  76
ENDBRANCH  47  70
BRANCH  59  80
ATOM     80  C   UNL A   1      43.322  34.899  32.723  1.00  0.00    -0.014 A 
ATOM     81  C   UNL A   1      43.244  35.040  34.119  1.00  0.00     0.010 A 
ATOM     82  C   UNL A   1      43.837  35.958  31.953  1.00  0.00     0.010 A 
ATOM     83  C   UNL A   1      43.648  36.230  34.732  1.00  0.00     0.020 A 
ATOM     84  C   UNL A   1      44.265  37.140  32.564  1.00  0.00     0.020 A 
ATOM     85  C   UNL A   1      44.154  37.273  33.950  1.00  0.00     0.054 A 
BRANCH  85  86
ATOM     86  S   UNL A   1      44.713  38.792  34.771  1.00  0.00     0.124 S 
ATOM     87  O   UNL A   1      46.165  38.632  34.748  1.00  0.00    -0.237 OA
ATOM     88  O   UNL A   1      44.183  39.842  33.903  1.00  0.00    -0.237 OA
ATOM     89  O   UNL A   1      44.097  38.717  36.093  1.00  0.00    -0.744 OA
ENDBRANCH  85  86
ENDBRANCH  59  80
ENDBRANCH  33  34
ENDBRANCH  26  28
ENDBRANCH  25  26
ENDBRANCH  24  25
ENDBRANCH   1  24
TORSDOF 18
ENDMDL
MODEL 3
REMARK VINA RESULT:     -10.0      4.159      9.647
REMARK SMILES C[C@H](NC(=O)c1ccncc1/C=C/C(=O)OCCOC(=O)c1ccc(-c2c3nc(c(-c4ccc(S(=O)(=O)[O-])cc4)c4ccc([nH]4)c(-c4ccc(S(=O)(=O)[O-])cc4)c4nc(c(-c5ccc(S(=O)(=O)[O-])cc5)c5ccc2[nH]5)C=C4)C=C3)cc1)c1ccco1
REMARK SMILES IDX 17 1 16 2 14 3 15 4 13 5 12 6 11 7 6 8 7 9 8 10 10 11 9 12
REMARK SMILES IDX 4 13 3 14 5 16 2 17 1 18 82 19 83 20 86 21 84 22 85 23 18 24
REMARK SMILES IDX 19 25 20 26 21 27 22 28 23 29 81 30 24 31 80 32 25 33 26 34
REMARK SMILES IDX 27 35 74 36 28 37 79 38 73 39 75 40 29 41 78 42 72 43 71 44
REMARK SMILES IDX 30 46 60 47 41 48 59 49 42 50 45 51 58 52 76 53 43 54 44 55
REMARK SMILES IDX 57 57 77 58 46 59 31 60 32 61 40 62 33 63 39 64 34 65 35 66
REMARK SMILES IDX 36 67 37 68 38 69 61 70 62 71 70 72 63 73 69 74 64 75 65 76
REMARK SMILES IDX 66 77 67 78 68 79 47 80 48 81 56 82 49 83 55 84 50 85 51 86
REMARK SMILES IDX 52 87 53 88 54 89
REMARK H PARENT 3 15 75 45 45 56
REMARK Flexibility Score: inf
ROOT
ATOM      1  C   UNL A   1      38.588  21.047  25.384  1.00  0.00     0.275 C 
ENDROOT
BRANCH   1   2
ATOM      2  O   UNL A   1      39.088  22.126  26.196  1.00  0.00    -0.459 OA
BRANCH   2   3
ATOM      3  C   UNL A   1      38.365  23.268  26.151  1.00  0.00     0.330 C 
ATOM      4  O   UNL A   1      38.614  24.304  26.751  1.00  0.00    -0.247 OA
BRANCH   3   5
ATOM      5  C   UNL A   1      37.224  23.194  25.215  1.00  0.00     0.094 C 
ATOM      6  C   UNL A   1      35.923  23.313  25.530  1.00  0.00     0.018 C 
BRANCH   6   7
ATOM      7  C   UNL A   1      34.861  23.130  24.523  1.00  0.00     0.006 A 
ATOM      8  C   UNL A   1      33.758  22.286  24.692  1.00  0.00     0.050 A 
ATOM      9  C   UNL A   1      32.766  22.184  23.710  1.00  0.00     0.034 A 
ATOM     10  C   UNL A   1      32.942  22.882  22.534  1.00  0.00     0.112 A 
ATOM     11  C   UNL A   1      34.938  23.761  23.282  1.00  0.00     0.119 A 
ATOM     12  N   UNL A   1      34.016  23.654  22.292  1.00  0.00    -0.264 NA
BRANCH   8  13
ATOM     13  C   UNL A   1      33.563  21.483  25.911  1.00  0.00     0.252 C 
ATOM     14  N   UNL A   1      33.767  20.130  25.842  1.00  0.00    -0.342 N 
ATOM     15  H   UNL A   1      33.533  19.621  26.653  1.00  0.00     0.164 HD
ATOM     16  O   UNL A   1      33.189  22.021  26.947  1.00  0.00    -0.269 OA
BRANCH  14  17
ATOM     17  C   UNL A   1      34.286  19.341  24.729  1.00  0.00     0.145 C 
ATOM     18  C   UNL A   1      35.810  19.299  24.783  1.00  0.00     0.039 C 
BRANCH  17  19
ATOM     19  C   UNL A   1      33.722  17.954  24.758  1.00  0.00     0.125 A 
ATOM     20  C   UNL A   1      33.832  16.888  23.885  1.00  0.00     0.048 A 
ATOM     21  O   UNL A   1      32.945  17.595  25.825  1.00  0.00    -0.467 OA
ATOM     22  C   UNL A   1      33.074  15.831  24.442  1.00  0.00     0.042 A 
ATOM     23  C   UNL A   1      32.550  16.313  25.617  1.00  0.00     0.195 A 
ENDBRANCH  17  19
ENDBRANCH  14  17
ENDBRANCH   8  13
ENDBRANCH   6   7
ENDBRANCH   3   5
ENDBRANCH   2   3
ENDBRANCH   1   2
BRANCH   1  24
ATOM     24  C   UNL A   1      39.440  19.783  25.546  1.00  0.00     0.275 C 
BRANCH  24  25
ATOM     25  O   UNL A   1      40.362  19.882  26.647  1.00  0.00    -0.458 OA
BRANCH  25  26
ATOM     26  C   UNL A   1      41.670  19.761  26.314  1.00  0.00     0.338 C 
ATOM     27  O   UNL A   1      42.221  18.774  25.855  1.00  0.00    -0.246 OA
BRANCH  26  28
ATOM     28  C   UNL A   1      42.358  21.055  26.479  1.00  0.00     0.060 A 
ATOM     29  C   UNL A   1      42.653  21.476  27.778  1.00  0.00     0.016 A 
ATOM     30  C   UNL A   1      42.646  21.879  25.386  1.00  0.00     0.016 A 
ATOM     31  C   UNL A   1      43.228  22.728  27.994  1.00  0.00     0.010 A 
ATOM     32  C   UNL A   1      43.222  23.136  25.605  1.00  0.00     0.010 A 
ATOM     33  C   UNL A   1      43.505  23.574  26.910  1.00  0.00    -0.014 A 
BRANCH  33  34
ATOM     34  C   UNL A   1      44.061  24.929  27.156  1.00  0.00     0.031 A 
ATOM     35  C   UNL A   1      43.163  26.036  27.638  1.00  0.00     0.074 A 
ATOM     36  C   UNL A   1      45.374  25.159  26.968  1.00  0.00     0.049 A 
ATOM     37  N   UNL A   1      43.461  27.283  27.901  1.00  0.00    -0.248 NA
ATOM     38  C   UNL A   1      41.747  25.697  27.852  1.00  0.00     0.031 C 
ATOM     39  C   UNL A   1      46.353  24.161  26.532  1.00  0.00     0.029 A 
ATOM     40  N   UNL A   1      46.112  26.306  27.123  1.00  0.00    -0.354 N 
ATOM     41  C   UNL A   1      42.272  27.883  28.297  1.00  0.00     0.074 A 
ATOM     42  C   UNL A   1      41.242  26.867  28.224  1.00  0.00     0.031 C 
ATOM     43  C   UNL A   1      47.565  24.739  26.465  1.00  0.00     0.029 A 
ATOM     44  C   UNL A   1      47.443  26.151  26.816  1.00  0.00     0.049 A 
ATOM     45  H   UNL A   1      45.725  27.159  27.426  1.00  0.00     0.167 HD
ATOM     46  C   UNL A   1      42.056  29.163  28.685  1.00  0.00     0.031 A 
ATOM     47  C   UNL A   1      48.449  27.048  26.804  1.00  0.00     0.031 A 
ATOM     48  C   UNL A   1      43.080  30.172  28.762  1.00  0.00     0.049 A 
ATOM     49  C   UNL A   1      48.168  28.476  27.188  1.00  0.00     0.074 A 
ATOM     50  C   UNL A   1      42.961  31.486  29.182  1.00  0.00     0.029 A 
ATOM     51  N   UNL A   1      44.407  29.984  28.408  1.00  0.00    -0.354 N 
ATOM     52  N   UNL A   1      47.043  29.016  27.595  1.00  0.00    -0.248 NA
ATOM     53  C   UNL A   1      49.296  29.418  27.112  1.00  0.00     0.031 C 
ATOM     54  C   UNL A   1      44.206  32.107  29.033  1.00  0.00     0.029 A 
ATOM     55  C   UNL A   1      45.110  31.166  28.569  1.00  0.00     0.049 A 
ATOM     56  H   UNL A   1      44.792  29.137  28.087  1.00  0.00     0.167 HD
ATOM     57  C   UNL A   1      47.336  30.352  27.849  1.00  0.00     0.074 A 
ATOM     58  C   UNL A   1      48.743  30.537  27.562  1.00  0.00     0.031 C 
ATOM     59  C   UNL A   1      46.511  31.336  28.284  1.00  0.00     0.031 A 
BRANCH  46  60
ATOM     60  C   UNL A   1      40.647  29.563  29.030  1.00  0.00    -0.014 A 
ATOM     61  C   UNL A   1      39.661  29.690  28.036  1.00  0.00     0.010 A 
ATOM     62  C   UNL A   1      40.291  29.748  30.379  1.00  0.00     0.010 A 
ATOM     63  C   UNL A   1      38.347  30.022  28.385  1.00  0.00     0.020 A 
ATOM     64  C   UNL A   1      38.975  30.060  30.731  1.00  0.00     0.020 A 
ATOM     65  C   UNL A   1      38.014  30.208  29.730  1.00  0.00     0.054 A 
BRANCH  65  66
ATOM     66  S   UNL A   1      36.296  30.604  30.157  1.00  0.00     0.124 S 
ATOM     67  O   UNL A   1      35.564  30.008  29.041  1.00  0.00    -0.237 OA
ATOM     68  O   UNL A   1      36.122  29.939  31.446  1.00  0.00    -0.237 OA
ATOM     69  O   UNL A   1      36.277  32.063  30.205  1.00  0.00    -0.744 OA
ENDBRANCH  65  66
ENDBRANCH  46  60
BRANCH  47  70
ATOM     70  C   UNL A   1      49.817  26.633  26.394  1.00  0.00    -0.014 A 
ATOM     71  C   UNL A   1      50.213  26.702  25.047  1.00  0.00     0.010 A 
ATOM     72  C   UNL A   1      50.727  26.143  27.350  1.00  0.00     0.010 A 
ATOM     73  C   UNL A   1      51.482  26.261  24.658  1.00  0.00     0.020 A 
ATOM     74  C   UNL A   1      52.004  25.728  26.969  1.00  0.00     0.020 A 
ATOM     75  C   UNL A   1      52.369  25.773  25.622  1.00  0.00     0.054 A 
BRANCH  75  76
ATOM     76  S   UNL A   1      54.020  25.229  25.104  1.00  0.00     0.124 S 
ATOM     77  O   UNL A   1      54.226  26.007  23.887  1.00  0.00    -0.237 OA
ATOM     78  O   UNL A   1      54.852  25.607  26.245  1.00  0.00    -0.237 OA
ATOM     79  O   UNL A   1      53.859  23.790  24.910  1.00  0.00    -0.744 OA
ENDBRANCH  75  76
ENDBRANCH  47  70
BRANCH  59  80
ATOM     80  C   UNL A   1      47.116  32.695  28.512  1.00  0.00    -0.014 A 
ATOM     81  C   UNL A   1      47.708  33.032  29.742  1.00  0.00     0.010 A 
ATOM     82  C   UNL A   1      47.137  33.630  27.461  1.00  0.00     0.010 A 
ATOM     83  C   UNL A   1      48.286  34.292  29.925  1.00  0.00     0.020 A 
ATOM     84  C   UNL A   1      47.735  34.881  27.633  1.00  0.00     0.020 A 
ATOM     85  C   UNL A   1      48.294  35.209  28.870  1.00  0.00     0.054 A 
BRANCH  85  86
ATOM     86  S   UNL A   1      49.087  36.822  29.116  1.00  0.00     0.124 S 
ATOM     87  O   UNL A   1      47.939  37.724  29.151  1.00  0.00    -0.237 OA
ATOM     88  O   UNL A   1      49.787  36.648  30.388  1.00  0.00    -0.237 OA
ATOM     89  O   UNL A   1      49.956  36.962  27.950  1.00  0.00    -0.744 OA
ENDBRANCH  85  86
ENDBRANCH  59  80
ENDBRANCH  33  34
ENDBRANCH  26  28
ENDBRANCH  25  26
ENDBRANCH  24  25
ENDBRANCH   1  24
TORSDOF 18
ENDMDL
