MODEL 1
REMARK VINA RESULT:     -12.4      0.000      0.000
REMARK SMILES Cc1ccc(/C=C2/SC(=O)N(CC(=O)OCCOC(=O)c3ccc(-c4c5nc(c(-c6ccc(S(=O)(=O)[O-])cc6)c6ccc([nH]6)c(-c6ccc(S(=O)(=O)[O-])cc6)c6nc(c(-c7ccc(S(=O)(=O)[O-])cc7)c7ccc4[nH]7)C=C6)C=C5)cc3)C2=O)cc1
REMARK SMILES IDX 17 1 16 2 15 3 13 4 14 5 12 6 11 7 6 8 7 9 8 10 81 11 9 12
REMARK SMILES IDX 82 13 10 14 5 15 1 16 2 17 3 18 84 19 4 20 83 21 18 22 19 23
REMARK SMILES IDX 20 24 21 25 22 26 80 27 23 28 79 29 24 30 25 31 26 32 73 33
REMARK SMILES IDX 27 34 78 35 72 36 74 37 28 38 77 39 71 40 70 41 29 43 59 44
REMARK SMILES IDX 40 45 58 46 41 47 44 48 57 49 75 50 42 51 43 52 56 54 76 55
REMARK SMILES IDX 45 56 30 57 31 58 39 59 32 60 38 61 33 62 34 63 35 64 36 65
REMARK SMILES IDX 37 66 60 67 61 68 69 69 62 70 68 71 63 72 64 73 65 74 66 75
REMARK SMILES IDX 67 76 46 77 47 78 55 79 48 80 54 81 49 82 50 83 51 84 52 85
REMARK SMILES IDX 53 86
REMARK H PARENT 74 42 44 53
REMARK Flexibility Score: inf
ROOT
ATOM      1  C   UNL A   1      34.509  30.050  27.180  1.00  0.00     0.275 C 
ENDROOT
BRANCH   1   2
ATOM      2  C   UNL A   1      34.033  28.742  26.496  1.00  0.00     0.274 C 
BRANCH   2   3
ATOM      3  O   UNL A   1      33.973  28.807  25.056  1.00  0.00    -0.461 OA
BRANCH   3   4
ATOM      4  C   UNL A   1      32.748  28.946  24.488  1.00  0.00     0.326 C 
ATOM      5  O   UNL A   1      31.747  29.289  25.107  1.00  0.00    -0.250 OA
BRANCH   4   6
ATOM      6  C   UNL A   1      32.803  28.659  22.985  1.00  0.00     0.252 C 
BRANCH   6   7
ATOM      7  N   UNL A   1      32.269  27.326  22.812  1.00  0.00    -0.257 N 
ATOM      8  C   UNL A   1      32.736  23.939  23.791  1.00  0.00     0.029 C 
ATOM      9  C   UNL A   1      32.301  25.032  23.148  1.00  0.00     0.083 C 
ATOM     10  S   UNL A   1      30.622  25.364  22.872  1.00  0.00    -0.022 SA
ATOM     11  C   UNL A   1      33.077  26.219  22.702  1.00  0.00     0.268 C 
ATOM     12  C   UNL A   1      30.931  27.093  22.745  1.00  0.00     0.294 C 
ATOM     13  O   UNL A   1      34.159  26.171  22.145  1.00  0.00    -0.268 OA
ATOM     14  O   UNL A   1      30.040  27.919  22.595  1.00  0.00    -0.261 OA
BRANCH   8  15
ATOM     15  C   UNL A   1      34.098  23.681  24.278  1.00  0.00    -0.024 A 
ATOM     16  C   UNL A   1      38.130  22.936  25.656  1.00  0.00     0.044 C 
ATOM     17  C   UNL A   1      36.714  23.165  25.217  1.00  0.00    -0.051 A 
ATOM     18  C   UNL A   1      36.165  22.408  24.175  1.00  0.00     0.004 A 
ATOM     19  C   UNL A   1      35.927  24.150  25.815  1.00  0.00     0.004 A 
ATOM     20  C   UNL A   1      34.869  22.666  23.707  1.00  0.00     0.008 A 
ATOM     21  C   UNL A   1      34.623  24.388  25.363  1.00  0.00     0.008 A 
ENDBRANCH   8  15
ENDBRANCH   6   7
ENDBRANCH   4   6
ENDBRANCH   3   4
ENDBRANCH   2   3
ENDBRANCH   1   2
BRANCH   1  22
ATOM     22  O   UNL A   1      35.245  29.842  28.403  1.00  0.00    -0.458 OA
BRANCH  22  23
ATOM     23  C   UNL A   1      36.483  30.426  28.420  1.00  0.00     0.338 C 
ATOM     24  O   UNL A   1      36.741  31.425  29.066  1.00  0.00    -0.246 OA
BRANCH  23  25
ATOM     25  C   UNL A   1      37.510  29.394  28.129  1.00  0.00     0.060 A 
ATOM     26  C   UNL A   1      38.525  29.632  27.182  1.00  0.00     0.016 A 
ATOM     27  C   UNL A   1      37.742  28.547  29.200  1.00  0.00     0.016 A 
ATOM     28  C   UNL A   1      39.795  29.082  27.381  1.00  0.00     0.010 A 
ATOM     29  C   UNL A   1      39.035  28.341  29.568  1.00  0.00     0.010 A 
ATOM     30  C   UNL A   1      40.048  28.474  28.611  1.00  0.00    -0.014 A 
BRANCH  30  31
ATOM     31  C   UNL A   1      41.156  27.592  28.946  1.00  0.00     0.031 A 
ATOM     32  C   UNL A   1      41.293  26.209  28.482  1.00  0.00     0.074 A 
ATOM     33  C   UNL A   1      42.208  28.299  29.428  1.00  0.00     0.049 A 
ATOM     34  N   UNL A   1      42.092  25.360  29.030  1.00  0.00    -0.248 NA
ATOM     35  C   UNL A   1      40.577  25.667  27.331  1.00  0.00     0.031 C 
ATOM     36  C   UNL A   1      43.616  27.973  29.517  1.00  0.00     0.029 A 
ATOM     37  N   UNL A   1      42.143  29.579  30.003  1.00  0.00    -0.354 N 
ATOM     38  C   UNL A   1      42.267  24.331  28.130  1.00  0.00     0.074 A 
ATOM     39  C   UNL A   1      41.210  24.496  27.156  1.00  0.00     0.031 C 
ATOM     40  C   UNL A   1      44.187  28.830  30.390  1.00  0.00     0.029 A 
ATOM     41  C   UNL A   1      43.112  29.626  30.986  1.00  0.00     0.049 A 
ATOM     42  H   UNL A   1      41.524  30.303  29.754  1.00  0.00     0.167 HD
ATOM     43  C   UNL A   1      43.403  23.576  28.190  1.00  0.00     0.031 A 
ATOM     44  C   UNL A   1      42.713  29.632  32.294  1.00  0.00     0.031 A 
ATOM     45  C   UNL A   1      44.303  24.073  29.235  1.00  0.00     0.049 A 
ATOM     46  C   UNL A   1      43.160  28.351  32.959  1.00  0.00     0.074 A 
ATOM     47  C   UNL A   1      45.446  24.858  29.175  1.00  0.00     0.029 A 
ATOM     48  N   UNL A   1      43.893  24.078  30.565  1.00  0.00    -0.354 N 
ATOM     49  N   UNL A   1      43.393  27.239  32.316  1.00  0.00    -0.248 NA
ATOM     50  C   UNL A   1      43.432  28.242  34.385  1.00  0.00     0.031 C 
ATOM     51  C   UNL A   1      45.657  25.420  30.463  1.00  0.00     0.029 A 
ATOM     52  C   UNL A   1      44.661  24.958  31.308  1.00  0.00     0.049 A 
ATOM     53  H   UNL A   1      43.159  23.532  30.927  1.00  0.00     0.167 HD
ATOM     54  C   UNL A   1      43.949  26.327  33.165  1.00  0.00     0.074 A 
ATOM     55  C   UNL A   1      43.919  26.990  34.460  1.00  0.00     0.031 C 
ATOM     56  C   UNL A   1      44.424  25.119  32.738  1.00  0.00     0.031 A 
BRANCH  43  57
ATOM     57  C   UNL A   1      43.849  22.608  27.110  1.00  0.00    -0.014 A 
ATOM     58  C   UNL A   1      42.974  21.579  26.693  1.00  0.00     0.010 A 
ATOM     59  C   UNL A   1      45.100  22.652  26.465  1.00  0.00     0.010 A 
ATOM     60  C   UNL A   1      43.348  20.608  25.752  1.00  0.00     0.020 A 
ATOM     61  C   UNL A   1      45.497  21.671  25.535  1.00  0.00     0.020 A 
ATOM     62  C   UNL A   1      44.618  20.648  25.190  1.00  0.00     0.054 A 
BRANCH  62  63
ATOM     63  S   UNL A   1      45.087  19.363  23.997  1.00  0.00     0.124 S 
ATOM     64  O   UNL A   1      46.546  19.436  24.014  1.00  0.00    -0.237 OA
ATOM     65  O   UNL A   1      44.511  18.159  24.589  1.00  0.00    -0.237 OA
ATOM     66  O   UNL A   1      44.462  19.803  22.752  1.00  0.00    -0.744 OA
ENDBRANCH  62  63
ENDBRANCH  43  57
BRANCH  44  67
ATOM     67  C   UNL A   1      41.411  30.351  32.550  1.00  0.00    -0.014 A 
ATOM     68  C   UNL A   1      40.279  29.565  32.887  1.00  0.00     0.010 A 
ATOM     69  C   UNL A   1      41.348  31.732  32.822  1.00  0.00     0.010 A 
ATOM     70  C   UNL A   1      39.176  30.113  33.559  1.00  0.00     0.020 A 
ATOM     71  C   UNL A   1      40.230  32.289  33.482  1.00  0.00     0.020 A 
ATOM     72  C   UNL A   1      39.167  31.469  33.874  1.00  0.00     0.054 A 
BRANCH  72  73
ATOM     73  S   UNL A   1      37.833  32.096  34.950  1.00  0.00     0.124 S 
ATOM     74  O   UNL A   1      36.672  32.040  34.067  1.00  0.00    -0.237 OA
ATOM     75  O   UNL A   1      37.835  31.125  36.044  1.00  0.00    -0.237 OA
ATOM     76  O   UNL A   1      38.289  33.435  35.306  1.00  0.00    -0.744 OA
ENDBRANCH  72  73
ENDBRANCH  44  67
BRANCH  56  77
ATOM     77  C   UNL A   1      44.815  23.976  33.637  1.00  0.00    -0.014 A 
ATOM     78  C   UNL A   1      43.947  22.933  33.985  1.00  0.00     0.010 A 
ATOM     79  C   UNL A   1      46.169  23.851  34.034  1.00  0.00     0.010 A 
ATOM     80  C   UNL A   1      44.389  21.851  34.750  1.00  0.00     0.020 A 
ATOM     81  C   UNL A   1      46.635  22.747  34.746  1.00  0.00     0.020 A 
ATOM     82  C   UNL A   1      45.731  21.764  35.125  1.00  0.00     0.054 A 
BRANCH  82  83
ATOM     83  S   UNL A   1      46.298  20.315  36.043  1.00  0.00     0.124 S 
ATOM     84  O   UNL A   1      47.746  20.409  35.879  1.00  0.00    -0.237 OA
ATOM     85  O   UNL A   1      45.803  20.573  37.394  1.00  0.00    -0.237 OA
ATOM     86  O   UNL A   1      45.657  19.199  35.355  1.00  0.00    -0.744 OA
ENDBRANCH  82  83
ENDBRANCH  56  77
ENDBRANCH  30  31
ENDBRANCH  23  25
ENDBRANCH  22  23
ENDBRANCH   1  22
TORSDOF 16
ENDMDL
MODEL 2
REMARK VINA RESULT:     -12.1      4.856     11.454
REMARK SMILES Cc1ccc(/C=C2/SC(=O)N(CC(=O)OCCOC(=O)c3ccc(-c4c5nc(c(-c6ccc(S(=O)(=O)[O-])cc6)c6ccc([nH]6)c(-c6ccc(S(=O)(=O)[O-])cc6)c6nc(c(-c7ccc(S(=O)(=O)[O-])cc7)c7ccc4[nH]7)C=C6)C=C5)cc3)C2=O)cc1
REMARK SMILES IDX 17 1 16 2 15 3 13 4 14 5 12 6 11 7 6 8 7 9 8 10 81 11 9 12
REMARK SMILES IDX 82 13 10 14 5 15 1 16 2 17 3 18 84 19 4 20 83 21 18 22 19 23
REMARK SMILES IDX 20 24 21 25 22 26 80 27 23 28 79 29 24 30 25 31 26 32 73 33
REMARK SMILES IDX 27 34 78 35 72 36 74 37 28 38 77 39 71 40 70 41 29 43 59 44
REMARK SMILES IDX 40 45 58 46 41 47 44 48 57 49 75 50 42 51 43 52 56 54 76 55
REMARK SMILES IDX 45 56 30 57 31 58 39 59 32 60 38 61 33 62 34 63 35 64 36 65
REMARK SMILES IDX 37 66 60 67 61 68 69 69 62 70 68 71 63 72 64 73 65 74 66 75
REMARK SMILES IDX 67 76 46 77 47 78 55 79 48 80 54 81 49 82 50 83 51 84 52 85
REMARK SMILES IDX 53 86
REMARK H PARENT 74 42 44 53
REMARK Flexibility Score: inf
ROOT
ATOM      1  C   UNL A   1      38.678  22.965  26.029  1.00  0.00     0.275 C 
ENDROOT
BRANCH   1   2
ATOM      2  C   UNL A   1      37.286  23.514  25.624  1.00  0.00     0.274 C 
BRANCH   2   3
ATOM      3  O   UNL A   1      36.985  23.404  24.217  1.00  0.00    -0.461 OA
BRANCH   3   4
ATOM      4  C   UNL A   1      35.685  23.236  23.867  1.00  0.00     0.326 C 
ATOM      5  O   UNL A   1      35.194  23.689  22.839  1.00  0.00    -0.250 OA
BRANCH   4   6
ATOM      6  C   UNL A   1      34.942  22.383  24.900  1.00  0.00     0.252 C 
BRANCH   6   7
ATOM      7  N   UNL A   1      33.559  22.803  24.846  1.00  0.00    -0.257 N 
ATOM      8  C   UNL A   1      31.467  25.677  24.931  1.00  0.00     0.029 C 
ATOM      9  C   UNL A   1      31.884  24.403  24.946  1.00  0.00     0.083 C 
ATOM     10  S   UNL A   1      31.184  23.165  23.955  1.00  0.00    -0.022 SA
ATOM     11  C   UNL A   1      33.070  23.821  25.629  1.00  0.00     0.268 C 
ATOM     12  C   UNL A   1      32.661  22.208  24.016  1.00  0.00     0.294 C 
ATOM     13  O   UNL A   1      33.404  24.073  26.773  1.00  0.00    -0.268 OA
ATOM     14  O   UNL A   1      32.800  21.158  23.403  1.00  0.00    -0.261 OA
BRANCH   8  15
ATOM     15  C   UNL A   1      32.133  26.835  25.544  1.00  0.00    -0.024 A 
ATOM     16  C   UNL A   1      34.109  30.208  27.396  1.00  0.00     0.044 C 
ATOM     17  C   UNL A   1      33.396  29.071  26.724  1.00  0.00    -0.051 A 
ATOM     18  C   UNL A   1      32.309  28.449  27.351  1.00  0.00     0.004 A 
ATOM     19  C   UNL A   1      33.815  28.595  25.482  1.00  0.00     0.004 A 
ATOM     20  C   UNL A   1      31.686  27.338  26.768  1.00  0.00     0.008 A 
ATOM     21  C   UNL A   1      33.172  27.501  24.888  1.00  0.00     0.008 A 
ENDBRANCH   8  15
ENDBRANCH   6   7
ENDBRANCH   4   6
ENDBRANCH   3   4
ENDBRANCH   2   3
ENDBRANCH   1   2
BRANCH   1  22
ATOM     22  O   UNL A   1      39.188  23.505  27.267  1.00  0.00    -0.458 OA
BRANCH  22  23
ATOM     23  C   UNL A   1      40.104  24.510  27.106  1.00  0.00     0.338 C 
ATOM     24  O   UNL A   1      40.947  24.511  26.228  1.00  0.00    -0.246 OA
BRANCH  23  25
ATOM     25  C   UNL A   1      39.542  25.770  27.655  1.00  0.00     0.060 A 
ATOM     26  C   UNL A   1      39.121  25.849  28.996  1.00  0.00     0.016 A 
ATOM     27  C   UNL A   1      40.014  26.898  27.005  1.00  0.00     0.016 A 
ATOM     28  C   UNL A   1      39.270  27.052  29.695  1.00  0.00     0.010 A 
ATOM     29  C   UNL A   1      40.490  27.912  27.777  1.00  0.00     0.010 A 
ATOM     30  C   UNL A   1      40.004  28.066  29.080  1.00  0.00    -0.014 A 
BRANCH  30  31
ATOM     31  C   UNL A   1      40.051  29.472  29.457  1.00  0.00     0.031 A 
ATOM     32  C   UNL A   1      38.930  30.407  29.335  1.00  0.00     0.074 A 
ATOM     33  C   UNL A   1      41.117  29.722  30.257  1.00  0.00     0.049 A 
ATOM     34  N   UNL A   1      39.076  31.686  29.371  1.00  0.00    -0.248 NA
ATOM     35  C   UNL A   1      37.537  29.989  29.208  1.00  0.00     0.031 C 
ATOM     36  C   UNL A   1      41.378  30.800  31.187  1.00  0.00     0.029 A 
ATOM     37  N   UNL A   1      42.283  28.944  30.339  1.00  0.00    -0.354 N 
ATOM     38  C   UNL A   1      37.835  32.227  29.633  1.00  0.00     0.074 A 
ATOM     39  C   UNL A   1      36.896  31.154  29.389  1.00  0.00     0.031 C 
ATOM     40  C   UNL A   1      42.701  30.804  31.459  1.00  0.00     0.029 A 
ATOM     41  C   UNL A   1      43.328  29.813  30.583  1.00  0.00     0.049 A 
ATOM     42  H   UNL A   1      42.344  27.965  30.241  1.00  0.00     0.167 HD
ATOM     43  C   UNL A   1      37.753  33.456  30.221  1.00  0.00     0.031 A 
ATOM     44  C   UNL A   1      44.229  30.045  29.580  1.00  0.00     0.031 A 
ATOM     45  C   UNL A   1      39.088  33.976  30.532  1.00  0.00     0.049 A 
ATOM     46  C   UNL A   1      44.118  31.484  29.132  1.00  0.00     0.074 A 
ATOM     47  C   UNL A   1      39.807  34.028  31.717  1.00  0.00     0.029 A 
ATOM     48  N   UNL A   1      40.001  34.210  29.508  1.00  0.00    -0.354 N 
ATOM     49  N   UNL A   1      43.043  32.210  29.273  1.00  0.00    -0.248 NA
ATOM     50  C   UNL A   1      45.224  32.227  28.546  1.00  0.00     0.031 C 
ATOM     51  C   UNL A   1      41.179  34.192  31.388  1.00  0.00     0.029 A 
ATOM     52  C   UNL A   1      41.290  34.264  30.009  1.00  0.00     0.049 A 
ATOM     53  H   UNL A   1      39.763  34.323  28.560  1.00  0.00     0.167 HD
ATOM     54  C   UNL A   1      43.317  33.505  28.939  1.00  0.00     0.074 A 
ATOM     55  C   UNL A   1      44.689  33.458  28.454  1.00  0.00     0.031 C 
ATOM     56  C   UNL A   1      42.418  34.517  29.119  1.00  0.00     0.031 A 
BRANCH  43  57
ATOM     57  C   UNL A   1      36.482  34.043  30.808  1.00  0.00    -0.014 A 
ATOM     58  C   UNL A   1      35.338  34.187  29.991  1.00  0.00     0.010 A 
ATOM     59  C   UNL A   1      36.342  34.466  32.145  1.00  0.00     0.010 A 
ATOM     60  C   UNL A   1      34.156  34.786  30.449  1.00  0.00     0.020 A 
ATOM     61  C   UNL A   1      35.169  35.090  32.612  1.00  0.00     0.020 A 
ATOM     62  C   UNL A   1      34.083  35.253  31.756  1.00  0.00     0.054 A 
BRANCH  62  63
ATOM     63  S   UNL A   1      32.552  36.051  32.315  1.00  0.00     0.124 S 
ATOM     64  O   UNL A   1      32.114  36.766  31.119  1.00  0.00    -0.237 OA
ATOM     65  O   UNL A   1      31.727  34.910  32.703  1.00  0.00    -0.237 OA
ATOM     66  O   UNL A   1      32.989  36.905  33.418  1.00  0.00    -0.744 OA
ENDBRANCH  62  63
ENDBRANCH  43  57
BRANCH  44  67
ATOM     67  C   UNL A   1      44.489  28.859  28.681  1.00  0.00    -0.014 A 
ATOM     68  C   UNL A   1      43.946  28.893  27.371  1.00  0.00     0.010 A 
ATOM     69  C   UNL A   1      45.508  27.923  28.939  1.00  0.00     0.010 A 
ATOM     70  C   UNL A   1      44.469  28.102  26.338  1.00  0.00     0.020 A 
ATOM     71  C   UNL A   1      46.024  27.111  27.905  1.00  0.00     0.020 A 
ATOM     72  C   UNL A   1      45.522  27.230  26.605  1.00  0.00     0.054 A 
BRANCH  72  73
ATOM     73  S   UNL A   1      46.328  26.395  25.196  1.00  0.00     0.124 S 
ATOM     74  O   UNL A   1      45.402  25.302  24.914  1.00  0.00    -0.237 OA
ATOM     75  O   UNL A   1      46.373  27.455  24.191  1.00  0.00    -0.237 OA
ATOM     76  O   UNL A   1      47.623  25.997  25.738  1.00  0.00    -0.744 OA
ENDBRANCH  72  73
ENDBRANCH  44  67
BRANCH  56  77
ATOM     77  C   UNL A   1      42.552  35.905  28.552  1.00  0.00    -0.014 A 
ATOM     78  C   UNL A   1      41.966  36.308  27.344  1.00  0.00     0.010 A 
ATOM     79  C   UNL A   1      43.168  36.909  29.339  1.00  0.00     0.010 A 
ATOM     80  C   UNL A   1      42.047  37.633  26.909  1.00  0.00     0.020 A 
ATOM     81  C   UNL A   1      43.203  38.245  28.942  1.00  0.00     0.020 A 
ATOM     82  C   UNL A   1      42.664  38.594  27.711  1.00  0.00     0.054 A 
BRANCH  82  83
ATOM     83  S   UNL A   1      42.686  40.316  27.167  1.00  0.00     0.124 S 
ATOM     84  O   UNL A   1      43.121  41.005  28.379  1.00  0.00    -0.237 OA
ATOM     85  O   UNL A   1      43.656  40.298  26.074  1.00  0.00    -0.237 OA
ATOM     86  O   UNL A   1      41.306  40.566  26.761  1.00  0.00    -0.744 OA
ENDBRANCH  82  83
ENDBRANCH  56  77
ENDBRANCH  30  31
ENDBRANCH  23  25
ENDBRANCH  22  23
ENDBRANCH   1  22
TORSDOF 16
ENDMDL
MODEL 3
REMARK VINA RESULT:     -12.0      1.420      3.275
REMARK SMILES Cc1ccc(/C=C2/SC(=O)N(CC(=O)OCCOC(=O)c3ccc(-c4c5nc(c(-c6ccc(S(=O)(=O)[O-])cc6)c6ccc([nH]6)c(-c6ccc(S(=O)(=O)[O-])cc6)c6nc(c(-c7ccc(S(=O)(=O)[O-])cc7)c7ccc4[nH]7)C=C6)C=C5)cc3)C2=O)cc1
REMARK SMILES IDX 17 1 16 2 15 3 13 4 14 5 12 6 11 7 6 8 7 9 8 10 81 11 9 12
REMARK SMILES IDX 82 13 10 14 5 15 1 16 2 17 3 18 84 19 4 20 83 21 18 22 19 23
REMARK SMILES IDX 20 24 21 25 22 26 80 27 23 28 79 29 24 30 25 31 26 32 73 33
REMARK SMILES IDX 27 34 78 35 72 36 74 37 28 38 77 39 71 40 70 41 29 43 59 44
REMARK SMILES IDX 40 45 58 46 41 47 44 48 57 49 75 50 42 51 43 52 56 54 76 55
REMARK SMILES IDX 45 56 30 57 31 58 39 59 32 60 38 61 33 62 34 63 35 64 36 65
REMARK SMILES IDX 37 66 60 67 61 68 69 69 62 70 68 71 63 72 64 73 65 74 66 75
REMARK SMILES IDX 67 76 46 77 47 78 55 79 48 80 54 81 49 82 50 83 51 84 52 85
REMARK SMILES IDX 53 86
REMARK H PARENT 74 42 44 53
REMARK Flexibility Score: inf
ROOT
ATOM      1  C   UNL A   1      34.337  30.623  27.702  1.00  0.00     0.275 C 
ENDROOT
BRANCH   1   2
ATOM      2  C   UNL A   1      33.333  29.792  26.860  1.00  0.00     0.274 C 
BRANCH   2   3
ATOM      3  O   UNL A   1      33.769  29.513  25.514  1.00  0.00    -0.461 OA
BRANCH   3   4
ATOM      4  C   UNL A   1      33.873  28.210  25.148  1.00  0.00     0.326 C 
ATOM      5  O   UNL A   1      34.107  27.843  24.002  1.00  0.00    -0.250 OA
BRANCH   4   6
ATOM      6  C   UNL A   1      33.702  27.284  26.356  1.00  0.00     0.252 C 
BRANCH   6   7
ATOM      7  N   UNL A   1      32.660  26.347  25.996  1.00  0.00    -0.257 N 
ATOM      8  C   UNL A   1      29.848  25.920  23.862  1.00  0.00     0.029 C 
ATOM      9  C   UNL A   1      30.746  25.734  24.840  1.00  0.00     0.083 C 
ATOM     10  S   UNL A   1      31.531  24.216  25.131  1.00  0.00    -0.022 SA
ATOM     11  C   UNL A   1      31.372  26.746  25.732  1.00  0.00     0.268 C 
ATOM     12  C   UNL A   1      32.899  25.011  25.903  1.00  0.00     0.294 C 
ATOM     13  O   UNL A   1      30.770  27.647  26.288  1.00  0.00    -0.268 OA
ATOM     14  O   UNL A   1      33.885  24.404  26.300  1.00  0.00    -0.261 OA
BRANCH   8  15
ATOM     15  C   UNL A   1      29.307  27.201  23.387  1.00  0.00    -0.024 A 
ATOM     16  C   UNL A   1      27.734  30.958  21.931  1.00  0.00     0.044 C 
ATOM     17  C   UNL A   1      28.281  29.674  22.484  1.00  0.00    -0.051 A 
ATOM     18  C   UNL A   1      29.646  29.384  22.376  1.00  0.00     0.004 A 
ATOM     19  C   UNL A   1      27.443  28.738  23.089  1.00  0.00     0.004 A 
ATOM     20  C   UNL A   1      30.154  28.155  22.820  1.00  0.00     0.008 A 
ATOM     21  C   UNL A   1      27.958  27.522  23.557  1.00  0.00     0.008 A 
ENDBRANCH   8  15
ENDBRANCH   6   7
ENDBRANCH   4   6
ENDBRANCH   3   4
ENDBRANCH   2   3
ENDBRANCH   1   2
BRANCH   1  22
ATOM     22  O   UNL A   1      35.237  29.827  28.500  1.00  0.00    -0.458 OA
BRANCH  22  23
ATOM     23  C   UNL A   1      36.484  30.372  28.652  1.00  0.00     0.338 C 
ATOM     24  O   UNL A   1      36.721  31.294  29.412  1.00  0.00    -0.246 OA
BRANCH  23  25
ATOM     25  C   UNL A   1      37.505  29.347  28.321  1.00  0.00     0.060 A 
ATOM     26  C   UNL A   1      38.471  29.586  27.325  1.00  0.00     0.016 A 
ATOM     27  C   UNL A   1      37.795  28.510  29.386  1.00  0.00     0.016 A 
ATOM     28  C   UNL A   1      39.755  29.049  27.468  1.00  0.00     0.010 A 
ATOM     29  C   UNL A   1      39.107  28.320  29.693  1.00  0.00     0.010 A 
ATOM     30  C   UNL A   1      40.072  28.454  28.688  1.00  0.00    -0.014 A 
BRANCH  30  31
ATOM     31  C   UNL A   1      41.203  27.584  28.977  1.00  0.00     0.031 A 
ATOM     32  C   UNL A   1      41.331  26.199  28.515  1.00  0.00     0.074 A 
ATOM     33  C   UNL A   1      42.269  28.304  29.406  1.00  0.00     0.049 A 
ATOM     34  N   UNL A   1      42.163  25.362  29.030  1.00  0.00    -0.248 NA
ATOM     35  C   UNL A   1      40.569  25.644  27.401  1.00  0.00     0.031 C 
ATOM     36  C   UNL A   1      43.682  27.991  29.433  1.00  0.00     0.029 A 
ATOM     37  N   UNL A   1      42.217  29.586  29.977  1.00  0.00    -0.354 N 
ATOM     38  C   UNL A   1      42.307  24.329  28.128  1.00  0.00     0.074 A 
ATOM     39  C   UNL A   1      41.205  24.478  27.203  1.00  0.00     0.031 C 
ATOM     40  C   UNL A   1      44.284  28.859  30.274  1.00  0.00     0.029 A 
ATOM     41  C   UNL A   1      43.230  29.648  30.914  1.00  0.00     0.049 A 
ATOM     42  H   UNL A   1      41.580  30.303  29.753  1.00  0.00     0.167 HD
ATOM     43  C   UNL A   1      43.452  23.585  28.141  1.00  0.00     0.031 A 
ATOM     44  C   UNL A   1      42.891  29.658  32.239  1.00  0.00     0.031 A 
ATOM     45  C   UNL A   1      44.394  24.097  29.141  1.00  0.00     0.049 A 
ATOM     46  C   UNL A   1      43.380  28.385  32.890  1.00  0.00     0.074 A 
ATOM     47  C   UNL A   1      45.525  24.892  29.025  1.00  0.00     0.029 A 
ATOM     48  N   UNL A   1      44.045  24.106  30.488  1.00  0.00    -0.354 N 
ATOM     49  N   UNL A   1      43.595  27.272  32.243  1.00  0.00    -0.248 NA
ATOM     50  C   UNL A   1      43.718  28.287  34.303  1.00  0.00     0.031 C 
ATOM     51  C   UNL A   1      45.789  25.463  30.298  1.00  0.00     0.029 A 
ATOM     52  C   UNL A   1      44.838  24.997  31.190  1.00  0.00     0.049 A 
ATOM     53  H   UNL A   1      43.334  23.554  30.886  1.00  0.00     0.167 HD
ATOM     54  C   UNL A   1      44.198  26.370  33.070  1.00  0.00     0.074 A 
ATOM     55  C   UNL A   1      44.221  27.040  34.362  1.00  0.00     0.031 C 
ATOM     56  C   UNL A   1      44.664  25.164  32.629  1.00  0.00     0.031 A 
BRANCH  43  57
ATOM     57  C   UNL A   1      43.857  22.615  27.047  1.00  0.00    -0.014 A 
ATOM     58  C   UNL A   1      43.031  21.505  26.758  1.00  0.00     0.010 A 
ATOM     59  C   UNL A   1      45.024  22.733  26.266  1.00  0.00     0.010 A 
ATOM     60  C   UNL A   1      43.380  20.532  25.811  1.00  0.00     0.020 A 
ATOM     61  C   UNL A   1      45.398  21.752  25.327  1.00  0.00     0.020 A 
ATOM     62  C   UNL A   1      44.575  20.651  25.111  1.00  0.00     0.054 A 
BRANCH  62  63
ATOM     63  S   UNL A   1      45.017  19.363  23.911  1.00  0.00     0.124 S 
ATOM     64  O   UNL A   1      44.300  18.197  24.422  1.00  0.00    -0.237 OA
ATOM     65  O   UNL A   1      44.510  19.913  22.658  1.00  0.00    -0.237 OA
ATOM     66  O   UNL A   1      46.473  19.282  24.011  1.00  0.00    -0.744 OA
ENDBRANCH  62  63
ENDBRANCH  43  57
BRANCH  44  67
ATOM     67  C   UNL A   1      41.594  30.366  32.551  1.00  0.00    -0.014 A 
ATOM     68  C   UNL A   1      40.469  29.567  32.879  1.00  0.00     0.010 A 
ATOM     69  C   UNL A   1      41.538  31.734  32.880  1.00  0.00     0.010 A 
ATOM     70  C   UNL A   1      39.381  30.087  33.595  1.00  0.00     0.020 A 
ATOM     71  C   UNL A   1      40.435  32.264  33.585  1.00  0.00     0.020 A 
ATOM     72  C   UNL A   1      39.379  31.430  33.965  1.00  0.00     0.054 A 
BRANCH  72  73
ATOM     73  S   UNL A   1      38.068  32.012  35.093  1.00  0.00     0.124 S 
ATOM     74  O   UNL A   1      38.547  33.341  35.463  1.00  0.00    -0.237 OA
ATOM     75  O   UNL A   1      36.886  31.988  34.232  1.00  0.00    -0.237 OA
ATOM     76  O   UNL A   1      38.079  31.019  36.162  1.00  0.00    -0.744 OA
ENDBRANCH  72  73
ENDBRANCH  44  67
BRANCH  56  77
ATOM     77  C   UNL A   1      45.108  24.030  33.515  1.00  0.00    -0.014 A 
ATOM     78  C   UNL A   1      46.368  23.970  34.123  1.00  0.00     0.010 A 
ATOM     79  C   UNL A   1      44.162  23.044  33.887  1.00  0.00     0.010 A 
ATOM     80  C   UNL A   1      46.695  22.939  35.007  1.00  0.00     0.020 A 
ATOM     81  C   UNL A   1      44.457  22.044  34.813  1.00  0.00     0.020 A 
ATOM     82  C   UNL A   1      45.737  21.983  35.348  1.00  0.00     0.054 A 
BRANCH  82  83
ATOM     83  S   UNL A   1      46.154  20.706  36.555  1.00  0.00     0.124 S 
ATOM     84  O   UNL A   1      45.370  19.573  36.072  1.00  0.00    -0.237 OA
ATOM     85  O   UNL A   1      47.602  20.576  36.402  1.00  0.00    -0.237 OA
ATOM     86  O   UNL A   1      45.718  21.279  37.826  1.00  0.00    -0.744 OA
ENDBRANCH  82  83
ENDBRANCH  56  77
ENDBRANCH  30  31
ENDBRANCH  23  25
ENDBRANCH  22  23
ENDBRANCH   1  22
TORSDOF 16
ENDMDL
