MODEL 1
REMARK VINA RESULT:     -11.0      0.000      0.000
REMARK SMILES Cc1ccc(C[NH2+]CCC(=O)OCCOC(=O)c2ccc(-c3c4nc(c(-c5ccc(S(=O)(=O)[O-])cc5)c5ccc([nH]5)c(-c5ccc(S(=O)(=O)[O-])cc5)c5nc(c(-c6ccc(S(=O)(=O)[O-])cc6)c6ccc3[nH]6)C=C5)C=C4)cc2)cc1
REMARK SMILES IDX 13 1 12 2 10 3 11 4 9 5 8 6 7 7 6 10 5 11 1 12 2 13 3 14
REMARK SMILES IDX 79 15 4 16 78 17 14 18 15 19 16 20 17 21 18 22 19 23 77 24
REMARK SMILES IDX 20 25 76 26 21 27 22 28 23 29 70 30 24 31 75 32 69 33 71 34
REMARK SMILES IDX 25 35 74 36 68 37 67 38 26 40 56 41 37 42 55 43 38 44 41 45
REMARK SMILES IDX 54 46 72 47 39 48 40 49 53 51 73 52 42 53 27 54 28 55 36 56
REMARK SMILES IDX 29 57 35 58 30 59 31 60 32 61 33 62 34 63 57 64 58 65 66 66
REMARK SMILES IDX 59 67 65 68 60 69 61 70 62 71 63 72 64 73 43 74 44 75 52 76
REMARK SMILES IDX 45 77 51 78 46 79 47 80 48 81 49 82 50 83
REMARK H PARENT 7 8 7 9 71 39 41 50
REMARK Flexibility Score: inf
ROOT
ATOM      1  C   UNL A   1      43.322  22.690  26.147  1.00  0.00     0.274 C 
ENDROOT
BRANCH   1   2
ATOM      2  O   UNL A   1      42.845  21.564  26.895  1.00  0.00    -0.462 OA
BRANCH   2   3
ATOM      3  C   UNL A   1      42.390  20.486  26.196  1.00  0.00     0.311 C 
ATOM      4  O   UNL A   1      42.934  20.001  25.229  1.00  0.00    -0.252 OA
BRANCH   3   5
ATOM      5  C   UNL A   1      41.124  20.007  26.862  1.00  0.00     0.184 C 
BRANCH   5   6
ATOM      6  C   UNL A   1      39.937  19.848  25.930  1.00  0.00     0.272 C 
BRANCH   6   7
ATOM      7  N   UNL A   1      39.103  21.045  25.809  1.00  0.00    -0.342 N 
ATOM      8  H   UNL A   1      38.809  21.329  26.743  1.00  0.00     0.346 HD
ATOM      9  H   UNL A   1      39.666  21.759  25.350  1.00  0.00     0.346 HD
BRANCH   7  10
ATOM     10  C   UNL A   1      37.907  20.838  24.986  1.00  0.00     0.297 C 
BRANCH  10  11
ATOM     11  C   UNL A   1      36.839  21.867  25.274  1.00  0.00     0.006 A 
ATOM     12  C   UNL A   1      33.693  24.711  26.081  1.00  0.00     0.044 C 
ATOM     13  C   UNL A   1      34.803  23.739  25.815  1.00  0.00    -0.051 A 
ATOM     14  C   UNL A   1      34.686  22.416  26.256  1.00  0.00     0.004 A 
ATOM     15  C   UNL A   1      35.952  24.126  25.122  1.00  0.00     0.004 A 
ATOM     16  C   UNL A   1      35.691  21.491  25.985  1.00  0.00     0.010 A 
ATOM     17  C   UNL A   1      36.961  23.197  24.850  1.00  0.00     0.010 A 
ENDBRANCH  10  11
ENDBRANCH   7  10
ENDBRANCH   6   7
ENDBRANCH   5   6
ENDBRANCH   3   5
ENDBRANCH   2   3
ENDBRANCH   1   2
BRANCH   1  18
ATOM     18  C   UNL A   1      42.193  23.584  25.584  1.00  0.00     0.275 C 
BRANCH  18  19
ATOM     19  O   UNL A   1      41.681  24.546  26.533  1.00  0.00    -0.458 OA
BRANCH  19  20
ATOM     20  C   UNL A   1      40.462  24.271  27.093  1.00  0.00     0.338 C 
ATOM     21  O   UNL A   1      40.122  23.179  27.522  1.00  0.00    -0.246 OA
BRANCH  20  22
ATOM     22  C   UNL A   1      39.851  25.563  27.528  1.00  0.00     0.060 A 
ATOM     23  C   UNL A   1      39.158  25.671  28.749  1.00  0.00     0.016 A 
ATOM     24  C   UNL A   1      40.405  26.695  26.949  1.00  0.00     0.016 A 
ATOM     25  C   UNL A   1      39.171  26.887  29.456  1.00  0.00     0.010 A 
ATOM     26  C   UNL A   1      40.654  27.767  27.755  1.00  0.00     0.010 A 
ATOM     27  C   UNL A   1      39.988  27.912  28.982  1.00  0.00    -0.014 A 
BRANCH  27  28
ATOM     28  C   UNL A   1      40.034  29.299  29.436  1.00  0.00     0.031 A 
ATOM     29  C   UNL A   1      38.934  30.276  29.351  1.00  0.00     0.074 A 
ATOM     30  C   UNL A   1      41.098  29.500  30.253  1.00  0.00     0.049 A 
ATOM     31  N   UNL A   1      39.090  31.526  29.623  1.00  0.00    -0.248 NA
ATOM     32  C   UNL A   1      37.562  29.961  28.970  1.00  0.00     0.031 C 
ATOM     33  C   UNL A   1      41.347  30.513  31.259  1.00  0.00     0.029 A 
ATOM     34  N   UNL A   1      42.276  28.741  30.260  1.00  0.00    -0.354 N 
ATOM     35  C   UNL A   1      37.844  32.101  29.761  1.00  0.00     0.074 A 
ATOM     36  C   UNL A   1      36.925  31.110  29.251  1.00  0.00     0.031 C 
ATOM     37  C   UNL A   1      42.667  30.520  31.527  1.00  0.00     0.029 A 
ATOM     38  C   UNL A   1      43.308  29.606  30.582  1.00  0.00     0.049 A 
ATOM     39  H   UNL A   1      42.354  27.778  30.072  1.00  0.00     0.167 HD
ATOM     40  C   UNL A   1      37.743  33.295  30.417  1.00  0.00     0.031 A 
ATOM     41  C   UNL A   1      44.232  29.925  29.630  1.00  0.00     0.031 A 
ATOM     42  C   UNL A   1      39.070  33.773  30.805  1.00  0.00     0.049 A 
ATOM     43  C   UNL A   1      44.119  31.393  29.296  1.00  0.00     0.074 A 
ATOM     44  C   UNL A   1      39.772  33.717  31.997  1.00  0.00     0.029 A 
ATOM     45  N   UNL A   1      39.987  34.101  29.815  1.00  0.00    -0.354 N 
ATOM     46  N   UNL A   1      43.028  32.096  29.443  1.00  0.00    -0.248 NA
ATOM     47  C   UNL A   1      45.248  32.193  28.845  1.00  0.00     0.031 C 
ATOM     48  C   UNL A   1      41.148  33.901  31.693  1.00  0.00     0.029 A 
ATOM     49  C   UNL A   1      41.270  34.099  30.327  1.00  0.00     0.049 A 
ATOM     50  H   UNL A   1      39.755  34.306  28.880  1.00  0.00     0.167 HD
ATOM     51  C   UNL A   1      43.310  33.419  29.242  1.00  0.00     0.074 A 
ATOM     52  C   UNL A   1      44.705  33.424  28.831  1.00  0.00     0.031 C 
ATOM     53  C   UNL A   1      42.404  34.415  29.469  1.00  0.00     0.031 A 
BRANCH  40  54
ATOM     54  C   UNL A   1      36.474  33.944  30.936  1.00  0.00    -0.014 A 
ATOM     55  C   UNL A   1      35.357  34.041  30.072  1.00  0.00     0.010 A 
ATOM     56  C   UNL A   1      36.301  34.480  32.225  1.00  0.00     0.010 A 
ATOM     57  C   UNL A   1      34.164  34.677  30.441  1.00  0.00     0.020 A 
ATOM     58  C   UNL A   1      35.108  35.130  32.609  1.00  0.00     0.020 A 
ATOM     59  C   UNL A   1      34.049  35.232  31.709  1.00  0.00     0.054 A 
BRANCH  59  60
ATOM     60  S   UNL A   1      32.502  36.070  32.153  1.00  0.00     0.124 S 
ATOM     61  O   UNL A   1      31.665  34.962  32.609  1.00  0.00    -0.237 OA
ATOM     62  O   UNL A   1      32.932  37.001  33.192  1.00  0.00    -0.237 OA
ATOM     63  O   UNL A   1      32.073  36.692  30.902  1.00  0.00    -0.744 OA
ENDBRANCH  59  60
ENDBRANCH  40  54
BRANCH  41  64
ATOM     64  C   UNL A   1      44.526  28.807  28.663  1.00  0.00    -0.014 A 
ATOM     65  C   UNL A   1      43.932  28.896  27.380  1.00  0.00     0.010 A 
ATOM     66  C   UNL A   1      45.648  27.966  28.812  1.00  0.00     0.010 A 
ATOM     67  C   UNL A   1      44.515  28.284  26.262  1.00  0.00     0.020 A 
ATOM     68  C   UNL A   1      46.228  27.339  27.688  1.00  0.00     0.020 A 
ATOM     69  C   UNL A   1      45.684  27.542  26.416  1.00  0.00     0.054 A 
BRANCH  69  70
ATOM     70  S   UNL A   1      46.568  27.013  24.910  1.00  0.00     0.124 S 
ATOM     71  O   UNL A   1      46.080  27.960  23.914  1.00  0.00    -0.237 OA
ATOM     72  O   UNL A   1      47.967  27.177  25.300  1.00  0.00    -0.237 OA
ATOM     73  O   UNL A   1      46.138  25.630  24.728  1.00  0.00    -0.744 OA
ENDBRANCH  69  70
ENDBRANCH  41  64
BRANCH  53  74
ATOM     74  C   UNL A   1      42.540  35.835  28.984  1.00  0.00    -0.014 A 
ATOM     75  C   UNL A   1      43.371  36.784  29.592  1.00  0.00     0.010 A 
ATOM     76  C   UNL A   1      41.923  36.209  27.763  1.00  0.00     0.010 A 
ATOM     77  C   UNL A   1      43.520  38.067  29.059  1.00  0.00     0.020 A 
ATOM     78  C   UNL A   1      42.114  37.465  27.188  1.00  0.00     0.020 A 
ATOM     79  C   UNL A   1      42.889  38.400  27.860  1.00  0.00     0.054 A 
BRANCH  79  80
ATOM     80  S   UNL A   1      43.147  40.044  27.157  1.00  0.00     0.124 S 
ATOM     81  O   UNL A   1      41.775  40.515  26.994  1.00  0.00    -0.237 OA
ATOM     82  O   UNL A   1      43.923  40.721  28.195  1.00  0.00    -0.237 OA
ATOM     83  O   UNL A   1      43.873  39.779  25.919  1.00  0.00    -0.744 OA
ENDBRANCH  79  80
ENDBRANCH  53  74
ENDBRANCH  27  28
ENDBRANCH  20  22
ENDBRANCH  19  20
ENDBRANCH  18  19
ENDBRANCH   1  18
TORSDOF 18
ENDMDL
MODEL 2
REMARK VINA RESULT:     -10.9      5.362     12.328
REMARK SMILES Cc1ccc(C[NH2+]CCC(=O)OCCOC(=O)c2ccc(-c3c4nc(c(-c5ccc(S(=O)(=O)[O-])cc5)c5ccc([nH]5)c(-c5ccc(S(=O)(=O)[O-])cc5)c5nc(c(-c6ccc(S(=O)(=O)[O-])cc6)c6ccc3[nH]6)C=C5)C=C4)cc2)cc1
REMARK SMILES IDX 13 1 12 2 10 3 11 4 9 5 8 6 7 7 6 10 5 11 1 12 2 13 3 14
REMARK SMILES IDX 79 15 4 16 78 17 14 18 15 19 16 20 17 21 18 22 19 23 77 24
REMARK SMILES IDX 20 25 76 26 21 27 22 28 23 29 70 30 24 31 75 32 69 33 71 34
REMARK SMILES IDX 25 35 74 36 68 37 67 38 26 40 56 41 37 42 55 43 38 44 41 45
REMARK SMILES IDX 54 46 72 47 39 48 40 49 53 51 73 52 42 53 27 54 28 55 36 56
REMARK SMILES IDX 29 57 35 58 30 59 31 60 32 61 33 62 34 63 57 64 58 65 66 66
REMARK SMILES IDX 59 67 65 68 60 69 61 70 62 71 63 72 64 73 43 74 44 75 52 76
REMARK SMILES IDX 45 77 51 78 46 79 47 80 48 81 49 82 50 83
REMARK H PARENT 7 8 7 9 71 39 41 50
REMARK Flexibility Score: inf
ROOT
ATOM      1  C   UNL A   1      33.342  28.786  26.054  1.00  0.00     0.274 C 
ENDROOT
BRANCH   1   2
ATOM      2  O   UNL A   1      32.944  27.409  26.009  1.00  0.00    -0.462 OA
BRANCH   2   3
ATOM      3  C   UNL A   1      31.816  27.055  26.687  1.00  0.00     0.311 C 
ATOM      4  O   UNL A   1      31.309  27.694  27.581  1.00  0.00    -0.252 OA
BRANCH   3   5
ATOM      5  C   UNL A   1      31.317  25.756  26.103  1.00  0.00     0.184 C 
BRANCH   5   6
ATOM      6  C   UNL A   1      29.851  25.757  25.712  1.00  0.00     0.272 C 
BRANCH   6   7
ATOM      7  N   UNL A   1      29.607  25.509  24.291  1.00  0.00    -0.342 N 
ATOM      8  H   UNL A   1      29.930  24.568  24.067  1.00  0.00     0.346 HD
ATOM      9  H   UNL A   1      28.607  25.619  24.132  1.00  0.00     0.346 HD
BRANCH   7  10
ATOM     10  C   UNL A   1      30.295  26.460  23.410  1.00  0.00     0.297 C 
BRANCH  10  11
ATOM     11  C   UNL A   1      29.619  27.811  23.403  1.00  0.00     0.006 A 
ATOM     12  C   UNL A   1      27.612  31.630  23.276  1.00  0.00     0.044 C 
ATOM     13  C   UNL A   1      28.314  30.308  23.346  1.00  0.00    -0.051 A 
ATOM     14  C   UNL A   1      27.607  29.132  23.075  1.00  0.00     0.004 A 
ATOM     15  C   UNL A   1      29.672  30.228  23.668  1.00  0.00     0.004 A 
ATOM     16  C   UNL A   1      28.254  27.899  23.100  1.00  0.00     0.010 A 
ATOM     17  C   UNL A   1      30.320  28.989  23.692  1.00  0.00     0.010 A 
ENDBRANCH  10  11
ENDBRANCH   7  10
ENDBRANCH   6   7
ENDBRANCH   5   6
ENDBRANCH   3   5
ENDBRANCH   2   3
ENDBRANCH   1   2
BRANCH   1  18
ATOM     18  C   UNL A   1      34.082  29.176  27.354  1.00  0.00     0.275 C 
BRANCH  18  19
ATOM     19  O   UNL A   1      35.522  29.172  27.231  1.00  0.00    -0.458 OA
BRANCH  19  20
ATOM     20  C   UNL A   1      36.173  30.328  27.572  1.00  0.00     0.338 C 
ATOM     21  O   UNL A   1      35.655  31.432  27.620  1.00  0.00    -0.246 OA
BRANCH  20  22
ATOM     22  C   UNL A   1      37.412  29.956  28.321  1.00  0.00     0.060 A 
ATOM     23  C   UNL A   1      37.345  29.321  29.576  1.00  0.00     0.016 A 
ATOM     24  C   UNL A   1      38.547  29.815  27.538  1.00  0.00     0.016 A 
ATOM     25  C   UNL A   1      38.354  28.419  29.958  1.00  0.00     0.010 A 
ATOM     26  C   UNL A   1      39.360  28.746  27.778  1.00  0.00     0.010 A 
ATOM     27  C   UNL A   1      39.323  28.082  29.015  1.00  0.00    -0.014 A 
BRANCH  27  28
ATOM     28  C   UNL A   1      40.549  27.317  29.228  1.00  0.00     0.031 A 
ATOM     29  C   UNL A   1      40.811  25.948  28.748  1.00  0.00     0.074 A 
ATOM     30  C   UNL A   1      41.556  28.129  29.634  1.00  0.00     0.049 A 
ATOM     31  N   UNL A   1      41.848  25.271  29.104  1.00  0.00    -0.248 NA
ATOM     32  C   UNL A   1      39.960  25.208  27.824  1.00  0.00     0.031 C 
ATOM     33  C   UNL A   1      42.994  27.967  29.568  1.00  0.00     0.029 A 
ATOM     34  N   UNL A   1      41.398  29.360  30.286  1.00  0.00    -0.354 N 
ATOM     35  C   UNL A   1      41.972  24.188  28.260  1.00  0.00     0.074 A 
ATOM     36  C   UNL A   1      40.721  24.137  27.541  1.00  0.00     0.031 C 
ATOM     37  C   UNL A   1      43.553  28.848  30.421  1.00  0.00     0.029 A 
ATOM     38  C   UNL A   1      42.466  29.490  31.158  1.00  0.00     0.049 A 
ATOM     39  H   UNL A   1      40.670  30.007  30.149  1.00  0.00     0.167 HD
ATOM     40  C   UNL A   1      43.180  23.553  28.185  1.00  0.00     0.031 A 
ATOM     41  C   UNL A   1      42.239  29.431  32.503  1.00  0.00     0.031 A 
ATOM     42  C   UNL A   1      44.128  24.154  29.123  1.00  0.00     0.049 A 
ATOM     43  C   UNL A   1      42.906  28.200  33.069  1.00  0.00     0.074 A 
ATOM     44  C   UNL A   1      45.141  25.083  28.960  1.00  0.00     0.029 A 
ATOM     45  N   UNL A   1      43.877  24.070  30.487  1.00  0.00    -0.354 N 
ATOM     46  N   UNL A   1      43.162  27.122  32.377  1.00  0.00    -0.248 NA
ATOM     47  C   UNL A   1      43.403  28.125  34.434  1.00  0.00     0.031 C 
ATOM     48  C   UNL A   1      45.417  25.645  30.236  1.00  0.00     0.029 A 
ATOM     49  C   UNL A   1      44.595  25.033  31.169  1.00  0.00     0.049 A 
ATOM     50  H   UNL A   1      43.273  23.416  30.907  1.00  0.00     0.167 HD
ATOM     51  C   UNL A   1      43.940  26.280  33.122  1.00  0.00     0.074 A 
ATOM     52  C   UNL A   1      44.030  26.935  34.417  1.00  0.00     0.031 C 
ATOM     53  C   UNL A   1      44.492  25.137  32.618  1.00  0.00     0.031 A 
BRANCH  40  54
ATOM     54  C   UNL A   1      43.620  22.556  27.130  1.00  0.00    -0.014 A 
ATOM     55  C   UNL A   1      42.744  21.498  26.786  1.00  0.00     0.010 A 
ATOM     56  C   UNL A   1      44.851  22.578  26.450  1.00  0.00     0.010 A 
ATOM     57  C   UNL A   1      43.087  20.496  25.868  1.00  0.00     0.020 A 
ATOM     58  C   UNL A   1      45.214  21.572  25.529  1.00  0.00     0.020 A 
ATOM     59  C   UNL A   1      44.331  20.531  25.250  1.00  0.00     0.054 A 
BRANCH  59  60
ATOM     60  S   UNL A   1      44.758  19.208  24.084  1.00  0.00     0.124 S 
ATOM     61  O   UNL A   1      43.867  18.126  24.498  1.00  0.00    -0.237 OA
ATOM     62  O   UNL A   1      44.453  19.813  22.792  1.00  0.00    -0.237 OA
ATOM     63  O   UNL A   1      46.177  18.967  24.337  1.00  0.00    -0.744 OA
ENDBRANCH  59  60
ENDBRANCH  40  54
BRANCH  41  64
ATOM     64  C   UNL A   1      40.910  30.003  32.924  1.00  0.00    -0.014 A 
ATOM     65  C   UNL A   1      40.384  29.557  34.162  1.00  0.00     0.010 A 
ATOM     66  C   UNL A   1      40.417  31.215  32.399  1.00  0.00     0.010 A 
ATOM     67  C   UNL A   1      39.508  30.354  34.912  1.00  0.00     0.020 A 
ATOM     68  C   UNL A   1      39.525  32.012  33.147  1.00  0.00     0.020 A 
ATOM     69  C   UNL A   1      39.115  31.597  34.418  1.00  0.00     0.054 A 
BRANCH  69  70
ATOM     70  S   UNL A   1      38.221  32.722  35.542  1.00  0.00     0.124 S 
ATOM     71  O   UNL A   1      39.310  33.401  36.235  1.00  0.00    -0.237 OA
ATOM     72  O   UNL A   1      37.459  33.549  34.608  1.00  0.00    -0.237 OA
ATOM     73  O   UNL A   1      37.418  31.820  36.362  1.00  0.00    -0.744 OA
ENDBRANCH  69  70
ENDBRANCH  41  64
BRANCH  53  74
ATOM     74  C   UNL A   1      45.088  24.026  33.444  1.00  0.00    -0.014 A 
ATOM     75  C   UNL A   1      46.398  24.050  33.939  1.00  0.00     0.010 A 
ATOM     76  C   UNL A   1      44.253  22.968  33.882  1.00  0.00     0.010 A 
ATOM     77  C   UNL A   1      46.880  23.029  34.764  1.00  0.00     0.020 A 
ATOM     78  C   UNL A   1      44.704  21.978  34.755  1.00  0.00     0.020 A 
ATOM     79  C   UNL A   1      46.029  21.999  35.166  1.00  0.00     0.054 A 
BRANCH  79  80
ATOM     80  S   UNL A   1      46.656  20.726  36.283  1.00  0.00     0.124 S 
ATOM     81  O   UNL A   1      46.422  19.510  35.509  1.00  0.00    -0.237 OA
ATOM     82  O   UNL A   1      48.059  21.103  36.448  1.00  0.00    -0.237 OA
ATOM     83  O   UNL A   1      45.831  20.879  37.478  1.00  0.00    -0.744 OA
ENDBRANCH  79  80
ENDBRANCH  53  74
ENDBRANCH  27  28
ENDBRANCH  20  22
ENDBRANCH  19  20
ENDBRANCH  18  19
ENDBRANCH   1  18
TORSDOF 18
ENDMDL
MODEL 3
REMARK VINA RESULT:     -10.8      1.672      2.929
REMARK SMILES Cc1ccc(C[NH2+]CCC(=O)OCCOC(=O)c2ccc(-c3c4nc(c(-c5ccc(S(=O)(=O)[O-])cc5)c5ccc([nH]5)c(-c5ccc(S(=O)(=O)[O-])cc5)c5nc(c(-c6ccc(S(=O)(=O)[O-])cc6)c6ccc3[nH]6)C=C5)C=C4)cc2)cc1
REMARK SMILES IDX 13 1 12 2 10 3 11 4 9 5 8 6 7 7 6 10 5 11 1 12 2 13 3 14
REMARK SMILES IDX 79 15 4 16 78 17 14 18 15 19 16 20 17 21 18 22 19 23 77 24
REMARK SMILES IDX 20 25 76 26 21 27 22 28 23 29 70 30 24 31 75 32 69 33 71 34
REMARK SMILES IDX 25 35 74 36 68 37 67 38 26 40 56 41 37 42 55 43 38 44 41 45
REMARK SMILES IDX 54 46 72 47 39 48 40 49 53 51 73 52 42 53 27 54 28 55 36 56
REMARK SMILES IDX 29 57 35 58 30 59 31 60 32 61 33 62 34 63 57 64 58 65 66 66
REMARK SMILES IDX 59 67 65 68 60 69 61 70 62 71 63 72 64 73 43 74 44 75 52 76
REMARK SMILES IDX 45 77 51 78 46 79 47 80 48 81 49 82 50 83
REMARK H PARENT 7 8 7 9 71 39 41 50
REMARK Flexibility Score: inf
ROOT
ATOM      1  C   UNL A   1      37.728  21.980  25.239  1.00  0.00     0.274 C 
ENDROOT
BRANCH   1   2
ATOM      2  O   UNL A   1      36.503  21.811  25.965  1.00  0.00    -0.462 OA
BRANCH   2   3
ATOM      3  C   UNL A   1      35.455  22.619  25.636  1.00  0.00     0.311 C 
ATOM      4  O   UNL A   1      34.563  22.946  26.387  1.00  0.00    -0.252 OA
BRANCH   3   5
ATOM      5  C   UNL A   1      35.633  23.041  24.198  1.00  0.00     0.184 C 
BRANCH   5   6
ATOM      6  C   UNL A   1      34.373  22.973  23.355  1.00  0.00     0.272 C 
BRANCH   6   7
ATOM      7  N   UNL A   1      33.388  24.012  23.663  1.00  0.00    -0.342 N 
ATOM      8  H   UNL A   1      32.470  23.685  23.365  1.00  0.00     0.346 HD
ATOM      9  H   UNL A   1      33.429  24.179  24.667  1.00  0.00     0.346 HD
BRANCH   7  10
ATOM     10  C   UNL A   1      33.667  25.289  22.998  1.00  0.00     0.297 C 
BRANCH  10  11
ATOM     11  C   UNL A   1      33.700  26.439  23.978  1.00  0.00     0.006 A 
ATOM     12  C   UNL A   1      33.725  29.648  26.864  1.00  0.00     0.044 C 
ATOM     13  C   UNL A   1      33.739  28.544  25.851  1.00  0.00    -0.051 A 
ATOM     14  C   UNL A   1      33.837  27.215  26.276  1.00  0.00     0.004 A 
ATOM     15  C   UNL A   1      33.643  28.817  24.483  1.00  0.00     0.004 A 
ATOM     16  C   UNL A   1      33.815  26.175  25.349  1.00  0.00     0.010 A 
ATOM     17  C   UNL A   1      33.621  27.773  23.555  1.00  0.00     0.010 A 
ENDBRANCH  10  11
ENDBRANCH   7  10
ENDBRANCH   6   7
ENDBRANCH   5   6
ENDBRANCH   3   5
ENDBRANCH   2   3
ENDBRANCH   1   2
BRANCH   1  18
ATOM     18  C   UNL A   1      38.960  22.210  26.145  1.00  0.00     0.275 C 
BRANCH  18  19
ATOM     19  O   UNL A   1      39.484  23.554  26.089  1.00  0.00    -0.458 OA
BRANCH  19  20
ATOM     20  C   UNL A   1      40.198  23.984  27.176  1.00  0.00     0.338 C 
ATOM     21  O   UNL A   1      41.325  23.613  27.461  1.00  0.00    -0.246 OA
BRANCH  20  22
ATOM     22  C   UNL A   1      39.606  25.277  27.635  1.00  0.00     0.060 A 
ATOM     23  C   UNL A   1      39.049  25.410  28.922  1.00  0.00     0.016 A 
ATOM     24  C   UNL A   1      40.064  26.400  26.964  1.00  0.00     0.016 A 
ATOM     25  C   UNL A   1      39.108  26.649  29.585  1.00  0.00     0.010 A 
ATOM     26  C   UNL A   1      40.372  27.504  27.704  1.00  0.00     0.010 A 
ATOM     27  C   UNL A   1      39.842  27.675  28.993  1.00  0.00    -0.014 A 
BRANCH  27  28
ATOM     28  C   UNL A   1      39.902  29.078  29.396  1.00  0.00     0.031 A 
ATOM     29  C   UNL A   1      38.815  30.064  29.266  1.00  0.00     0.074 A 
ATOM     30  C   UNL A   1      40.962  29.295  30.214  1.00  0.00     0.049 A 
ATOM     31  N   UNL A   1      38.985  31.322  29.493  1.00  0.00    -0.248 NA
ATOM     32  C   UNL A   1      37.443  29.753  28.886  1.00  0.00     0.031 C 
ATOM     33  C   UNL A   1      41.216  30.340  31.184  1.00  0.00     0.029 A 
ATOM     34  N   UNL A   1      42.130  28.522  30.258  1.00  0.00    -0.354 N 
ATOM     35  C   UNL A   1      37.745  31.916  29.600  1.00  0.00     0.074 A 
ATOM     36  C   UNL A   1      36.818  30.919  29.119  1.00  0.00     0.031 C 
ATOM     37  C   UNL A   1      42.535  30.341  31.463  1.00  0.00     0.029 A 
ATOM     38  C   UNL A   1      43.170  29.385  30.557  1.00  0.00     0.049 A 
ATOM     39  H   UNL A   1      42.198  27.551  30.107  1.00  0.00     0.167 HD
ATOM     40  C   UNL A   1      37.655  33.135  30.211  1.00  0.00     0.031 A 
ATOM     41  C   UNL A   1      44.106  29.657  29.601  1.00  0.00     0.031 A 
ATOM     42  C   UNL A   1      38.985  33.611  30.592  1.00  0.00     0.049 A 
ATOM     43  C   UNL A   1      44.014  31.113  29.212  1.00  0.00     0.074 A 
ATOM     44  C   UNL A   1      39.677  33.590  31.791  1.00  0.00     0.029 A 
ATOM     45  N   UNL A   1      39.914  33.890  29.598  1.00  0.00    -0.354 N 
ATOM     46  N   UNL A   1      42.931  31.835  29.325  1.00  0.00    -0.248 NA
ATOM     47  C   UNL A   1      45.157  31.882  28.742  1.00  0.00     0.031 C 
ATOM     48  C   UNL A   1      41.058  33.745  31.492  1.00  0.00     0.029 A 
ATOM     49  C   UNL A   1      41.193  33.891  30.120  1.00  0.00     0.049 A 
ATOM     50  H   UNL A   1      39.692  34.064  28.655  1.00  0.00     0.167 HD
ATOM     51  C   UNL A   1      43.233  33.145  29.078  1.00  0.00     0.074 A 
ATOM     52  C   UNL A   1      44.630  33.118  28.678  1.00  0.00     0.031 C 
ATOM     53  C   UNL A   1      42.337  34.161  29.261  1.00  0.00     0.031 A 
BRANCH  40  54
ATOM     54  C   UNL A   1      36.391  33.819  30.696  1.00  0.00    -0.014 A 
ATOM     55  C   UNL A   1      35.348  34.055  29.768  1.00  0.00     0.010 A 
ATOM     56  C   UNL A   1      36.154  34.258  32.011  1.00  0.00     0.010 A 
ATOM     57  C   UNL A   1      34.169  34.733  30.108  1.00  0.00     0.020 A 
ATOM     58  C   UNL A   1      34.975  34.950  32.366  1.00  0.00     0.020 A 
ATOM     59  C   UNL A   1      33.993  35.190  31.408  1.00  0.00     0.054 A 
BRANCH  59  60
ATOM     60  S   UNL A   1      32.468  36.085  31.815  1.00  0.00     0.124 S 
ATOM     61  O   UNL A   1      32.964  37.198  32.622  1.00  0.00    -0.237 OA
ATOM     62  O   UNL A   1      31.950  36.446  30.499  1.00  0.00    -0.237 OA
ATOM     63  O   UNL A   1      31.672  35.102  32.546  1.00  0.00    -0.744 OA
ENDBRANCH  59  60
ENDBRANCH  40  54
BRANCH  41  64
ATOM     64  C   UNL A   1      44.393  28.501  28.679  1.00  0.00    -0.014 A 
ATOM     65  C   UNL A   1      43.875  28.587  27.363  1.00  0.00     0.010 A 
ATOM     66  C   UNL A   1      45.460  27.608  28.909  1.00  0.00     0.010 A 
ATOM     67  C   UNL A   1      44.485  27.917  26.293  1.00  0.00     0.020 A 
ATOM     68  C   UNL A   1      46.066  26.923  27.834  1.00  0.00     0.020 A 
ATOM     69  C   UNL A   1      45.604  27.120  26.530  1.00  0.00     0.054 A 
BRANCH  69  70
ATOM     70  S   UNL A   1      46.540  26.508  25.088  1.00  0.00     0.124 S 
ATOM     71  O   UNL A   1      45.835  25.273  24.761  1.00  0.00    -0.237 OA
ATOM     72  O   UNL A   1      46.375  27.598  24.128  1.00  0.00    -0.237 OA
ATOM     73  O   UNL A   1      47.895  26.341  25.604  1.00  0.00    -0.744 OA
ENDBRANCH  69  70
ENDBRANCH  41  64
BRANCH  53  74
ATOM     74  C   UNL A   1      42.495  35.560  28.725  1.00  0.00    -0.014 A 
ATOM     75  C   UNL A   1      41.878  36.012  27.551  1.00  0.00     0.010 A 
ATOM     76  C   UNL A   1      43.171  36.528  29.510  1.00  0.00     0.010 A 
ATOM     77  C   UNL A   1      41.994  37.342  27.136  1.00  0.00     0.020 A 
ATOM     78  C   UNL A   1      43.239  37.871  29.138  1.00  0.00     0.020 A 
ATOM     79  C   UNL A   1      42.675  38.263  27.933  1.00  0.00     0.054 A 
BRANCH  79  80
ATOM     80  S   UNL A   1      42.758  39.989  27.407  1.00  0.00     0.124 S 
ATOM     81  O   UNL A   1      42.487  40.693  28.657  1.00  0.00    -0.237 OA
ATOM     82  O   UNL A   1      44.125  40.108  26.904  1.00  0.00    -0.237 OA
ATOM     83  O   UNL A   1      41.716  40.089  26.389  1.00  0.00    -0.744 OA
ENDBRANCH  79  80
ENDBRANCH  53  74
ENDBRANCH  27  28
ENDBRANCH  20  22
ENDBRANCH  19  20
ENDBRANCH  18  19
ENDBRANCH   1  18
TORSDOF 18
ENDMDL
