MODEL 1
REMARK VINA RESULT:     -10.4      0.000      0.000
REMARK SMILES N#C/C(=C/c1cc2c(cc1Br)OCO2)C(=O)OCCOC(=O)c1ccc(-c2c3nc(c(-c4ccc(S(=O)(=O)[O-])cc4)c4ccc([nH]4)c(-c4ccc(S(=O)(=O)[O-])cc4)c4nc(c(-c5ccc(S(=O)(=O)[O-])cc5)c5ccc2[nH]5)C=C4)C=C3)cc1
REMARK SMILES IDX 19 1 18 2 17 3 15 4 16 5 3 6 4 7 2 8 1 9 5 10 6 11 10 12
REMARK SMILES IDX 7 13 9 14 11 15 8 16 14 17 12 18 13 19 20 20 21 21 22 22
REMARK SMILES IDX 23 23 24 24 82 25 25 26 81 27 26 28 27 29 28 30 75 31 29 32
REMARK SMILES IDX 80 33 74 34 76 35 30 36 79 37 73 38 72 39 31 41 61 42 42 43
REMARK SMILES IDX 60 44 43 45 46 46 59 47 77 48 44 49 45 50 58 52 78 53 47 54
REMARK SMILES IDX 32 55 33 56 41 57 34 58 40 59 35 60 36 61 37 62 38 63 39 64
REMARK SMILES IDX 62 65 63 66 71 67 64 68 70 69 65 70 66 71 67 72 68 73 69 74
REMARK SMILES IDX 48 75 49 76 57 77 50 78 56 79 51 80 52 81 53 82 54 83 55 84
REMARK H PARENT 76 40 46 51
REMARK Flexibility Score: inf
ROOT
ATOM      1  C   UNL A   1      32.231  30.445  26.767  1.00  0.00     0.275 C 
ENDROOT
BRANCH   1   2
ATOM      2  C   UNL A   1      31.776  29.200  26.007  1.00  0.00     0.275 C 
BRANCH   2   3
ATOM      3  O   UNL A   1      31.050  29.566  24.819  1.00  0.00    -0.458 OA
BRANCH   3   4
ATOM      4  C   UNL A   1      31.525  29.062  23.650  1.00  0.00     0.349 C 
ATOM      5  O   UNL A   1      32.699  28.959  23.347  1.00  0.00    -0.245 OA
BRANCH   4   6
ATOM      6  C   UNL A   1      30.422  28.638  22.756  1.00  0.00     0.138 C 
ATOM      7  C   UNL A   1      29.953  27.370  22.755  1.00  0.00     0.036 C 
BRANCH   6   8
ATOM      8  C   UNL A   1      29.626  29.729  22.057  1.00  0.00     0.107 C 
ATOM      9  N   UNL A   1      28.967  30.633  21.477  1.00  0.00    -0.192 NA
ENDBRANCH   6   8
BRANCH   7  10
ATOM     10  C   UNL A   1      30.525  26.238  23.513  1.00  0.00    -0.006 A 
ATOM     11  C   UNL A   1      29.952  25.972  24.768  1.00  0.00     0.060 A 
ATOM     12  C   UNL A   1      31.563  25.389  23.037  1.00  0.00     0.029 A 
ATOM     13  C   UNL A   1      30.376  24.856  25.461  1.00  0.00     0.166 A 
ATOM     14  C   UNL A   1      31.945  24.243  23.749  1.00  0.00     0.067 A 
ATOM     15  Br  UNL A   1      32.541  25.760  21.448  1.00  0.00    -0.050 Br
ATOM     16  C   UNL A   1      31.327  24.004  24.955  1.00  0.00     0.166 A 
ATOM     17  O   UNL A   1      29.921  24.458  26.679  1.00  0.00    -0.454 OA
ATOM     18  O   UNL A   1      31.573  22.951  25.778  1.00  0.00    -0.454 OA
ATOM     19  C   UNL A   1      30.685  23.251  26.875  1.00  0.00     0.468 C 
ENDBRANCH   7  10
ENDBRANCH   4   6
ENDBRANCH   3   4
ENDBRANCH   2   3
ENDBRANCH   1   2
BRANCH   1  20
ATOM     20  O   UNL A   1      33.502  30.213  27.402  1.00  0.00    -0.458 OA
BRANCH  20  21
ATOM     21  C   UNL A   1      34.204  31.330  27.696  1.00  0.00     0.338 C 
ATOM     22  O   UNL A   1      33.782  32.478  27.748  1.00  0.00    -0.246 OA
BRANCH  21  23
ATOM     23  C   UNL A   1      35.564  30.973  28.112  1.00  0.00     0.060 A 
ATOM     24  C   UNL A   1      35.761  29.713  28.659  1.00  0.00     0.016 A 
ATOM     25  C   UNL A   1      36.589  31.913  28.151  1.00  0.00     0.016 A 
ATOM     26  C   UNL A   1      36.913  29.419  29.368  1.00  0.00     0.010 A 
ATOM     27  C   UNL A   1      37.807  31.568  28.755  1.00  0.00     0.010 A 
ATOM     28  C   UNL A   1      37.966  30.331  29.408  1.00  0.00    -0.014 A 
BRANCH  28  29
ATOM     29  C   UNL A   1      39.188  29.997  30.187  1.00  0.00     0.031 A 
ATOM     30  C   UNL A   1      40.133  28.946  29.671  1.00  0.00     0.074 A 
ATOM     31  C   UNL A   1      39.486  30.665  31.322  1.00  0.00     0.049 A 
ATOM     32  N   UNL A   1      41.113  28.341  30.289  1.00  0.00    -0.248 NA
ATOM     33  C   UNL A   1      39.939  28.502  28.279  1.00  0.00     0.031 C 
ATOM     34  C   UNL A   1      38.721  31.784  31.884  1.00  0.00     0.029 A 
ATOM     35  N   UNL A   1      40.527  30.511  32.204  1.00  0.00    -0.354 N 
ATOM     36  C   UNL A   1      41.594  27.390  29.397  1.00  0.00     0.074 A 
ATOM     37  C   UNL A   1      40.810  27.506  28.187  1.00  0.00     0.031 C 
ATOM     38  C   UNL A   1      39.346  32.247  32.975  1.00  0.00     0.029 A 
ATOM     39  C   UNL A   1      40.484  31.387  33.265  1.00  0.00     0.049 A 
ATOM     40  H   UNL A   1      41.237  29.840  32.087  1.00  0.00     0.167 HD
ATOM     41  C   UNL A   1      42.589  26.492  29.585  1.00  0.00     0.031 A 
ATOM     42  C   UNL A   1      41.236  31.453  34.380  1.00  0.00     0.031 A 
ATOM     43  C   UNL A   1      43.402  26.439  30.772  1.00  0.00     0.049 A 
ATOM     44  C   UNL A   1      42.301  30.416  34.589  1.00  0.00     0.074 A 
ATOM     45  C   UNL A   1      44.437  25.570  31.068  1.00  0.00     0.029 A 
ATOM     46  N   UNL A   1      43.287  27.307  31.846  1.00  0.00    -0.354 N 
ATOM     47  N   UNL A   1      42.677  29.450  33.785  1.00  0.00    -0.248 NA
ATOM     48  C   UNL A   1      43.022  30.457  35.867  1.00  0.00     0.031 C 
ATOM     49  C   UNL A   1      44.919  25.886  32.343  1.00  0.00     0.029 A 
ATOM     50  C   UNL A   1      44.221  26.986  32.816  1.00  0.00     0.049 A 
ATOM     51  H   UNL A   1      42.636  28.045  31.910  1.00  0.00     0.167 HD
ATOM     52  C   UNL A   1      43.689  28.775  34.455  1.00  0.00     0.074 A 
ATOM     53  C   UNL A   1      43.880  29.456  35.720  1.00  0.00     0.031 C 
ATOM     54  C   UNL A   1      44.392  27.684  34.064  1.00  0.00     0.031 A 
BRANCH  41  55
ATOM     55  C   UNL A   1      42.809  25.451  28.520  1.00  0.00    -0.014 A 
ATOM     56  C   UNL A   1      43.710  25.648  27.459  1.00  0.00     0.010 A 
ATOM     57  C   UNL A   1      42.123  24.226  28.616  1.00  0.00     0.010 A 
ATOM     58  C   UNL A   1      43.896  24.648  26.497  1.00  0.00     0.020 A 
ATOM     59  C   UNL A   1      42.325  23.215  27.672  1.00  0.00     0.020 A 
ATOM     60  C   UNL A   1      43.201  23.438  26.610  1.00  0.00     0.054 A 
BRANCH  60  61
ATOM     61  S   UNL A   1      43.485  22.145  25.369  1.00  0.00     0.124 S 
ATOM     62  O   UNL A   1      43.402  22.901  24.122  1.00  0.00    -0.237 OA
ATOM     63  O   UNL A   1      44.815  21.652  25.717  1.00  0.00    -0.237 OA
ATOM     64  O   UNL A   1      42.395  21.199  25.597  1.00  0.00    -0.744 OA
ENDBRANCH  60  61
ENDBRANCH  41  55
BRANCH  42  65
ATOM     65  C   UNL A   1      40.950  32.484  35.419  1.00  0.00    -0.014 A 
ATOM     66  C   UNL A   1      41.660  33.696  35.444  1.00  0.00     0.010 A 
ATOM     67  C   UNL A   1      39.958  32.256  36.393  1.00  0.00     0.010 A 
ATOM     68  C   UNL A   1      41.397  34.652  36.432  1.00  0.00     0.020 A 
ATOM     69  C   UNL A   1      39.667  33.222  37.358  1.00  0.00     0.020 A 
ATOM     70  C   UNL A   1      40.401  34.409  37.382  1.00  0.00     0.054 A 
BRANCH  70  71
ATOM     71  S   UNL A   1      40.044  35.677  38.630  1.00  0.00     0.124 S 
ATOM     72  O   UNL A   1      38.985  35.045  39.410  1.00  0.00    -0.237 OA
ATOM     73  O   UNL A   1      41.328  35.827  39.309  1.00  0.00    -0.237 OA
ATOM     74  O   UNL A   1      39.632  36.832  37.834  1.00  0.00    -0.744 OA
ENDBRANCH  70  71
ENDBRANCH  42  65
BRANCH  54  75
ATOM     75  C   UNL A   1      45.461  27.190  34.998  1.00  0.00    -0.014 A 
ATOM     76  C   UNL A   1      45.182  26.214  35.970  1.00  0.00     0.010 A 
ATOM     77  C   UNL A   1      46.773  27.682  34.869  1.00  0.00     0.010 A 
ATOM     78  C   UNL A   1      46.194  25.759  36.819  1.00  0.00     0.020 A 
ATOM     79  C   UNL A   1      47.791  27.209  35.698  1.00  0.00     0.020 A 
ATOM     80  C   UNL A   1      47.491  26.261  36.678  1.00  0.00     0.054 A 
BRANCH  80  81
ATOM     81  S   UNL A   1      48.796  25.624  37.764  1.00  0.00     0.124 S 
ATOM     82  O   UNL A   1      48.885  24.229  37.345  1.00  0.00    -0.237 OA
ATOM     83  O   UNL A   1      49.943  26.459  37.412  1.00  0.00    -0.237 OA
ATOM     84  O   UNL A   1      48.265  25.841  39.108  1.00  0.00    -0.744 OA
ENDBRANCH  80  81
ENDBRANCH  54  75
ENDBRANCH  28  29
ENDBRANCH  21  23
ENDBRANCH  20  21
ENDBRANCH   1  20
TORSDOF 16
ENDMDL
MODEL 2
REMARK VINA RESULT:     -10.3      3.332      7.773
REMARK SMILES N#C/C(=C/c1cc2c(cc1Br)OCO2)C(=O)OCCOC(=O)c1ccc(-c2c3nc(c(-c4ccc(S(=O)(=O)[O-])cc4)c4ccc([nH]4)c(-c4ccc(S(=O)(=O)[O-])cc4)c4nc(c(-c5ccc(S(=O)(=O)[O-])cc5)c5ccc2[nH]5)C=C4)C=C3)cc1
REMARK SMILES IDX 19 1 18 2 17 3 15 4 16 5 3 6 4 7 2 8 1 9 5 10 6 11 10 12
REMARK SMILES IDX 7 13 9 14 11 15 8 16 14 17 12 18 13 19 20 20 21 21 22 22
REMARK SMILES IDX 23 23 24 24 82 25 25 26 81 27 26 28 27 29 28 30 75 31 29 32
REMARK SMILES IDX 80 33 74 34 76 35 30 36 79 37 73 38 72 39 31 41 61 42 42 43
REMARK SMILES IDX 60 44 43 45 46 46 59 47 77 48 44 49 45 50 58 52 78 53 47 54
REMARK SMILES IDX 32 55 33 56 41 57 34 58 40 59 35 60 36 61 37 62 38 63 39 64
REMARK SMILES IDX 62 65 63 66 71 67 64 68 70 69 65 70 66 71 67 72 68 73 69 74
REMARK SMILES IDX 48 75 49 76 57 77 50 78 56 79 51 80 52 81 53 82 54 83 55 84
REMARK H PARENT 76 40 46 51
REMARK Flexibility Score: inf
ROOT
ATOM      1  C   UNL A   1      36.518  23.099  24.803  1.00  0.00     0.275 C 
ENDROOT
BRANCH   1   2
ATOM      2  C   UNL A   1      35.497  22.765  25.889  1.00  0.00     0.275 C 
BRANCH   2   3
ATOM      3  O   UNL A   1      34.982  21.432  25.710  1.00  0.00    -0.458 OA
BRANCH   3   4
ATOM      4  C   UNL A   1      33.809  21.157  26.339  1.00  0.00     0.349 C 
ATOM      5  O   UNL A   1      33.537  21.441  27.491  1.00  0.00    -0.245 OA
BRANCH   4   6
ATOM      6  C   UNL A   1      32.868  20.447  25.441  1.00  0.00     0.138 C 
ATOM      7  C   UNL A   1      32.193  21.092  24.464  1.00  0.00     0.036 C 
BRANCH   6   8
ATOM      8  C   UNL A   1      32.904  18.927  25.444  1.00  0.00     0.107 C 
ATOM      9  N   UNL A   1      32.935  17.667  25.447  1.00  0.00    -0.192 NA
ENDBRANCH   6   8
BRANCH   7  10
ATOM     10  C   UNL A   1      32.190  22.552  24.235  1.00  0.00    -0.006 A 
ATOM     11  C   UNL A   1      33.005  23.024  23.193  1.00  0.00     0.060 A 
ATOM     12  C   UNL A   1      31.393  23.482  24.958  1.00  0.00     0.029 A 
ATOM     13  C   UNL A   1      32.949  24.364  22.869  1.00  0.00     0.166 A 
ATOM     14  C   UNL A   1      31.330  24.831  24.581  1.00  0.00     0.067 A 
ATOM     15  Br  UNL A   1      30.401  22.993  26.507  1.00  0.00    -0.050 Br
ATOM     16  C   UNL A   1      32.118  25.237  23.528  1.00  0.00     0.166 A 
ATOM     17  O   UNL A   1      33.665  24.974  21.888  1.00  0.00    -0.454 OA
ATOM     18  O   UNL A   1      32.188  26.499  23.031  1.00  0.00    -0.454 OA
ATOM     19  C   UNL A   1      33.181  26.328  21.997  1.00  0.00     0.468 C 
ENDBRANCH   7  10
ENDBRANCH   4   6
ENDBRANCH   3   4
ENDBRANCH   2   3
ENDBRANCH   1   2
BRANCH   1  20
ATOM     20  O   UNL A   1      37.506  24.018  25.304  1.00  0.00    -0.458 OA
BRANCH  20  21
ATOM     21  C   UNL A   1      38.564  23.440  25.916  1.00  0.00     0.338 C 
ATOM     22  O   UNL A   1      38.988  22.305  25.745  1.00  0.00    -0.246 OA
BRANCH  21  23
ATOM     23  C   UNL A   1      39.268  24.427  26.740  1.00  0.00     0.060 A 
ATOM     24  C   UNL A   1      38.962  24.474  28.093  1.00  0.00     0.016 A 
ATOM     25  C   UNL A   1      40.063  25.419  26.176  1.00  0.00     0.016 A 
ATOM     26  C   UNL A   1      39.320  25.565  28.865  1.00  0.00     0.010 A 
ATOM     27  C   UNL A   1      40.538  26.458  26.990  1.00  0.00     0.010 A 
ATOM     28  C   UNL A   1      40.135  26.564  28.335  1.00  0.00    -0.014 A 
BRANCH  28  29
ATOM     29  C   UNL A   1      40.495  27.734  29.180  1.00  0.00     0.031 A 
ATOM     30  C   UNL A   1      41.821  27.754  29.892  1.00  0.00     0.074 A 
ATOM     31  C   UNL A   1      39.670  28.799  29.271  1.00  0.00     0.049 A 
ATOM     32  N   UNL A   1      42.232  28.545  30.848  1.00  0.00    -0.248 NA
ATOM     33  C   UNL A   1      42.809  26.737  29.490  1.00  0.00     0.031 C 
ATOM     34  C   UNL A   1      38.404  28.967  28.549  1.00  0.00     0.029 A 
ATOM     35  N   UNL A   1      39.782  29.957  30.000  1.00  0.00    -0.354 N 
ATOM     36  C   UNL A   1      43.485  28.071  31.218  1.00  0.00     0.074 A 
ATOM     37  C   UNL A   1      43.776  26.932  30.374  1.00  0.00     0.031 C 
ATOM     38  C   UNL A   1      37.890  30.173  28.826  1.00  0.00     0.029 A 
ATOM     39  C   UNL A   1      38.718  30.815  29.837  1.00  0.00     0.049 A 
ATOM     40  H   UNL A   1      40.550  30.156  30.582  1.00  0.00     0.167 HD
ATOM     41  C   UNL A   1      44.305  28.538  32.188  1.00  0.00     0.031 A 
ATOM     42  C   UNL A   1      38.408  31.961  30.473  1.00  0.00     0.031 A 
ATOM     43  C   UNL A   1      44.027  29.714  32.970  1.00  0.00     0.049 A 
ATOM     44  C   UNL A   1      39.307  32.433  31.578  1.00  0.00     0.074 A 
ATOM     45  C   UNL A   1      44.788  30.278  33.979  1.00  0.00     0.029 A 
ATOM     46  N   UNL A   1      42.911  30.521  32.811  1.00  0.00    -0.354 N 
ATOM     47  N   UNL A   1      40.438  31.915  31.997  1.00  0.00    -0.248 NA
ATOM     48  C   UNL A   1      38.875  33.623  32.320  1.00  0.00     0.031 C 
ATOM     49  C   UNL A   1      44.108  31.402  34.460  1.00  0.00     0.029 A 
ATOM     50  C   UNL A   1      42.952  31.569  33.714  1.00  0.00     0.049 A 
ATOM     51  H   UNL A   1      42.194  30.370  32.152  1.00  0.00     0.167 HD
ATOM     52  C   UNL A   1      40.860  32.726  33.042  1.00  0.00     0.074 A 
ATOM     53  C   UNL A   1      39.874  33.779  33.178  1.00  0.00     0.031 C 
ATOM     54  C   UNL A   1      41.959  32.606  33.825  1.00  0.00     0.031 A 
BRANCH  41  55
ATOM     55  C   UNL A   1      45.543  27.743  32.508  1.00  0.00    -0.014 A 
ATOM     56  C   UNL A   1      46.809  28.101  32.016  1.00  0.00     0.010 A 
ATOM     57  C   UNL A   1      45.432  26.630  33.364  1.00  0.00     0.010 A 
ATOM     58  C   UNL A   1      47.937  27.343  32.350  1.00  0.00     0.020 A 
ATOM     59  C   UNL A   1      46.559  25.885  33.721  1.00  0.00     0.020 A 
ATOM     60  C   UNL A   1      47.804  26.238  33.200  1.00  0.00     0.054 A 
BRANCH  60  61
ATOM     61  S   UNL A   1      49.286  25.291  33.644  1.00  0.00     0.124 S 
ATOM     62  O   UNL A   1      49.636  24.663  32.373  1.00  0.00    -0.237 OA
ATOM     63  O   UNL A   1      50.205  26.328  34.105  1.00  0.00    -0.237 OA
ATOM     64  O   UNL A   1      48.816  24.375  34.681  1.00  0.00    -0.744 OA
ENDBRANCH  60  61
ENDBRANCH  41  55
BRANCH  42  65
ATOM     65  C   UNL A   1      37.150  32.689  30.139  1.00  0.00    -0.014 A 
ATOM     66  C   UNL A   1      36.000  32.539  30.933  1.00  0.00     0.010 A 
ATOM     67  C   UNL A   1      37.098  33.541  29.018  1.00  0.00     0.010 A 
ATOM     68  C   UNL A   1      34.819  33.213  30.604  1.00  0.00     0.020 A 
ATOM     69  C   UNL A   1      35.931  34.243  28.707  1.00  0.00     0.020 A 
ATOM     70  C   UNL A   1      34.793  34.062  29.493  1.00  0.00     0.054 A 
BRANCH  70  71
ATOM     71  S   UNL A   1      33.265  34.961  29.107  1.00  0.00     0.124 S 
ATOM     72  O   UNL A   1      33.777  36.257  28.675  1.00  0.00    -0.237 OA
ATOM     73  O   UNL A   1      32.665  34.136  28.061  1.00  0.00    -0.237 OA
ATOM     74  O   UNL A   1      32.541  34.965  30.377  1.00  0.00    -0.744 OA
ENDBRANCH  70  71
ENDBRANCH  42  65
BRANCH  54  75
ATOM     75  C   UNL A   1      42.172  33.667  34.870  1.00  0.00    -0.014 A 
ATOM     76  C   UNL A   1      41.745  33.476  36.195  1.00  0.00     0.010 A 
ATOM     77  C   UNL A   1      42.849  34.850  34.524  1.00  0.00     0.010 A 
ATOM     78  C   UNL A   1      41.965  34.469  37.152  1.00  0.00     0.020 A 
ATOM     79  C   UNL A   1      43.094  35.832  35.485  1.00  0.00     0.020 A 
ATOM     80  C   UNL A   1      42.637  35.641  36.791  1.00  0.00     0.054 A 
BRANCH  80  81
ATOM     81  S   UNL A   1      42.948  36.897  38.061  1.00  0.00     0.124 S 
ATOM     82  O   UNL A   1      43.665  37.920  37.306  1.00  0.00    -0.237 OA
ATOM     83  O   UNL A   1      41.600  37.262  38.490  1.00  0.00    -0.237 OA
ATOM     84  O   UNL A   1      43.743  36.188  39.062  1.00  0.00    -0.744 OA
ENDBRANCH  80  81
ENDBRANCH  54  75
ENDBRANCH  28  29
ENDBRANCH  21  23
ENDBRANCH  20  21
ENDBRANCH   1  20
TORSDOF 16
ENDMDL
MODEL 3
REMARK VINA RESULT:     -10.2      5.476     10.512
REMARK SMILES N#C/C(=C/c1cc2c(cc1Br)OCO2)C(=O)OCCOC(=O)c1ccc(-c2c3nc(c(-c4ccc(S(=O)(=O)[O-])cc4)c4ccc([nH]4)c(-c4ccc(S(=O)(=O)[O-])cc4)c4nc(c(-c5ccc(S(=O)(=O)[O-])cc5)c5ccc2[nH]5)C=C4)C=C3)cc1
REMARK SMILES IDX 19 1 18 2 17 3 15 4 16 5 3 6 4 7 2 8 1 9 5 10 6 11 10 12
REMARK SMILES IDX 7 13 9 14 11 15 8 16 14 17 12 18 13 19 20 20 21 21 22 22
REMARK SMILES IDX 23 23 24 24 82 25 25 26 81 27 26 28 27 29 28 30 75 31 29 32
REMARK SMILES IDX 80 33 74 34 76 35 30 36 79 37 73 38 72 39 31 41 61 42 42 43
REMARK SMILES IDX 60 44 43 45 46 46 59 47 77 48 44 49 45 50 58 52 78 53 47 54
REMARK SMILES IDX 32 55 33 56 41 57 34 58 40 59 35 60 36 61 37 62 38 63 39 64
REMARK SMILES IDX 62 65 63 66 71 67 64 68 70 69 65 70 66 71 67 72 68 73 69 74
REMARK SMILES IDX 48 75 49 76 57 77 50 78 56 79 51 80 52 81 53 82 54 83 55 84
REMARK H PARENT 76 40 46 51
REMARK Flexibility Score: inf
ROOT
ATOM      1  C   UNL A   1      37.465  21.339  25.043  1.00  0.00     0.275 C 
ENDROOT
BRANCH   1   2
ATOM      2  C   UNL A   1      36.069  21.756  24.580  1.00  0.00     0.275 C 
BRANCH   2   3
ATOM      3  O   UNL A   1      35.138  20.668  24.730  1.00  0.00    -0.458 OA
BRANCH   3   4
ATOM      4  C   UNL A   1      34.151  20.849  25.647  1.00  0.00     0.349 C 
ATOM      5  O   UNL A   1      34.258  21.462  26.693  1.00  0.00    -0.245 OA
BRANCH   4   6
ATOM      6  C   UNL A   1      32.892  20.194  25.222  1.00  0.00     0.138 C 
ATOM      7  C   UNL A   1      31.970  20.843  24.476  1.00  0.00     0.036 C 
BRANCH   6   8
ATOM      8  C   UNL A   1      32.793  18.686  25.386  1.00  0.00     0.107 C 
ATOM      9  N   UNL A   1      32.712  17.435  25.522  1.00  0.00    -0.192 NA
ENDBRANCH   6   8
BRANCH   7  10
ATOM     10  C   UNL A   1      32.013  22.271  24.098  1.00  0.00    -0.006 A 
ATOM     11  C   UNL A   1      32.663  22.579  22.891  1.00  0.00     0.060 A 
ATOM     12  C   UNL A   1      31.407  23.322  24.840  1.00  0.00     0.029 A 
ATOM     13  C   UNL A   1      32.630  23.883  22.441  1.00  0.00     0.166 A 
ATOM     14  C   UNL A   1      31.359  24.630  24.338  1.00  0.00     0.067 A 
ATOM     15  Br  UNL A   1      30.668  23.057  26.573  1.00  0.00    -0.050 Br
ATOM     16  C   UNL A   1      31.977  24.874  23.133  1.00  0.00     0.166 A 
ATOM     17  O   UNL A   1      33.202  24.342  21.297  1.00  0.00    -0.454 OA
ATOM     18  O   UNL A   1      32.034  26.075  22.500  1.00  0.00    -0.454 OA
ATOM     19  C   UNL A   1      32.823  25.733  21.340  1.00  0.00     0.468 C 
ENDBRANCH   7  10
ENDBRANCH   4   6
ENDBRANCH   3   4
ENDBRANCH   2   3
ENDBRANCH   1   2
BRANCH   1  20
ATOM     20  O   UNL A   1      38.012  22.319  25.944  1.00  0.00    -0.458 OA
BRANCH  20  21
ATOM     21  C   UNL A   1      39.276  22.072  26.355  1.00  0.00     0.338 C 
ATOM     22  O   UNL A   1      39.956  21.087  26.104  1.00  0.00    -0.246 OA
BRANCH  21  23
ATOM     23  C   UNL A   1      39.817  23.246  27.047  1.00  0.00     0.060 A 
ATOM     24  C   UNL A   1      39.388  24.498  26.625  1.00  0.00     0.016 A 
ATOM     25  C   UNL A   1      40.867  23.143  27.953  1.00  0.00     0.016 A 
ATOM     26  C   UNL A   1      40.078  25.643  26.985  1.00  0.00     0.010 A 
ATOM     27  C   UNL A   1      41.481  24.315  28.421  1.00  0.00     0.010 A 
ATOM     28  C   UNL A   1      41.120  25.576  27.908  1.00  0.00    -0.014 A 
BRANCH  28  29
ATOM     29  C   UNL A   1      41.854  26.818  28.268  1.00  0.00     0.031 A 
ATOM     30  C   UNL A   1      41.111  27.960  28.906  1.00  0.00     0.074 A 
ATOM     31  C   UNL A   1      43.188  26.909  28.079  1.00  0.00     0.049 A 
ATOM     32  N   UNL A   1      41.493  29.197  29.082  1.00  0.00    -0.248 NA
ATOM     33  C   UNL A   1      39.749  27.679  29.394  1.00  0.00     0.031 C 
ATOM     34  C   UNL A   1      44.058  25.841  27.573  1.00  0.00     0.029 A 
ATOM     35  N   UNL A   1      44.055  27.950  28.308  1.00  0.00    -0.354 N 
ATOM     36  C   UNL A   1      40.395  29.859  29.619  1.00  0.00     0.074 A 
ATOM     37  C   UNL A   1      39.335  28.885  29.757  1.00  0.00     0.031 C 
ATOM     38  C   UNL A   1      45.331  26.261  27.584  1.00  0.00     0.029 A 
ATOM     39  C   UNL A   1      45.359  27.663  27.977  1.00  0.00     0.049 A 
ATOM     40  H   UNL A   1      43.770  28.817  28.675  1.00  0.00     0.167 HD
ATOM     41  C   UNL A   1      40.284  31.167  29.949  1.00  0.00     0.031 A 
ATOM     42  C   UNL A   1      46.449  28.453  27.932  1.00  0.00     0.031 A 
ATOM     43  C   UNL A   1      41.373  32.106  29.869  1.00  0.00     0.049 A 
ATOM     44  C   UNL A   1      46.290  29.910  28.256  1.00  0.00     0.074 A 
ATOM     45  C   UNL A   1      41.372  33.454  30.178  1.00  0.00     0.029 A 
ATOM     46  N   UNL A   1      42.663  31.785  29.474  1.00  0.00    -0.354 N 
ATOM     47  N   UNL A   1      45.219  30.552  28.659  1.00  0.00    -0.248 NA
ATOM     48  C   UNL A   1      47.477  30.758  28.087  1.00  0.00     0.031 C 
ATOM     49  C   UNL A   1      42.652  33.959  29.927  1.00  0.00     0.029 A 
ATOM     50  C   UNL A   1      43.463  32.913  29.515  1.00  0.00     0.049 A 
ATOM     51  H   UNL A   1      42.965  30.887  29.205  1.00  0.00     0.167 HD
ATOM     52  C   UNL A   1      45.606  31.877  28.806  1.00  0.00     0.074 A 
ATOM     53  C   UNL A   1      47.014  31.941  28.469  1.00  0.00     0.031 C 
ATOM     54  C   UNL A   1      44.863  32.948  29.178  1.00  0.00     0.031 A 
BRANCH  41  55
ATOM     55  C   UNL A   1      38.928  31.678  30.358  1.00  0.00    -0.014 A 
ATOM     56  C   UNL A   1      38.527  31.738  31.704  1.00  0.00     0.010 A 
ATOM     57  C   UNL A   1      38.052  32.151  29.362  1.00  0.00     0.010 A 
ATOM     58  C   UNL A   1      37.263  32.234  32.042  1.00  0.00     0.020 A 
ATOM     59  C   UNL A   1      36.799  32.671  29.698  1.00  0.00     0.020 A 
ATOM     60  C   UNL A   1      36.406  32.696  31.036  1.00  0.00     0.054 A 
BRANCH  60  61
ATOM     61  S   UNL A   1      34.786  33.364  31.504  1.00  0.00     0.124 S 
ATOM     62  O   UNL A   1      34.109  33.445  30.212  1.00  0.00    -0.237 OA
ATOM     63  O   UNL A   1      34.271  32.350  32.420  1.00  0.00    -0.237 OA
ATOM     64  O   UNL A   1      35.105  34.651  32.120  1.00  0.00    -0.744 OA
ENDBRANCH  60  61
ENDBRANCH  41  55
BRANCH  42  65
ATOM     65  C   UNL A   1      47.759  27.901  27.486  1.00  0.00    -0.014 A 
ATOM     66  C   UNL A   1      48.170  28.017  26.146  1.00  0.00     0.010 A 
ATOM     67  C   UNL A   1      48.609  27.253  28.404  1.00  0.00     0.010 A 
ATOM     68  C   UNL A   1      49.394  27.482  25.731  1.00  0.00     0.020 A 
ATOM     69  C   UNL A   1      49.848  26.750  28.001  1.00  0.00     0.020 A 
ATOM     70  C   UNL A   1      50.226  26.853  26.662  1.00  0.00     0.054 A 
BRANCH  70  71
ATOM     71  S   UNL A   1      51.829  26.203  26.114  1.00  0.00     0.124 S 
ATOM     72  O   UNL A   1      52.765  27.076  26.815  1.00  0.00    -0.237 OA
ATOM     73  O   UNL A   1      51.787  24.819  26.576  1.00  0.00    -0.237 OA
ATOM     74  O   UNL A   1      51.786  26.369  24.662  1.00  0.00    -0.744 OA
ENDBRANCH  70  71
ENDBRANCH  42  65
BRANCH  54  75
ATOM     75  C   UNL A   1      45.573  34.269  29.281  1.00  0.00    -0.014 A 
ATOM     76  C   UNL A   1      45.651  35.138  28.179  1.00  0.00     0.010 A 
ATOM     77  C   UNL A   1      46.130  34.660  30.512  1.00  0.00     0.010 A 
ATOM     78  C   UNL A   1      46.304  36.368  28.301  1.00  0.00     0.020 A 
ATOM     79  C   UNL A   1      46.759  35.899  30.643  1.00  0.00     0.020 A 
ATOM     80  C   UNL A   1      46.855  36.739  29.531  1.00  0.00     0.054 A 
BRANCH  80  81
ATOM     81  S   UNL A   1      47.660  38.357  29.675  1.00  0.00     0.124 S 
ATOM     82  O   UNL A   1      48.716  38.261  28.672  1.00  0.00    -0.237 OA
ATOM     83  O   UNL A   1      46.576  39.285  29.359  1.00  0.00    -0.237 OA
ATOM     84  O   UNL A   1      48.118  38.394  31.063  1.00  0.00    -0.744 OA
ENDBRANCH  80  81
ENDBRANCH  54  75
ENDBRANCH  28  29
ENDBRANCH  21  23
ENDBRANCH  20  21
ENDBRANCH   1  20
TORSDOF 16
ENDMDL
