MODEL 1
REMARK VINA RESULT:     -10.7      0.000      0.000
REMARK SMILES Cn1ncc(C(=O)NCc2ccc(F)cc2)c1C(=O)OCCOC(=O)c1ccc(-c2c3nc(c(-c4ccc(S(=O)(=O)[O-])cc4)c4ccc([nH]4)c(-c4ccc(S(=O)(=O)[O-])cc4)c4nc(c(-c5ccc(S(=O)(=O)[O-])cc5)c5ccc2[nH]5)C=C4)C=C3)cc1
REMARK SMILES IDX 21 1 20 2 18 3 19 4 17 5 1 6 2 7 3 8 4 9 5 10 6 11 7 12 8 13
REMARK SMILES IDX 9 15 10 16 11 17 16 18 12 19 15 20 13 21 14 22 22 23 23 24
REMARK SMILES IDX 24 25 25 26 26 27 27 28 85 29 28 30 84 31 29 32 30 33 31 34
REMARK SMILES IDX 78 35 32 36 83 37 77 38 79 39 33 40 82 41 76 42 75 43 34 45
REMARK SMILES IDX 64 46 45 47 63 48 46 49 49 50 62 51 80 52 47 53 48 54 61 56
REMARK SMILES IDX 81 57 50 58 35 59 36 60 44 61 37 62 43 63 38 64 39 65 40 66
REMARK SMILES IDX 41 67 42 68 65 69 66 70 74 71 67 72 73 73 68 74 69 75 70 76
REMARK SMILES IDX 71 77 72 78 51 79 52 80 60 81 53 82 59 83 54 84 55 85 56 86
REMARK SMILES IDX 57 87 58 88
REMARK H PARENT 8 14 79 44 49 55
REMARK Flexibility Score: inf
ROOT
ATOM      1  C   UNL A   1      36.874  21.488  24.389  1.00  0.00     0.275 C 
ENDROOT
BRANCH   1   2
ATOM      2  O   UNL A   1      36.067  20.744  25.316  1.00  0.00    -0.457 OA
BRANCH   2   3
ATOM      3  C   UNL A   1      34.903  21.358  25.662  1.00  0.00     0.357 C 
ATOM      4  O   UNL A   1      34.748  21.933  26.723  1.00  0.00    -0.244 OA
BRANCH   3   5
ATOM      5  C   UNL A   1      33.941  21.254  24.602  1.00  0.00     0.159 A 
ATOM      6  C   UNL A   1      33.249  18.783  24.825  1.00  0.00     0.174 C 
ATOM      7  N   UNL A   1      33.189  20.131  24.301  1.00  0.00    -0.261 N 
ATOM      8  N   UNL A   1      32.221  20.366  23.401  1.00  0.00    -0.180 NA
ATOM      9  C   UNL A   1      32.424  21.630  23.048  1.00  0.00     0.150 A 
ATOM     10  C   UNL A   1      33.558  22.223  23.674  1.00  0.00     0.092 A 
BRANCH  10  11
ATOM     11  C   UNL A   1      34.020  23.557  23.282  1.00  0.00     0.255 C 
ATOM     12  O   UNL A   1      34.205  23.782  22.085  1.00  0.00    -0.269 OA
ATOM     13  N   UNL A   1      34.491  24.523  24.150  1.00  0.00    -0.348 N 
ATOM     14  H   UNL A   1      35.312  24.976  23.850  1.00  0.00     0.164 HD
BRANCH  13  15
ATOM     15  C   UNL A   1      33.987  24.982  25.422  1.00  0.00     0.152 C 
BRANCH  15  16
ATOM     16  C   UNL A   1      33.187  26.273  25.402  1.00  0.00    -0.029 A 
ATOM     17  C   UNL A   1      33.233  27.195  26.454  1.00  0.00     0.008 A 
ATOM     18  C   UNL A   1      32.428  26.620  24.269  1.00  0.00     0.008 A 
ATOM     19  C   UNL A   1      32.541  28.413  26.365  1.00  0.00     0.039 A 
ATOM     20  C   UNL A   1      31.707  27.812  24.189  1.00  0.00     0.039 A 
ATOM     21  C   UNL A   1      31.779  28.706  25.239  1.00  0.00     0.123 A 
ATOM     22  F   UNL A   1      31.118  29.868  25.156  1.00  0.00    -0.207 F 
ENDBRANCH  15  16
ENDBRANCH  13  15
ENDBRANCH  10  11
ENDBRANCH   3   5
ENDBRANCH   2   3
ENDBRANCH   1   2
BRANCH   1  23
ATOM     23  C   UNL A   1      37.518  22.715  25.067  1.00  0.00     0.275 C 
BRANCH  23  24
ATOM     24  O   UNL A   1      38.231  22.339  26.268  1.00  0.00    -0.458 OA
BRANCH  24  25
ATOM     25  C   UNL A   1      39.568  22.611  26.282  1.00  0.00     0.338 C 
ATOM     26  O   UNL A   1      40.450  21.848  25.933  1.00  0.00    -0.246 OA
BRANCH  25  27
ATOM     27  C   UNL A   1      39.796  23.957  26.871  1.00  0.00     0.060 A 
ATOM     28  C   UNL A   1      40.547  24.926  26.204  1.00  0.00     0.016 A 
ATOM     29  C   UNL A   1      39.268  24.258  28.128  1.00  0.00     0.016 A 
ATOM     30  C   UNL A   1      40.700  26.213  26.759  1.00  0.00     0.010 A 
ATOM     31  C   UNL A   1      39.387  25.547  28.667  1.00  0.00     0.010 A 
ATOM     32  C   UNL A   1      40.120  26.538  27.996  1.00  0.00    -0.014 A 
BRANCH  32  33
ATOM     33  C   UNL A   1      40.450  27.819  28.693  1.00  0.00     0.031 A 
ATOM     34  C   UNL A   1      41.812  27.955  29.326  1.00  0.00     0.074 A 
ATOM     35  C   UNL A   1      39.580  28.844  28.808  1.00  0.00     0.049 A 
ATOM     36  N   UNL A   1      42.369  29.002  29.881  1.00  0.00    -0.248 NA
ATOM     37  C   UNL A   1      42.652  26.746  29.345  1.00  0.00     0.031 C 
ATOM     38  C   UNL A   1      38.207  28.858  28.314  1.00  0.00     0.029 A 
ATOM     39  N   UNL A   1      39.727  30.083  29.396  1.00  0.00    -0.354 N 
ATOM     40  C   UNL A   1      43.634  28.585  30.280  1.00  0.00     0.074 A 
ATOM     41  C   UNL A   1      43.730  27.174  29.982  1.00  0.00     0.031 C 
ATOM     42  C   UNL A   1      37.635  30.038  28.616  1.00  0.00     0.029 A 
ATOM     43  C   UNL A   1      38.604  30.878  29.317  1.00  0.00     0.049 A 
ATOM     44  H   UNL A   1      40.560  30.373  29.832  1.00  0.00     0.167 HD
ATOM     45  C   UNL A   1      44.647  29.311  30.809  1.00  0.00     0.031 A 
ATOM     46  C   UNL A   1      38.385  32.143  29.738  1.00  0.00     0.031 A 
ATOM     47  C   UNL A   1      44.558  30.703  31.150  1.00  0.00     0.049 A 
ATOM     48  C   UNL A   1      39.513  32.930  30.361  1.00  0.00     0.074 A 
ATOM     49  C   UNL A   1      45.544  31.529  31.659  1.00  0.00     0.029 A 
ATOM     50  N   UNL A   1      43.411  31.469  31.038  1.00  0.00    -0.354 N 
ATOM     51  N   UNL A   1      40.749  32.557  30.598  1.00  0.00    -0.248 NA
ATOM     52  C   UNL A   1      39.226  34.323  30.744  1.00  0.00     0.031 C 
ATOM     53  C   UNL A   1      44.979  32.787  31.896  1.00  0.00     0.029 A 
ATOM     54  C   UNL A   1      43.656  32.755  31.487  1.00  0.00     0.049 A 
ATOM     55  H   UNL A   1      42.548  31.147  30.689  1.00  0.00     0.167 HD
ATOM     56  C   UNL A   1      41.393  33.680  31.114  1.00  0.00     0.074 A 
ATOM     57  C   UNL A   1      40.415  34.746  31.153  1.00  0.00     0.031 C 
ATOM     58  C   UNL A   1      42.682  33.816  31.509  1.00  0.00     0.031 A 
BRANCH  45  59
ATOM     59  C   UNL A   1      45.949  28.592  31.029  1.00  0.00    -0.014 A 
ATOM     60  C   UNL A   1      46.944  28.607  30.032  1.00  0.00     0.010 A 
ATOM     61  C   UNL A   1      46.185  27.896  32.226  1.00  0.00     0.010 A 
ATOM     62  C   UNL A   1      48.128  27.890  30.205  1.00  0.00     0.020 A 
ATOM     63  C   UNL A   1      47.382  27.199  32.413  1.00  0.00     0.020 A 
ATOM     64  C   UNL A   1      48.336  27.183  31.392  1.00  0.00     0.054 A 
BRANCH  64  65
ATOM     65  S   UNL A   1      49.880  26.255  31.586  1.00  0.00     0.124 S 
ATOM     66  O   UNL A   1      50.884  27.297  31.386  1.00  0.00    -0.237 OA
ATOM     67  O   UNL A   1      49.776  25.739  32.949  1.00  0.00    -0.237 OA
ATOM     68  O   UNL A   1      49.813  25.244  30.534  1.00  0.00    -0.744 OA
ENDBRANCH  64  65
ENDBRANCH  45  59
BRANCH  46  69
ATOM     69  C   UNL A   1      37.051  32.786  29.549  1.00  0.00    -0.014 A 
ATOM     70  C   UNL A   1      36.722  33.410  28.332  1.00  0.00     0.010 A 
ATOM     71  C   UNL A   1      36.123  32.823  30.604  1.00  0.00     0.010 A 
ATOM     72  C   UNL A   1      35.504  34.086  28.184  1.00  0.00     0.020 A 
ATOM     73  C   UNL A   1      34.894  33.478  30.452  1.00  0.00     0.020 A 
ATOM     74  C   UNL A   1      34.599  34.119  29.247  1.00  0.00     0.054 A 
BRANCH  74  75
ATOM     75  S   UNL A   1      33.017  34.983  29.028  1.00  0.00     0.124 S 
ATOM     76  O   UNL A   1      32.338  34.133  28.055  1.00  0.00    -0.237 OA
ATOM     77  O   UNL A   1      32.457  34.970  30.377  1.00  0.00    -0.237 OA
ATOM     78  O   UNL A   1      33.413  36.301  28.539  1.00  0.00    -0.744 OA
ENDBRANCH  74  75
ENDBRANCH  46  69
BRANCH  58  79
ATOM     79  C   UNL A   1      43.141  35.171  31.983  1.00  0.00    -0.014 A 
ATOM     80  C   UNL A   1      43.750  36.086  31.106  1.00  0.00     0.010 A 
ATOM     81  C   UNL A   1      42.876  35.566  33.308  1.00  0.00     0.010 A 
ATOM     82  C   UNL A   1      44.101  37.364  31.550  1.00  0.00     0.020 A 
ATOM     83  C   UNL A   1      43.204  36.850  33.750  1.00  0.00     0.020 A 
ATOM     84  C   UNL A   1      43.824  37.740  32.869  1.00  0.00     0.054 A 
BRANCH  84  85
ATOM     85  S   UNL A   1      44.226  39.426  33.404  1.00  0.00     0.124 S 
ATOM     86  O   UNL A   1      42.901  40.016  33.577  1.00  0.00    -0.237 OA
ATOM     87  O   UNL A   1      44.979  39.202  34.636  1.00  0.00    -0.237 OA
ATOM     88  O   UNL A   1      45.009  39.965  32.294  1.00  0.00    -0.744 OA
ENDBRANCH  84  85
ENDBRANCH  58  79
ENDBRANCH  32  33
ENDBRANCH  25  27
ENDBRANCH  24  25
ENDBRANCH  23  24
ENDBRANCH   1  23
TORSDOF 17
ENDMDL
MODEL 2
REMARK VINA RESULT:     -10.6      5.083     11.389
REMARK SMILES Cn1ncc(C(=O)NCc2ccc(F)cc2)c1C(=O)OCCOC(=O)c1ccc(-c2c3nc(c(-c4ccc(S(=O)(=O)[O-])cc4)c4ccc([nH]4)c(-c4ccc(S(=O)(=O)[O-])cc4)c4nc(c(-c5ccc(S(=O)(=O)[O-])cc5)c5ccc2[nH]5)C=C4)C=C3)cc1
REMARK SMILES IDX 21 1 20 2 18 3 19 4 17 5 1 6 2 7 3 8 4 9 5 10 6 11 7 12 8 13
REMARK SMILES IDX 9 15 10 16 11 17 16 18 12 19 15 20 13 21 14 22 22 23 23 24
REMARK SMILES IDX 24 25 25 26 26 27 27 28 85 29 28 30 84 31 29 32 30 33 31 34
REMARK SMILES IDX 78 35 32 36 83 37 77 38 79 39 33 40 82 41 76 42 75 43 34 45
REMARK SMILES IDX 64 46 45 47 63 48 46 49 49 50 62 51 80 52 47 53 48 54 61 56
REMARK SMILES IDX 81 57 50 58 35 59 36 60 44 61 37 62 43 63 38 64 39 65 40 66
REMARK SMILES IDX 41 67 42 68 65 69 66 70 74 71 67 72 73 73 68 74 69 75 70 76
REMARK SMILES IDX 71 77 72 78 51 79 52 80 60 81 53 82 59 83 54 84 55 85 56 86
REMARK SMILES IDX 57 87 58 88
REMARK H PARENT 8 14 79 44 49 55
REMARK Flexibility Score: inf
ROOT
ATOM      1  C   UNL A   1      35.899  33.751  33.625  1.00  0.00     0.275 C 
ENDROOT
BRANCH   1   2
ATOM      2  O   UNL A   1      35.603  34.190  32.289  1.00  0.00    -0.457 OA
BRANCH   2   3
ATOM      3  C   UNL A   1      34.408  33.753  31.808  1.00  0.00     0.357 C 
ATOM      4  O   UNL A   1      33.896  32.707  32.161  1.00  0.00    -0.244 OA
BRANCH   3   5
ATOM      5  C   UNL A   1      33.855  34.703  30.885  1.00  0.00     0.159 A 
ATOM      6  C   UNL A   1      32.341  36.069  32.456  1.00  0.00     0.174 C 
ATOM      7  N   UNL A   1      33.001  35.742  31.211  1.00  0.00    -0.261 N 
ATOM      8  N   UNL A   1      32.802  36.602  30.199  1.00  0.00    -0.180 NA
ATOM      9  C   UNL A   1      33.455  36.047  29.185  1.00  0.00     0.150 A 
ATOM     10  C   UNL A   1      34.048  34.792  29.505  1.00  0.00     0.092 A 
BRANCH  10  11
ATOM     11  C   UNL A   1      34.671  33.969  28.467  1.00  0.00     0.255 C 
ATOM     12  O   UNL A   1      35.878  34.102  28.261  1.00  0.00    -0.269 OA
ATOM     13  N   UNL A   1      33.987  33.214  27.532  1.00  0.00    -0.348 N 
ATOM     14  H   UNL A   1      34.330  33.296  26.613  1.00  0.00     0.164 HD
BRANCH  13  15
ATOM     15  C   UNL A   1      32.857  32.329  27.672  1.00  0.00     0.152 C 
BRANCH  15  16
ATOM     16  C   UNL A   1      33.098  30.871  27.321  1.00  0.00    -0.029 A 
ATOM     17  C   UNL A   1      34.352  30.266  27.472  1.00  0.00     0.008 A 
ATOM     18  C   UNL A   1      32.031  30.054  26.903  1.00  0.00     0.008 A 
ATOM     19  C   UNL A   1      34.518  28.896  27.210  1.00  0.00     0.039 A 
ATOM     20  C   UNL A   1      32.197  28.702  26.605  1.00  0.00     0.039 A 
ATOM     21  C   UNL A   1      33.444  28.130  26.772  1.00  0.00     0.123 A 
ATOM     22  F   UNL A   1      33.605  26.825  26.522  1.00  0.00    -0.207 F 
ENDBRANCH  15  16
ENDBRANCH  13  15
ENDBRANCH  10  11
ENDBRANCH   3   5
ENDBRANCH   2   3
ENDBRANCH   1   2
BRANCH   1  23
ATOM     23  C   UNL A   1      36.759  32.470  33.615  1.00  0.00     0.275 C 
BRANCH  23  24
ATOM     24  O   UNL A   1      37.355  32.247  32.316  1.00  0.00    -0.458 OA
BRANCH  24  25
ATOM     25  C   UNL A   1      37.208  30.994  31.796  1.00  0.00     0.338 C 
ATOM     26  O   UNL A   1      36.240  30.272  31.948  1.00  0.00    -0.246 OA
BRANCH  25  27
ATOM     27  C   UNL A   1      38.452  30.604  31.079  1.00  0.00     0.060 A 
ATOM     28  C   UNL A   1      38.484  30.485  29.689  1.00  0.00     0.016 A 
ATOM     29  C   UNL A   1      39.610  30.328  31.808  1.00  0.00     0.016 A 
ATOM     30  C   UNL A   1      39.690  30.169  29.031  1.00  0.00     0.010 A 
ATOM     31  C   UNL A   1      40.819  30.048  31.157  1.00  0.00     0.010 A 
ATOM     32  C   UNL A   1      40.872  29.949  29.758  1.00  0.00    -0.014 A 
BRANCH  32  33
ATOM     33  C   UNL A   1      42.098  29.408  29.095  1.00  0.00     0.031 A 
ATOM     34  C   UNL A   1      43.250  30.351  28.850  1.00  0.00     0.074 A 
ATOM     35  C   UNL A   1      42.211  28.130  28.679  1.00  0.00     0.049 A 
ATOM     36  N   UNL A   1      44.452  30.093  28.400  1.00  0.00    -0.248 NA
ATOM     37  C   UNL A   1      43.009  31.774  29.141  1.00  0.00     0.031 C 
ATOM     38  C   UNL A   1      41.176  27.105  28.779  1.00  0.00     0.029 A 
ATOM     39  N   UNL A   1      43.262  27.473  28.074  1.00  0.00    -0.354 N 
ATOM     40  C   UNL A   1      45.117  31.314  28.391  1.00  0.00     0.074 A 
ATOM     41  C   UNL A   1      44.163  32.321  28.795  1.00  0.00     0.031 C 
ATOM     42  C   UNL A   1      41.636  25.954  28.254  1.00  0.00     0.029 A 
ATOM     43  C   UNL A   1      43.008  26.148  27.791  1.00  0.00     0.049 A 
ATOM     44  H   UNL A   1      44.117  27.912  27.863  1.00  0.00     0.167 HD
ATOM     45  C   UNL A   1      46.415  31.578  28.111  1.00  0.00     0.031 A 
ATOM     46  C   UNL A   1      43.793  25.195  27.244  1.00  0.00     0.031 A 
ATOM     47  C   UNL A   1      47.368  30.601  27.668  1.00  0.00     0.049 A 
ATOM     48  C   UNL A   1      45.230  25.514  26.901  1.00  0.00     0.074 A 
ATOM     49  C   UNL A   1      48.713  30.771  27.394  1.00  0.00     0.029 A 
ATOM     50  N   UNL A   1      47.072  29.272  27.412  1.00  0.00    -0.354 N 
ATOM     51  N   UNL A   1      45.880  26.646  27.036  1.00  0.00    -0.248 NA
ATOM     52  C   UNL A   1      46.049  24.414  26.364  1.00  0.00     0.031 C 
ATOM     53  C   UNL A   1      49.221  29.553  26.930  1.00  0.00     0.029 A 
ATOM     54  C   UNL A   1      48.203  28.614  26.963  1.00  0.00     0.049 A 
ATOM     55  H   UNL A   1      46.186  28.857  27.533  1.00  0.00     0.167 HD
ATOM     56  C   UNL A   1      47.190  26.381  26.642  1.00  0.00     0.074 A 
ATOM     57  C   UNL A   1      47.243  24.985  26.268  1.00  0.00     0.031 C 
ATOM     58  C   UNL A   1      48.254  27.220  26.606  1.00  0.00     0.031 A 
BRANCH  45  59
ATOM     59  C   UNL A   1      46.870  32.999  28.302  1.00  0.00    -0.014 A 
ATOM     60  C   UNL A   1      46.789  33.918  27.238  1.00  0.00     0.010 A 
ATOM     61  C   UNL A   1      47.385  33.422  29.538  1.00  0.00     0.010 A 
ATOM     62  C   UNL A   1      47.267  35.219  27.390  1.00  0.00     0.020 A 
ATOM     63  C   UNL A   1      47.840  34.733  29.702  1.00  0.00     0.020 A 
ATOM     64  C   UNL A   1      47.798  35.617  28.620  1.00  0.00     0.054 A 
BRANCH  64  65
ATOM     65  S   UNL A   1      48.419  37.311  28.787  1.00  0.00     0.124 S 
ATOM     66  O   UNL A   1      49.799  37.084  29.211  1.00  0.00    -0.237 OA
ATOM     67  O   UNL A   1      48.257  37.848  27.438  1.00  0.00    -0.237 OA
ATOM     68  O   UNL A   1      47.546  37.902  29.799  1.00  0.00    -0.744 OA
ENDBRANCH  64  65
ENDBRANCH  45  59
BRANCH  46  69
ATOM     69  C   UNL A   1      43.268  23.816  27.018  1.00  0.00    -0.014 A 
ATOM     70  C   UNL A   1      43.244  22.877  28.067  1.00  0.00     0.010 A 
ATOM     71  C   UNL A   1      42.837  23.418  25.741  1.00  0.00     0.010 A 
ATOM     72  C   UNL A   1      42.831  21.560  27.835  1.00  0.00     0.020 A 
ATOM     73  C   UNL A   1      42.401  22.106  25.510  1.00  0.00     0.020 A 
ATOM     74  C   UNL A   1      42.416  21.181  26.556  1.00  0.00     0.054 A 
BRANCH  74  75
ATOM     75  S   UNL A   1      41.863  19.473  26.281  1.00  0.00     0.124 S 
ATOM     76  O   UNL A   1      40.424  19.642  26.108  1.00  0.00    -0.237 OA
ATOM     77  O   UNL A   1      42.603  19.089  25.081  1.00  0.00    -0.237 OA
ATOM     78  O   UNL A   1      42.270  18.782  27.502  1.00  0.00    -0.744 OA
ENDBRANCH  74  75
ENDBRANCH  46  69
BRANCH  58  79
ATOM     79  C   UNL A   1      49.588  26.657  26.187  1.00  0.00    -0.014 A 
ATOM     80  C   UNL A   1      50.070  26.814  24.877  1.00  0.00     0.010 A 
ATOM     81  C   UNL A   1      50.409  26.039  27.150  1.00  0.00     0.010 A 
ATOM     82  C   UNL A   1      51.342  26.348  24.531  1.00  0.00     0.020 A 
ATOM     83  C   UNL A   1      51.690  25.593  26.814  1.00  0.00     0.020 A 
ATOM     84  C   UNL A   1      52.146  25.742  25.502  1.00  0.00     0.054 A 
BRANCH  84  85
ATOM     85  S   UNL A   1      53.819  25.206  25.048  1.00  0.00     0.124 S 
ATOM     86  O   UNL A   1      54.032  25.909  23.786  1.00  0.00    -0.237 OA
ATOM     87  O   UNL A   1      54.624  25.677  26.173  1.00  0.00    -0.237 OA
ATOM     88  O   UNL A   1      53.701  23.754  24.942  1.00  0.00    -0.744 OA
ENDBRANCH  84  85
ENDBRANCH  58  79
ENDBRANCH  32  33
ENDBRANCH  25  27
ENDBRANCH  24  25
ENDBRANCH  23  24
ENDBRANCH   1  23
TORSDOF 17
ENDMDL
MODEL 3
REMARK VINA RESULT:     -10.4      4.899      6.647
REMARK SMILES Cn1ncc(C(=O)NCc2ccc(F)cc2)c1C(=O)OCCOC(=O)c1ccc(-c2c3nc(c(-c4ccc(S(=O)(=O)[O-])cc4)c4ccc([nH]4)c(-c4ccc(S(=O)(=O)[O-])cc4)c4nc(c(-c5ccc(S(=O)(=O)[O-])cc5)c5ccc2[nH]5)C=C4)C=C3)cc1
REMARK SMILES IDX 21 1 20 2 18 3 19 4 17 5 1 6 2 7 3 8 4 9 5 10 6 11 7 12 8 13
REMARK SMILES IDX 9 15 10 16 11 17 16 18 12 19 15 20 13 21 14 22 22 23 23 24
REMARK SMILES IDX 24 25 25 26 26 27 27 28 85 29 28 30 84 31 29 32 30 33 31 34
REMARK SMILES IDX 78 35 32 36 83 37 77 38 79 39 33 40 82 41 76 42 75 43 34 45
REMARK SMILES IDX 64 46 45 47 63 48 46 49 49 50 62 51 80 52 47 53 48 54 61 56
REMARK SMILES IDX 81 57 50 58 35 59 36 60 44 61 37 62 43 63 38 64 39 65 40 66
REMARK SMILES IDX 41 67 42 68 65 69 66 70 74 71 67 72 73 73 68 74 69 75 70 76
REMARK SMILES IDX 71 77 72 78 51 79 52 80 60 81 53 82 59 83 54 84 55 85 56 86
REMARK SMILES IDX 57 87 58 88
REMARK H PARENT 8 14 79 44 49 55
REMARK Flexibility Score: inf
ROOT
ATOM      1  C   UNL A   1      44.590  22.890  27.059  1.00  0.00     0.275 C 
ENDROOT
BRANCH   1   2
ATOM      2  O   UNL A   1      44.906  22.070  25.922  1.00  0.00    -0.457 OA
BRANCH   2   3
ATOM      3  C   UNL A   1      43.821  21.638  25.224  1.00  0.00     0.357 C 
ATOM      4  O   UNL A   1      43.216  22.343  24.438  1.00  0.00    -0.244 OA
BRANCH   3   5
ATOM      5  C   UNL A   1      43.540  20.263  25.524  1.00  0.00     0.159 A 
ATOM      6  C   UNL A   1      45.785  19.169  24.897  1.00  0.00     0.174 C 
ATOM      7  N   UNL A   1      44.440  19.216  25.429  1.00  0.00    -0.261 N 
ATOM      8  N   UNL A   1      43.983  18.073  25.965  1.00  0.00    -0.180 NA
ATOM      9  C   UNL A   1      42.736  18.369  26.314  1.00  0.00     0.150 A 
ATOM     10  C   UNL A   1      42.344  19.693  25.965  1.00  0.00     0.092 A 
BRANCH  10  11
ATOM     11  C   UNL A   1      40.958  20.135  26.133  1.00  0.00     0.255 C 
ATOM     12  O   UNL A   1      40.059  19.419  25.689  1.00  0.00    -0.269 OA
ATOM     13  N   UNL A   1      40.569  21.396  26.542  1.00  0.00    -0.348 N 
ATOM     14  H   UNL A   1      39.835  21.787  26.015  1.00  0.00     0.164 HD
BRANCH  13  15
ATOM     15  C   UNL A   1      41.052  22.239  27.609  1.00  0.00     0.152 C 
BRANCH  15  16
ATOM     16  C   UNL A   1      40.840  23.732  27.434  1.00  0.00    -0.029 A 
ATOM     17  C   UNL A   1      41.185  24.401  26.254  1.00  0.00     0.008 A 
ATOM     18  C   UNL A   1      40.204  24.482  28.441  1.00  0.00     0.008 A 
ATOM     19  C   UNL A   1      40.902  25.768  26.100  1.00  0.00     0.039 A 
ATOM     20  C   UNL A   1      39.953  25.848  28.310  1.00  0.00     0.039 A 
ATOM     21  C   UNL A   1      40.298  26.479  27.131  1.00  0.00     0.123 A 
ATOM     22  F   UNL A   1      40.030  27.783  26.983  1.00  0.00    -0.207 F 
ENDBRANCH  15  16
ENDBRANCH  13  15
ENDBRANCH  10  11
ENDBRANCH   3   5
ENDBRANCH   2   3
ENDBRANCH   1   2
BRANCH   1  23
ATOM     23  C   UNL A   1      45.829  23.666  27.550  1.00  0.00     0.275 C 
BRANCH  23  24
ATOM     24  O   UNL A   1      45.920  24.966  26.922  1.00  0.00    -0.458 OA
BRANCH  24  25
ATOM     25  C   UNL A   1      44.736  25.552  26.583  1.00  0.00     0.338 C 
ATOM     26  O   UNL A   1      44.198  25.486  25.494  1.00  0.00    -0.246 OA
BRANCH  25  27
ATOM     27  C   UNL A   1      44.237  26.362  27.727  1.00  0.00     0.060 A 
ATOM     28  C   UNL A   1      43.626  25.765  28.830  1.00  0.00     0.016 A 
ATOM     29  C   UNL A   1      44.359  27.752  27.692  1.00  0.00     0.016 A 
ATOM     30  C   UNL A   1      43.213  26.551  29.926  1.00  0.00     0.010 A 
ATOM     31  C   UNL A   1      43.983  28.534  28.794  1.00  0.00     0.010 A 
ATOM     32  C   UNL A   1      43.389  27.944  29.920  1.00  0.00    -0.014 A 
BRANCH  32  33
ATOM     33  C   UNL A   1      42.768  28.807  30.972  1.00  0.00     0.031 A 
ATOM     34  C   UNL A   1      43.414  28.845  32.334  1.00  0.00     0.074 A 
ATOM     35  C   UNL A   1      41.644  29.525  30.770  1.00  0.00     0.049 A 
ATOM     36  N   UNL A   1      43.131  29.598  33.367  1.00  0.00    -0.248 NA
ATOM     37  C   UNL A   1      44.519  27.899  32.566  1.00  0.00     0.031 C 
ATOM     38  C   UNL A   1      40.859  29.554  29.541  1.00  0.00     0.029 A 
ATOM     39  N   UNL A   1      40.957  30.371  31.615  1.00  0.00    -0.354 N 
ATOM     40  C   UNL A   1      44.044  29.242  34.352  1.00  0.00     0.074 A 
ATOM     41  C   UNL A   1      44.832  28.149  33.826  1.00  0.00     0.031 C 
ATOM     42  C   UNL A   1      39.800  30.369  29.706  1.00  0.00     0.029 A 
ATOM     43  C   UNL A   1      39.834  30.938  31.052  1.00  0.00     0.049 A 
ATOM     44  H   UNL A   1      41.244  30.555  32.539  1.00  0.00     0.167 HD
ATOM     45  C   UNL A   1      44.246  29.794  35.571  1.00  0.00     0.031 A 
ATOM     46  C   UNL A   1      38.948  31.827  31.550  1.00  0.00     0.031 A 
ATOM     47  C   UNL A   1      43.449  30.850  36.128  1.00  0.00     0.049 A 
ATOM     48  C   UNL A   1      39.164  32.408  32.928  1.00  0.00     0.074 A 
ATOM     49  C   UNL A   1      43.602  31.496  37.342  1.00  0.00     0.029 A 
ATOM     50  N   UNL A   1      42.336  31.403  35.517  1.00  0.00    -0.354 N 
ATOM     51  N   UNL A   1      40.122  32.159  33.789  1.00  0.00    -0.248 NA
ATOM     52  C   UNL A   1      38.195  33.417  33.388  1.00  0.00     0.031 C 
ATOM     53  C   UNL A   1      42.553  32.410  37.485  1.00  0.00     0.029 A 
ATOM     54  C   UNL A   1      41.778  32.368  36.337  1.00  0.00     0.049 A 
ATOM     55  H   UNL A   1      41.994  31.148  34.629  1.00  0.00     0.167 HD
ATOM     56  C   UNL A   1      39.895  33.010  34.868  1.00  0.00     0.074 A 
ATOM     57  C   UNL A   1      38.713  33.782  34.553  1.00  0.00     0.031 C 
ATOM     58  C   UNL A   1      40.609  33.145  36.011  1.00  0.00     0.031 A 
BRANCH  45  59
ATOM     59  C   UNL A   1      45.401  29.258  36.372  1.00  0.00    -0.014 A 
ATOM     60  C   UNL A   1      45.204  28.192  37.272  1.00  0.00     0.010 A 
ATOM     61  C   UNL A   1      46.682  29.816  36.236  1.00  0.00     0.010 A 
ATOM     62  C   UNL A   1      46.257  27.732  38.063  1.00  0.00     0.020 A 
ATOM     63  C   UNL A   1      47.745  29.339  37.007  1.00  0.00     0.020 A 
ATOM     64  C   UNL A   1      47.520  28.315  37.932  1.00  0.00     0.054 A 
BRANCH  64  65
ATOM     65  S   UNL A   1      48.868  27.703  38.977  1.00  0.00     0.124 S 
ATOM     66  O   UNL A   1      49.485  28.947  39.429  1.00  0.00    -0.237 OA
ATOM     67  O   UNL A   1      48.159  26.945  40.005  1.00  0.00    -0.237 OA
ATOM     68  O   UNL A   1      49.679  26.901  38.064  1.00  0.00    -0.744 OA
ENDBRANCH  64  65
ENDBRANCH  45  59
BRANCH  46  69
ATOM     69  C   UNL A   1      37.783  32.278  30.732  1.00  0.00    -0.014 A 
ATOM     70  C   UNL A   1      37.859  33.452  29.961  1.00  0.00     0.010 A 
ATOM     71  C   UNL A   1      36.573  31.562  30.761  1.00  0.00     0.010 A 
ATOM     72  C   UNL A   1      36.740  33.920  29.262  1.00  0.00     0.020 A 
ATOM     73  C   UNL A   1      35.458  32.014  30.044  1.00  0.00     0.020 A 
ATOM     74  C   UNL A   1      35.544  33.199  29.311  1.00  0.00     0.054 A 
BRANCH  74  75
ATOM     75  S   UNL A   1      34.111  33.811  28.379  1.00  0.00     0.124 S 
ATOM     76  O   UNL A   1      33.410  34.604  29.384  1.00  0.00    -0.237 OA
ATOM     77  O   UNL A   1      34.734  34.570  27.298  1.00  0.00    -0.237 OA
ATOM     78  O   UNL A   1      33.429  32.589  27.959  1.00  0.00    -0.744 OA
ENDBRANCH  74  75
ENDBRANCH  46  69
BRANCH  58  79
ATOM     79  C   UNL A   1      40.172  34.192  37.003  1.00  0.00    -0.014 A 
ATOM     80  C   UNL A   1      39.293  33.882  38.055  1.00  0.00     0.010 A 
ATOM     81  C   UNL A   1      40.724  35.485  36.930  1.00  0.00     0.010 A 
ATOM     82  C   UNL A   1      38.959  34.852  39.006  1.00  0.00     0.020 A 
ATOM     83  C   UNL A   1      40.412  36.450  37.892  1.00  0.00     0.020 A 
ATOM     84  C   UNL A   1      39.522  36.130  38.920  1.00  0.00     0.054 A 
BRANCH  84  85
ATOM     85  S   UNL A   1      39.128  37.350  40.203  1.00  0.00     0.124 S 
ATOM     86  O   UNL A   1      40.442  37.917  40.499  1.00  0.00    -0.237 OA
ATOM     87  O   UNL A   1      38.198  38.246  39.520  1.00  0.00    -0.237 OA
ATOM     88  O   UNL A   1      38.539  36.550  41.274  1.00  0.00    -0.744 OA
ENDBRANCH  84  85
ENDBRANCH  58  79
ENDBRANCH  32  33
ENDBRANCH  25  27
ENDBRANCH  24  25
ENDBRANCH  23  24
ENDBRANCH   1  23
TORSDOF 17
ENDMDL
