MODEL 1
REMARK VINA RESULT:     -13.2      0.000      0.000
REMARK SMILES Cc1ccc(C(=O)NC2(CC(=O)OCCOC(=O)c3ccc(-c4c5nc(c(-c6ccc(S(=O)(=O)[O-])cc6)c6ccc([nH]6)c(-c6ccc(S(=O)(=O)[O-])cc6)c6nc(c(-c7ccc(S(=O)(=O)[O-])cc7)c7ccc4[nH]7)C=C6)C=C5)cc3)CCC2)cc1
REMARK SMILES IDX 14 1 13 2 11 3 12 4 10 5 9 6 79 7 81 8 80 9 8 10 6 11 7 12
REMARK SMILES IDX 5 14 1 15 2 16 3 17 83 18 4 19 82 20 15 21 16 22 17 23 18 24
REMARK SMILES IDX 19 25 20 26 78 27 21 28 77 29 22 30 23 31 24 32 71 33 25 34
REMARK SMILES IDX 76 35 70 36 72 37 26 38 75 39 69 40 68 41 27 43 57 44 38 45
REMARK SMILES IDX 56 46 39 47 42 48 55 49 73 50 40 51 41 52 54 54 74 55 43 56
REMARK SMILES IDX 28 57 29 58 37 59 30 60 36 61 31 62 32 63 33 64 34 65 35 66
REMARK SMILES IDX 58 67 59 68 67 69 60 70 66 71 61 72 62 73 63 74 64 75 65 76
REMARK SMILES IDX 44 77 45 78 53 79 46 80 52 81 47 82 48 83 49 84 50 85 51 86
REMARK H PARENT 8 13 72 42 42 53
REMARK Flexibility Score: inf
ROOT
ATOM      1  C   UNL A   1      33.969  28.146  26.785  1.00  0.00     0.274 C 
ENDROOT
BRANCH   1   2
ATOM      2  O   UNL A   1      33.101  26.440  26.006  1.00  0.00    -0.462 OA
BRANCH   2   3
ATOM      3  C   UNL A   1      32.585  25.111  26.152  1.00  0.00     0.308 C 
ATOM      4  O   UNL A   1      31.781  24.862  27.056  1.00  0.00    -0.252 OA
BRANCH   3   5
ATOM      5  C   UNL A   1      32.706  23.862  25.331  1.00  0.00     0.151 C 
BRANCH   5   6
ATOM      6  C   UNL A   1      33.802  23.247  24.497  1.00  0.00     0.051 C 
ATOM      7  C   UNL A   1      34.553  22.173  25.356  1.00  0.00     0.029 C 
ATOM      8  C   UNL A   1      35.185  23.954  24.387  1.00  0.00     0.029 C 
ATOM      9  C   UNL A   1      35.569  23.279  25.713  1.00  0.00     0.005 C 
BRANCH   6  10
ATOM     10  N   UNL A   1      33.347  22.695  23.218  1.00  0.00    -0.346 N 
ATOM     11  C   UNL A   1      33.096  23.516  22.172  1.00  0.00     0.251 C 
ATOM     12  O   UNL A   1      33.407  23.306  21.011  1.00  0.00    -0.269 OA
ATOM     13  H   UNL A   1      33.223  21.722  23.120  1.00  0.00     0.164 HD
BRANCH  11  14
ATOM     14  C   UNL A   1      32.513  24.771  22.606  1.00  0.00     0.039 A 
ATOM     15  C   UNL A   1      30.600  29.328  23.901  1.00  0.00     0.044 C 
ATOM     16  C   UNL A   1      31.200  28.040  23.388  1.00  0.00    -0.051 A 
ATOM     17  C   UNL A   1      30.133  26.690  23.484  1.00  0.00     0.004 A 
ATOM     18  C   UNL A   1      32.877  27.827  22.914  1.00  0.00     0.004 A 
ATOM     19  C   UNL A   1      30.750  25.048  23.156  1.00  0.00     0.014 A 
ATOM     20  C   UNL A   1      33.571  26.225  22.527  1.00  0.00     0.014 A 
ENDBRANCH  11  14
ENDBRANCH   6  10
ENDBRANCH   5   6
ENDBRANCH   3   5
ENDBRANCH   2   3
ENDBRANCH   1   2
BRANCH   1  21
ATOM     21  C   UNL A   1      32.954  29.719  27.088  1.00  0.00     0.275 C 
BRANCH  21  22
ATOM     22  O   UNL A   1      33.533  31.281  27.510  1.00  0.00    -0.458 OA
BRANCH  22  23
ATOM     23  C   UNL A   1      34.610  32.118  28.003  1.00  0.00     0.338 C 
ATOM     24  O   UNL A   1      34.697  33.263  27.558  1.00  0.00    -0.246 OA
BRANCH  23  25
ATOM     25  C   UNL A   1      35.566  31.737  29.189  1.00  0.00     0.060 A 
ATOM     26  C   UNL A   1      35.599  30.499  29.892  1.00  0.00     0.016 A 
ATOM     27  C   UNL A   1      36.708  32.476  29.277  1.00  0.00     0.016 A 
ATOM     28  C   UNL A   1      36.853  29.859  30.298  1.00  0.00     0.010 A 
ATOM     29  C   UNL A   1      37.886  31.753  29.464  1.00  0.00     0.010 A 
ATOM     30  C   UNL A   1      38.073  30.405  29.899  1.00  0.00    -0.014 A 
BRANCH  30  31
ATOM     31  C   UNL A   1      39.532  29.815  29.783  1.00  0.00     0.031 A 
ATOM     32  C   UNL A   1      40.066  28.450  29.203  1.00  0.00     0.074 A 
ATOM     33  C   UNL A   1      40.484  30.691  30.225  1.00  0.00     0.049 A 
ATOM     34  N   UNL A   1      40.824  27.575  29.824  1.00  0.00    -0.248 NA
ATOM     35  C   UNL A   1      39.930  27.978  27.807  1.00  0.00     0.031 C 
ATOM     36  C   UNL A   1      41.932  30.640  30.311  1.00  0.00     0.029 A 
ATOM     37  N   UNL A   1      40.237  31.900  30.905  1.00  0.00    -0.354 N 
ATOM     38  C   UNL A   1      41.355  26.691  28.847  1.00  0.00     0.074 A 
ATOM     39  C   UNL A   1      40.484  26.769  27.734  1.00  0.00     0.031 C 
ATOM     40  C   UNL A   1      42.312  31.448  31.336  1.00  0.00     0.029 A 
ATOM     41  C   UNL A   1      41.098  31.975  31.968  1.00  0.00     0.049 A 
ATOM     42  H   UNL A   1      39.563  32.574  30.658  1.00  0.00     0.167 HD
ATOM     43  C   UNL A   1      42.675  26.313  28.782  1.00  0.00     0.031 A 
ATOM     44  C   UNL A   1      40.540  31.758  33.194  1.00  0.00     0.031 A 
ATOM     45  C   UNL A   1      43.400  27.022  29.814  1.00  0.00     0.049 A 
ATOM     46  C   UNL A   1      41.152  30.515  33.773  1.00  0.00     0.074 A 
ATOM     47  C   UNL A   1      44.283  28.085  29.796  1.00  0.00     0.029 A 
ATOM     48  N   UNL A   1      42.964  26.885  31.109  1.00  0.00    -0.354 N 
ATOM     49  N   UNL A   1      41.735  29.600  33.051  1.00  0.00    -0.248 NA
ATOM     50  C   UNL A   1      41.231  30.235  35.195  1.00  0.00     0.031 C 
ATOM     51  C   UNL A   1      44.360  28.592  31.125  1.00  0.00     0.029 A 
ATOM     52  C   UNL A   1      43.531  27.827  31.929  1.00  0.00     0.049 A 
ATOM     53  H   UNL A   1      42.325  26.199  31.411  1.00  0.00     0.167 HD
ATOM     54  C   UNL A   1      42.374  28.704  33.855  1.00  0.00     0.074 A 
ATOM     55  C   UNL A   1      41.950  29.097  35.191  1.00  0.00     0.031 C 
ATOM     56  C   UNL A   1      43.213  27.752  33.344  1.00  0.00     0.031 A 
BRANCH  43  57
ATOM     57  C   UNL A   1      43.420  25.572  27.643  1.00  0.00    -0.014 A 
ATOM     58  C   UNL A   1      43.826  24.230  27.855  1.00  0.00     0.010 A 
ATOM     59  C   UNL A   1      43.704  26.072  26.350  1.00  0.00     0.010 A 
ATOM     60  C   UNL A   1      44.502  23.458  26.890  1.00  0.00     0.020 A 
ATOM     61  C   UNL A   1      44.399  25.311  25.369  1.00  0.00     0.020 A 
ATOM     62  C   UNL A   1      44.793  24.004  25.647  1.00  0.00     0.054 A 
BRANCH  62  63
ATOM     63  S   UNL A   1      45.638  22.966  24.412  1.00  0.00     0.124 S 
ATOM     64  O   UNL A   1      46.160  21.869  25.223  1.00  0.00    -0.237 OA
ATOM     65  O   UNL A   1      44.555  22.609  23.500  1.00  0.00    -0.237 OA
ATOM     66  O   UNL A   1      46.655  23.852  23.848  1.00  0.00    -0.744 OA
ENDBRANCH  62  63
ENDBRANCH  43  57
BRANCH  44  67
ATOM     67  C   UNL A   1      39.105  32.268  33.347  1.00  0.00    -0.014 A 
ATOM     68  C   UNL A   1      38.859  33.648  33.098  1.00  0.00     0.010 A 
ATOM     69  C   UNL A   1      37.969  31.434  33.396  1.00  0.00     0.010 A 
ATOM     70  C   UNL A   1      37.573  34.151  32.810  1.00  0.00     0.020 A 
ATOM     71  C   UNL A   1      36.665  31.940  33.130  1.00  0.00     0.020 A 
ATOM     72  C   UNL A   1      36.476  33.293  32.817  1.00  0.00     0.054 A 
BRANCH  72  73
ATOM     73  S   UNL A   1      34.866  33.932  32.199  1.00  0.00     0.124 S 
ATOM     74  O   UNL A   1      34.471  34.860  33.254  1.00  0.00    -0.237 OA
ATOM     75  O   UNL A   1      35.231  34.571  30.934  1.00  0.00    -0.237 OA
ATOM     76  O   UNL A   1      34.043  32.733  32.077  1.00  0.00    -0.744 OA
ENDBRANCH  72  73
ENDBRANCH  44  67
BRANCH  56  77
ATOM     77  C   UNL A   1      43.801  26.589  34.101  1.00  0.00    -0.014 A 
ATOM     78  C   UNL A   1      43.040  25.576  34.677  1.00  0.00     0.010 A 
ATOM     79  C   UNL A   1      45.211  26.495  34.263  1.00  0.00     0.010 A 
ATOM     80  C   UNL A   1      43.646  24.469  35.273  1.00  0.00     0.020 A 
ATOM     81  C   UNL A   1      45.831  25.409  34.869  1.00  0.00     0.020 A 
ATOM     82  C   UNL A   1      45.036  24.389  35.356  1.00  0.00     0.054 A 
BRANCH  82  83
ATOM     83  S   UNL A   1      45.768  22.960  36.168  1.00  0.00     0.124 S 
ATOM     84  O   UNL A   1      47.139  22.999  35.666  1.00  0.00    -0.237 OA
ATOM     85  O   UNL A   1      45.604  23.296  37.579  1.00  0.00    -0.237 OA
ATOM     86  O   UNL A   1      44.964  21.836  35.696  1.00  0.00    -0.744 OA
ENDBRANCH  82  83
ENDBRANCH  56  77
ENDBRANCH  30  31
ENDBRANCH  23  25
ENDBRANCH  22  23
ENDBRANCH  21  22
ENDBRANCH   1  21
TORSDOF 17
ENDMDL
MODEL 2
REMARK VINA RESULT:     -13.0      3.288      9.875
REMARK SMILES Cc1ccc(C(=O)NC2(CC(=O)OCCOC(=O)c3ccc(-c4c5nc(c(-c6ccc(S(=O)(=O)[O-])cc6)c6ccc([nH]6)c(-c6ccc(S(=O)(=O)[O-])cc6)c6nc(c(-c7ccc(S(=O)(=O)[O-])cc7)c7ccc4[nH]7)C=C6)C=C5)cc3)CCC2)cc1
REMARK SMILES IDX 14 1 13 2 11 3 12 4 10 5 9 6 79 7 81 8 80 9 8 10 6 11 7 12
REMARK SMILES IDX 5 14 1 15 2 16 3 17 83 18 4 19 82 20 15 21 16 22 17 23 18 24
REMARK SMILES IDX 19 25 20 26 78 27 21 28 77 29 22 30 23 31 24 32 71 33 25 34
REMARK SMILES IDX 76 35 70 36 72 37 26 38 75 39 69 40 68 41 27 43 57 44 38 45
REMARK SMILES IDX 56 46 39 47 42 48 55 49 73 50 40 51 41 52 54 54 74 55 43 56
REMARK SMILES IDX 28 57 29 58 37 59 30 60 36 61 31 62 32 63 33 64 34 65 35 66
REMARK SMILES IDX 58 67 59 68 67 69 60 70 66 71 61 72 62 73 63 74 64 75 65 76
REMARK SMILES IDX 44 77 45 78 53 79 46 80 52 81 47 82 48 83 49 84 50 85 51 86
REMARK H PARENT 8 13 72 42 42 53
REMARK Flexibility Score: inf
ROOT
ATOM      1  C   UNL A   1      34.863  22.843  27.067  1.00  0.00     0.274 C 
ENDROOT
BRANCH   1   2
ATOM      2  O   UNL A   1      32.862  23.212  26.706  1.00  0.00    -0.462 OA
BRANCH   2   3
ATOM      3  C   UNL A   1      31.788  23.586  25.834  1.00  0.00     0.308 C 
ATOM      4  O   UNL A   1      30.820  24.206  26.286  1.00  0.00    -0.252 OA
BRANCH   3   5
ATOM      5  C   UNL A   1      31.586  23.500  24.351  1.00  0.00     0.151 C 
BRANCH   5   6
ATOM      6  C   UNL A   1      32.442  23.055  23.192  1.00  0.00     0.051 C 
ATOM      7  C   UNL A   1      32.221  21.521  22.956  1.00  0.00     0.029 C 
ATOM      8  C   UNL A   1      33.936  22.683  23.425  1.00  0.00     0.029 C 
ATOM      9  C   UNL A   1      33.461  21.284  23.845  1.00  0.00     0.005 C 
BRANCH   6  10
ATOM     10  N   UNL A   1      32.237  23.825  21.961  1.00  0.00    -0.346 N 
ATOM     11  C   UNL A   1      32.658  25.109  21.884  1.00  0.00     0.251 C 
ATOM     12  O   UNL A   1      33.213  25.620  20.925  1.00  0.00    -0.269 OA
ATOM     13  H   UNL A   1      31.792  23.407  21.188  1.00  0.00     0.164 HD
BRANCH  11  14
ATOM     14  C   UNL A   1      32.489  25.803  23.146  1.00  0.00     0.039 A 
ATOM     15  C   UNL A   1      32.171  28.377  27.548  1.00  0.00     0.044 C 
ATOM     16  C   UNL A   1      32.376  27.706  26.210  1.00  0.00    -0.051 A 
ATOM     17  C   UNL A   1      30.950  27.632  25.245  1.00  0.00     0.004 A 
ATOM     18  C   UNL A   1      33.844  26.884  25.708  1.00  0.00     0.004 A 
ATOM     19  C   UNL A   1      30.944  26.661  23.747  1.00  0.00     0.014 A 
ATOM     20  C   UNL A   1      33.941  25.924  24.203  1.00  0.00     0.014 A 
ENDBRANCH  11  14
ENDBRANCH   6  10
ENDBRANCH   5   6
ENDBRANCH   3   5
ENDBRANCH   2   3
ENDBRANCH   1   2
BRANCH   1  21
ATOM     21  C   UNL A   1      36.192  23.262  25.780  1.00  0.00     0.275 C 
BRANCH  21  22
ATOM     22  O   UNL A   1      37.812  22.693  25.716  1.00  0.00    -0.458 OA
BRANCH  22  23
ATOM     23  C   UNL A   1      39.077  22.461  26.386  1.00  0.00     0.338 C 
ATOM     24  O   UNL A   1      39.368  21.301  26.678  1.00  0.00    -0.246 OA
BRANCH  23  25
ATOM     25  C   UNL A   1      40.183  23.553  26.608  1.00  0.00     0.060 A 
ATOM     26  C   UNL A   1      40.410  24.710  25.809  1.00  0.00     0.016 A 
ATOM     27  C   UNL A   1      40.688  23.622  27.872  1.00  0.00     0.016 A 
ATOM     28  C   UNL A   1      40.747  26.013  26.391  1.00  0.00     0.010 A 
ATOM     29  C   UNL A   1      40.782  24.902  28.419  1.00  0.00     0.010 A 
ATOM     30  C   UNL A   1      40.745  26.177  27.776  1.00  0.00    -0.014 A 
BRANCH  30  31
ATOM     31  C   UNL A   1      40.645  27.444  28.711  1.00  0.00     0.031 A 
ATOM     32  C   UNL A   1      39.592  28.617  28.778  1.00  0.00     0.074 A 
ATOM     33  C   UNL A   1      41.633  27.473  29.655  1.00  0.00     0.049 A 
ATOM     34  N   UNL A   1      39.845  29.904  28.717  1.00  0.00    -0.248 NA
ATOM     35  C   UNL A   1      38.147  28.481  29.065  1.00  0.00     0.031 C 
ATOM     36  C   UNL A   1      41.965  28.387  30.732  1.00  0.00     0.029 A 
ATOM     37  N   UNL A   1      42.751  26.617  29.702  1.00  0.00    -0.354 N 
ATOM     38  C   UNL A   1      38.688  30.594  29.165  1.00  0.00     0.074 A 
ATOM     39  C   UNL A   1      37.607  29.696  28.998  1.00  0.00     0.031 C 
ATOM     40  C   UNL A   1      43.305  28.303  30.945  1.00  0.00     0.029 A 
ATOM     41  C   UNL A   1      43.862  27.379  29.951  1.00  0.00     0.049 A 
ATOM     42  H   UNL A   1      42.736  25.641  29.578  1.00  0.00     0.167 HD
ATOM     43  C   UNL A   1      38.707  31.634  30.063  1.00  0.00     0.031 A 
ATOM     44  C   UNL A   1      44.692  27.577  28.886  1.00  0.00     0.031 A 
ATOM     45  C   UNL A   1      40.073  31.830  30.500  1.00  0.00     0.049 A 
ATOM     46  C   UNL A   1      44.702  29.044  28.567  1.00  0.00     0.074 A 
ATOM     47  C   UNL A   1      40.747  31.542  31.672  1.00  0.00     0.029 A 
ATOM     48  N   UNL A   1      41.024  32.059  29.536  1.00  0.00    -0.354 N 
ATOM     49  N   UNL A   1      43.756  29.863  28.932  1.00  0.00    -0.248 NA
ATOM     50  C   UNL A   1      45.793  29.720  27.890  1.00  0.00     0.031 C 
ATOM     51  C   UNL A   1      42.141  31.597  31.382  1.00  0.00     0.029 A 
ATOM     52  C   UNL A   1      42.291  31.923  30.045  1.00  0.00     0.049 A 
ATOM     53  H   UNL A   1      40.823  32.290  28.601  1.00  0.00     0.167 HD
ATOM     54  C   UNL A   1      44.132  31.151  28.690  1.00  0.00     0.074 A 
ATOM     55  C   UNL A   1      45.377  30.999  27.953  1.00  0.00     0.031 C 
ATOM     56  C   UNL A   1      43.398  32.210  29.149  1.00  0.00     0.031 A 
BRANCH  43  57
ATOM     57  C   UNL A   1      37.523  32.295  30.813  1.00  0.00    -0.014 A 
ATOM     58  C   UNL A   1      36.725  33.245  30.126  1.00  0.00     0.010 A 
ATOM     59  C   UNL A   1      37.091  32.013  32.131  1.00  0.00     0.010 A 
ATOM     60  C   UNL A   1      35.622  33.902  30.704  1.00  0.00     0.020 A 
ATOM     61  C   UNL A   1      35.987  32.678  32.735  1.00  0.00     0.020 A 
ATOM     62  C   UNL A   1      35.258  33.620  32.014  1.00  0.00     0.054 A 
BRANCH  62  63
ATOM     63  S   UNL A   1      33.806  34.463  32.719  1.00  0.00     0.124 S 
ATOM     64  O   UNL A   1      33.051  33.359  33.307  1.00  0.00    -0.237 OA
ATOM     65  O   UNL A   1      34.407  35.389  33.675  1.00  0.00    -0.237 OA
ATOM     66  O   UNL A   1      33.172  35.094  31.563  1.00  0.00    -0.744 OA
ENDBRANCH  62  63
ENDBRANCH  43  57
BRANCH  44  67
ATOM     67  C   UNL A   1      44.789  26.395  27.918  1.00  0.00    -0.014 A 
ATOM     68  C   UNL A   1      45.200  25.137  28.443  1.00  0.00     0.010 A 
ATOM     69  C   UNL A   1      44.202  26.371  26.637  1.00  0.00     0.010 A 
ATOM     70  C   UNL A   1      44.948  23.918  27.781  1.00  0.00     0.020 A 
ATOM     71  C   UNL A   1      43.965  25.145  25.952  1.00  0.00     0.020 A 
ATOM     72  C   UNL A   1      44.321  23.922  26.537  1.00  0.00     0.054 A 
BRANCH  72  73
ATOM     73  S   UNL A   1      43.790  22.312  25.823  1.00  0.00     0.124 S 
ATOM     74  O   UNL A   1      45.064  21.677  25.501  1.00  0.00    -0.237 OA
ATOM     75  O   UNL A   1      43.062  21.687  26.929  1.00  0.00    -0.237 OA
ATOM     76  O   UNL A   1      42.972  22.696  24.677  1.00  0.00    -0.744 OA
ENDBRANCH  72  73
ENDBRANCH  44  67
BRANCH  56  77
ATOM     77  C   UNL A   1      43.593  33.656  28.768  1.00  0.00    -0.014 A 
ATOM     78  C   UNL A   1      43.952  34.079  27.492  1.00  0.00     0.010 A 
ATOM     79  C   UNL A   1      43.419  34.671  29.750  1.00  0.00     0.010 A 
ATOM     80  C   UNL A   1      44.013  35.436  27.173  1.00  0.00     0.020 A 
ATOM     81  C   UNL A   1      43.493  36.027  29.454  1.00  0.00     0.020 A 
ATOM     82  C   UNL A   1      43.774  36.400  28.153  1.00  0.00     0.054 A 
BRANCH  82  83
ATOM     83  S   UNL A   1      43.903  38.136  27.701  1.00  0.00     0.124 S 
ATOM     84  O   UNL A   1      45.158  38.160  26.954  1.00  0.00    -0.237 OA
ATOM     85  O   UNL A   1      42.693  38.333  26.907  1.00  0.00    -0.237 OA
ATOM     86  O   UNL A   1      43.928  38.834  28.984  1.00  0.00    -0.744 OA
ENDBRANCH  82  83
ENDBRANCH  56  77
ENDBRANCH  30  31
ENDBRANCH  23  25
ENDBRANCH  22  23
ENDBRANCH  21  22
ENDBRANCH   1  21
TORSDOF 17
ENDMDL
MODEL 3
REMARK VINA RESULT:     -13.0      3.491     10.192
REMARK SMILES Cc1ccc(C(=O)NC2(CC(=O)OCCOC(=O)c3ccc(-c4c5nc(c(-c6ccc(S(=O)(=O)[O-])cc6)c6ccc([nH]6)c(-c6ccc(S(=O)(=O)[O-])cc6)c6nc(c(-c7ccc(S(=O)(=O)[O-])cc7)c7ccc4[nH]7)C=C6)C=C5)cc3)CCC2)cc1
REMARK SMILES IDX 14 1 13 2 11 3 12 4 10 5 9 6 79 7 81 8 80 9 8 10 6 11 7 12
REMARK SMILES IDX 5 14 1 15 2 16 3 17 83 18 4 19 82 20 15 21 16 22 17 23 18 24
REMARK SMILES IDX 19 25 20 26 78 27 21 28 77 29 22 30 23 31 24 32 71 33 25 34
REMARK SMILES IDX 76 35 70 36 72 37 26 38 75 39 69 40 68 41 27 43 57 44 38 45
REMARK SMILES IDX 56 46 39 47 42 48 55 49 73 50 40 51 41 52 54 54 74 55 43 56
REMARK SMILES IDX 28 57 29 58 37 59 30 60 36 61 31 62 32 63 33 64 34 65 35 66
REMARK SMILES IDX 58 67 59 68 67 69 60 70 66 71 61 72 62 73 63 74 64 75 65 76
REMARK SMILES IDX 44 77 45 78 53 79 46 80 52 81 47 82 48 83 49 84 50 85 51 86
REMARK H PARENT 8 13 72 42 42 53
REMARK Flexibility Score: inf
ROOT
ATOM      1  C   UNL A   1      35.877  22.857  23.993  1.00  0.00     0.274 C 
ENDROOT
BRANCH   1   2
ATOM      2  O   UNL A   1      34.805  24.258  22.917  1.00  0.00    -0.462 OA
BRANCH   2   3
ATOM      3  C   UNL A   1      33.597  24.975  22.637  1.00  0.00     0.308 C 
ATOM      4  O   UNL A   1      33.328  25.291  21.473  1.00  0.00    -0.252 OA
BRANCH   3   5
ATOM      5  C   UNL A   1      32.417  25.373  23.472  1.00  0.00     0.151 C 
BRANCH   5   6
ATOM      6  C   UNL A   1      32.202  25.633  24.941  1.00  0.00     0.051 C 
ATOM      7  C   UNL A   1      32.541  27.132  25.248  1.00  0.00     0.029 C 
ATOM      8  C   UNL A   1      33.326  25.293  25.965  1.00  0.00     0.029 C 
ATOM      9  C   UNL A   1      33.957  26.654  25.633  1.00  0.00     0.005 C 
BRANCH   6  10
ATOM     10  N   UNL A   1      30.868  25.271  25.428  1.00  0.00    -0.346 N 
ATOM     11  C   UNL A   1      30.698  24.167  26.193  1.00  0.00     0.251 C 
ATOM     12  O   UNL A   1      29.985  24.088  27.181  1.00  0.00    -0.269 OA
ATOM     13  H   UNL A   1      30.091  25.833  25.197  1.00  0.00     0.164 HD
BRANCH  11  14
ATOM     14  C   UNL A   1      31.576  23.091  25.779  1.00  0.00     0.039 A 
ATOM     15  C   UNL A   1      34.630  19.170  24.596  1.00  0.00     0.044 C 
ATOM     16  C   UNL A   1      33.681  20.249  25.060  1.00  0.00    -0.051 A 
ATOM     17  C   UNL A   1      32.577  20.772  23.844  1.00  0.00     0.004 A 
ATOM     18  C   UNL A   1      33.770  21.073  26.608  1.00  0.00     0.004 A 
ATOM     19  C   UNL A   1      31.552  22.205  24.135  1.00  0.00     0.014 A 
ATOM     20  C   UNL A   1      32.752  22.490  27.002  1.00  0.00     0.014 A 
ENDBRANCH  11  14
ENDBRANCH   6  10
ENDBRANCH   5   6
ENDBRANCH   3   5
ENDBRANCH   2   3
ENDBRANCH   1   2
BRANCH   1  21
ATOM     21  C   UNL A   1      37.124  23.377  25.324  1.00  0.00     0.275 C 
BRANCH  21  22
ATOM     22  O   UNL A   1      38.253  22.383  26.155  1.00  0.00    -0.458 OA
BRANCH  22  23
ATOM     23  C   UNL A   1      39.605  22.169  26.636  1.00  0.00     0.338 C 
ATOM     24  O   UNL A   1      39.951  21.012  26.878  1.00  0.00    -0.246 OA
BRANCH  23  25
ATOM     25  C   UNL A   1      40.715  23.277  26.704  1.00  0.00     0.060 A 
ATOM     26  C   UNL A   1      40.792  24.454  25.907  1.00  0.00     0.016 A 
ATOM     27  C   UNL A   1      41.416  23.329  27.871  1.00  0.00     0.016 A 
ATOM     28  C   UNL A   1      41.198  25.751  26.458  1.00  0.00     0.010 A 
ATOM     29  C   UNL A   1      41.577  24.598  28.427  1.00  0.00     0.010 A 
ATOM     30  C   UNL A   1      41.417  25.886  27.828  1.00  0.00    -0.014 A 
BRANCH  30  31
ATOM     31  C   UNL A   1      41.449  27.131  28.798  1.00  0.00     0.031 A 
ATOM     32  C   UNL A   1      40.407  28.286  29.055  1.00  0.00     0.074 A 
ATOM     33  C   UNL A   1      42.572  27.153  29.578  1.00  0.00     0.049 A 
ATOM     34  N   UNL A   1      40.633  29.578  28.986  1.00  0.00    -0.248 NA
ATOM     35  C   UNL A   1      39.026  28.123  29.560  1.00  0.00     0.031 C 
ATOM     36  C   UNL A   1      43.057  28.048  30.612  1.00  0.00     0.029 A 
ATOM     37  N   UNL A   1      43.693  26.313  29.431  1.00  0.00    -0.354 N 
ATOM     38  C   UNL A   1      39.552  30.241  29.625  1.00  0.00     0.074 A 
ATOM     39  C   UNL A   1      38.468  29.332  29.605  1.00  0.00     0.031 C 
ATOM     40  C   UNL A   1      44.414  27.980  30.612  1.00  0.00     0.029 A 
ATOM     41  C   UNL A   1      44.820  27.085  29.523  1.00  0.00     0.049 A 
ATOM     42  H   UNL A   1      43.670  25.339  29.287  1.00  0.00     0.167 HD
ATOM     43  C   UNL A   1      39.699  31.262  30.533  1.00  0.00     0.031 A 
ATOM     44  C   UNL A   1      45.473  27.318  28.347  1.00  0.00     0.031 A 
ATOM     45  C   UNL A   1      41.114  31.468  30.758  1.00  0.00     0.049 A 
ATOM     46  C   UNL A   1      45.417  28.792  28.064  1.00  0.00     0.074 A 
ATOM     47  C   UNL A   1      41.964  31.164  31.803  1.00  0.00     0.029 A 
ATOM     48  N   UNL A   1      41.901  31.732  29.664  1.00  0.00    -0.354 N 
ATOM     49  N   UNL A   1      44.530  29.589  28.591  1.00  0.00    -0.248 NA
ATOM     50  C   UNL A   1      46.382  29.499  27.243  1.00  0.00     0.031 C 
ATOM     51  C   UNL A   1      43.296  31.245  31.302  1.00  0.00     0.029 A 
ATOM     52  C   UNL A   1      43.233  31.603  29.966  1.00  0.00     0.049 A 
ATOM     53  H   UNL A   1      41.555  31.980  28.776  1.00  0.00     0.167 HD
ATOM     54  C   UNL A   1      44.849  30.887  28.324  1.00  0.00     0.074 A 
ATOM     55  C   UNL A   1      45.967  30.770  27.399  1.00  0.00     0.031 C 
ATOM     56  C   UNL A   1      44.185  31.926  28.917  1.00  0.00     0.031 A 
BRANCH  43  57
ATOM     57  C   UNL A   1      38.638  31.889  31.473  1.00  0.00    -0.014 A 
ATOM     58  C   UNL A   1      37.904  33.014  31.019  1.00  0.00     0.010 A 
ATOM     59  C   UNL A   1      38.260  31.423  32.755  1.00  0.00     0.010 A 
ATOM     60  C   UNL A   1      36.914  33.660  31.783  1.00  0.00     0.020 A 
ATOM     61  C   UNL A   1      37.272  32.072  33.545  1.00  0.00     0.020 A 
ATOM     62  C   UNL A   1      36.602  33.188  33.051  1.00  0.00     0.054 A 
BRANCH  62  63
ATOM     63  S   UNL A   1      35.292  34.027  33.998  1.00  0.00     0.124 S 
ATOM     64  O   UNL A   1      34.079  33.382  33.503  1.00  0.00    -0.237 OA
ATOM     65  O   UNL A   1      35.647  33.714  35.380  1.00  0.00    -0.237 OA
ATOM     66  O   UNL A   1      35.437  35.433  33.626  1.00  0.00    -0.744 OA
ENDBRANCH  62  63
ENDBRANCH  43  57
BRANCH  44  67
ATOM     67  C   UNL A   1      45.431  26.159  27.348  1.00  0.00    -0.014 A 
ATOM     68  C   UNL A   1      45.884  24.884  27.789  1.00  0.00     0.010 A 
ATOM     69  C   UNL A   1      44.691  26.174  26.148  1.00  0.00     0.010 A 
ATOM     70  C   UNL A   1      45.534  23.684  27.135  1.00  0.00     0.020 A 
ATOM     71  C   UNL A   1      44.352  24.968  25.470  1.00  0.00     0.020 A 
ATOM     72  C   UNL A   1      44.758  23.727  25.979  1.00  0.00     0.054 A 
BRANCH  72  73
ATOM     73  S   UNL A   1      44.118  22.142  25.300  1.00  0.00     0.124 S 
ATOM     74  O   UNL A   1      43.153  22.594  24.304  1.00  0.00    -0.237 OA
ATOM     75  O   UNL A   1      45.318  21.516  24.742  1.00  0.00    -0.237 OA
ATOM     76  O   UNL A   1      43.551  21.471  26.466  1.00  0.00    -0.744 OA
ENDBRANCH  72  73
ENDBRANCH  44  67
BRANCH  56  77
ATOM     77  C   UNL A   1      44.302  33.382  28.545  1.00  0.00    -0.014 A 
ATOM     78  C   UNL A   1      43.535  33.993  27.557  1.00  0.00     0.010 A 
ATOM     79  C   UNL A   1      45.249  34.205  29.215  1.00  0.00     0.010 A 
ATOM     80  C   UNL A   1      43.614  35.368  27.332  1.00  0.00     0.020 A 
ATOM     81  C   UNL A   1      45.354  35.573  28.991  1.00  0.00     0.020 A 
ATOM     82  C   UNL A   1      44.515  36.149  28.055  1.00  0.00     0.054 A 
BRANCH  82  83
ATOM     83  S   UNL A   1      44.605  37.910  27.700  1.00  0.00     0.124 S 
ATOM     84  O   UNL A   1      45.809  37.989  26.876  1.00  0.00    -0.237 OA
ATOM     85  O   UNL A   1      43.346  38.143  27.000  1.00  0.00    -0.237 OA
ATOM     86  O   UNL A   1      44.712  38.530  29.018  1.00  0.00    -0.744 OA
ENDBRANCH  82  83
ENDBRANCH  56  77
ENDBRANCH  30  31
ENDBRANCH  23  25
ENDBRANCH  22  23
ENDBRANCH  21  22
ENDBRANCH   1  21
TORSDOF 17
ENDMDL
