MODEL 1
REMARK VINA RESULT:     -10.5      0.000      0.000
REMARK SMILES CSCC[C@@H](CO)n1ccnc1-c1ccccc1C(=O)OCCOC(=O)c1ccc(-c2c3nc(c(-c4ccc(S(=O)(=O)[O-])cc4)c4ccc([nH]4)c(-c4ccc(S(=O)(=O)[O-])cc4)c4nc(c(-c5ccc(S(=O)(=O)[O-])cc5)c5ccc2[nH]5)C=C4)C=C3)cc1
REMARK SMILES IDX 22 1 21 2 19 3 20 4 18 5 13 6 14 7 15 8 17 9 16 10 12 11
REMARK SMILES IDX 8 12 9 13 10 14 11 15 5 16 4 17 3 18 2 19 1 20 6 21 7 22
REMARK SMILES IDX 23 24 24 25 25 26 26 27 27 28 28 29 86 30 29 31 85 32 30 33
REMARK SMILES IDX 31 34 32 35 79 36 33 37 84 38 78 39 80 40 34 41 83 42 77 43
REMARK SMILES IDX 76 44 35 46 65 47 46 48 64 49 47 50 50 51 63 52 81 53 48 54
REMARK SMILES IDX 49 55 62 57 82 58 51 59 36 60 37 61 45 62 38 63 44 64 39 65
REMARK SMILES IDX 40 66 41 67 42 68 43 69 66 70 67 71 75 72 68 73 74 74 69 75
REMARK SMILES IDX 70 76 71 77 72 78 73 79 52 80 53 81 61 82 54 83 60 84 55 85
REMARK SMILES IDX 56 86 57 87 58 88 59 89
REMARK H PARENT 7 23 80 45 50 56
REMARK Flexibility Score: inf
ROOT
ATOM      1  C   UNL A   1      36.947  23.262  25.754  1.00  0.00     0.275 C 
ENDROOT
BRANCH   1   2
ATOM      2  O   UNL A   1      35.977  24.108  25.070  1.00  0.00    -0.458 OA
BRANCH   2   3
ATOM      3  C   UNL A   1      35.500  23.649  23.896  1.00  0.00     0.338 C 
ATOM      4  O   UNL A   1      36.212  23.270  22.974  1.00  0.00    -0.246 OA
BRANCH   3   5
ATOM      5  C   UNL A   1      34.015  23.724  23.756  1.00  0.00     0.071 A 
ATOM      6  C   UNL A   1      32.997  23.398  24.688  1.00  0.00     0.032 A 
ATOM      7  C   UNL A   1      31.659  23.675  24.293  1.00  0.00     0.013 A 
ATOM      8  C   UNL A   1      31.329  24.241  23.057  1.00  0.00     0.001 A 
ATOM      9  C   UNL A   1      33.654  24.291  22.505  1.00  0.00     0.016 A 
ATOM     10  C   UNL A   1      32.332  24.544  22.156  1.00  0.00     0.001 A 
BRANCH   6  11
ATOM     11  C   UNL A   1      33.059  22.624  25.960  1.00  0.00     0.141 A 
ATOM     12  N   UNL A   1      33.606  21.359  26.236  1.00  0.00    -0.326 N 
ATOM     13  C   UNL A   1      33.727  21.248  27.602  1.00  0.00     0.108 A 
ATOM     14  C   UNL A   1      33.232  22.415  28.118  1.00  0.00     0.131 A 
ATOM     15  N   UNL A   1      32.839  23.244  27.112  1.00  0.00    -0.237 NA
BRANCH  12  16
ATOM     16  C   UNL A   1      33.800  20.250  25.296  1.00  0.00     0.115 C 
BRANCH  16  17
ATOM     17  C   UNL A   1      32.986  20.204  23.985  1.00  0.00     0.039 C 
BRANCH  17  18
ATOM     18  C   UNL A   1      32.222  18.872  23.772  1.00  0.00     0.071 C 
BRANCH  18  19
ATOM     19  S   UNL A   1      33.224  17.469  23.137  1.00  0.00    -0.165 SA
ATOM     20  C   UNL A   1      33.387  16.368  24.585  1.00  0.00     0.085 C 
ENDBRANCH  18  19
ENDBRANCH  17  18
ENDBRANCH  16  17
BRANCH  16  21
ATOM     21  C   UNL A   1      35.248  20.265  24.866  1.00  0.00     0.181 C 
BRANCH  21  22
ATOM     22  O   UNL A   1      35.843  18.982  24.997  1.00  0.00    -0.394 OA
ATOM     23  H   UNL A   1      35.149  18.311  25.097  1.00  0.00     0.210 HD
ENDBRANCH  21  22
ENDBRANCH  16  21
ENDBRANCH  12  16
ENDBRANCH   6  11
ENDBRANCH   3   5
ENDBRANCH   2   3
ENDBRANCH   1   2
BRANCH   1  24
ATOM     24  C   UNL A   1      38.147  24.137  26.136  1.00  0.00     0.275 C 
BRANCH  24  25
ATOM     25  O   UNL A   1      38.906  23.524  27.176  1.00  0.00    -0.458 OA
BRANCH  25  26
ATOM     26  C   UNL A   1      39.902  22.742  26.696  1.00  0.00     0.338 C 
ATOM     27  O   UNL A   1      39.777  21.606  26.271  1.00  0.00    -0.246 OA
BRANCH  26  28
ATOM     28  C   UNL A   1      41.169  23.495  26.805  1.00  0.00     0.060 A 
ATOM     29  C   UNL A   1      41.773  23.431  28.054  1.00  0.00     0.016 A 
ATOM     30  C   UNL A   1      41.372  24.565  25.919  1.00  0.00     0.016 A 
ATOM     31  C   UNL A   1      42.137  24.632  28.603  1.00  0.00     0.010 A 
ATOM     32  C   UNL A   1      41.688  25.765  26.472  1.00  0.00     0.010 A 
ATOM     33  C   UNL A   1      41.917  25.782  27.841  1.00  0.00    -0.014 A 
BRANCH  33  34
ATOM     34  C   UNL A   1      41.823  27.038  28.530  1.00  0.00     0.031 A 
ATOM     35  C   UNL A   1      42.989  27.893  28.306  1.00  0.00     0.074 A 
ATOM     36  C   UNL A   1      40.709  27.415  29.178  1.00  0.00     0.049 A 
ATOM     37  N   UNL A   1      43.977  28.093  29.108  1.00  0.00    -0.248 NA
ATOM     38  C   UNL A   1      43.182  28.395  26.938  1.00  0.00     0.031 C 
ATOM     39  C   UNL A   1      39.376  26.806  29.141  1.00  0.00     0.029 A 
ATOM     40  N   UNL A   1      40.522  28.533  29.919  1.00  0.00    -0.354 N 
ATOM     41  C   UNL A   1      44.816  28.943  28.408  1.00  0.00     0.074 A 
ATOM     42  C   UNL A   1      44.428  28.852  27.023  1.00  0.00     0.031 C 
ATOM     43  C   UNL A   1      38.479  27.695  29.632  1.00  0.00     0.029 A 
ATOM     44  C   UNL A   1      39.194  28.864  30.121  1.00  0.00     0.049 A 
ATOM     45  H   UNL A   1      41.267  29.064  30.282  1.00  0.00     0.167 HD
ATOM     46  C   UNL A   1      45.538  29.907  29.036  1.00  0.00     0.031 A 
ATOM     47  C   UNL A   1      38.744  30.070  30.547  1.00  0.00     0.031 A 
ATOM     48  C   UNL A   1      45.580  29.714  30.462  1.00  0.00     0.049 A 
ATOM     49  C   UNL A   1      39.898  30.776  31.174  1.00  0.00     0.074 A 
ATOM     50  C   UNL A   1      46.008  28.691  31.287  1.00  0.00     0.029 A 
ATOM     51  N   UNL A   1      44.744  30.498  31.226  1.00  0.00    -0.354 N 
ATOM     52  N   UNL A   1      40.487  30.373  32.268  1.00  0.00    -0.248 NA
ATOM     53  C   UNL A   1      40.690  31.679  30.350  1.00  0.00     0.031 C 
ATOM     54  C   UNL A   1      45.077  28.664  32.366  1.00  0.00     0.029 A 
ATOM     55  C   UNL A   1      44.151  29.693  32.168  1.00  0.00     0.049 A 
ATOM     56  H   UNL A   1      44.598  31.465  31.117  1.00  0.00     0.167 HD
ATOM     57  C   UNL A   1      41.839  30.631  32.073  1.00  0.00     0.074 A 
ATOM     58  C   UNL A   1      41.887  31.533  30.927  1.00  0.00     0.031 C 
ATOM     59  C   UNL A   1      42.802  29.869  32.675  1.00  0.00     0.031 A 
BRANCH  46  60
ATOM     60  C   UNL A   1      45.835  31.227  28.379  1.00  0.00    -0.014 A 
ATOM     61  C   UNL A   1      44.778  32.107  28.101  1.00  0.00     0.010 A 
ATOM     62  C   UNL A   1      47.094  31.531  27.811  1.00  0.00     0.010 A 
ATOM     63  C   UNL A   1      44.969  33.216  27.268  1.00  0.00     0.020 A 
ATOM     64  C   UNL A   1      47.310  32.661  27.032  1.00  0.00     0.020 A 
ATOM     65  C   UNL A   1      46.234  33.480  26.735  1.00  0.00     0.054 A 
BRANCH  65  66
ATOM     66  S   UNL A   1      46.453  34.851  25.580  1.00  0.00     0.124 S 
ATOM     67  O   UNL A   1      46.237  36.005  26.448  1.00  0.00    -0.237 OA
ATOM     68  O   UNL A   1      47.824  34.650  25.117  1.00  0.00    -0.237 OA
ATOM     69  O   UNL A   1      45.420  34.619  24.573  1.00  0.00    -0.744 OA
ENDBRANCH  65  66
ENDBRANCH  46  60
BRANCH  47  70
ATOM     70  C   UNL A   1      37.510  30.763  30.099  1.00  0.00    -0.014 A 
ATOM     71  C   UNL A   1      36.512  31.133  31.017  1.00  0.00     0.010 A 
ATOM     72  C   UNL A   1      37.423  31.291  28.792  1.00  0.00     0.010 A 
ATOM     73  C   UNL A   1      35.496  32.036  30.655  1.00  0.00     0.020 A 
ATOM     74  C   UNL A   1      36.409  32.178  28.420  1.00  0.00     0.020 A 
ATOM     75  C   UNL A   1      35.462  32.565  29.361  1.00  0.00     0.054 A 
BRANCH  75  76
ATOM     76  S   UNL A   1      34.248  33.853  28.950  1.00  0.00     0.124 S 
ATOM     77  O   UNL A   1      33.649  34.142  30.250  1.00  0.00    -0.237 OA
ATOM     78  O   UNL A   1      35.084  34.910  28.389  1.00  0.00    -0.237 OA
ATOM     79  O   UNL A   1      33.361  33.195  27.991  1.00  0.00    -0.744 OA
ENDBRANCH  75  76
ENDBRANCH  47  70
BRANCH  59  80
ATOM     80  C   UNL A   1      42.381  28.929  33.785  1.00  0.00    -0.014 A 
ATOM     81  C   UNL A   1      41.919  27.618  33.553  1.00  0.00     0.010 A 
ATOM     82  C   UNL A   1      42.631  29.323  35.112  1.00  0.00     0.010 A 
ATOM     83  C   UNL A   1      41.701  26.732  34.619  1.00  0.00     0.020 A 
ATOM     84  C   UNL A   1      42.431  28.439  36.177  1.00  0.00     0.020 A 
ATOM     85  C   UNL A   1      41.964  27.149  35.927  1.00  0.00     0.054 A 
BRANCH  85  86
ATOM     86  S   UNL A   1      41.760  25.972  37.295  1.00  0.00     0.124 S 
ATOM     87  O   UNL A   1      40.393  26.234  37.738  1.00  0.00    -0.237 OA
ATOM     88  O   UNL A   1      41.977  24.681  36.649  1.00  0.00    -0.237 OA
ATOM     89  O   UNL A   1      42.802  26.360  38.247  1.00  0.00    -0.744 OA
ENDBRANCH  85  86
ENDBRANCH  59  80
ENDBRANCH  33  34
ENDBRANCH  26  28
ENDBRANCH  25  26
ENDBRANCH  24  25
ENDBRANCH   1  24
TORSDOF 21
ENDMDL
MODEL 2
REMARK VINA RESULT:     -10.4      3.182      8.355
REMARK SMILES CSCC[C@@H](CO)n1ccnc1-c1ccccc1C(=O)OCCOC(=O)c1ccc(-c2c3nc(c(-c4ccc(S(=O)(=O)[O-])cc4)c4ccc([nH]4)c(-c4ccc(S(=O)(=O)[O-])cc4)c4nc(c(-c5ccc(S(=O)(=O)[O-])cc5)c5ccc2[nH]5)C=C4)C=C3)cc1
REMARK SMILES IDX 22 1 21 2 19 3 20 4 18 5 13 6 14 7 15 8 17 9 16 10 12 11
REMARK SMILES IDX 8 12 9 13 10 14 11 15 5 16 4 17 3 18 2 19 1 20 6 21 7 22
REMARK SMILES IDX 23 24 24 25 25 26 26 27 27 28 28 29 86 30 29 31 85 32 30 33
REMARK SMILES IDX 31 34 32 35 79 36 33 37 84 38 78 39 80 40 34 41 83 42 77 43
REMARK SMILES IDX 76 44 35 46 65 47 46 48 64 49 47 50 50 51 63 52 81 53 48 54
REMARK SMILES IDX 49 55 62 57 82 58 51 59 36 60 37 61 45 62 38 63 44 64 39 65
REMARK SMILES IDX 40 66 41 67 42 68 43 69 66 70 67 71 75 72 68 73 74 74 69 75
REMARK SMILES IDX 70 76 71 77 72 78 73 79 52 80 53 81 61 82 54 83 60 84 55 85
REMARK SMILES IDX 56 86 57 87 58 88 59 89
REMARK H PARENT 7 23 80 45 50 56
REMARK Flexibility Score: inf
ROOT
ATOM      1  C   UNL A   1      36.667  23.612  25.610  1.00  0.00     0.275 C 
ENDROOT
BRANCH   1   2
ATOM      2  O   UNL A   1      35.261  23.490  25.979  1.00  0.00    -0.458 OA
BRANCH   2   3
ATOM      3  C   UNL A   1      34.407  24.342  25.380  1.00  0.00     0.338 C 
ATOM      4  O   UNL A   1      34.762  25.284  24.683  1.00  0.00    -0.246 OA
BRANCH   3   5
ATOM      5  C   UNL A   1      32.968  24.114  25.711  1.00  0.00     0.071 A 
ATOM      6  C   UNL A   1      31.936  25.051  25.972  1.00  0.00     0.032 A 
ATOM      7  C   UNL A   1      30.628  24.523  26.160  1.00  0.00     0.013 A 
ATOM      8  C   UNL A   1      30.340  23.157  26.094  1.00  0.00     0.001 A 
ATOM      9  C   UNL A   1      32.651  22.731  25.657  1.00  0.00     0.016 A 
ATOM     10  C   UNL A   1      31.358  22.255  25.849  1.00  0.00     0.001 A 
BRANCH   6  11
ATOM     11  C   UNL A   1      32.005  26.507  26.283  1.00  0.00     0.141 A 
ATOM     12  N   UNL A   1      32.115  27.621  25.432  1.00  0.00    -0.326 N 
ATOM     13  C   UNL A   1      31.786  28.738  26.165  1.00  0.00     0.108 A 
ATOM     14  C   UNL A   1      31.518  28.290  27.430  1.00  0.00     0.131 A 
ATOM     15  N   UNL A   1      31.645  26.936  27.485  1.00  0.00    -0.237 NA
BRANCH  12  16
ATOM     16  C   UNL A   1      32.697  27.657  24.086  1.00  0.00     0.115 C 
BRANCH  16  17
ATOM     17  C   UNL A   1      31.886  28.251  22.915  1.00  0.00     0.039 C 
BRANCH  17  18
ATOM     18  C   UNL A   1      30.554  27.507  22.639  1.00  0.00     0.071 C 
BRANCH  18  19
ATOM     19  S   UNL A   1      29.021  28.445  23.021  1.00  0.00    -0.165 SA
ATOM     20  C   UNL A   1      29.103  29.878  21.891  1.00  0.00     0.085 C 
ENDBRANCH  18  19
ENDBRANCH  17  18
ENDBRANCH  16  17
BRANCH  16  21
ATOM     21  C   UNL A   1      33.958  28.485  24.158  1.00  0.00     0.181 C 
BRANCH  21  22
ATOM     22  O   UNL A   1      34.158  29.234  22.966  1.00  0.00    -0.394 OA
ATOM     23  H   UNL A   1      34.540  30.098  23.188  1.00  0.00     0.210 HD
ENDBRANCH  21  22
ENDBRANCH  16  21
ENDBRANCH  12  16
ENDBRANCH   6  11
ENDBRANCH   3   5
ENDBRANCH   2   3
ENDBRANCH   1   2
BRANCH   1  24
ATOM     24  C   UNL A   1      37.299  22.218  25.699  1.00  0.00     0.275 C 
BRANCH  24  25
ATOM     25  O   UNL A   1      38.679  22.312  26.042  1.00  0.00    -0.458 OA
BRANCH  25  26
ATOM     26  C   UNL A   1      39.346  21.153  25.824  1.00  0.00     0.338 C 
ATOM     27  O   UNL A   1      38.880  20.145  25.320  1.00  0.00    -0.246 OA
BRANCH  26  28
ATOM     28  C   UNL A   1      40.725  21.315  26.329  1.00  0.00     0.060 A 
ATOM     29  C   UNL A   1      40.878  21.056  27.685  1.00  0.00     0.016 A 
ATOM     30  C   UNL A   1      41.585  22.168  25.619  1.00  0.00     0.016 A 
ATOM     31  C   UNL A   1      41.534  22.018  28.406  1.00  0.00     0.010 A 
ATOM     32  C   UNL A   1      42.198  23.150  26.332  1.00  0.00     0.010 A 
ATOM     33  C   UNL A   1      42.024  23.125  27.709  1.00  0.00    -0.014 A 
BRANCH  33  34
ATOM     34  C   UNL A   1      42.266  24.332  28.446  1.00  0.00     0.031 A 
ATOM     35  C   UNL A   1      41.246  25.353  28.209  1.00  0.00     0.074 A 
ATOM     36  C   UNL A   1      43.247  24.426  29.358  1.00  0.00     0.049 A 
ATOM     37  N   UNL A   1      41.338  26.388  27.448  1.00  0.00    -0.248 NA
ATOM     38  C   UNL A   1      39.892  25.053  28.696  1.00  0.00     0.031 C 
ATOM     39  C   UNL A   1      44.069  23.358  29.935  1.00  0.00     0.029 A 
ATOM     40  N   UNL A   1      43.619  25.522  30.061  1.00  0.00    -0.354 N 
ATOM     41  C   UNL A   1      40.098  26.996  27.548  1.00  0.00     0.074 A 
ATOM     42  C   UNL A   1      39.196  26.001  28.073  1.00  0.00     0.031 C 
ATOM     43  C   UNL A   1      44.665  23.827  31.057  1.00  0.00     0.029 A 
ATOM     44  C   UNL A   1      44.361  25.244  31.196  1.00  0.00     0.049 A 
ATOM     45  H   UNL A   1      43.382  26.438  29.789  1.00  0.00     0.167 HD
ATOM     46  C   UNL A   1      39.962  28.346  27.517  1.00  0.00     0.031 A 
ATOM     47  C   UNL A   1      44.584  26.108  32.216  1.00  0.00     0.031 A 
ATOM     48  C   UNL A   1      41.155  29.002  27.048  1.00  0.00     0.049 A 
ATOM     49  C   UNL A   1      44.305  27.479  31.704  1.00  0.00     0.074 A 
ATOM     50  C   UNL A   1      41.904  28.934  25.889  1.00  0.00     0.029 A 
ATOM     51  N   UNL A   1      41.971  29.575  27.998  1.00  0.00    -0.354 N 
ATOM     52  N   UNL A   1      45.010  28.065  30.774  1.00  0.00    -0.248 NA
ATOM     53  C   UNL A   1      42.972  28.035  31.900  1.00  0.00     0.031 C 
ATOM     54  C   UNL A   1      43.259  29.064  26.309  1.00  0.00     0.029 A 
ATOM     55  C   UNL A   1      43.269  29.244  27.695  1.00  0.00     0.049 A 
ATOM     56  H   UNL A   1      41.676  30.124  28.760  1.00  0.00     0.167 HD
ATOM     57  C   UNL A   1      44.093  28.770  30.005  1.00  0.00     0.074 A 
ATOM     58  C   UNL A   1      42.876  28.803  30.811  1.00  0.00     0.031 C 
ATOM     59  C   UNL A   1      44.314  29.013  28.678  1.00  0.00     0.031 A 
BRANCH  46  60
ATOM     60  C   UNL A   1      38.896  29.053  28.307  1.00  0.00    -0.014 A 
ATOM     61  C   UNL A   1      37.917  29.794  27.626  1.00  0.00     0.010 A 
ATOM     62  C   UNL A   1      38.960  29.208  29.711  1.00  0.00     0.010 A 
ATOM     63  C   UNL A   1      37.070  30.669  28.318  1.00  0.00     0.020 A 
ATOM     64  C   UNL A   1      38.087  30.028  30.415  1.00  0.00     0.020 A 
ATOM     65  C   UNL A   1      37.168  30.784  29.707  1.00  0.00     0.054 A 
BRANCH  65  66
ATOM     66  S   UNL A   1      36.145  31.988  30.582  1.00  0.00     0.124 S 
ATOM     67  O   UNL A   1      34.956  32.034  29.739  1.00  0.00    -0.237 OA
ATOM     68  O   UNL A   1      35.976  31.359  31.889  1.00  0.00    -0.237 OA
ATOM     69  O   UNL A   1      36.966  33.198  30.581  1.00  0.00    -0.744 OA
ENDBRANCH  65  66
ENDBRANCH  46  60
BRANCH  47  70
ATOM     70  C   UNL A   1      44.645  25.773  33.662  1.00  0.00    -0.014 A 
ATOM     71  C   UNL A   1      45.864  25.804  34.362  1.00  0.00     0.010 A 
ATOM     72  C   UNL A   1      43.459  25.667  34.419  1.00  0.00     0.010 A 
ATOM     73  C   UNL A   1      45.889  25.781  35.768  1.00  0.00     0.020 A 
ATOM     74  C   UNL A   1      43.476  25.630  35.817  1.00  0.00     0.020 A 
ATOM     75  C   UNL A   1      44.692  25.710  36.487  1.00  0.00     0.054 A 
BRANCH  75  76
ATOM     76  S   UNL A   1      44.722  25.846  38.297  1.00  0.00     0.124 S 
ATOM     77  O   UNL A   1      45.924  26.640  38.530  1.00  0.00    -0.237 OA
ATOM     78  O   UNL A   1      43.456  26.513  38.588  1.00  0.00    -0.237 OA
ATOM     79  O   UNL A   1      44.801  24.456  38.745  1.00  0.00    -0.744 OA
ENDBRANCH  75  76
ENDBRANCH  47  70
BRANCH  59  80
ATOM     80  C   UNL A   1      45.701  28.759  28.125  1.00  0.00    -0.014 A 
ATOM     81  C   UNL A   1      46.181  27.475  27.802  1.00  0.00     0.010 A 
ATOM     82  C   UNL A   1      46.476  29.873  27.754  1.00  0.00     0.010 A 
ATOM     83  C   UNL A   1      47.407  27.309  27.139  1.00  0.00     0.020 A 
ATOM     84  C   UNL A   1      47.690  29.716  27.079  1.00  0.00     0.020 A 
ATOM     85  C   UNL A   1      48.152  28.435  26.777  1.00  0.00     0.054 A 
BRANCH  85  86
ATOM     86  S   UNL A   1      49.696  28.218  25.846  1.00  0.00     0.124 S 
ATOM     87  O   UNL A   1      49.216  27.848  24.517  1.00  0.00    -0.237 OA
ATOM     88  O   UNL A   1      50.324  29.533  25.945  1.00  0.00    -0.237 OA
ATOM     89  O   UNL A   1      50.393  27.154  26.569  1.00  0.00    -0.744 OA
ENDBRANCH  85  86
ENDBRANCH  59  80
ENDBRANCH  33  34
ENDBRANCH  26  28
ENDBRANCH  25  26
ENDBRANCH  24  25
ENDBRANCH   1  24
TORSDOF 21
ENDMDL
MODEL 3
REMARK VINA RESULT:     -10.4      2.331      3.824
REMARK SMILES CSCC[C@@H](CO)n1ccnc1-c1ccccc1C(=O)OCCOC(=O)c1ccc(-c2c3nc(c(-c4ccc(S(=O)(=O)[O-])cc4)c4ccc([nH]4)c(-c4ccc(S(=O)(=O)[O-])cc4)c4nc(c(-c5ccc(S(=O)(=O)[O-])cc5)c5ccc2[nH]5)C=C4)C=C3)cc1
REMARK SMILES IDX 22 1 21 2 19 3 20 4 18 5 13 6 14 7 15 8 17 9 16 10 12 11
REMARK SMILES IDX 8 12 9 13 10 14 11 15 5 16 4 17 3 18 2 19 1 20 6 21 7 22
REMARK SMILES IDX 23 24 24 25 25 26 26 27 27 28 28 29 86 30 29 31 85 32 30 33
REMARK SMILES IDX 31 34 32 35 79 36 33 37 84 38 78 39 80 40 34 41 83 42 77 43
REMARK SMILES IDX 76 44 35 46 65 47 46 48 64 49 47 50 50 51 63 52 81 53 48 54
REMARK SMILES IDX 49 55 62 57 82 58 51 59 36 60 37 61 45 62 38 63 44 64 39 65
REMARK SMILES IDX 40 66 41 67 42 68 43 69 66 70 67 71 75 72 68 73 74 74 69 75
REMARK SMILES IDX 70 76 71 77 72 78 73 79 52 80 53 81 61 82 54 83 60 84 55 85
REMARK SMILES IDX 56 86 57 87 58 88 59 89
REMARK H PARENT 7 23 80 45 50 56
REMARK Flexibility Score: inf
ROOT
ATOM      1  C   UNL A   1      36.160  23.726  25.947  1.00  0.00     0.275 C 
ENDROOT
BRANCH   1   2
ATOM      2  O   UNL A   1      35.354  23.046  24.941  1.00  0.00    -0.458 OA
BRANCH   2   3
ATOM      3  C   UNL A   1      34.407  23.784  24.329  1.00  0.00     0.338 C 
ATOM      4  O   UNL A   1      34.575  24.354  23.258  1.00  0.00    -0.246 OA
BRANCH   3   5
ATOM      5  C   UNL A   1      33.144  23.945  25.109  1.00  0.00     0.071 A 
ATOM      6  C   UNL A   1      32.414  25.119  25.426  1.00  0.00     0.032 A 
ATOM      7  C   UNL A   1      31.179  24.938  26.107  1.00  0.00     0.013 A 
ATOM      8  C   UNL A   1      30.679  23.681  26.460  1.00  0.00     0.001 A 
ATOM      9  C   UNL A   1      32.618  22.680  25.485  1.00  0.00     0.016 A 
ATOM     10  C   UNL A   1      31.406  22.546  26.154  1.00  0.00     0.001 A 
BRANCH   6  11
ATOM     11  C   UNL A   1      32.805  26.555  25.341  1.00  0.00     0.141 A 
ATOM     12  N   UNL A   1      32.119  27.661  24.811  1.00  0.00    -0.326 N 
ATOM     13  C   UNL A   1      32.733  28.798  25.286  1.00  0.00     0.108 A 
ATOM     14  C   UNL A   1      33.778  28.364  26.056  1.00  0.00     0.131 A 
ATOM     15  N   UNL A   1      33.804  27.004  26.090  1.00  0.00    -0.237 NA
BRANCH  12  16
ATOM     16  C   UNL A   1      31.096  27.652  23.760  1.00  0.00     0.115 C 
BRANCH  16  17
ATOM     17  C   UNL A   1      30.373  28.962  23.381  1.00  0.00     0.039 C 
BRANCH  17  18
ATOM     18  C   UNL A   1      28.925  28.748  22.868  1.00  0.00     0.071 C 
BRANCH  18  19
ATOM     19  S   UNL A   1      27.797  30.189  23.035  1.00  0.00    -0.165 SA
ATOM     20  C   UNL A   1      28.893  31.523  23.632  1.00  0.00     0.085 C 
ENDBRANCH  18  19
ENDBRANCH  17  18
ENDBRANCH  16  17
BRANCH  16  21
ATOM     21  C   UNL A   1      31.757  27.180  22.486  1.00  0.00     0.181 C 
BRANCH  21  22
ATOM     22  O   UNL A   1      32.704  28.126  22.009  1.00  0.00    -0.394 OA
ATOM     23  H   UNL A   1      33.425  27.662  21.556  1.00  0.00     0.210 HD
ENDBRANCH  21  22
ENDBRANCH  16  21
ENDBRANCH  12  16
ENDBRANCH   6  11
ENDBRANCH   3   5
ENDBRANCH   2   3
ENDBRANCH   1   2
BRANCH   1  24
ATOM     24  C   UNL A   1      37.634  23.570  25.552  1.00  0.00     0.275 C 
BRANCH  24  25
ATOM     25  O   UNL A   1      38.476  24.270  26.464  1.00  0.00    -0.458 OA
BRANCH  25  26
ATOM     26  C   UNL A   1      39.603  23.579  26.762  1.00  0.00     0.338 C 
ATOM     27  O   UNL A   1      39.653  22.410  27.105  1.00  0.00    -0.246 OA
BRANCH  26  28
ATOM     28  C   UNL A   1      40.752  24.496  26.628  1.00  0.00     0.060 A 
ATOM     29  C   UNL A   1      41.628  24.488  27.707  1.00  0.00     0.016 A 
ATOM     30  C   UNL A   1      40.609  25.604  25.777  1.00  0.00     0.016 A 
ATOM     31  C   UNL A   1      41.949  25.715  28.224  1.00  0.00     0.010 A 
ATOM     32  C   UNL A   1      40.885  26.824  26.310  1.00  0.00     0.010 A 
ATOM     33  C   UNL A   1      41.415  26.841  27.594  1.00  0.00    -0.014 A 
BRANCH  33  34
ATOM     34  C   UNL A   1      41.319  28.055  28.352  1.00  0.00     0.031 A 
ATOM     35  C   UNL A   1      42.439  28.964  28.108  1.00  0.00     0.074 A 
ATOM     36  C   UNL A   1      40.233  28.356  29.082  1.00  0.00     0.049 A 
ATOM     37  N   UNL A   1      43.466  29.160  28.861  1.00  0.00    -0.248 NA
ATOM     38  C   UNL A   1      42.533  29.541  26.759  1.00  0.00     0.031 C 
ATOM     39  C   UNL A   1      38.921  27.701  29.089  1.00  0.00     0.029 A 
ATOM     40  N   UNL A   1      40.052  29.428  29.891  1.00  0.00    -0.354 N 
ATOM     41  C   UNL A   1      44.232  30.075  28.160  1.00  0.00     0.074 A 
ATOM     42  C   UNL A   1      43.766  30.040  26.797  1.00  0.00     0.031 C 
ATOM     43  C   UNL A   1      38.025  28.529  29.678  1.00  0.00     0.029 A 
ATOM     44  C   UNL A   1      38.727  29.698  30.186  1.00  0.00     0.049 A 
ATOM     45  H   UNL A   1      40.798  29.967  30.238  1.00  0.00     0.167 HD
ATOM     46  C   UNL A   1      44.955  31.033  28.796  1.00  0.00     0.031 A 
ATOM     47  C   UNL A   1      38.262  30.863  30.701  1.00  0.00     0.031 A 
ATOM     48  C   UNL A   1      45.089  30.768  30.205  1.00  0.00     0.049 A 
ATOM     49  C   UNL A   1      39.425  31.578  31.297  1.00  0.00     0.074 A 
ATOM     50  C   UNL A   1      45.600  29.722  30.949  1.00  0.00     0.029 A 
ATOM     51  N   UNL A   1      44.274  31.480  31.057  1.00  0.00    -0.354 N 
ATOM     52  N   UNL A   1      40.092  31.143  32.332  1.00  0.00    -0.248 NA
ATOM     53  C   UNL A   1      40.136  32.552  30.479  1.00  0.00     0.031 C 
ATOM     54  C   UNL A   1      44.736  29.605  32.076  1.00  0.00     0.029 A 
ATOM     55  C   UNL A   1      43.765  30.606  31.986  1.00  0.00     0.049 A 
ATOM     56  H   UNL A   1      44.088  32.446  31.008  1.00  0.00     0.167 HD
ATOM     57  C   UNL A   1      41.420  31.460  32.075  1.00  0.00     0.074 A 
ATOM     58  C   UNL A   1      41.369  32.422  30.977  1.00  0.00     0.031 C 
ATOM     59  C   UNL A   1      42.443  30.706  32.579  1.00  0.00     0.031 A 
BRANCH  46  60
ATOM     60  C   UNL A   1      45.168  32.394  28.195  1.00  0.00    -0.014 A 
ATOM     61  C   UNL A   1      46.449  32.752  27.747  1.00  0.00     0.010 A 
ATOM     62  C   UNL A   1      44.201  33.422  28.270  1.00  0.00     0.010 A 
ATOM     63  C   UNL A   1      46.751  34.081  27.425  1.00  0.00     0.020 A 
ATOM     64  C   UNL A   1      44.471  34.733  27.896  1.00  0.00     0.020 A 
ATOM     65  C   UNL A   1      45.759  35.062  27.509  1.00  0.00     0.054 A 
BRANCH  65  66
ATOM     66  S   UNL A   1      46.177  36.790  27.191  1.00  0.00     0.124 S 
ATOM     67  O   UNL A   1      47.117  37.070  28.271  1.00  0.00    -0.237 OA
ATOM     68  O   UNL A   1      46.748  36.729  25.848  1.00  0.00    -0.237 OA
ATOM     69  O   UNL A   1      44.889  37.476  27.283  1.00  0.00    -0.744 OA
ENDBRANCH  65  66
ENDBRANCH  46  60
BRANCH  47  70
ATOM     70  C   UNL A   1      36.980  31.530  30.361  1.00  0.00    -0.014 A 
ATOM     71  C   UNL A   1      36.280  32.285  31.319  1.00  0.00     0.010 A 
ATOM     72  C   UNL A   1      36.566  31.637  29.016  1.00  0.00     0.010 A 
ATOM     73  C   UNL A   1      35.240  33.151  30.936  1.00  0.00     0.020 A 
ATOM     74  C   UNL A   1      35.524  32.485  28.629  1.00  0.00     0.020 A 
ATOM     75  C   UNL A   1      34.880  33.257  29.589  1.00  0.00     0.054 A 
BRANCH  75  76
ATOM     76  S   UNL A   1      33.651  34.494  29.083  1.00  0.00     0.124 S 
ATOM     77  O   UNL A   1      34.487  35.555  28.530  1.00  0.00    -0.237 OA
ATOM     78  O   UNL A   1      32.839  33.760  28.118  1.00  0.00    -0.237 OA
ATOM     79  O   UNL A   1      32.968  34.831  30.332  1.00  0.00    -0.744 OA
ENDBRANCH  75  76
ENDBRANCH  47  70
BRANCH  59  80
ATOM     80  C   UNL A   1      42.122  29.695  33.660  1.00  0.00    -0.014 A 
ATOM     81  C   UNL A   1      41.546  28.437  33.394  1.00  0.00     0.010 A 
ATOM     82  C   UNL A   1      42.581  29.956  34.963  1.00  0.00     0.010 A 
ATOM     83  C   UNL A   1      41.422  27.473  34.406  1.00  0.00     0.020 A 
ATOM     84  C   UNL A   1      42.475  28.994  35.972  1.00  0.00     0.020 A 
ATOM     85  C   UNL A   1      41.893  27.758  35.691  1.00  0.00     0.054 A 
BRANCH  85  86
ATOM     86  S   UNL A   1      41.807  26.477  36.976  1.00  0.00     0.124 S 
ATOM     87  O   UNL A   1      40.487  26.702  37.559  1.00  0.00    -0.237 OA
ATOM     88  O   UNL A   1      41.956  25.240  36.214  1.00  0.00    -0.237 OA
ATOM     89  O   UNL A   1      42.932  26.791  37.856  1.00  0.00    -0.744 OA
ENDBRANCH  85  86
ENDBRANCH  59  80
ENDBRANCH  33  34
ENDBRANCH  26  28
ENDBRANCH  25  26
ENDBRANCH  24  25
ENDBRANCH   1  24
TORSDOF 21
ENDMDL
