MODEL 1
REMARK VINA RESULT:      -9.0      0.000      0.000
REMARK SMILES O=C(CCC(=O)OCCOC(=O)c1ccc(-c2c3nc(c(-c4ccc(S(=O)(=O)[O-])cc4)c4ccc([nH]4)c(-c4ccc(S(=O)(=O)[O-])cc4)c4nc(c(-c5ccc(S(=O)(=O)[O-])cc5)c5ccc2[nH]5)C=C4)C=C3)cc1)/[NH+]=C1\S[C@H]2CS(=O)(=O)C[C@@H]2N1c1ccc(Oc2ccccc2)cc1
REMARK SMILES IDX 8 1 7 2 5 3 6 4 4 5 3 6 2 7 1 8 73 9 74 10 75 12 83 13 76 14
REMARK SMILES IDX 82 15 77 16 81 17 78 18 79 19 80 20 84 21 85 22 96 23 86 24
REMARK SMILES IDX 95 25 87 26 88 27 89 28 90 29 94 30 91 31 93 32 92 33 9 34
REMARK SMILES IDX 10 35 11 36 12 37 13 38 14 39 72 40 15 41 71 42 16 43 17 44
REMARK SMILES IDX 18 45 65 46 19 47 70 48 64 49 66 50 20 51 69 52 63 53 62 54
REMARK SMILES IDX 21 56 51 57 32 58 50 59 33 60 36 61 49 62 67 63 34 64 35 65
REMARK SMILES IDX 48 67 68 68 37 69 22 70 23 71 31 72 24 73 30 74 25 75 26 76
REMARK SMILES IDX 27 77 28 78 29 79 52 80 53 81 61 82 54 83 60 84 55 85 56 86
REMARK SMILES IDX 57 87 58 88 59 89 38 90 39 91 47 92 40 93 46 94 41 95 42 96
REMARK SMILES IDX 43 97 44 98 45 99
REMARK H PARENT 73 11 66 55 36 66
REMARK Flexibility Score: inf
ROOT
ATOM      1  C   UNL A   1      39.927  34.924  39.471  1.00  0.00     0.274 C 
ENDROOT
BRANCH   1   2
ATOM      2  O   UNL A   1      39.141  35.298  38.323  1.00  0.00    -0.462 OA
BRANCH   2   3
ATOM      3  C   UNL A   1      38.537  34.287  37.653  1.00  0.00     0.306 C 
ATOM      4  O   UNL A   1      37.910  33.373  38.167  1.00  0.00    -0.252 OA
BRANCH   3   5
ATOM      5  C   UNL A   1      38.720  34.440  36.167  1.00  0.00     0.135 C 
BRANCH   5   6
ATOM      6  C   UNL A   1      37.437  34.157  35.398  1.00  0.00     0.139 C 
BRANCH   6   7
ATOM      7  C   UNL A   1      37.429  32.817  34.676  1.00  0.00     0.308 C 
ATOM      8  O   UNL A   1      37.436  31.769  35.319  1.00  0.00    -0.247 OA
ATOM      9  N   UNL A   1      37.529  32.827  33.311  1.00  0.00    -0.204 N 
ATOM     10  C   UNL A   1      36.478  32.976  32.571  1.00  0.00     0.319 C 
ATOM     11  H   UNL A   1      38.411  32.719  32.886  1.00  0.00     0.316 HD
ATOM     12  S   UNL A   1      34.813  33.291  33.154  1.00  0.00    -0.029 SA
ATOM     13  N   UNL A   1      36.489  32.978  31.174  1.00  0.00    -0.217 N 
ATOM     14  C   UNL A   1      34.225  33.698  31.475  1.00  0.00     0.120 C 
ATOM     15  C   UNL A   1      35.499  33.908  30.645  1.00  0.00     0.212 C 
ATOM     16  C   UNL A   1      33.411  34.944  31.167  1.00  0.00     0.156 C 
ATOM     17  C   UNL A   1      35.003  33.923  29.220  1.00  0.00     0.188 C 
ATOM     18  S   UNL A   1      33.662  35.117  29.378  1.00  0.00     0.155 S 
ATOM     19  O   UNL A   1      32.501  34.588  28.680  1.00  0.00    -0.229 OA
ATOM     20  O   UNL A   1      34.198  36.425  29.102  1.00  0.00    -0.229 OA
BRANCH  13  21
ATOM     21  C   UNL A   1      36.868  31.859  30.423  1.00  0.00     0.128 A 
ATOM     22  C   UNL A   1      36.351  30.582  30.688  1.00  0.00     0.056 A 
ATOM     23  C   UNL A   1      37.827  31.979  29.408  1.00  0.00     0.056 A 
ATOM     24  C   UNL A   1      36.869  29.448  30.054  1.00  0.00     0.051 A 
ATOM     25  C   UNL A   1      38.338  30.854  28.765  1.00  0.00     0.051 A 
ATOM     26  C   UNL A   1      37.902  29.579  29.128  1.00  0.00     0.127 A 
BRANCH  26  27
ATOM     27  O   UNL A   1      38.424  28.409  28.612  1.00  0.00    -0.457 OA
BRANCH  27  28
ATOM     28  C   UNL A   1      39.747  28.448  28.236  1.00  0.00     0.127 A 
ATOM     29  C   UNL A   1      40.705  28.111  29.190  1.00  0.00     0.047 A 
ATOM     30  C   UNL A   1      40.123  28.775  26.930  1.00  0.00     0.047 A 
ATOM     31  C   UNL A   1      42.045  28.029  28.815  1.00  0.00     0.004 A 
ATOM     32  C   UNL A   1      41.463  28.686  26.558  1.00  0.00     0.004 A 
ATOM     33  C   UNL A   1      42.421  28.302  27.498  1.00  0.00     0.000 A 
ENDBRANCH  27  28
ENDBRANCH  26  27
ENDBRANCH  13  21
ENDBRANCH   6   7
ENDBRANCH   5   6
ENDBRANCH   3   5
ENDBRANCH   2   3
ENDBRANCH   1   2
BRANCH   1  34
ATOM     34  C   UNL A   1      41.406  35.113  39.171  1.00  0.00     0.275 C 
BRANCH  34  35
ATOM     35  O   UNL A   1      42.213  34.072  39.751  1.00  0.00    -0.458 OA
BRANCH  35  36
ATOM     36  C   UNL A   1      41.961  32.834  39.287  1.00  0.00     0.338 C 
ATOM     37  O   UNL A   1      41.615  31.867  39.951  1.00  0.00    -0.246 OA
BRANCH  36  38
ATOM     38  C   UNL A   1      42.300  32.658  37.884  1.00  0.00     0.060 A 
ATOM     39  C   UNL A   1      43.561  32.987  37.393  1.00  0.00     0.016 A 
ATOM     40  C   UNL A   1      41.271  32.222  37.039  1.00  0.00     0.016 A 
ATOM     41  C   UNL A   1      43.806  32.818  36.035  1.00  0.00     0.010 A 
ATOM     42  C   UNL A   1      41.526  32.018  35.694  1.00  0.00     0.010 A 
ATOM     43  C   UNL A   1      42.805  32.283  35.198  1.00  0.00    -0.014 A 
BRANCH  43  44
ATOM     44  C   UNL A   1      43.180  31.755  33.874  1.00  0.00     0.031 A 
ATOM     45  C   UNL A   1      43.233  32.630  32.668  1.00  0.00     0.074 A 
ATOM     46  C   UNL A   1      43.430  30.433  33.823  1.00  0.00     0.049 A 
ATOM     47  N   UNL A   1      43.697  32.350  31.480  1.00  0.00    -0.248 NA
ATOM     48  C   UNL A   1      42.669  33.982  32.796  1.00  0.00     0.031 C 
ATOM     49  C   UNL A   1      43.281  29.511  34.959  1.00  0.00     0.029 A 
ATOM     50  N   UNL A   1      43.898  29.639  32.815  1.00  0.00    -0.354 N 
ATOM     51  C   UNL A   1      43.481  33.487  30.712  1.00  0.00     0.074 A 
ATOM     52  C   UNL A   1      42.812  34.450  31.562  1.00  0.00     0.031 C 
ATOM     53  C   UNL A   1      43.749  28.306  34.614  1.00  0.00     0.029 A 
ATOM     54  C   UNL A   1      44.199  28.363  33.232  1.00  0.00     0.049 A 
ATOM     55  H   UNL A   1      44.008  29.948  31.888  1.00  0.00     0.167 HD
ATOM     56  C   UNL A   1      43.817  33.691  29.415  1.00  0.00     0.031 A 
ATOM     57  C   UNL A   1      44.820  27.366  32.579  1.00  0.00     0.031 A 
ATOM     58  C   UNL A   1      44.455  32.680  28.610  1.00  0.00     0.049 A 
ATOM     59  C   UNL A   1      45.282  27.652  31.182  1.00  0.00     0.074 A 
ATOM     60  C   UNL A   1      44.876  32.749  27.294  1.00  0.00     0.029 A 
ATOM     61  N   UNL A   1      44.761  31.399  29.060  1.00  0.00    -0.354 N 
ATOM     62  N   UNL A   1      45.148  28.759  30.487  1.00  0.00    -0.248 NA
ATOM     63  C   UNL A   1      45.983  26.572  30.486  1.00  0.00     0.031 C 
ATOM     64  C   UNL A   1      45.402  31.499  26.941  1.00  0.00     0.029 A 
ATOM     65  C   UNL A   1      45.351  30.664  28.049  1.00  0.00     0.049 A 
ATOM     66  H   UNL A   1      44.583  31.065  29.969  1.00  0.00     0.167 HD
ATOM     67  C   UNL A   1      45.740  28.509  29.260  1.00  0.00     0.074 A 
ATOM     68  C   UNL A   1      46.271  27.156  29.331  1.00  0.00     0.031 C 
ATOM     69  C   UNL A   1      45.826  29.306  28.166  1.00  0.00     0.031 A 
BRANCH  56  70
ATOM     70  C   UNL A   1      43.467  35.026  28.808  1.00  0.00    -0.014 A 
ATOM     71  C   UNL A   1      44.405  36.077  28.765  1.00  0.00     0.010 A 
ATOM     72  C   UNL A   1      42.179  35.249  28.289  1.00  0.00     0.010 A 
ATOM     73  C   UNL A   1      44.043  37.336  28.273  1.00  0.00     0.020 A 
ATOM     74  C   UNL A   1      41.820  36.501  27.773  1.00  0.00     0.020 A 
ATOM     75  C   UNL A   1      42.748  37.544  27.792  1.00  0.00     0.054 A 
BRANCH  75  76
ATOM     76  S   UNL A   1      42.293  39.194  27.185  1.00  0.00     0.124 S 
ATOM     77  O   UNL A   1      43.529  39.627  26.540  1.00  0.00    -0.237 OA
ATOM     78  O   UNL A   1      41.180  38.911  26.283  1.00  0.00    -0.237 OA
ATOM     79  O   UNL A   1      41.936  39.924  28.400  1.00  0.00    -0.744 OA
ENDBRANCH  75  76
ENDBRANCH  56  70
BRANCH  57  80
ATOM     80  C   UNL A   1      45.098  26.085  33.281  1.00  0.00    -0.014 A 
ATOM     81  C   UNL A   1      44.232  24.987  33.131  1.00  0.00     0.010 A 
ATOM     82  C   UNL A   1      46.283  25.919  34.021  1.00  0.00     0.010 A 
ATOM     83  C   UNL A   1      44.545  23.750  33.705  1.00  0.00     0.020 A 
ATOM     84  C   UNL A   1      46.613  24.677  34.576  1.00  0.00     0.020 A 
ATOM     85  C   UNL A   1      45.737  23.602  34.419  1.00  0.00     0.054 A 
BRANCH  85  86
ATOM     86  S   UNL A   1      46.169  21.967  35.082  1.00  0.00     0.124 S 
ATOM     87  O   UNL A   1      46.522  21.232  33.871  1.00  0.00    -0.237 OA
ATOM     88  O   UNL A   1      47.278  22.271  35.983  1.00  0.00    -0.237 OA
ATOM     89  O   UNL A   1      44.942  21.532  35.744  1.00  0.00    -0.744 OA
ENDBRANCH  85  86
ENDBRANCH  57  80
BRANCH  69  90
ATOM     90  C   UNL A   1      46.495  28.696  26.970  1.00  0.00    -0.014 A 
ATOM     91  C   UNL A   1      45.728  28.127  25.936  1.00  0.00     0.010 A 
ATOM     92  C   UNL A   1      47.897  28.687  26.883  1.00  0.00     0.010 A 
ATOM     93  C   UNL A   1      46.358  27.508  24.857  1.00  0.00     0.020 A 
ATOM     94  C   UNL A   1      48.529  28.091  25.791  1.00  0.00     0.020 A 
ATOM     95  C   UNL A   1      47.754  27.486  24.797  1.00  0.00     0.054 A 
BRANCH  95  96
ATOM     96  S   UNL A   1      48.554  26.676  23.387  1.00  0.00     0.124 S 
ATOM     97  O   UNL A   1      48.083  27.488  22.268  1.00  0.00    -0.237 OA
ATOM     98  O   UNL A   1      49.974  26.804  23.702  1.00  0.00    -0.237 OA
ATOM     99  O   UNL A   1      48.031  25.312  23.433  1.00  0.00    -0.744 OA
ENDBRANCH  95  96
ENDBRANCH  69  90
ENDBRANCH  43  44
ENDBRANCH  36  38
ENDBRANCH  35  36
ENDBRANCH  34  35
ENDBRANCH   1  34
TORSDOF 19
ENDMDL
MODEL 2
REMARK VINA RESULT:      -8.9      4.297     13.677
REMARK SMILES O=C(CCC(=O)OCCOC(=O)c1ccc(-c2c3nc(c(-c4ccc(S(=O)(=O)[O-])cc4)c4ccc([nH]4)c(-c4ccc(S(=O)(=O)[O-])cc4)c4nc(c(-c5ccc(S(=O)(=O)[O-])cc5)c5ccc2[nH]5)C=C4)C=C3)cc1)/[NH+]=C1\S[C@H]2CS(=O)(=O)C[C@@H]2N1c1ccc(Oc2ccccc2)cc1
REMARK SMILES IDX 8 1 7 2 5 3 6 4 4 5 3 6 2 7 1 8 73 9 74 10 75 12 83 13 76 14
REMARK SMILES IDX 82 15 77 16 81 17 78 18 79 19 80 20 84 21 85 22 96 23 86 24
REMARK SMILES IDX 95 25 87 26 88 27 89 28 90 29 94 30 91 31 93 32 92 33 9 34
REMARK SMILES IDX 10 35 11 36 12 37 13 38 14 39 72 40 15 41 71 42 16 43 17 44
REMARK SMILES IDX 18 45 65 46 19 47 70 48 64 49 66 50 20 51 69 52 63 53 62 54
REMARK SMILES IDX 21 56 51 57 32 58 50 59 33 60 36 61 49 62 67 63 34 64 35 65
REMARK SMILES IDX 48 67 68 68 37 69 22 70 23 71 31 72 24 73 30 74 25 75 26 76
REMARK SMILES IDX 27 77 28 78 29 79 52 80 53 81 61 82 54 83 60 84 55 85 56 86
REMARK SMILES IDX 57 87 58 88 59 89 38 90 39 91 47 92 40 93 46 94 41 95 42 96
REMARK SMILES IDX 43 97 44 98 45 99
REMARK H PARENT 73 11 66 55 36 66
REMARK Flexibility Score: inf
ROOT
ATOM      1  C   UNL A   1      46.073  20.627  24.764  1.00  0.00     0.274 C 
ENDROOT
BRANCH   1   2
ATOM      2  O   UNL A   1      46.101  21.886  25.463  1.00  0.00    -0.462 OA
BRANCH   2   3
ATOM      3  C   UNL A   1      45.946  22.998  24.704  1.00  0.00     0.306 C 
ATOM      4  O   UNL A   1      45.743  23.010  23.499  1.00  0.00    -0.252 OA
BRANCH   3   5
ATOM      5  C   UNL A   1      46.036  24.243  25.545  1.00  0.00     0.135 C 
BRANCH   5   6
ATOM      6  C   UNL A   1      47.395  24.918  25.428  1.00  0.00     0.139 C 
BRANCH   6   7
ATOM      7  C   UNL A   1      48.067  25.197  26.766  1.00  0.00     0.308 C 
ATOM      8  O   UNL A   1      48.187  24.299  27.595  1.00  0.00    -0.247 OA
ATOM      9  N   UNL A   1      48.420  26.490  27.045  1.00  0.00    -0.204 N 
ATOM     10  C   UNL A   1      49.548  26.972  26.634  1.00  0.00     0.319 C 
ATOM     11  H   UNL A   1      47.808  27.060  27.566  1.00  0.00     0.316 HD
ATOM     12  S   UNL A   1      50.738  26.131  25.592  1.00  0.00    -0.029 SA
ATOM     13  N   UNL A   1      49.993  28.270  26.893  1.00  0.00    -0.217 N 
ATOM     14  C   UNL A   1      51.678  27.668  25.301  1.00  0.00     0.120 C 
ATOM     15  C   UNL A   1      50.748  28.799  25.763  1.00  0.00     0.212 C 
ATOM     16  C   UNL A   1      52.103  28.123  23.916  1.00  0.00     0.156 C 
ATOM     17  C   UNL A   1      51.648  30.008  25.815  1.00  0.00     0.188 C 
ATOM     18  S   UNL A   1      52.408  29.892  24.184  1.00  0.00     0.155 S 
ATOM     19  O   UNL A   1      53.837  30.113  24.334  1.00  0.00    -0.229 OA
ATOM     20  O   UNL A   1      51.602  30.654  23.266  1.00  0.00    -0.229 OA
BRANCH  13  21
ATOM     21  C   UNL A   1      50.258  28.732  28.187  1.00  0.00     0.128 A 
ATOM     22  C   UNL A   1      49.398  29.627  28.841  1.00  0.00     0.056 A 
ATOM     23  C   UNL A   1      51.432  28.350  28.850  1.00  0.00     0.056 A 
ATOM     24  C   UNL A   1      49.762  30.220  30.056  1.00  0.00     0.051 A 
ATOM     25  C   UNL A   1      51.793  28.928  30.065  1.00  0.00     0.051 A 
ATOM     26  C   UNL A   1      50.986  29.909  30.643  1.00  0.00     0.127 A 
BRANCH  26  27
ATOM     27  O   UNL A   1      51.315  30.601  31.792  1.00  0.00    -0.457 OA
BRANCH  27  28
ATOM     28  C   UNL A   1      50.511  30.380  32.886  1.00  0.00     0.127 A 
ATOM     29  C   UNL A   1      49.907  31.485  33.483  1.00  0.00     0.047 A 
ATOM     30  C   UNL A   1      50.272  29.089  33.365  1.00  0.00     0.047 A 
ATOM     31  C   UNL A   1      48.998  31.290  34.521  1.00  0.00     0.004 A 
ATOM     32  C   UNL A   1      49.358  28.899  34.400  1.00  0.00     0.004 A 
ATOM     33  C   UNL A   1      48.713  29.998  34.969  1.00  0.00     0.000 A 
ENDBRANCH  27  28
ENDBRANCH  26  27
ENDBRANCH  13  21
ENDBRANCH   6   7
ENDBRANCH   5   6
ENDBRANCH   3   5
ENDBRANCH   2   3
ENDBRANCH   1   2
BRANCH   1  34
ATOM     34  C   UNL A   1      44.901  19.789  25.253  1.00  0.00     0.275 C 
BRANCH  34  35
ATOM     35  O   UNL A   1      43.643  20.271  24.745  1.00  0.00    -0.458 OA
BRANCH  35  36
ATOM     36  C   UNL A   1      42.621  20.217  25.618  1.00  0.00     0.338 C 
ATOM     37  O   UNL A   1      41.782  19.330  25.700  1.00  0.00    -0.246 OA
BRANCH  36  38
ATOM     38  C   UNL A   1      42.464  21.429  26.407  1.00  0.00     0.060 A 
ATOM     39  C   UNL A   1      42.108  21.381  27.752  1.00  0.00     0.016 A 
ATOM     40  C   UNL A   1      42.605  22.645  25.725  1.00  0.00     0.016 A 
ATOM     41  C   UNL A   1      41.948  22.581  28.436  1.00  0.00     0.010 A 
ATOM     42  C   UNL A   1      42.484  23.838  26.415  1.00  0.00     0.010 A 
ATOM     43  C   UNL A   1      42.190  23.806  27.780  1.00  0.00    -0.014 A 
BRANCH  43  44
ATOM     44  C   UNL A   1      42.395  25.024  28.583  1.00  0.00     0.031 A 
ATOM     45  C   UNL A   1      43.696  25.311  29.254  1.00  0.00     0.074 A 
ATOM     46  C   UNL A   1      41.325  25.833  28.701  1.00  0.00     0.049 A 
ATOM     47  N   UNL A   1      44.078  26.406  29.852  1.00  0.00    -0.248 NA
ATOM     48  C   UNL A   1      44.688  24.226  29.284  1.00  0.00     0.031 C 
ATOM     49  C   UNL A   1      39.992  25.536  28.154  1.00  0.00     0.029 A 
ATOM     50  N   UNL A   1      41.182  27.069  29.264  1.00  0.00    -0.354 N 
ATOM     51  C   UNL A   1      45.354  26.147  30.337  1.00  0.00     0.074 A 
ATOM     52  C   UNL A   1      45.668  24.777  29.991  1.00  0.00     0.031 C 
ATOM     53  C   UNL A   1      39.202  26.604  28.316  1.00  0.00     0.029 A 
ATOM     54  C   UNL A   1      39.958  27.640  29.002  1.00  0.00     0.049 A 
ATOM     55  H   UNL A   1      41.881  27.504  29.801  1.00  0.00     0.167 HD
ATOM     56  C   UNL A   1      46.175  26.990  31.009  1.00  0.00     0.031 A 
ATOM     57  C   UNL A   1      39.519  28.887  29.245  1.00  0.00     0.031 A 
ATOM     58  C   UNL A   1      45.794  28.337  31.354  1.00  0.00     0.049 A 
ATOM     59  C   UNL A   1      40.483  29.835  29.890  1.00  0.00     0.074 A 
ATOM     60  C   UNL A   1      46.525  29.311  32.008  1.00  0.00     0.029 A 
ATOM     61  N   UNL A   1      44.552  28.897  31.065  1.00  0.00    -0.354 N 
ATOM     62  N   UNL A   1      41.719  29.608  30.273  1.00  0.00    -0.248 NA
ATOM     63  C   UNL A   1      40.008  31.199  30.126  1.00  0.00     0.031 C 
ATOM     64  C   UNL A   1      45.712  30.444  32.146  1.00  0.00     0.029 A 
ATOM     65  C   UNL A   1      44.490  30.194  31.538  1.00  0.00     0.049 A 
ATOM     66  H   UNL A   1      43.824  28.434  30.591  1.00  0.00     0.167 HD
ATOM     67  C   UNL A   1      42.174  30.802  30.809  1.00  0.00     0.074 A 
ATOM     68  C   UNL A   1      41.087  31.757  30.657  1.00  0.00     0.031 C 
ATOM     69  C   UNL A   1      43.366  31.087  31.391  1.00  0.00     0.031 A 
BRANCH  56  70
ATOM     70  C   UNL A   1      47.523  26.459  31.430  1.00  0.00    -0.014 A 
ATOM     71  C   UNL A   1      48.606  26.422  30.531  1.00  0.00     0.010 A 
ATOM     72  C   UNL A   1      47.711  25.971  32.736  1.00  0.00     0.010 A 
ATOM     73  C   UNL A   1      49.827  25.852  30.908  1.00  0.00     0.020 A 
ATOM     74  C   UNL A   1      48.939  25.422  33.126  1.00  0.00     0.020 A 
ATOM     75  C   UNL A   1      49.982  25.344  32.201  1.00  0.00     0.054 A 
BRANCH  75  76
ATOM     76  S   UNL A   1      51.567  24.584  32.659  1.00  0.00     0.124 S 
ATOM     77  O   UNL A   1      52.525  25.468  32.001  1.00  0.00    -0.237 OA
ATOM     78  O   UNL A   1      51.549  24.654  34.117  1.00  0.00    -0.237 OA
ATOM     79  O   UNL A   1      51.478  23.236  32.102  1.00  0.00    -0.744 OA
ENDBRANCH  75  76
ENDBRANCH  56  70
BRANCH  57  80
ATOM     80  C   UNL A   1      38.160  29.290  28.793  1.00  0.00    -0.014 A 
ATOM     81  C   UNL A   1      37.921  29.600  27.442  1.00  0.00     0.010 A 
ATOM     82  C   UNL A   1      37.074  29.266  29.688  1.00  0.00     0.010 A 
ATOM     83  C   UNL A   1      36.624  29.877  26.996  1.00  0.00     0.020 A 
ATOM     84  C   UNL A   1      35.772  29.518  29.240  1.00  0.00     0.020 A 
ATOM     85  C   UNL A   1      35.557  29.828  27.897  1.00  0.00     0.054 A 
BRANCH  85  86
ATOM     86  S   UNL A   1      33.871  30.105  27.281  1.00  0.00     0.124 S 
ATOM     87  O   UNL A   1      33.580  31.443  27.785  1.00  0.00    -0.237 OA
ATOM     88  O   UNL A   1      34.038  29.995  25.834  1.00  0.00    -0.237 OA
ATOM     89  O   UNL A   1      33.103  29.023  27.893  1.00  0.00    -0.744 OA
ENDBRANCH  85  86
ENDBRANCH  57  80
BRANCH  69  90
ATOM     90  C   UNL A   1      43.511  32.483  31.921  1.00  0.00    -0.014 A 
ATOM     91  C   UNL A   1      42.933  32.843  33.152  1.00  0.00     0.010 A 
ATOM     92  C   UNL A   1      44.224  33.440  31.181  1.00  0.00     0.010 A 
ATOM     93  C   UNL A   1      43.019  34.157  33.609  1.00  0.00     0.020 A 
ATOM     94  C   UNL A   1      44.335  34.750  31.649  1.00  0.00     0.020 A 
ATOM     95  C   UNL A   1      43.712  35.104  32.849  1.00  0.00     0.054 A 
BRANCH  95  96
ATOM     96  S   UNL A   1      43.814  36.807  33.460  1.00  0.00     0.124 S 
ATOM     97  O   UNL A   1      42.737  36.837  34.447  1.00  0.00    -0.237 OA
ATOM     98  O   UNL A   1      45.168  36.876  34.004  1.00  0.00    -0.237 OA
ATOM     99  O   UNL A   1      43.588  37.615  32.263  1.00  0.00    -0.744 OA
ENDBRANCH  95  96
ENDBRANCH  69  90
ENDBRANCH  43  44
ENDBRANCH  36  38
ENDBRANCH  35  36
ENDBRANCH  34  35
ENDBRANCH   1  34
TORSDOF 19
ENDMDL
MODEL 3
REMARK VINA RESULT:      -8.7      5.775     10.690
REMARK SMILES O=C(CCC(=O)OCCOC(=O)c1ccc(-c2c3nc(c(-c4ccc(S(=O)(=O)[O-])cc4)c4ccc([nH]4)c(-c4ccc(S(=O)(=O)[O-])cc4)c4nc(c(-c5ccc(S(=O)(=O)[O-])cc5)c5ccc2[nH]5)C=C4)C=C3)cc1)/[NH+]=C1\S[C@H]2CS(=O)(=O)C[C@@H]2N1c1ccc(Oc2ccccc2)cc1
REMARK SMILES IDX 8 1 7 2 5 3 6 4 4 5 3 6 2 7 1 8 73 9 74 10 75 12 83 13 76 14
REMARK SMILES IDX 82 15 77 16 81 17 78 18 79 19 80 20 84 21 85 22 96 23 86 24
REMARK SMILES IDX 95 25 87 26 88 27 89 28 90 29 94 30 91 31 93 32 92 33 9 34
REMARK SMILES IDX 10 35 11 36 12 37 13 38 14 39 72 40 15 41 71 42 16 43 17 44
REMARK SMILES IDX 18 45 65 46 19 47 70 48 64 49 66 50 20 51 69 52 63 53 62 54
REMARK SMILES IDX 21 56 51 57 32 58 50 59 33 60 36 61 49 62 67 63 34 64 35 65
REMARK SMILES IDX 48 67 68 68 37 69 22 70 23 71 31 72 24 73 30 74 25 75 26 76
REMARK SMILES IDX 27 77 28 78 29 79 52 80 53 81 61 82 54 83 60 84 55 85 56 86
REMARK SMILES IDX 57 87 58 88 59 89 38 90 39 91 47 92 40 93 46 94 41 95 42 96
REMARK SMILES IDX 43 97 44 98 45 99
REMARK H PARENT 73 11 66 55 36 66
REMARK Flexibility Score: inf
ROOT
ATOM      1  C   UNL A   1      36.814  21.349  26.055  1.00  0.00     0.274 C 
ENDROOT
BRANCH   1   2
ATOM      2  O   UNL A   1      35.756  20.857  25.209  1.00  0.00    -0.462 OA
BRANCH   2   3
ATOM      3  C   UNL A   1      34.493  21.177  25.581  1.00  0.00     0.306 C 
ATOM      4  O   UNL A   1      33.959  20.846  26.630  1.00  0.00    -0.252 OA
BRANCH   3   5
ATOM      5  C   UNL A   1      33.819  22.021  24.534  1.00  0.00     0.135 C 
BRANCH   5   6
ATOM      6  C   UNL A   1      33.050  23.186  25.142  1.00  0.00     0.139 C 
BRANCH   6   7
ATOM      7  C   UNL A   1      33.926  24.360  25.554  1.00  0.00     0.308 C 
ATOM      8  O   UNL A   1      35.147  24.231  25.608  1.00  0.00    -0.247 OA
ATOM      9  N   UNL A   1      33.302  25.507  25.966  1.00  0.00    -0.204 N 
ATOM     10  C   UNL A   1      32.910  26.393  25.108  1.00  0.00     0.319 C 
ATOM     11  H   UNL A   1      33.150  25.661  26.927  1.00  0.00     0.316 HD
ATOM     12  S   UNL A   1      33.000  26.247  23.325  1.00  0.00    -0.029 SA
ATOM     13  N   UNL A   1      32.286  27.596  25.445  1.00  0.00    -0.217 N 
ATOM     14  C   UNL A   1      31.928  27.703  23.080  1.00  0.00     0.120 C 
ATOM     15  C   UNL A   1      31.286  27.963  24.449  1.00  0.00     0.212 C 
ATOM     16  C   UNL A   1      30.734  27.698  22.141  1.00  0.00     0.156 C 
ATOM     17  C   UNL A   1      30.671  29.333  24.306  1.00  0.00     0.188 C 
ATOM     18  S   UNL A   1      29.765  29.100  22.765  1.00  0.00     0.155 S 
ATOM     19  O   UNL A   1      30.004  30.259  21.920  1.00  0.00    -0.229 OA
ATOM     20  O   UNL A   1      28.439  28.647  23.095  1.00  0.00    -0.229 OA
BRANCH  13  21
ATOM     21  C   UNL A   1      32.924  28.593  26.193  1.00  0.00     0.128 A 
ATOM     22  C   UNL A   1      32.210  29.654  26.768  1.00  0.00     0.056 A 
ATOM     23  C   UNL A   1      34.317  28.584  26.343  1.00  0.00     0.056 A 
ATOM     24  C   UNL A   1      32.874  30.736  27.357  1.00  0.00     0.051 A 
ATOM     25  C   UNL A   1      34.983  29.652  26.939  1.00  0.00     0.051 A 
ATOM     26  C   UNL A   1      34.267  30.760  27.396  1.00  0.00     0.127 A 
BRANCH  26  27
ATOM     27  O   UNL A   1      34.853  31.899  27.910  1.00  0.00    -0.457 OA
BRANCH  27  28
ATOM     28  C   UNL A   1      35.201  31.857  29.241  1.00  0.00     0.127 A 
ATOM     29  C   UNL A   1      34.608  32.782  30.098  1.00  0.00     0.047 A 
ATOM     30  C   UNL A   1      36.089  30.895  29.731  1.00  0.00     0.047 A 
ATOM     31  C   UNL A   1      34.849  32.698  31.468  1.00  0.00     0.004 A 
ATOM     32  C   UNL A   1      36.321  30.811  31.102  1.00  0.00     0.004 A 
ATOM     33  C   UNL A   1      35.693  31.705  31.970  1.00  0.00     0.000 A 
ENDBRANCH  27  28
ENDBRANCH  26  27
ENDBRANCH  13  21
ENDBRANCH   6   7
ENDBRANCH   5   6
ENDBRANCH   3   5
ENDBRANCH   2   3
ENDBRANCH   1   2
BRANCH   1  34
ATOM     34  C   UNL A   1      38.147  21.247  25.329  1.00  0.00     0.275 C 
BRANCH  34  35
ATOM     35  O   UNL A   1      39.147  22.101  25.913  1.00  0.00    -0.458 OA
BRANCH  35  36
ATOM     36  C   UNL A   1      40.290  21.481  26.260  1.00  0.00     0.338 C 
ATOM     37  O   UNL A   1      40.416  20.300  26.548  1.00  0.00    -0.246 OA
BRANCH  36  38
ATOM     38  C   UNL A   1      41.413  22.388  26.439  1.00  0.00     0.060 A 
ATOM     39  C   UNL A   1      41.282  23.759  26.233  1.00  0.00     0.016 A 
ATOM     40  C   UNL A   1      42.649  21.804  26.745  1.00  0.00     0.016 A 
ATOM     41  C   UNL A   1      42.405  24.562  26.397  1.00  0.00     0.010 A 
ATOM     42  C   UNL A   1      43.758  22.607  26.945  1.00  0.00     0.010 A 
ATOM     43  C   UNL A   1      43.628  23.991  26.805  1.00  0.00    -0.014 A 
BRANCH  43  44
ATOM     44  C   UNL A   1      44.688  24.865  27.340  1.00  0.00     0.031 A 
ATOM     45  C   UNL A   1      45.787  25.384  26.475  1.00  0.00     0.074 A 
ATOM     46  C   UNL A   1      44.618  25.127  28.659  1.00  0.00     0.049 A 
ATOM     47  N   UNL A   1      46.689  26.283  26.759  1.00  0.00    -0.248 NA
ATOM     48  C   UNL A   1      45.911  24.803  25.130  1.00  0.00     0.031 C 
ATOM     49  C   UNL A   1      43.621  24.548  29.572  1.00  0.00     0.029 A 
ATOM     50  N   UNL A   1      45.346  25.963  29.455  1.00  0.00    -0.354 N 
ATOM     51  C   UNL A   1      47.495  26.379  25.632  1.00  0.00     0.074 A 
ATOM     52  C   UNL A   1      46.993  25.419  24.670  1.00  0.00     0.031 C 
ATOM     53  C   UNL A   1      43.736  25.125  30.774  1.00  0.00     0.029 A 
ATOM     54  C   UNL A   1      44.827  26.085  30.723  1.00  0.00     0.049 A 
ATOM     55  H   UNL A   1      46.159  26.429  29.153  1.00  0.00     0.167 HD
ATOM     56  C   UNL A   1      48.555  27.200  25.435  1.00  0.00     0.031 A 
ATOM     57  C   UNL A   1      45.167  26.924  31.717  1.00  0.00     0.031 A 
ATOM     58  C   UNL A   1      49.028  28.114  26.444  1.00  0.00     0.049 A 
ATOM     59  C   UNL A   1      46.270  27.899  31.438  1.00  0.00     0.074 A 
ATOM     60  C   UNL A   1      50.070  29.021  26.382  1.00  0.00     0.029 A 
ATOM     61  N   UNL A   1      48.475  28.228  27.717  1.00  0.00    -0.354 N 
ATOM     62  N   UNL A   1      46.976  28.041  30.339  1.00  0.00    -0.248 NA
ATOM     63  C   UNL A   1      46.616  28.828  32.514  1.00  0.00     0.031 C 
ATOM     64  C   UNL A   1      50.168  29.655  27.627  1.00  0.00     0.029 A 
ATOM     65  C   UNL A   1      49.160  29.177  28.453  1.00  0.00     0.049 A 
ATOM     66  H   UNL A   1      47.707  27.707  28.045  1.00  0.00     0.167 HD
ATOM     67  C   UNL A   1      47.865  29.073  30.592  1.00  0.00     0.074 A 
ATOM     68  C   UNL A   1      47.570  29.545  31.936  1.00  0.00     0.031 C 
ATOM     69  C   UNL A   1      48.846  29.579  29.803  1.00  0.00     0.031 A 
BRANCH  56  70
ATOM     70  C   UNL A   1      49.269  27.107  24.110  1.00  0.00    -0.014 A 
ATOM     71  C   UNL A   1      50.649  26.829  24.042  1.00  0.00     0.010 A 
ATOM     72  C   UNL A   1      48.563  27.321  22.912  1.00  0.00     0.010 A 
ATOM     73  C   UNL A   1      51.316  26.827  22.812  1.00  0.00     0.020 A 
ATOM     74  C   UNL A   1      49.222  27.295  21.677  1.00  0.00     0.020 A 
ATOM     75  C   UNL A   1      50.600  27.073  21.637  1.00  0.00     0.054 A 
BRANCH  75  76
ATOM     76  S   UNL A   1      51.493  27.093  20.055  1.00  0.00     0.124 S 
ATOM     77  O   UNL A   1      52.150  25.789  20.065  1.00  0.00    -0.237 OA
ATOM     78  O   UNL A   1      50.417  27.246  19.080  1.00  0.00    -0.237 OA
ATOM     79  O   UNL A   1      52.387  28.242  20.177  1.00  0.00    -0.744 OA
ENDBRANCH  75  76
ENDBRANCH  56  70
BRANCH  57  80
ATOM     80  C   UNL A   1      44.394  26.912  32.988  1.00  0.00    -0.014 A 
ATOM     81  C   UNL A   1      43.348  27.828  33.195  1.00  0.00     0.010 A 
ATOM     82  C   UNL A   1      44.629  25.918  33.956  1.00  0.00     0.010 A 
ATOM     83  C   UNL A   1      42.552  27.751  34.343  1.00  0.00     0.020 A 
ATOM     84  C   UNL A   1      43.819  25.822  35.094  1.00  0.00     0.020 A 
ATOM     85  C   UNL A   1      42.789  26.744  35.282  1.00  0.00     0.054 A 
BRANCH  85  86
ATOM     86  S   UNL A   1      41.691  26.606  36.722  1.00  0.00     0.124 S 
ATOM     87  O   UNL A   1      41.075  27.928  36.762  1.00  0.00    -0.237 OA
ATOM     88  O   UNL A   1      40.806  25.506  36.344  1.00  0.00    -0.237 OA
ATOM     89  O   UNL A   1      42.606  26.306  37.821  1.00  0.00    -0.744 OA
ENDBRANCH  85  86
ENDBRANCH  57  80
BRANCH  69  90
ATOM     90  C   UNL A   1      49.670  30.673  30.414  1.00  0.00    -0.014 A 
ATOM     91  C   UNL A   1      49.297  32.021  30.258  1.00  0.00     0.010 A 
ATOM     92  C   UNL A   1      50.827  30.351  31.144  1.00  0.00     0.010 A 
ATOM     93  C   UNL A   1      50.101  33.035  30.777  1.00  0.00     0.020 A 
ATOM     94  C   UNL A   1      51.619  31.363  31.687  1.00  0.00     0.020 A 
ATOM     95  C   UNL A   1      51.262  32.699  31.480  1.00  0.00     0.054 A 
BRANCH  95  96
ATOM     96  S   UNL A   1      52.294  34.030  32.147  1.00  0.00     0.124 S 
ATOM     97  O   UNL A   1      52.701  33.478  33.436  1.00  0.00    -0.237 OA
ATOM     98  O   UNL A   1      53.355  34.150  31.150  1.00  0.00    -0.237 OA
ATOM     99  O   UNL A   1      51.381  35.170  32.216  1.00  0.00    -0.744 OA
ENDBRANCH  95  96
ENDBRANCH  69  90
ENDBRANCH  43  44
ENDBRANCH  36  38
ENDBRANCH  35  36
ENDBRANCH  34  35
ENDBRANCH   1  34
TORSDOF 19
ENDMDL
