MODEL 1
REMARK VINA RESULT:      -8.5      0.000      0.000
REMARK SMILES O=C(OCCOC(=O)c1ccccc1NCCCO)c1ccc(-c2c3nc(c(-c4ccc(S(=O)(=O)[O-])cc4)c4ccc([nH]4)c(-c4ccc(S(=O)(=O)[O-])cc4)c4nc(c(-c5ccc(S(=O)(=O)[O-])cc5)c5ccc2[nH]5)C=C4)C=C3)cc1
REMARK SMILES IDX 5 1 4 2 3 3 2 4 1 5 20 6 21 7 79 8 22 9 78 10 23 11 24 12
REMARK SMILES IDX 25 13 72 14 26 15 77 16 71 17 73 18 27 19 76 20 70 21 69 22
REMARK SMILES IDX 28 24 58 25 39 26 57 27 40 28 43 29 56 30 74 31 41 32 42 33
REMARK SMILES IDX 55 35 75 36 44 37 29 38 30 39 38 40 31 41 37 42 32 43 33 44
REMARK SMILES IDX 34 45 35 46 36 47 59 48 60 49 68 50 61 51 67 52 62 53 63 54
REMARK SMILES IDX 64 55 65 56 66 57 45 58 46 59 54 60 47 61 53 62 48 63 49 64
REMARK SMILES IDX 50 65 51 66 52 67 6 68 7 69 8 70 9 71 10 72 14 73 11 74
REMARK SMILES IDX 13 75 12 76 15 77 16 79 17 80 18 81 19 82
REMARK H PARENT 73 23 43 34 15 78 19 83
REMARK Flexibility Score: inf
ROOT
ATOM      1  C   UNL A   1      34.819  33.438  28.281  1.00  0.00     0.275 C 
ENDROOT
BRANCH   1   2
ATOM      2  C   UNL A   1      33.664  32.599  27.726  1.00  0.00     0.275 C 
BRANCH   2   3
ATOM      3  O   UNL A   1      33.690  31.222  28.146  1.00  0.00    -0.458 OA
BRANCH   3   4
ATOM      4  C   UNL A   1      34.449  30.177  27.743  1.00  0.00     0.338 C 
ATOM      5  O   UNL A   1      33.923  29.347  27.000  1.00  0.00    -0.246 OA
BRANCH   4   6
ATOM      6  C   UNL A   1      35.857  29.895  28.199  1.00  0.00     0.060 A 
ATOM      7  C   UNL A   1      36.259  29.488  29.473  1.00  0.00     0.016 A 
ATOM      8  C   UNL A   1      36.866  30.029  27.220  1.00  0.00     0.016 A 
ATOM      9  C   UNL A   1      37.598  29.187  29.754  1.00  0.00     0.010 A 
ATOM     10  C   UNL A   1      38.206  29.722  27.491  1.00  0.00     0.010 A 
ATOM     11  C   UNL A   1      38.580  29.294  28.766  1.00  0.00    -0.014 A 
BRANCH  11  12
ATOM     12  C   UNL A   1      39.994  29.009  29.108  1.00  0.00     0.031 A 
ATOM     13  C   UNL A   1      40.583  27.707  28.701  1.00  0.00     0.074 A 
ATOM     14  C   UNL A   1      40.758  29.931  29.722  1.00  0.00     0.049 A 
ATOM     15  N   UNL A   1      41.816  27.309  28.831  1.00  0.00    -0.248 NA
ATOM     16  C   UNL A   1      39.681  26.734  28.067  1.00  0.00     0.031 C 
ATOM     17  C   UNL A   1      40.254  31.227  30.119  1.00  0.00     0.029 A 
ATOM     18  N   UNL A   1      42.076  29.975  30.098  1.00  0.00    -0.354 N 
ATOM     19  C   UNL A   1      41.841  26.026  28.316  1.00  0.00     0.074 A 
ATOM     20  C   UNL A   1      40.502  25.713  27.867  1.00  0.00     0.031 C 
ATOM     21  C   UNL A   1      41.238  31.966  30.649  1.00  0.00     0.029 A 
ATOM     22  C   UNL A   1      42.452  31.177  30.665  1.00  0.00     0.049 A 
ATOM     23  H   UNL A   1      42.697  29.221  29.974  1.00  0.00     0.167 HD
ATOM     24  C   UNL A   1      42.896  25.189  28.252  1.00  0.00     0.031 A 
ATOM     25  C   UNL A   1      43.636  31.609  31.144  1.00  0.00     0.031 A 
ATOM     26  C   UNL A   1      44.207  25.515  28.744  1.00  0.00     0.049 A 
ATOM     27  C   UNL A   1      44.781  30.646  31.068  1.00  0.00     0.074 A 
ATOM     28  C   UNL A   1      45.341  24.725  28.746  1.00  0.00     0.029 A 
ATOM     29  N   UNL A   1      44.553  26.719  29.343  1.00  0.00    -0.354 N 
ATOM     30  N   UNL A   1      44.795  29.451  30.525  1.00  0.00    -0.248 NA
ATOM     31  C   UNL A   1      46.053  31.061  31.667  1.00  0.00     0.031 C 
ATOM     32  C   UNL A   1      46.354  25.426  29.405  1.00  0.00     0.029 A 
ATOM     33  C   UNL A   1      45.874  26.679  29.756  1.00  0.00     0.049 A 
ATOM     34  H   UNL A   1      43.949  27.489  29.456  1.00  0.00     0.167 HD
ATOM     35  C   UNL A   1      46.074  28.963  30.731  1.00  0.00     0.074 A 
ATOM     36  C   UNL A   1      46.821  30.017  31.393  1.00  0.00     0.031 C 
ATOM     37  C   UNL A   1      46.577  27.743  30.427  1.00  0.00     0.031 A 
BRANCH  24  38
ATOM     38  C   UNL A   1      42.639  23.819  27.703  1.00  0.00    -0.014 A 
ATOM     39  C   UNL A   1      42.747  23.550  26.328  1.00  0.00     0.010 A 
ATOM     40  C   UNL A   1      42.295  22.784  28.588  1.00  0.00     0.010 A 
ATOM     41  C   UNL A   1      42.505  22.262  25.846  1.00  0.00     0.020 A 
ATOM     42  C   UNL A   1      42.074  21.491  28.113  1.00  0.00     0.020 A 
ATOM     43  C   UNL A   1      42.176  21.241  26.744  1.00  0.00     0.054 A 
BRANCH  43  44
ATOM     44  S   UNL A   1      41.936  19.565  26.098  1.00  0.00     0.124 S 
ATOM     45  O   UNL A   1      42.826  19.558  24.940  1.00  0.00    -0.237 OA
ATOM     46  O   UNL A   1      42.358  18.730  27.218  1.00  0.00    -0.237 OA
ATOM     47  O   UNL A   1      40.509  19.514  25.786  1.00  0.00    -0.744 OA
ENDBRANCH  43  44
ENDBRANCH  24  38
BRANCH  25  48
ATOM     48  C   UNL A   1      43.790  32.967  31.755  1.00  0.00    -0.014 A 
ATOM     49  C   UNL A   1      44.158  34.081  30.978  1.00  0.00     0.010 A 
ATOM     50  C   UNL A   1      43.598  33.152  33.139  1.00  0.00     0.010 A 
ATOM     51  C   UNL A   1      44.370  35.333  31.574  1.00  0.00     0.020 A 
ATOM     52  C   UNL A   1      43.770  34.408  33.733  1.00  0.00     0.020 A 
ATOM     53  C   UNL A   1      44.180  35.486  32.950  1.00  0.00     0.054 A 
BRANCH  53  54
ATOM     54  S   UNL A   1      44.462  37.114  33.704  1.00  0.00     0.124 S 
ATOM     55  O   UNL A   1      45.912  37.126  33.866  1.00  0.00    -0.237 OA
ATOM     56  O   UNL A   1      43.928  38.026  32.696  1.00  0.00    -0.237 OA
ATOM     57  O   UNL A   1      43.693  37.051  34.946  1.00  0.00    -0.744 OA
ENDBRANCH  53  54
ENDBRANCH  25  48
BRANCH  37  58
ATOM     58  C   UNL A   1      47.997  27.491  30.834  1.00  0.00    -0.014 A 
ATOM     59  C   UNL A   1      48.297  27.000  32.116  1.00  0.00     0.010 A 
ATOM     60  C   UNL A   1      49.034  27.699  29.908  1.00  0.00     0.010 A 
ATOM     61  C   UNL A   1      49.619  26.745  32.478  1.00  0.00     0.020 A 
ATOM     62  C   UNL A   1      50.354  27.415  30.256  1.00  0.00     0.020 A 
ATOM     63  C   UNL A   1      50.638  26.950  31.543  1.00  0.00     0.054 A 
BRANCH  63  64
ATOM     64  S   UNL A   1      52.340  26.554  32.018  1.00  0.00     0.124 S 
ATOM     65  O   UNL A   1      52.191  25.222  32.597  1.00  0.00    -0.237 OA
ATOM     66  O   UNL A   1      53.048  26.611  30.741  1.00  0.00    -0.237 OA
ATOM     67  O   UNL A   1      52.689  27.610  32.965  1.00  0.00    -0.744 OA
ENDBRANCH  63  64
ENDBRANCH  37  58
ENDBRANCH  11  12
ENDBRANCH   4   6
ENDBRANCH   3   4
ENDBRANCH   2   3
ENDBRANCH   1   2
BRANCH   1  68
ATOM     68  O   UNL A   1      35.049  33.213  29.676  1.00  0.00    -0.458 OA
BRANCH  68  69
ATOM     69  C   UNL A   1      36.363  33.172  30.038  1.00  0.00     0.340 C 
ATOM     70  O   UNL A   1      37.317  33.273  29.292  1.00  0.00    -0.246 OA
BRANCH  69  71
ATOM     71  C   UNL A   1      36.484  33.105  31.512  1.00  0.00     0.083 A 
ATOM     72  C   UNL A   1      37.344  32.101  32.000  1.00  0.00     0.018 A 
ATOM     73  C   UNL A   1      35.774  33.966  32.376  1.00  0.00     0.049 A 
ATOM     74  C   UNL A   1      37.517  31.930  33.366  1.00  0.00     0.001 A 
ATOM     75  C   UNL A   1      35.840  33.639  33.738  1.00  0.00     0.026 A 
ATOM     76  C   UNL A   1      36.738  32.679  34.235  1.00  0.00     0.002 A 
BRANCH  73  77
ATOM     77  N   UNL A   1      35.074  35.065  31.892  1.00  0.00    -0.384 N 
ATOM     78  H   UNL A   1      34.970  35.115  30.914  1.00  0.00     0.160 HD
BRANCH  77  79
ATOM     79  C   UNL A   1      34.474  36.156  32.655  1.00  0.00     0.115 C 
BRANCH  79  80
ATOM     80  C   UNL A   1      33.188  36.697  32.010  1.00  0.00     0.049 C 
BRANCH  80  81
ATOM     81  C   UNL A   1      32.981  36.379  30.536  1.00  0.00     0.158 C 
BRANCH  81  82
ATOM     82  O   UNL A   1      32.613  35.027  30.315  1.00  0.00    -0.396 OA
ATOM     83  H   UNL A   1      32.074  34.714  31.058  1.00  0.00     0.210 HD
ENDBRANCH  81  82
ENDBRANCH  80  81
ENDBRANCH  79  80
ENDBRANCH  77  79
ENDBRANCH  73  77
ENDBRANCH  69  71
ENDBRANCH  68  69
ENDBRANCH   1  68
TORSDOF 19
ENDMDL
MODEL 2
REMARK VINA RESULT:      -8.5      0.837      2.205
REMARK SMILES O=C(OCCOC(=O)c1ccccc1NCCCO)c1ccc(-c2c3nc(c(-c4ccc(S(=O)(=O)[O-])cc4)c4ccc([nH]4)c(-c4ccc(S(=O)(=O)[O-])cc4)c4nc(c(-c5ccc(S(=O)(=O)[O-])cc5)c5ccc2[nH]5)C=C4)C=C3)cc1
REMARK SMILES IDX 5 1 4 2 3 3 2 4 1 5 20 6 21 7 79 8 22 9 78 10 23 11 24 12
REMARK SMILES IDX 25 13 72 14 26 15 77 16 71 17 73 18 27 19 76 20 70 21 69 22
REMARK SMILES IDX 28 24 58 25 39 26 57 27 40 28 43 29 56 30 74 31 41 32 42 33
REMARK SMILES IDX 55 35 75 36 44 37 29 38 30 39 38 40 31 41 37 42 32 43 33 44
REMARK SMILES IDX 34 45 35 46 36 47 59 48 60 49 68 50 61 51 67 52 62 53 63 54
REMARK SMILES IDX 64 55 65 56 66 57 45 58 46 59 54 60 47 61 53 62 48 63 49 64
REMARK SMILES IDX 50 65 51 66 52 67 6 68 7 69 8 70 9 71 10 72 14 73 11 74
REMARK SMILES IDX 13 75 12 76 15 77 16 79 17 80 18 81 19 82
REMARK H PARENT 73 23 43 34 15 78 19 83
REMARK Flexibility Score: inf
ROOT
ATOM      1  C   UNL A   1      33.477  33.750  28.035  1.00  0.00     0.275 C 
ENDROOT
BRANCH   1   2
ATOM      2  C   UNL A   1      34.442  32.619  27.667  1.00  0.00     0.275 C 
BRANCH   2   3
ATOM      3  O   UNL A   1      33.910  31.301  27.897  1.00  0.00    -0.458 OA
BRANCH   3   4
ATOM      4  C   UNL A   1      34.490  30.080  27.842  1.00  0.00     0.338 C 
ATOM      5  O   UNL A   1      33.755  29.112  27.637  1.00  0.00    -0.246 OA
BRANCH   4   6
ATOM      6  C   UNL A   1      35.945  29.793  28.102  1.00  0.00     0.060 A 
ATOM      7  C   UNL A   1      37.002  29.939  27.201  1.00  0.00     0.016 A 
ATOM      8  C   UNL A   1      36.270  29.358  29.406  1.00  0.00     0.016 A 
ATOM      9  C   UNL A   1      38.328  29.705  27.588  1.00  0.00     0.010 A 
ATOM     10  C   UNL A   1      37.594  29.131  29.803  1.00  0.00     0.010 A 
ATOM     11  C   UNL A   1      38.636  29.307  28.892  1.00  0.00    -0.014 A 
BRANCH  11  12
ATOM     12  C   UNL A   1      40.046  29.027  29.256  1.00  0.00     0.031 A 
ATOM     13  C   UNL A   1      40.641  27.722  28.870  1.00  0.00     0.074 A 
ATOM     14  C   UNL A   1      40.800  29.956  29.871  1.00  0.00     0.049 A 
ATOM     15  N   UNL A   1      41.872  27.327  29.021  1.00  0.00    -0.248 NA
ATOM     16  C   UNL A   1      39.748  26.742  28.234  1.00  0.00     0.031 C 
ATOM     17  C   UNL A   1      40.290  31.256  30.247  1.00  0.00     0.029 A 
ATOM     18  N   UNL A   1      42.113  30.006  30.264  1.00  0.00    -0.354 N 
ATOM     19  C   UNL A   1      41.906  26.039  28.519  1.00  0.00     0.074 A 
ATOM     20  C   UNL A   1      40.573  25.720  28.055  1.00  0.00     0.031 C 
ATOM     21  C   UNL A   1      41.266  32.001  30.783  1.00  0.00     0.029 A 
ATOM     22  C   UNL A   1      42.481  31.214  30.824  1.00  0.00     0.049 A 
ATOM     23  H   UNL A   1      42.736  29.251  30.156  1.00  0.00     0.167 HD
ATOM     24  C   UNL A   1      42.962  25.202  28.477  1.00  0.00     0.031 A 
ATOM     25  C   UNL A   1      43.657  31.652  31.314  1.00  0.00     0.031 A 
ATOM     26  C   UNL A   1      44.266  25.534  28.984  1.00  0.00     0.049 A 
ATOM     27  C   UNL A   1      44.804  30.689  31.263  1.00  0.00     0.074 A 
ATOM     28  C   UNL A   1      45.400  24.746  29.009  1.00  0.00     0.029 A 
ATOM     29  N   UNL A   1      44.603  26.745  29.575  1.00  0.00    -0.354 N 
ATOM     30  N   UNL A   1      44.827  29.489  30.733  1.00  0.00    -0.248 NA
ATOM     31  C   UNL A   1      46.067  31.112  31.875  1.00  0.00     0.031 C 
ATOM     32  C   UNL A   1      46.404  25.455  29.674  1.00  0.00     0.029 A 
ATOM     33  C   UNL A   1      45.918  26.710  30.006  1.00  0.00     0.049 A 
ATOM     34  H   UNL A   1      43.997  27.516  29.672  1.00  0.00     0.167 HD
ATOM     35  C   UNL A   1      46.103  29.005  30.960  1.00  0.00     0.074 A 
ATOM     36  C   UNL A   1      46.840  30.065  31.622  1.00  0.00     0.031 C 
ATOM     37  C   UNL A   1      46.611  27.782  30.675  1.00  0.00     0.031 A 
BRANCH  24  38
ATOM     38  C   UNL A   1      42.714  23.827  27.939  1.00  0.00    -0.014 A 
ATOM     39  C   UNL A   1      42.164  22.814  28.744  1.00  0.00     0.010 A 
ATOM     40  C   UNL A   1      43.029  23.553  26.598  1.00  0.00     0.010 A 
ATOM     41  C   UNL A   1      41.941  21.542  28.214  1.00  0.00     0.020 A 
ATOM     42  C   UNL A   1      42.787  22.289  26.058  1.00  0.00     0.020 A 
ATOM     43  C   UNL A   1      42.248  21.291  26.872  1.00  0.00     0.054 A 
BRANCH  43  44
ATOM     44  S   UNL A   1      41.883  19.652  26.192  1.00  0.00     0.124 S 
ATOM     45  O   UNL A   1      42.273  18.775  27.293  1.00  0.00    -0.237 OA
ATOM     46  O   UNL A   1      40.449  19.730  25.930  1.00  0.00    -0.237 OA
ATOM     47  O   UNL A   1      42.729  19.573  25.004  1.00  0.00    -0.744 OA
ENDBRANCH  43  44
ENDBRANCH  24  38
BRANCH  25  48
ATOM     48  C   UNL A   1      43.802  33.016  31.913  1.00  0.00    -0.014 A 
ATOM     49  C   UNL A   1      44.215  34.116  31.138  1.00  0.00     0.010 A 
ATOM     50  C   UNL A   1      43.556  33.222  33.286  1.00  0.00     0.010 A 
ATOM     51  C   UNL A   1      44.417  35.373  31.725  1.00  0.00     0.020 A 
ATOM     52  C   UNL A   1      43.717  34.484  33.869  1.00  0.00     0.020 A 
ATOM     53  C   UNL A   1      44.172  35.547  33.090  1.00  0.00     0.054 A 
BRANCH  53  54
ATOM     54  S   UNL A   1      44.441  37.181  33.835  1.00  0.00     0.124 S 
ATOM     55  O   UNL A   1      43.364  37.966  33.241  1.00  0.00    -0.237 OA
ATOM     56  O   UNL A   1      44.311  36.903  35.263  1.00  0.00    -0.237 OA
ATOM     57  O   UNL A   1      45.790  37.536  33.397  1.00  0.00    -0.744 OA
ENDBRANCH  53  54
ENDBRANCH  25  48
BRANCH  37  58
ATOM     58  C   UNL A   1      48.026  27.535  31.104  1.00  0.00    -0.014 A 
ATOM     59  C   UNL A   1      48.304  26.980  32.365  1.00  0.00     0.010 A 
ATOM     60  C   UNL A   1      49.080  27.815  30.218  1.00  0.00     0.010 A 
ATOM     61  C   UNL A   1      49.622  26.731  32.745  1.00  0.00     0.020 A 
ATOM     62  C   UNL A   1      50.397  27.537  30.583  1.00  0.00     0.020 A 
ATOM     63  C   UNL A   1      50.659  27.008  31.849  1.00  0.00     0.054 A 
BRANCH  63  64
ATOM     64  S   UNL A   1      52.358  26.619  32.345  1.00  0.00     0.124 S 
ATOM     65  O   UNL A   1      52.719  25.573  31.393  1.00  0.00    -0.237 OA
ATOM     66  O   UNL A   1      53.042  27.898  32.166  1.00  0.00    -0.237 OA
ATOM     67  O   UNL A   1      52.221  26.180  33.731  1.00  0.00    -0.744 OA
ENDBRANCH  63  64
ENDBRANCH  37  58
ENDBRANCH  11  12
ENDBRANCH   4   6
ENDBRANCH   3   4
ENDBRANCH   2   3
ENDBRANCH   1   2
BRANCH   1  68
ATOM     68  O   UNL A   1      34.069  34.725  28.900  1.00  0.00    -0.458 OA
BRANCH  68  69
ATOM     69  C   UNL A   1      33.191  35.616  29.442  1.00  0.00     0.340 C 
ATOM     70  O   UNL A   1      32.205  36.074  28.898  1.00  0.00    -0.246 OA
BRANCH  69  71
ATOM     71  C   UNL A   1      33.534  35.874  30.859  1.00  0.00     0.083 A 
ATOM     72  C   UNL A   1      33.374  37.208  31.283  1.00  0.00     0.018 A 
ATOM     73  C   UNL A   1      34.010  34.866  31.724  1.00  0.00     0.049 A 
ATOM     74  C   UNL A   1      33.687  37.571  32.586  1.00  0.00     0.001 A 
ATOM     75  C   UNL A   1      34.482  35.313  32.967  1.00  0.00     0.026 A 
ATOM     76  C   UNL A   1      34.273  36.628  33.417  1.00  0.00     0.002 A 
BRANCH  73  77
ATOM     77  N   UNL A   1      33.993  33.525  31.357  1.00  0.00    -0.384 N 
ATOM     78  H   UNL A   1      33.104  33.132  31.196  1.00  0.00     0.160 HD
BRANCH  77  79
ATOM     79  C   UNL A   1      35.129  32.626  31.179  1.00  0.00     0.115 C 
BRANCH  79  80
ATOM     80  C   UNL A   1      36.477  33.364  31.170  1.00  0.00     0.049 C 
BRANCH  80  81
ATOM     81  C   UNL A   1      37.235  33.377  29.850  1.00  0.00     0.158 C 
BRANCH  81  82
ATOM     82  O   UNL A   1      37.040  34.578  29.120  1.00  0.00    -0.396 OA
ATOM     83  H   UNL A   1      37.824  34.756  28.577  1.00  0.00     0.210 HD
ENDBRANCH  81  82
ENDBRANCH  80  81
ENDBRANCH  79  80
ENDBRANCH  77  79
ENDBRANCH  73  77
ENDBRANCH  69  71
ENDBRANCH  68  69
ENDBRANCH   1  68
TORSDOF 19
ENDMDL
MODEL 3
REMARK VINA RESULT:      -8.5      2.666      8.795
REMARK SMILES O=C(OCCOC(=O)c1ccccc1NCCCO)c1ccc(-c2c3nc(c(-c4ccc(S(=O)(=O)[O-])cc4)c4ccc([nH]4)c(-c4ccc(S(=O)(=O)[O-])cc4)c4nc(c(-c5ccc(S(=O)(=O)[O-])cc5)c5ccc2[nH]5)C=C4)C=C3)cc1
REMARK SMILES IDX 5 1 4 2 3 3 2 4 1 5 20 6 21 7 79 8 22 9 78 10 23 11 24 12
REMARK SMILES IDX 25 13 72 14 26 15 77 16 71 17 73 18 27 19 76 20 70 21 69 22
REMARK SMILES IDX 28 24 58 25 39 26 57 27 40 28 43 29 56 30 74 31 41 32 42 33
REMARK SMILES IDX 55 35 75 36 44 37 29 38 30 39 38 40 31 41 37 42 32 43 33 44
REMARK SMILES IDX 34 45 35 46 36 47 59 48 60 49 68 50 61 51 67 52 62 53 63 54
REMARK SMILES IDX 64 55 65 56 66 57 45 58 46 59 54 60 47 61 53 62 48 63 49 64
REMARK SMILES IDX 50 65 51 66 52 67 6 68 7 69 8 70 9 71 10 72 14 73 11 74
REMARK SMILES IDX 13 75 12 76 15 77 16 79 17 80 18 81 19 82
REMARK H PARENT 73 23 43 34 15 78 19 83
REMARK Flexibility Score: inf
ROOT
ATOM      1  C   UNL A   1      33.675  33.778  28.464  1.00  0.00     0.275 C 
ENDROOT
BRANCH   1   2
ATOM      2  C   UNL A   1      33.102  32.730  27.505  1.00  0.00     0.275 C 
BRANCH   2   3
ATOM      3  O   UNL A   1      33.406  31.373  27.875  1.00  0.00    -0.458 OA
BRANCH   3   4
ATOM      4  C   UNL A   1      34.281  30.479  27.360  1.00  0.00     0.338 C 
ATOM      5  O   UNL A   1      33.913  29.822  26.385  1.00  0.00    -0.246 OA
BRANCH   4   6
ATOM      6  C   UNL A   1      35.635  30.154  27.934  1.00  0.00     0.060 A 
ATOM      7  C   UNL A   1      36.875  30.364  27.327  1.00  0.00     0.016 A 
ATOM      8  C   UNL A   1      35.643  29.606  29.236  1.00  0.00     0.016 A 
ATOM      9  C   UNL A   1      38.073  30.083  27.998  1.00  0.00     0.010 A 
ATOM     10  C   UNL A   1      36.836  29.330  29.916  1.00  0.00     0.010 A 
ATOM     11  C   UNL A   1      38.064  29.572  29.298  1.00  0.00    -0.014 A 
BRANCH  11  12
ATOM     12  C   UNL A   1      39.349  29.245  29.962  1.00  0.00     0.031 A 
ATOM     13  C   UNL A   1      39.709  29.955  31.216  1.00  0.00     0.074 A 
ATOM     14  C   UNL A   1      40.153  28.280  29.480  1.00  0.00     0.049 A 
ATOM     15  N   UNL A   1      40.739  29.751  31.986  1.00  0.00    -0.248 NA
ATOM     16  C   UNL A   1      38.803  31.023  31.664  1.00  0.00     0.031 C 
ATOM     17  C   UNL A   1      39.846  27.532  28.281  1.00  0.00     0.029 A 
ATOM     18  N   UNL A   1      41.336  27.730  29.903  1.00  0.00    -0.354 N 
ATOM     19  C   UNL A   1      40.624  30.679  33.004  1.00  0.00     0.074 A 
ATOM     20  C   UNL A   1      39.421  31.445  32.758  1.00  0.00     0.031 C 
ATOM     21  C   UNL A   1      40.780  26.596  28.066  1.00  0.00     0.029 A 
ATOM     22  C   UNL A   1      41.786  26.697  29.103  1.00  0.00     0.049 A 
ATOM     23  H   UNL A   1      41.820  28.042  30.702  1.00  0.00     0.167 HD
ATOM     24  C   UNL A   1      41.470  30.875  34.036  1.00  0.00     0.031 A 
ATOM     25  C   UNL A   1      42.878  25.912  29.186  1.00  0.00     0.031 A 
ATOM     26  C   UNL A   1      42.679  30.123  34.231  1.00  0.00     0.049 A 
ATOM     27  C   UNL A   1      43.801  26.168  30.338  1.00  0.00     0.074 A 
ATOM     28  C   UNL A   1      43.618  30.259  35.235  1.00  0.00     0.029 A 
ATOM     29  N   UNL A   1      43.129  29.110  33.393  1.00  0.00    -0.354 N 
ATOM     30  N   UNL A   1      43.644  27.019  31.324  1.00  0.00    -0.248 NA
ATOM     31  C   UNL A   1      45.041  25.388  30.395  1.00  0.00     0.031 C 
ATOM     32  C   UNL A   1      44.667  29.376  34.969  1.00  0.00     0.029 A 
ATOM     33  C   UNL A   1      44.354  28.641  33.835  1.00  0.00     0.049 A 
ATOM     34  H   UNL A   1      42.647  28.775  32.603  1.00  0.00     0.167 HD
ATOM     35  C   UNL A   1      44.774  26.890  32.113  1.00  0.00     0.074 A 
ATOM     36  C   UNL A   1      45.576  25.835  31.522  1.00  0.00     0.031 C 
ATOM     37  C   UNL A   1      45.129  27.600  33.210  1.00  0.00     0.031 A 
BRANCH  24  38
ATOM     38  C   UNL A   1      41.146  31.998  34.972  1.00  0.00    -0.014 A 
ATOM     39  C   UNL A   1      40.515  31.763  36.205  1.00  0.00     0.010 A 
ATOM     40  C   UNL A   1      41.493  33.309  34.608  1.00  0.00     0.010 A 
ATOM     41  C   UNL A   1      40.228  32.831  37.059  1.00  0.00     0.020 A 
ATOM     42  C   UNL A   1      41.229  34.376  35.468  1.00  0.00     0.020 A 
ATOM     43  C   UNL A   1      40.593  34.129  36.686  1.00  0.00     0.054 A 
BRANCH  43  44
ATOM     44  S   UNL A   1      40.272  35.485  37.844  1.00  0.00     0.124 S 
ATOM     45  O   UNL A   1      41.525  35.545  38.592  1.00  0.00    -0.237 OA
ATOM     46  O   UNL A   1      40.019  36.611  36.951  1.00  0.00    -0.237 OA
ATOM     47  O   UNL A   1      39.114  35.023  38.607  1.00  0.00    -0.744 OA
ENDBRANCH  43  44
ENDBRANCH  24  38
BRANCH  25  48
ATOM     48  C   UNL A   1      43.174  24.863  28.159  1.00  0.00    -0.014 A 
ATOM     49  C   UNL A   1      42.677  23.553  28.288  1.00  0.00     0.010 A 
ATOM     50  C   UNL A   1      43.989  25.162  27.049  1.00  0.00     0.010 A 
ATOM     51  C   UNL A   1      43.020  22.561  27.359  1.00  0.00     0.020 A 
ATOM     52  C   UNL A   1      44.303  24.186  26.097  1.00  0.00     0.020 A 
ATOM     53  C   UNL A   1      43.836  22.883  26.271  1.00  0.00     0.054 A 
BRANCH  53  54
ATOM     54  S   UNL A   1      44.273  21.585  25.079  1.00  0.00     0.124 S 
ATOM     55  O   UNL A   1      43.263  20.568  25.355  1.00  0.00    -0.237 OA
ATOM     56  O   UNL A   1      44.145  22.276  23.798  1.00  0.00    -0.237 OA
ATOM     57  O   UNL A   1      45.640  21.227  25.451  1.00  0.00    -0.744 OA
ENDBRANCH  53  54
ENDBRANCH  25  48
BRANCH  37  58
ATOM     58  C   UNL A   1      46.457  27.260  33.817  1.00  0.00    -0.014 A 
ATOM     59  C   UNL A   1      46.560  26.255  34.795  1.00  0.00     0.010 A 
ATOM     60  C   UNL A   1      47.615  27.918  33.370  1.00  0.00     0.010 A 
ATOM     61  C   UNL A   1      47.802  25.930  35.337  1.00  0.00     0.020 A 
ATOM     62  C   UNL A   1      48.864  27.572  33.887  1.00  0.00     0.020 A 
ATOM     63  C   UNL A   1      48.946  26.588  34.875  1.00  0.00     0.054 A 
BRANCH  63  64
ATOM     64  S   UNL A   1      50.555  26.104  35.552  1.00  0.00     0.124 S 
ATOM     65  O   UNL A   1      50.751  24.786  34.955  1.00  0.00    -0.237 OA
ATOM     66  O   UNL A   1      51.438  27.158  35.057  1.00  0.00    -0.237 OA
ATOM     67  O   UNL A   1      50.338  26.108  36.996  1.00  0.00    -0.744 OA
ENDBRANCH  63  64
ENDBRANCH  37  58
ENDBRANCH  11  12
ENDBRANCH   4   6
ENDBRANCH   3   4
ENDBRANCH   2   3
ENDBRANCH   1   2
BRANCH   1  68
ATOM     68  O   UNL A   1      35.089  33.645  28.650  1.00  0.00    -0.458 OA
BRANCH  68  69
ATOM     69  C   UNL A   1      35.471  33.348  29.925  1.00  0.00     0.340 C 
ATOM     70  O   UNL A   1      34.842  32.688  30.728  1.00  0.00    -0.246 OA
BRANCH  69  71
ATOM     71  C   UNL A   1      36.843  33.845  30.176  1.00  0.00     0.083 A 
ATOM     72  C   UNL A   1      37.745  33.689  29.105  1.00  0.00     0.018 A 
ATOM     73  C   UNL A   1      37.234  34.417  31.406  1.00  0.00     0.049 A 
ATOM     74  C   UNL A   1      39.065  34.100  29.236  1.00  0.00     0.001 A 
ATOM     75  C   UNL A   1      38.609  34.647  31.552  1.00  0.00     0.026 A 
ATOM     76  C   UNL A   1      39.504  34.547  30.472  1.00  0.00     0.002 A 
BRANCH  73  77
ATOM     77  N   UNL A   1      36.303  34.734  32.388  1.00  0.00    -0.384 N 
ATOM     78  H   UNL A   1      35.795  35.567  32.250  1.00  0.00     0.160 HD
BRANCH  77  79
ATOM     79  C   UNL A   1      35.983  33.986  33.600  1.00  0.00     0.115 C 
BRANCH  79  80
ATOM     80  C   UNL A   1      37.194  33.814  34.531  1.00  0.00     0.049 C 
BRANCH  80  81
ATOM     81  C   UNL A   1      36.891  33.650  36.015  1.00  0.00     0.158 C 
BRANCH  81  82
ATOM     82  O   UNL A   1      35.512  33.796  36.311  1.00  0.00    -0.396 OA
ATOM     83  H   UNL A   1      35.280  33.224  37.060  1.00  0.00     0.210 HD
ENDBRANCH  81  82
ENDBRANCH  80  81
ENDBRANCH  79  80
ENDBRANCH  77  79
ENDBRANCH  73  77
ENDBRANCH  69  71
ENDBRANCH  68  69
ENDBRANCH   1  68
TORSDOF 19
ENDMDL
