MODEL 1
REMARK VINA RESULT:     -10.3      0.000      0.000
REMARK SMILES CC[C@@H]1SC[C@H](C(=O)OCCOC(=O)c2ccc(-c3c4nc(c(-c5ccc(S(=O)(=O)[O-])cc5)c5ccc([nH]5)c(-c5ccc(S(=O)(=O)[O-])cc5)c5nc(c(-c6ccc(S(=O)(=O)[O-])cc6)c6ccc3[nH]6)C=C5)C=C4)cc2)N1C(=O)c1ccc(C)cc1F
REMARK SMILES IDX 11 1 10 2 9 3 7 4 8 5 6 6 3 7 4 8 75 9 5 10 2 11 1 12 76 13
REMARK SMILES IDX 77 14 78 15 79 16 84 17 80 18 83 19 85 20 81 21 82 22 12 23
REMARK SMILES IDX 13 24 14 25 15 26 16 27 74 28 17 29 73 30 18 31 19 32 20 33
REMARK SMILES IDX 67 34 21 35 72 36 66 37 68 38 22 39 71 40 65 41 64 42 23 44
REMARK SMILES IDX 53 45 34 46 52 47 35 48 38 49 51 50 69 51 36 52 37 53 50 55
REMARK SMILES IDX 70 56 39 57 24 58 25 59 33 60 26 61 32 62 27 63 28 64 29 65
REMARK SMILES IDX 30 66 31 67 54 68 55 69 63 70 56 71 62 72 57 73 58 74 59 75
REMARK SMILES IDX 60 76 61 77 40 78 41 79 49 80 42 81 48 82 43 83 44 84 45 85
REMARK SMILES IDX 46 86 47 87
REMARK H PARENT 68 43 38 54
REMARK Flexibility Score: inf
ROOT
ATOM      1  C   UNL A   1      33.478  28.883  25.488  1.00  0.00     0.275 C 
ENDROOT
BRANCH   1   2
ATOM      2  C   UNL A   1      33.397  27.571  24.710  1.00  0.00     0.274 C 
BRANCH   2   3
ATOM      3  O   UNL A   1      32.065  27.325  24.219  1.00  0.00    -0.461 OA
BRANCH   3   4
ATOM      4  C   UNL A   1      31.812  26.059  23.775  1.00  0.00     0.329 C 
ATOM      5  O   UNL A   1      31.211  25.804  22.738  1.00  0.00    -0.250 OA
BRANCH   4   6
ATOM      6  C   UNL A   1      32.314  25.001  24.772  1.00  0.00     0.206 C 
ATOM      7  C   UNL A   1      32.436  22.527  24.894  1.00  0.00     0.144 C 
ATOM      8  S   UNL A   1      30.796  22.937  25.568  1.00  0.00    -0.134 SA
ATOM      9  N   UNL A   1      32.902  23.749  24.214  1.00  0.00    -0.312 N 
ATOM     10  C   UNL A   1      31.134  24.691  25.700  1.00  0.00     0.109 C 
BRANCH   7  11
ATOM     11  C   UNL A   1      32.354  21.194  24.137  1.00  0.00     0.033 C 
ATOM     12  C   UNL A   1      33.364  20.133  24.576  1.00  0.00     0.007 C 
ENDBRANCH   7  11
BRANCH   9  13
ATOM     13  C   UNL A   1      34.172  23.912  23.626  1.00  0.00     0.258 C 
ATOM     14  O   UNL A   1      34.298  24.450  22.523  1.00  0.00    -0.269 OA
BRANCH  13  15
ATOM     15  C   UNL A   1      35.429  23.501  24.286  1.00  0.00     0.075 A 
ATOM     16  C   UNL A   1      36.128  22.383  23.816  1.00  0.00     0.017 A 
ATOM     17  C   UNL A   1      35.883  24.123  25.440  1.00  0.00     0.136 A 
ATOM     18  C   UNL A   1      37.315  21.975  24.444  1.00  0.00     0.004 A 
ATOM     19  C   UNL A   1      37.076  23.745  26.050  1.00  0.00     0.043 A 
ATOM     20  F   UNL A   1      35.228  25.164  25.951  1.00  0.00    -0.206 F 
ATOM     21  C   UNL A   1      37.817  22.678  25.548  1.00  0.00    -0.048 A 
ATOM     22  C   UNL A   1      39.104  22.281  26.212  1.00  0.00     0.044 C 
ENDBRANCH  13  15
ENDBRANCH   9  13
ENDBRANCH   4   6
ENDBRANCH   3   4
ENDBRANCH   2   3
ENDBRANCH   1   2
BRANCH   1  23
ATOM     23  O   UNL A   1      34.196  28.672  26.715  1.00  0.00    -0.458 OA
BRANCH  23  24
ATOM     24  C   UNL A   1      34.468  29.781  27.433  1.00  0.00     0.338 C 
ATOM     25  O   UNL A   1      33.717  30.726  27.645  1.00  0.00    -0.246 OA
BRANCH  24  26
ATOM     26  C   UNL A   1      35.861  29.752  27.911  1.00  0.00     0.060 A 
ATOM     27  C   UNL A   1      36.930  29.945  27.035  1.00  0.00     0.016 A 
ATOM     28  C   UNL A   1      36.104  29.382  29.235  1.00  0.00     0.016 A 
ATOM     29  C   UNL A   1      38.231  29.665  27.451  1.00  0.00     0.010 A 
ATOM     30  C   UNL A   1      37.416  29.181  29.671  1.00  0.00     0.010 A 
ATOM     31  C   UNL A   1      38.488  29.264  28.769  1.00  0.00    -0.014 A 
BRANCH  31  32
ATOM     32  C   UNL A   1      39.864  28.889  29.188  1.00  0.00     0.031 A 
ATOM     33  C   UNL A   1      40.747  29.875  29.913  1.00  0.00     0.074 A 
ATOM     34  C   UNL A   1      40.318  27.645  28.942  1.00  0.00     0.049 A 
ATOM     35  N   UNL A   1      41.984  29.736  30.318  1.00  0.00    -0.248 NA
ATOM     36  C   UNL A   1      40.159  31.181  30.244  1.00  0.00     0.031 C 
ATOM     37  C   UNL A   1      39.551  26.573  28.305  1.00  0.00     0.029 A 
ATOM     38  N   UNL A   1      41.543  27.079  29.189  1.00  0.00    -0.354 N 
ATOM     39  C   UNL A   1      42.309  30.920  30.972  1.00  0.00     0.074 A 
ATOM     40  C   UNL A   1      41.152  31.783  30.885  1.00  0.00     0.031 C 
ATOM     41  C   UNL A   1      40.321  25.480  28.208  1.00  0.00     0.029 A 
ATOM     42  C   UNL A   1      41.658  25.801  28.699  1.00  0.00     0.049 A 
ATOM     43  H   UNL A   1      42.266  27.542  29.668  1.00  0.00     0.167 HD
ATOM     44  C   UNL A   1      43.466  31.262  31.587  1.00  0.00     0.031 A 
ATOM     45  C   UNL A   1      42.730  24.995  28.591  1.00  0.00     0.031 A 
ATOM     46  C   UNL A   1      44.642  30.436  31.606  1.00  0.00     0.049 A 
ATOM     47  C   UNL A   1      44.061  25.480  29.079  1.00  0.00     0.074 A 
ATOM     48  C   UNL A   1      45.873  30.698  32.184  1.00  0.00     0.029 A 
ATOM     49  N   UNL A   1      44.747  29.201  30.986  1.00  0.00    -0.354 N 
ATOM     50  N   UNL A   1      44.349  26.596  29.705  1.00  0.00    -0.248 NA
ATOM     51  C   UNL A   1      45.215  24.608  28.830  1.00  0.00     0.031 C 
ATOM     52  C   UNL A   1      46.742  29.651  31.851  1.00  0.00     0.029 A 
ATOM     53  C   UNL A   1      46.036  28.715  31.112  1.00  0.00     0.049 A 
ATOM     54  H   UNL A   1      44.012  28.738  30.522  1.00  0.00     0.167 HD
ATOM     55  C   UNL A   1      45.719  26.559  29.931  1.00  0.00     0.074 A 
ATOM     56  C   UNL A   1      46.200  25.304  29.385  1.00  0.00     0.031 C 
ATOM     57  C   UNL A   1      46.506  27.479  30.541  1.00  0.00     0.031 A 
BRANCH  44  58
ATOM     58  C   UNL A   1      43.531  32.609  32.251  1.00  0.00    -0.014 A 
ATOM     59  C   UNL A   1      44.016  33.733  31.558  1.00  0.00     0.010 A 
ATOM     60  C   UNL A   1      43.059  32.766  33.566  1.00  0.00     0.010 A 
ATOM     61  C   UNL A   1      44.048  34.985  32.179  1.00  0.00     0.020 A 
ATOM     62  C   UNL A   1      43.077  34.019  34.186  1.00  0.00     0.020 A 
ATOM     63  C   UNL A   1      43.583  35.119  33.491  1.00  0.00     0.054 A 
BRANCH  63  64
ATOM     64  S   UNL A   1      43.630  36.759  34.265  1.00  0.00     0.124 S 
ATOM     65  O   UNL A   1      44.968  36.775  34.851  1.00  0.00    -0.237 OA
ATOM     66  O   UNL A   1      43.431  37.655  33.130  1.00  0.00    -0.237 OA
ATOM     67  O   UNL A   1      42.530  36.722  35.226  1.00  0.00    -0.744 OA
ENDBRANCH  63  64
ENDBRANCH  44  58
BRANCH  45  68
ATOM     68  C   UNL A   1      42.584  23.691  27.893  1.00  0.00    -0.014 A 
ATOM     69  C   UNL A   1      42.891  23.561  26.530  1.00  0.00     0.010 A 
ATOM     70  C   UNL A   1      42.194  22.551  28.623  1.00  0.00     0.010 A 
ATOM     71  C   UNL A   1      42.821  22.309  25.911  1.00  0.00     0.020 A 
ATOM     72  C   UNL A   1      42.148  21.296  28.014  1.00  0.00     0.020 A 
ATOM     73  C   UNL A   1      42.458  21.184  26.658  1.00  0.00     0.054 A 
BRANCH  73  74
ATOM     74  S   UNL A   1      42.465  19.553  25.864  1.00  0.00     0.124 S 
ATOM     75  O   UNL A   1      42.824  18.677  26.975  1.00  0.00    -0.237 OA
ATOM     76  O   UNL A   1      41.095  19.427  25.376  1.00  0.00    -0.237 OA
ATOM     77  O   UNL A   1      43.479  19.689  24.820  1.00  0.00    -0.744 OA
ENDBRANCH  73  74
ENDBRANCH  45  68
BRANCH  57  78
ATOM     78  C   UNL A   1      47.969  27.163  30.652  1.00  0.00    -0.014 A 
ATOM     79  C   UNL A   1      48.872  27.571  29.655  1.00  0.00     0.010 A 
ATOM     80  C   UNL A   1      48.452  26.486  31.786  1.00  0.00     0.010 A 
ATOM     81  C   UNL A   1      50.234  27.285  29.779  1.00  0.00     0.020 A 
ATOM     82  C   UNL A   1      49.816  26.218  31.923  1.00  0.00     0.020 A 
ATOM     83  C   UNL A   1      50.696  26.607  30.911  1.00  0.00     0.054 A 
BRANCH  83  84
ATOM     84  S   UNL A   1      52.472  26.281  31.075  1.00  0.00     0.124 S 
ATOM     85  O   UNL A   1      52.901  26.236  29.679  1.00  0.00    -0.237 OA
ATOM     86  O   UNL A   1      52.944  27.434  31.840  1.00  0.00    -0.237 OA
ATOM     87  O   UNL A   1      52.525  25.006  31.786  1.00  0.00    -0.744 OA
ENDBRANCH  83  84
ENDBRANCH  57  78
ENDBRANCH  31  32
ENDBRANCH  24  26
ENDBRANCH  23  24
ENDBRANCH   1  23
TORSDOF 17
ENDMDL
MODEL 2
REMARK VINA RESULT:     -10.0      2.549      8.973
REMARK SMILES CC[C@@H]1SC[C@H](C(=O)OCCOC(=O)c2ccc(-c3c4nc(c(-c5ccc(S(=O)(=O)[O-])cc5)c5ccc([nH]5)c(-c5ccc(S(=O)(=O)[O-])cc5)c5nc(c(-c6ccc(S(=O)(=O)[O-])cc6)c6ccc3[nH]6)C=C5)C=C4)cc2)N1C(=O)c1ccc(C)cc1F
REMARK SMILES IDX 11 1 10 2 9 3 7 4 8 5 6 6 3 7 4 8 75 9 5 10 2 11 1 12 76 13
REMARK SMILES IDX 77 14 78 15 79 16 84 17 80 18 83 19 85 20 81 21 82 22 12 23
REMARK SMILES IDX 13 24 14 25 15 26 16 27 74 28 17 29 73 30 18 31 19 32 20 33
REMARK SMILES IDX 67 34 21 35 72 36 66 37 68 38 22 39 71 40 65 41 64 42 23 44
REMARK SMILES IDX 53 45 34 46 52 47 35 48 38 49 51 50 69 51 36 52 37 53 50 55
REMARK SMILES IDX 70 56 39 57 24 58 25 59 33 60 26 61 32 62 27 63 28 64 29 65
REMARK SMILES IDX 30 66 31 67 54 68 55 69 63 70 56 71 62 72 57 73 58 74 59 75
REMARK SMILES IDX 60 76 61 77 40 78 41 79 49 80 42 81 48 82 43 83 44 84 45 85
REMARK SMILES IDX 46 86 47 87
REMARK H PARENT 68 43 38 54
REMARK Flexibility Score: inf
ROOT
ATOM      1  C   UNL A   1      36.293  22.851  24.635  1.00  0.00     0.275 C 
ENDROOT
BRANCH   1   2
ATOM      2  C   UNL A   1      35.458  23.634  23.625  1.00  0.00     0.274 C 
BRANCH   2   3
ATOM      3  O   UNL A   1      34.560  22.775  22.896  1.00  0.00    -0.461 OA
BRANCH   3   4
ATOM      4  C   UNL A   1      33.431  23.364  22.405  1.00  0.00     0.329 C 
ATOM      5  O   UNL A   1      33.431  24.231  21.540  1.00  0.00    -0.250 OA
BRANCH   4   6
ATOM      6  C   UNL A   1      32.170  22.853  23.124  1.00  0.00     0.206 C 
ATOM      7  C   UNL A   1      31.430  22.486  25.463  1.00  0.00     0.144 C 
ATOM      8  S   UNL A   1      32.257  20.933  24.996  1.00  0.00    -0.134 SA
ATOM      9  N   UNL A   1      31.827  23.469  24.439  1.00  0.00    -0.312 N 
ATOM     10  C   UNL A   1      32.334  21.334  23.252  1.00  0.00     0.109 C 
BRANCH   7  11
ATOM     11  C   UNL A   1      31.679  22.765  26.952  1.00  0.00     0.033 C 
ATOM     12  C   UNL A   1      33.149  22.900  27.350  1.00  0.00     0.007 C 
ENDBRANCH   7  11
BRANCH   9  13
ATOM     13  C   UNL A   1      31.341  24.789  24.355  1.00  0.00     0.258 C 
ATOM     14  O   UNL A   1      30.384  25.070  23.629  1.00  0.00    -0.269 OA
BRANCH  13  15
ATOM     15  C   UNL A   1      31.897  25.909  25.143  1.00  0.00     0.075 A 
ATOM     16  C   UNL A   1      33.238  26.278  24.976  1.00  0.00     0.017 A 
ATOM     17  C   UNL A   1      31.162  26.536  26.138  1.00  0.00     0.136 A 
ATOM     18  C   UNL A   1      33.781  27.331  25.729  1.00  0.00     0.004 A 
ATOM     19  C   UNL A   1      31.682  27.601  26.867  1.00  0.00     0.043 A 
ATOM     20  F   UNL A   1      29.896  26.189  26.364  1.00  0.00    -0.206 F 
ATOM     21  C   UNL A   1      32.993  28.024  26.659  1.00  0.00    -0.048 A 
ATOM     22  C   UNL A   1      33.543  29.177  27.449  1.00  0.00     0.044 C 
ENDBRANCH  13  15
ENDBRANCH   9  13
ENDBRANCH   4   6
ENDBRANCH   3   4
ENDBRANCH   2   3
ENDBRANCH   1   2
BRANCH   1  23
ATOM     23  O   UNL A   1      37.188  23.744  25.318  1.00  0.00    -0.458 OA
BRANCH  23  24
ATOM     24  C   UNL A   1      38.301  23.180  25.831  1.00  0.00     0.338 C 
ATOM     25  O   UNL A   1      38.663  22.016  25.708  1.00  0.00    -0.246 OA
BRANCH  24  26
ATOM     26  C   UNL A   1      39.041  24.159  26.647  1.00  0.00     0.060 A 
ATOM     27  C   UNL A   1      38.774  24.315  28.008  1.00  0.00     0.016 A 
ATOM     28  C   UNL A   1      39.915  25.036  26.004  1.00  0.00     0.016 A 
ATOM     29  C   UNL A   1      39.296  25.406  28.699  1.00  0.00     0.010 A 
ATOM     30  C   UNL A   1      40.502  26.083  26.720  1.00  0.00     0.010 A 
ATOM     31  C   UNL A   1      40.153  26.313  28.060  1.00  0.00    -0.014 A 
BRANCH  31  32
ATOM     32  C   UNL A   1      40.644  27.520  28.776  1.00  0.00     0.031 A 
ATOM     33  C   UNL A   1      42.006  27.533  29.424  1.00  0.00     0.074 A 
ATOM     34  C   UNL A   1      39.873  28.624  28.823  1.00  0.00     0.049 A 
ATOM     35  N   UNL A   1      42.582  28.480  30.122  1.00  0.00    -0.248 NA
ATOM     36  C   UNL A   1      42.841  26.335  29.249  1.00  0.00     0.031 C 
ATOM     37  C   UNL A   1      38.562  28.770  28.189  1.00  0.00     0.029 A 
ATOM     38  N   UNL A   1      40.081  29.829  29.445  1.00  0.00    -0.354 N 
ATOM     39  C   UNL A   1      43.848  28.003  30.444  1.00  0.00     0.074 A 
ATOM     40  C   UNL A   1      43.952  26.670  29.893  1.00  0.00     0.031 C 
ATOM     41  C   UNL A   1      38.080  29.993  28.456  1.00  0.00     0.029 A 
ATOM     42  C   UNL A   1      39.009  30.681  29.346  1.00  0.00     0.049 A 
ATOM     43  H   UNL A   1      40.914  30.058  29.916  1.00  0.00     0.167 HD
ATOM     44  C   UNL A   1      44.837  28.617  31.137  1.00  0.00     0.031 A 
ATOM     45  C   UNL A   1      38.763  31.857  29.953  1.00  0.00     0.031 A 
ATOM     46  C   UNL A   1      44.707  29.909  31.751  1.00  0.00     0.049 A 
ATOM     47  C   UNL A   1      39.781  32.419  30.898  1.00  0.00     0.074 A 
ATOM     48  C   UNL A   1      45.641  30.612  32.493  1.00  0.00     0.029 A 
ATOM     49  N   UNL A   1      43.555  30.679  31.727  1.00  0.00    -0.354 N 
ATOM     50  N   UNL A   1      40.978  31.963  31.182  1.00  0.00    -0.248 NA
ATOM     51  C   UNL A   1      39.411  33.642  31.620  1.00  0.00     0.031 C 
ATOM     52  C   UNL A   1      45.028  31.774  32.977  1.00  0.00     0.029 A 
ATOM     53  C   UNL A   1      43.731  31.820  32.491  1.00  0.00     0.049 A 
ATOM     54  H   UNL A   1      42.731  30.449  31.239  1.00  0.00     0.167 HD
ATOM     55  C   UNL A   1      41.507  32.847  32.113  1.00  0.00     0.074 A 
ATOM     56  C   UNL A   1      40.505  33.871  32.335  1.00  0.00     0.031 C 
ATOM     57  C   UNL A   1      42.717  32.816  32.724  1.00  0.00     0.031 A 
BRANCH  44  58
ATOM     58  C   UNL A   1      46.133  27.874  31.308  1.00  0.00    -0.014 A 
ATOM     59  C   UNL A   1      46.326  27.002  32.395  1.00  0.00     0.010 A 
ATOM     60  C   UNL A   1      47.151  28.010  30.349  1.00  0.00     0.010 A 
ATOM     61  C   UNL A   1      47.527  26.298  32.530  1.00  0.00     0.020 A 
ATOM     62  C   UNL A   1      48.348  27.298  30.473  1.00  0.00     0.020 A 
ATOM     63  C   UNL A   1      48.532  26.454  31.571  1.00  0.00     0.054 A 
BRANCH  63  64
ATOM     64  S   UNL A   1      50.075  25.520  31.769  1.00  0.00     0.124 S 
ATOM     65  O   UNL A   1      49.688  24.510  32.751  1.00  0.00    -0.237 OA
ATOM     66  O   UNL A   1      50.322  25.020  30.420  1.00  0.00    -0.237 OA
ATOM     67  O   UNL A   1      51.028  26.519  32.245  1.00  0.00    -0.744 OA
ENDBRANCH  63  64
ENDBRANCH  44  58
BRANCH  45  68
ATOM     68  C   UNL A   1      37.443  32.510  29.751  1.00  0.00    -0.014 A 
ATOM     69  C   UNL A   1      36.358  32.223  30.594  1.00  0.00     0.010 A 
ATOM     70  C   UNL A   1      37.294  33.480  28.741  1.00  0.00     0.010 A 
ATOM     71  C   UNL A   1      35.147  32.905  30.436  1.00  0.00     0.020 A 
ATOM     72  C   UNL A   1      36.096  34.181  28.598  1.00  0.00     0.020 A 
ATOM     73  C   UNL A   1      35.026  33.885  29.444  1.00  0.00     0.054 A 
BRANCH  73  74
ATOM     74  S   UNL A   1      33.483  34.828  29.314  1.00  0.00     0.124 S 
ATOM     75  O   UNL A   1      33.015  34.836  30.696  1.00  0.00    -0.237 OA
ATOM     76  O   UNL A   1      33.935  36.115  28.792  1.00  0.00    -0.237 OA
ATOM     77  O   UNL A   1      32.679  34.037  28.384  1.00  0.00    -0.744 OA
ENDBRANCH  73  74
ENDBRANCH  45  68
BRANCH  57  78
ATOM     78  C   UNL A   1      43.026  33.922  33.690  1.00  0.00    -0.014 A 
ATOM     79  C   UNL A   1      43.635  35.111  33.254  1.00  0.00     0.010 A 
ATOM     80  C   UNL A   1      42.666  33.787  35.043  1.00  0.00     0.010 A 
ATOM     81  C   UNL A   1      43.902  36.140  34.161  1.00  0.00     0.020 A 
ATOM     82  C   UNL A   1      42.911  34.822  35.948  1.00  0.00     0.020 A 
ATOM     83  C   UNL A   1      43.541  35.987  35.503  1.00  0.00     0.054 A 
BRANCH  83  84
ATOM     84  S   UNL A   1      43.858  37.349  36.657  1.00  0.00     0.124 S 
ATOM     85  O   UNL A   1      45.174  36.998  37.185  1.00  0.00    -0.237 OA
ATOM     86  O   UNL A   1      43.822  38.524  35.789  1.00  0.00    -0.237 OA
ATOM     87  O   UNL A   1      42.756  37.254  37.612  1.00  0.00    -0.744 OA
ENDBRANCH  83  84
ENDBRANCH  57  78
ENDBRANCH  31  32
ENDBRANCH  24  26
ENDBRANCH  23  24
ENDBRANCH   1  23
TORSDOF 17
ENDMDL
MODEL 3
REMARK VINA RESULT:      -9.9      3.402      4.585
REMARK SMILES CC[C@@H]1SC[C@H](C(=O)OCCOC(=O)c2ccc(-c3c4nc(c(-c5ccc(S(=O)(=O)[O-])cc5)c5ccc([nH]5)c(-c5ccc(S(=O)(=O)[O-])cc5)c5nc(c(-c6ccc(S(=O)(=O)[O-])cc6)c6ccc3[nH]6)C=C5)C=C4)cc2)N1C(=O)c1ccc(C)cc1F
REMARK SMILES IDX 11 1 10 2 9 3 7 4 8 5 6 6 3 7 4 8 75 9 5 10 2 11 1 12 76 13
REMARK SMILES IDX 77 14 78 15 79 16 84 17 80 18 83 19 85 20 81 21 82 22 12 23
REMARK SMILES IDX 13 24 14 25 15 26 16 27 74 28 17 29 73 30 18 31 19 32 20 33
REMARK SMILES IDX 67 34 21 35 72 36 66 37 68 38 22 39 71 40 65 41 64 42 23 44
REMARK SMILES IDX 53 45 34 46 52 47 35 48 38 49 51 50 69 51 36 52 37 53 50 55
REMARK SMILES IDX 70 56 39 57 24 58 25 59 33 60 26 61 32 62 27 63 28 64 29 65
REMARK SMILES IDX 30 66 31 67 54 68 55 69 63 70 56 71 62 72 57 73 58 74 59 75
REMARK SMILES IDX 60 76 61 77 40 78 41 79 49 80 42 81 48 82 43 83 44 84 45 85
REMARK SMILES IDX 46 86 47 87
REMARK H PARENT 68 43 38 54
REMARK Flexibility Score: inf
ROOT
ATOM      1  C   UNL A   1      35.197  30.799  27.632  1.00  0.00     0.275 C 
ENDROOT
BRANCH   1   2
ATOM      2  C   UNL A   1      34.634  29.548  26.960  1.00  0.00     0.274 C 
BRANCH   2   3
ATOM      3  O   UNL A   1      33.450  29.842  26.194  1.00  0.00    -0.461 OA
BRANCH   3   4
ATOM      4  C   UNL A   1      33.158  28.975  25.181  1.00  0.00     0.329 C 
ATOM      5  O   UNL A   1      33.978  28.580  24.360  1.00  0.00    -0.250 OA
BRANCH   4   6
ATOM      6  C   UNL A   1      31.662  28.616  25.159  1.00  0.00     0.206 C 
ATOM      7  C   UNL A   1      30.222  26.876  24.134  1.00  0.00     0.144 C 
ATOM      8  S   UNL A   1      30.317  28.190  22.877  1.00  0.00    -0.134 SA
ATOM      9  N   UNL A   1      31.299  27.171  25.096  1.00  0.00    -0.312 N 
ATOM     10  C   UNL A   1      31.052  29.390  23.984  1.00  0.00     0.109 C 
BRANCH   7  11
ATOM     11  C   UNL A   1      30.150  25.511  23.436  1.00  0.00     0.033 C 
ATOM     12  C   UNL A   1      31.457  25.035  22.802  1.00  0.00     0.007 C 
ENDBRANCH   7  11
BRANCH   9  13
ATOM     13  C   UNL A   1      31.534  26.458  26.289  1.00  0.00     0.258 C 
ATOM     14  O   UNL A   1      31.204  26.923  27.383  1.00  0.00    -0.269 OA
BRANCH  13  15
ATOM     15  C   UNL A   1      32.142  25.111  26.322  1.00  0.00     0.075 A 
ATOM     16  C   UNL A   1      31.352  24.000  26.642  1.00  0.00     0.017 A 
ATOM     17  C   UNL A   1      33.507  24.923  26.161  1.00  0.00     0.136 A 
ATOM     18  C   UNL A   1      31.921  22.717  26.691  1.00  0.00     0.004 A 
ATOM     19  C   UNL A   1      34.074  23.652  26.176  1.00  0.00     0.043 A 
ATOM     20  F   UNL A   1      34.306  25.956  25.899  1.00  0.00    -0.206 F 
ATOM     21  C   UNL A   1      33.285  22.531  26.423  1.00  0.00    -0.048 A 
ATOM     22  C   UNL A   1      33.907  21.164  26.433  1.00  0.00     0.044 C 
ENDBRANCH  13  15
ENDBRANCH   9  13
ENDBRANCH   4   6
ENDBRANCH   3   4
ENDBRANCH   2   3
ENDBRANCH   1   2
BRANCH   1  23
ATOM     23  O   UNL A   1      36.607  30.635  27.853  1.00  0.00    -0.458 OA
BRANCH  23  24
ATOM     24  C   UNL A   1      36.952  29.735  28.796  1.00  0.00     0.338 C 
ATOM     25  O   UNL A   1      36.289  29.391  29.767  1.00  0.00    -0.246 OA
BRANCH  24  26
ATOM     26  C   UNL A   1      38.313  29.228  28.545  1.00  0.00     0.060 A 
ATOM     27  C   UNL A   1      39.117  28.767  29.589  1.00  0.00     0.016 A 
ATOM     28  C   UNL A   1      38.844  29.354  27.261  1.00  0.00     0.016 A 
ATOM     29  C   UNL A   1      40.474  28.533  29.371  1.00  0.00     0.010 A 
ATOM     30  C   UNL A   1      40.186  29.041  27.029  1.00  0.00     0.010 A 
ATOM     31  C   UNL A   1      41.029  28.683  28.093  1.00  0.00    -0.014 A 
BRANCH  31  32
ATOM     32  C   UNL A   1      42.490  28.512  27.880  1.00  0.00     0.031 A 
ATOM     33  C   UNL A   1      43.445  29.652  28.132  1.00  0.00     0.074 A 
ATOM     34  C   UNL A   1      42.969  27.317  27.485  1.00  0.00     0.049 A 
ATOM     35  N   UNL A   1      44.743  29.697  27.964  1.00  0.00    -0.248 NA
ATOM     36  C   UNL A   1      42.874  30.899  28.662  1.00  0.00     0.031 C 
ATOM     37  C   UNL A   1      42.166  26.113  27.264  1.00  0.00     0.029 A 
ATOM     38  N   UNL A   1      44.249  26.925  27.187  1.00  0.00    -0.354 N 
ATOM     39  C   UNL A   1      45.142  30.959  28.390  1.00  0.00     0.074 A 
ATOM     40  C   UNL A   1      43.948  31.666  28.797  1.00  0.00     0.031 C 
ATOM     41  C   UNL A   1      42.970  25.117  26.863  1.00  0.00     0.029 A 
ATOM     42  C   UNL A   1      44.326  25.636  26.720  1.00  0.00     0.049 A 
ATOM     43  H   UNL A   1      45.034  27.509  27.297  1.00  0.00     0.167 HD
ATOM     44  C   UNL A   1      46.388  31.487  28.436  1.00  0.00     0.031 A 
ATOM     45  C   UNL A   1      45.354  24.960  26.172  1.00  0.00     0.031 A 
ATOM     46  C   UNL A   1      47.565  30.815  27.959  1.00  0.00     0.049 A 
ATOM     47  C   UNL A   1      46.681  25.640  26.027  1.00  0.00     0.074 A 
ATOM     48  C   UNL A   1      48.873  31.269  27.941  1.00  0.00     0.029 A 
ATOM     49  N   UNL A   1      47.571  29.557  27.378  1.00  0.00    -0.354 N 
ATOM     50  N   UNL A   1      47.045  26.829  26.445  1.00  0.00    -0.248 NA
ATOM     51  C   UNL A   1      47.731  24.899  25.318  1.00  0.00     0.031 C 
ATOM     52  C   UNL A   1      49.657  30.313  27.284  1.00  0.00     0.029 A 
ATOM     53  C   UNL A   1      48.846  29.242  26.942  1.00  0.00     0.049 A 
ATOM     54  H   UNL A   1      46.784  28.972  27.288  1.00  0.00     0.167 HD
ATOM     55  C   UNL A   1      48.370  26.977  26.055  1.00  0.00     0.074 A 
ATOM     56  C   UNL A   1      48.746  25.751  25.378  1.00  0.00     0.031 C 
ATOM     57  C   UNL A   1      49.200  28.031  26.246  1.00  0.00     0.031 A 
BRANCH  44  58
ATOM     58  C   UNL A   1      46.536  32.880  28.982  1.00  0.00    -0.014 A 
ATOM     59  C   UNL A   1      46.796  33.096  30.347  1.00  0.00     0.010 A 
ATOM     60  C   UNL A   1      46.461  33.985  28.115  1.00  0.00     0.010 A 
ATOM     61  C   UNL A   1      46.955  34.395  30.838  1.00  0.00     0.020 A 
ATOM     62  C   UNL A   1      46.632  35.285  28.600  1.00  0.00     0.020 A 
ATOM     63  C   UNL A   1      46.868  35.482  29.962  1.00  0.00     0.054 A 
BRANCH  63  64
ATOM     64  S   UNL A   1      47.088  37.155  30.628  1.00  0.00     0.124 S 
ATOM     65  O   UNL A   1      46.078  37.907  29.888  1.00  0.00    -0.237 OA
ATOM     66  O   UNL A   1      46.815  36.972  32.051  1.00  0.00    -0.237 OA
ATOM     67  O   UNL A   1      48.474  37.482  30.299  1.00  0.00    -0.744 OA
ENDBRANCH  63  64
ENDBRANCH  44  58
BRANCH  45  68
ATOM     68  C   UNL A   1      45.113  23.597  25.631  1.00  0.00    -0.014 A 
ATOM     69  C   UNL A   1      44.736  23.406  24.293  1.00  0.00     0.010 A 
ATOM     70  C   UNL A   1      45.330  22.474  26.453  1.00  0.00     0.010 A 
ATOM     71  C   UNL A   1      44.590  22.112  23.783  1.00  0.00     0.020 A 
ATOM     72  C   UNL A   1      45.210  21.182  25.940  1.00  0.00     0.020 A 
ATOM     73  C   UNL A   1      44.835  21.009  24.607  1.00  0.00     0.054 A 
BRANCH  73  74
ATOM     74  S   UNL A   1      44.736  19.339  23.906  1.00  0.00     0.124 S 
ATOM     75  O   UNL A   1      46.027  18.774  24.283  1.00  0.00    -0.237 OA
ATOM     76  O   UNL A   1      43.574  18.773  24.586  1.00  0.00    -0.237 OA
ATOM     77  O   UNL A   1      44.550  19.582  22.477  1.00  0.00    -0.744 OA
ENDBRANCH  73  74
ENDBRANCH  45  68
BRANCH  57  78
ATOM     78  C   UNL A   1      50.600  27.905  25.718  1.00  0.00    -0.014 A 
ATOM     79  C   UNL A   1      50.909  28.282  24.400  1.00  0.00     0.010 A 
ATOM     80  C   UNL A   1      51.625  27.444  26.563  1.00  0.00     0.010 A 
ATOM     81  C   UNL A   1      52.219  28.175  23.926  1.00  0.00     0.020 A 
ATOM     82  C   UNL A   1      52.939  27.357  26.099  1.00  0.00     0.020 A 
ATOM     83  C   UNL A   1      53.225  27.710  24.778  1.00  0.00     0.054 A 
BRANCH  83  84
ATOM     84  S   UNL A   1      54.926  27.618  24.159  1.00  0.00     0.124 S 
ATOM     85  O   UNL A   1      54.838  26.526  23.192  1.00  0.00    -0.237 OA
ATOM     86  O   UNL A   1      55.136  28.947  23.587  1.00  0.00    -0.237 OA
ATOM     87  O   UNL A   1      55.714  27.330  25.355  1.00  0.00    -0.744 OA
ENDBRANCH  83  84
ENDBRANCH  57  78
ENDBRANCH  31  32
ENDBRANCH  24  26
ENDBRANCH  23  24
ENDBRANCH   1  23
TORSDOF 17
ENDMDL
