MODEL 1
REMARK VINA RESULT:      -8.7      0.000      0.000
REMARK SMILES CC/C=C/C/C=C/C/C=C/C/C=C/CC/C=C/COCC(=O)OCCOC(=O)c1ccc(-c2c3nc(c(-c4ccc(S(=O)(=O)[O-])cc4)c4ccc([nH]4)c(-c4ccc(S(=O)(=O)[O-])cc4)c4nc(c(-c5ccc(S(=O)(=O)[O-])cc5)c5ccc2[nH]5)C=C4)C=C3)cc1
REMARK SMILES IDX 18 1 17 2 16 3 15 4 14 5 13 6 12 7 11 8 10 9 9 10 8 11 7 12
REMARK SMILES IDX 6 13 5 14 4 15 3 16 2 17 1 18 19 19 20 20 21 21 22 22 23 23
REMARK SMILES IDX 24 24 25 25 26 26 27 27 28 28 29 29 30 30 88 31 31 32 87 33
REMARK SMILES IDX 32 34 33 35 34 36 81 37 35 38 86 39 80 40 82 41 36 42 85 43
REMARK SMILES IDX 79 44 78 45 37 47 67 48 48 49 66 50 49 51 52 52 65 53 83 54
REMARK SMILES IDX 50 55 51 56 64 58 84 59 53 60 38 61 39 62 47 63 40 64 46 65
REMARK SMILES IDX 41 66 42 67 43 68 44 69 45 70 68 71 69 72 77 73 70 74 76 75
REMARK SMILES IDX 71 76 72 77 73 78 74 79 75 80 54 81 55 82 63 83 56 84 62 85
REMARK SMILES IDX 57 86 58 87 59 88 60 89 61 90
REMARK H PARENT 82 46 52 57
REMARK Flexibility Score: inf
ROOT
ATOM      1  C   UNL A   1      33.271  23.092  27.204  1.00  0.00     0.188 C 
ENDROOT
BRANCH   1   2
ATOM      2  C   UNL A   1      34.186  22.067  26.591  1.00  0.00    -0.003 C 
ATOM      3  C   UNL A   1      35.500  22.305  26.516  1.00  0.00    -0.029 C 
BRANCH   3   4
ATOM      4  C   UNL A   1      36.511  21.683  25.588  1.00  0.00     0.031 C 
BRANCH   4   5
ATOM      5  C   UNL A   1      36.809  22.414  24.194  1.00  0.00     0.031 C 
BRANCH   5   6
ATOM      6  C   UNL A   1      35.812  23.073  23.175  1.00  0.00    -0.031 C 
ATOM      7  C   UNL A   1      34.469  22.902  23.015  1.00  0.00    -0.027 C 
BRANCH   7   8
ATOM      8  C   UNL A   1      33.425  23.560  22.120  1.00  0.00     0.054 C 
BRANCH   8   9
ATOM      9  C   UNL A   1      32.148  24.046  22.819  1.00  0.00    -0.027 C 
ATOM     10  C   UNL A   1      31.539  25.258  22.768  1.00  0.00    -0.027 C 
BRANCH  10  11
ATOM     11  C   UNL A   1      30.179  25.566  23.400  1.00  0.00     0.054 C 
BRANCH  11  12
ATOM     12  C   UNL A   1      29.935  27.020  23.768  1.00  0.00    -0.027 C 
ATOM     13  C   UNL A   1      30.913  27.937  23.948  1.00  0.00    -0.027 C 
BRANCH  13  14
ATOM     14  C   UNL A   1      30.714  29.415  24.214  1.00  0.00     0.054 C 
BRANCH  14  15
ATOM     15  C   UNL A   1      29.589  29.988  23.390  1.00  0.00    -0.027 C 
ATOM     16  C   UNL A   1      28.963  31.158  23.614  1.00  0.00    -0.031 C 
BRANCH  16  17
ATOM     17  C   UNL A   1      27.879  31.703  22.720  1.00  0.00     0.023 C 
ATOM     18  C   UNL A   1      28.079  31.305  21.265  1.00  0.00     0.008 C 
ENDBRANCH  16  17
ENDBRANCH  14  15
ENDBRANCH  13  14
ENDBRANCH  11  12
ENDBRANCH  10  11
ENDBRANCH   8   9
ENDBRANCH   7   8
ENDBRANCH   5   6
ENDBRANCH   4   5
ENDBRANCH   3   4
ENDBRANCH   1   2
BRANCH   1  19
ATOM     19  O   UNL A   1      32.747  23.973  26.202  1.00  0.00    -0.366 OA
BRANCH  19  20
ATOM     20  C   UNL A   1      33.340  25.260  26.124  1.00  0.00     0.283 C 
BRANCH  20  21
ATOM     21  C   UNL A   1      32.609  26.543  26.519  1.00  0.00     0.332 C 
ATOM     22  O   UNL A   1      31.501  26.536  27.048  1.00  0.00    -0.250 OA
BRANCH  21  23
ATOM     23  O   UNL A   1      33.383  27.649  26.349  1.00  0.00    -0.460 OA
BRANCH  23  24
ATOM     24  C   UNL A   1      33.374  28.597  27.439  1.00  0.00     0.274 C 
BRANCH  24  25
ATOM     25  C   UNL A   1      34.519  29.603  27.285  1.00  0.00     0.275 C 
BRANCH  25  26
ATOM     26  O   UNL A   1      35.774  28.936  27.526  1.00  0.00    -0.458 OA
BRANCH  26  27
ATOM     27  C   UNL A   1      36.496  29.322  28.618  1.00  0.00     0.338 C 
ATOM     28  O   UNL A   1      36.036  29.731  29.666  1.00  0.00    -0.246 OA
BRANCH  27  29
ATOM     29  C   UNL A   1      37.960  29.175  28.322  1.00  0.00     0.060 A 
ATOM     30  C   UNL A   1      38.774  28.573  29.259  1.00  0.00     0.016 A 
ATOM     31  C   UNL A   1      38.582  29.611  27.152  1.00  0.00     0.016 A 
ATOM     32  C   UNL A   1      40.145  28.355  29.014  1.00  0.00     0.010 A 
ATOM     33  C   UNL A   1      39.970  29.333  26.909  1.00  0.00     0.010 A 
ATOM     34  C   UNL A   1      40.786  28.643  27.835  1.00  0.00    -0.014 A 
BRANCH  34  35
ATOM     35  C   UNL A   1      42.276  28.351  27.678  1.00  0.00     0.031 A 
ATOM     36  C   UNL A   1      43.208  29.429  28.118  1.00  0.00     0.074 A 
ATOM     37  C   UNL A   1      42.940  27.181  27.432  1.00  0.00     0.049 A 
ATOM     38  N   UNL A   1      44.476  29.580  27.864  1.00  0.00    -0.248 NA
ATOM     39  C   UNL A   1      42.636  30.409  29.052  1.00  0.00     0.031 C 
ATOM     40  C   UNL A   1      42.438  25.832  27.564  1.00  0.00     0.029 A 
ATOM     41  N   UNL A   1      44.236  26.927  26.993  1.00  0.00    -0.354 N 
ATOM     42  C   UNL A   1      44.856  30.689  28.590  1.00  0.00     0.074 A 
ATOM     43  C   UNL A   1      43.678  31.193  29.267  1.00  0.00     0.031 C 
ATOM     44  C   UNL A   1      43.252  24.927  27.005  1.00  0.00     0.029 A 
ATOM     45  C   UNL A   1      44.440  25.619  26.565  1.00  0.00     0.049 A 
ATOM     46  H   UNL A   1      44.944  27.610  26.986  1.00  0.00     0.167 HD
ATOM     47  C   UNL A   1      46.084  31.234  28.700  1.00  0.00     0.031 A 
ATOM     48  C   UNL A   1      45.453  25.002  25.919  1.00  0.00     0.031 A 
ATOM     49  C   UNL A   1      47.277  30.725  28.091  1.00  0.00     0.049 A 
ATOM     50  C   UNL A   1      46.731  25.756  25.744  1.00  0.00     0.074 A 
ATOM     51  C   UNL A   1      48.529  31.311  28.056  1.00  0.00     0.029 A 
ATOM     52  N   UNL A   1      47.386  29.507  27.442  1.00  0.00    -0.354 N 
ATOM     53  N   UNL A   1      47.034  26.933  26.227  1.00  0.00    -0.248 NA
ATOM     54  C   UNL A   1      47.820  25.098  25.009  1.00  0.00     0.031 C 
ATOM     55  C   UNL A   1      49.387  30.469  27.341  1.00  0.00     0.029 A 
ATOM     56  C   UNL A   1      48.679  29.338  26.973  1.00  0.00     0.049 A 
ATOM     57  H   UNL A   1      46.654  28.858  27.331  1.00  0.00     0.167 HD
ATOM     58  C   UNL A   1      48.368  27.130  25.915  1.00  0.00     0.074 A 
ATOM     59  C   UNL A   1      48.813  25.961  25.186  1.00  0.00     0.031 C 
ATOM     60  C   UNL A   1      49.144  28.188  26.242  1.00  0.00     0.031 A 
BRANCH  47  61
ATOM     61  C   UNL A   1      46.133  32.534  29.429  1.00  0.00    -0.014 A 
ATOM     62  C   UNL A   1      46.528  32.614  30.773  1.00  0.00     0.010 A 
ATOM     63  C   UNL A   1      45.692  33.683  28.750  1.00  0.00     0.010 A 
ATOM     64  C   UNL A   1      46.447  33.833  31.443  1.00  0.00     0.020 A 
ATOM     65  C   UNL A   1      45.634  34.905  29.410  1.00  0.00     0.020 A 
ATOM     66  C   UNL A   1      45.996  34.968  30.756  1.00  0.00     0.054 A 
BRANCH  66  67
ATOM     67  S   UNL A   1      45.908  36.545  31.642  1.00  0.00     0.124 S 
ATOM     68  O   UNL A   1      44.867  37.248  30.896  1.00  0.00    -0.237 OA
ATOM     69  O   UNL A   1      45.544  36.131  32.994  1.00  0.00    -0.237 OA
ATOM     70  O   UNL A   1      47.254  37.093  31.503  1.00  0.00    -0.744 OA
ENDBRANCH  66  67
ENDBRANCH  47  61
BRANCH  48  71
ATOM     71  C   UNL A   1      45.326  23.605  25.390  1.00  0.00    -0.014 A 
ATOM     72  C   UNL A   1      44.586  23.314  24.229  1.00  0.00     0.010 A 
ATOM     73  C   UNL A   1      45.885  22.533  26.114  1.00  0.00     0.010 A 
ATOM     74  C   UNL A   1      44.379  21.987  23.824  1.00  0.00     0.020 A 
ATOM     75  C   UNL A   1      45.695  21.206  25.705  1.00  0.00     0.020 A 
ATOM     76  C   UNL A   1      44.928  20.940  24.570  1.00  0.00     0.054 A 
BRANCH  76  77
ATOM     77  S   UNL A   1      44.646  19.226  24.030  1.00  0.00     0.124 S 
ATOM     78  O   UNL A   1      44.515  19.378  22.585  1.00  0.00    -0.237 OA
ATOM     79  O   UNL A   1      45.855  18.547  24.488  1.00  0.00    -0.237 OA
ATOM     80  O   UNL A   1      43.423  18.843  24.731  1.00  0.00    -0.744 OA
ENDBRANCH  76  77
ENDBRANCH  48  71
BRANCH  60  81
ATOM     81  C   UNL A   1      50.587  28.132  25.837  1.00  0.00    -0.014 A 
ATOM     82  C   UNL A   1      51.045  28.820  24.701  1.00  0.00     0.010 A 
ATOM     83  C   UNL A   1      51.503  27.421  26.632  1.00  0.00     0.010 A 
ATOM     84  C   UNL A   1      52.396  28.779  24.354  1.00  0.00     0.020 A 
ATOM     85  C   UNL A   1      52.859  27.400  26.302  1.00  0.00     0.020 A 
ATOM     86  C   UNL A   1      53.294  28.070  25.158  1.00  0.00     0.054 A 
BRANCH  86  87
ATOM     87  S   UNL A   1      55.054  28.084  24.719  1.00  0.00     0.124 S 
ATOM     88  O   UNL A   1      55.653  27.382  25.850  1.00  0.00    -0.237 OA
ATOM     89  O   UNL A   1      55.074  27.363  23.448  1.00  0.00    -0.237 OA
ATOM     90  O   UNL A   1      55.375  29.506  24.626  1.00  0.00    -0.744 OA
ENDBRANCH  86  87
ENDBRANCH  60  81
ENDBRANCH  34  35
ENDBRANCH  27  29
ENDBRANCH  26  27
ENDBRANCH  25  26
ENDBRANCH  24  25
ENDBRANCH  23  24
ENDBRANCH  21  23
ENDBRANCH  20  21
ENDBRANCH  19  20
ENDBRANCH   1  19
TORSDOF 27
ENDMDL
MODEL 2
REMARK VINA RESULT:      -8.6      5.156     10.025
REMARK SMILES CC/C=C/C/C=C/C/C=C/C/C=C/CC/C=C/COCC(=O)OCCOC(=O)c1ccc(-c2c3nc(c(-c4ccc(S(=O)(=O)[O-])cc4)c4ccc([nH]4)c(-c4ccc(S(=O)(=O)[O-])cc4)c4nc(c(-c5ccc(S(=O)(=O)[O-])cc5)c5ccc2[nH]5)C=C4)C=C3)cc1
REMARK SMILES IDX 18 1 17 2 16 3 15 4 14 5 13 6 12 7 11 8 10 9 9 10 8 11 7 12
REMARK SMILES IDX 6 13 5 14 4 15 3 16 2 17 1 18 19 19 20 20 21 21 22 22 23 23
REMARK SMILES IDX 24 24 25 25 26 26 27 27 28 28 29 29 30 30 88 31 31 32 87 33
REMARK SMILES IDX 32 34 33 35 34 36 81 37 35 38 86 39 80 40 82 41 36 42 85 43
REMARK SMILES IDX 79 44 78 45 37 47 67 48 48 49 66 50 49 51 52 52 65 53 83 54
REMARK SMILES IDX 50 55 51 56 64 58 84 59 53 60 38 61 39 62 47 63 40 64 46 65
REMARK SMILES IDX 41 66 42 67 43 68 44 69 45 70 68 71 69 72 77 73 70 74 76 75
REMARK SMILES IDX 71 76 72 77 73 78 74 79 75 80 54 81 55 82 63 83 56 84 62 85
REMARK SMILES IDX 57 86 58 87 59 88 60 89 61 90
REMARK H PARENT 82 46 52 57
REMARK Flexibility Score: inf
ROOT
ATOM      1  C   UNL A   1      33.316  21.303  26.662  1.00  0.00     0.188 C 
ENDROOT
BRANCH   1   2
ATOM      2  C   UNL A   1      34.501  20.936  25.809  1.00  0.00    -0.003 C 
ATOM      3  C   UNL A   1      35.698  21.476  26.062  1.00  0.00    -0.029 C 
BRANCH   3   4
ATOM      4  C   UNL A   1      36.872  21.623  25.129  1.00  0.00     0.031 C 
BRANCH   4   5
ATOM      5  C   UNL A   1      36.844  22.813  24.058  1.00  0.00     0.031 C 
BRANCH   5   6
ATOM      6  C   UNL A   1      35.701  23.245  23.070  1.00  0.00    -0.031 C 
ATOM      7  C   UNL A   1      34.410  22.823  22.973  1.00  0.00    -0.027 C 
BRANCH   7   8
ATOM      8  C   UNL A   1      33.227  23.247  22.111  1.00  0.00     0.054 C 
BRANCH   8   9
ATOM      9  C   UNL A   1      32.835  24.730  22.187  1.00  0.00    -0.027 C 
ATOM     10  C   UNL A   1      33.521  25.783  22.700  1.00  0.00    -0.027 C 
BRANCH  10  11
ATOM     11  C   UNL A   1      33.077  27.243  22.577  1.00  0.00     0.054 C 
BRANCH  11  12
ATOM     12  C   UNL A   1      31.598  27.465  22.309  1.00  0.00    -0.027 C 
ATOM     13  C   UNL A   1      30.786  28.217  23.086  1.00  0.00    -0.027 C 
BRANCH  13  14
ATOM     14  C   UNL A   1      29.335  28.549  22.803  1.00  0.00     0.054 C 
BRANCH  14  15
ATOM     15  C   UNL A   1      29.175  29.941  22.247  1.00  0.00    -0.027 C 
ATOM     16  C   UNL A   1      28.210  30.347  21.401  1.00  0.00    -0.031 C 
BRANCH  16  17
ATOM     17  C   UNL A   1      28.072  31.770  20.923  1.00  0.00     0.023 C 
ATOM     18  C   UNL A   1      28.426  32.778  22.006  1.00  0.00     0.008 C 
ENDBRANCH  16  17
ENDBRANCH  14  15
ENDBRANCH  13  14
ENDBRANCH  11  12
ENDBRANCH  10  11
ENDBRANCH   8   9
ENDBRANCH   7   8
ENDBRANCH   5   6
ENDBRANCH   4   5
ENDBRANCH   3   4
ENDBRANCH   1   2
BRANCH   1  19
ATOM     19  O   UNL A   1      32.541  22.337  26.040  1.00  0.00    -0.366 OA
BRANCH  19  20
ATOM     20  C   UNL A   1      32.681  23.640  26.585  1.00  0.00     0.283 C 
BRANCH  20  21
ATOM     21  C   UNL A   1      32.128  24.894  25.906  1.00  0.00     0.332 C 
ATOM     22  O   UNL A   1      31.023  24.923  25.371  1.00  0.00    -0.250 OA
BRANCH  21  23
ATOM     23  O   UNL A   1      32.930  25.977  26.094  1.00  0.00    -0.460 OA
BRANCH  23  24
ATOM     24  C   UNL A   1      32.275  27.166  26.587  1.00  0.00     0.274 C 
BRANCH  24  25
ATOM     25  C   UNL A   1      33.011  28.422  26.108  1.00  0.00     0.275 C 
BRANCH  25  26
ATOM     26  O   UNL A   1      34.215  28.592  26.881  1.00  0.00    -0.458 OA
BRANCH  26  27
ATOM     27  C   UNL A   1      34.538  29.859  27.278  1.00  0.00     0.338 C 
ATOM     28  O   UNL A   1      33.874  30.856  27.078  1.00  0.00    -0.246 OA
BRANCH  27  29
ATOM     29  C   UNL A   1      35.855  29.832  27.995  1.00  0.00     0.060 A 
ATOM     30  C   UNL A   1      35.879  29.517  29.337  1.00  0.00     0.016 A 
ATOM     31  C   UNL A   1      37.088  30.112  27.404  1.00  0.00     0.016 A 
ATOM     32  C   UNL A   1      37.090  29.421  30.053  1.00  0.00     0.010 A 
ATOM     33  C   UNL A   1      38.310  29.960  28.144  1.00  0.00     0.010 A 
ATOM     34  C   UNL A   1      38.339  29.557  29.499  1.00  0.00    -0.014 A 
BRANCH  34  35
ATOM     35  C   UNL A   1      39.586  29.419  30.370  1.00  0.00     0.031 A 
ATOM     36  C   UNL A   1      40.580  28.395  29.938  1.00  0.00     0.074 A 
ATOM     37  C   UNL A   1      40.091  30.231  31.347  1.00  0.00     0.049 A 
ATOM     38  N   UNL A   1      41.571  27.874  30.603  1.00  0.00    -0.248 NA
ATOM     39  C   UNL A   1      40.487  27.985  28.530  1.00  0.00     0.031 C 
ATOM     40  C   UNL A   1      39.755  31.611  31.615  1.00  0.00     0.029 A 
ATOM     41  N   UNL A   1      41.033  30.001  32.346  1.00  0.00    -0.354 N 
ATOM     42  C   UNL A   1      42.214  27.053  29.700  1.00  0.00     0.074 A 
ATOM     43  C   UNL A   1      41.481  27.118  28.452  1.00  0.00     0.031 C 
ATOM     44  C   UNL A   1      40.235  32.034  32.792  1.00  0.00     0.029 A 
ATOM     45  C   UNL A   1      41.051  30.976  33.338  1.00  0.00     0.049 A 
ATOM     46  H   UNL A   1      41.630  29.220  32.350  1.00  0.00     0.167 HD
ATOM     47  C   UNL A   1      43.329  26.319  29.886  1.00  0.00     0.031 A 
ATOM     48  C   UNL A   1      41.657  31.062  34.542  1.00  0.00     0.031 A 
ATOM     49  C   UNL A   1      44.107  26.280  31.089  1.00  0.00     0.049 A 
ATOM     50  C   UNL A   1      42.674  30.025  34.887  1.00  0.00     0.074 A 
ATOM     51  C   UNL A   1      45.174  25.451  31.383  1.00  0.00     0.029 A 
ATOM     52  N   UNL A   1      43.935  27.116  32.179  1.00  0.00    -0.354 N 
ATOM     53  N   UNL A   1      43.133  29.071  34.118  1.00  0.00    -0.248 NA
ATOM     54  C   UNL A   1      43.307  30.098  36.212  1.00  0.00     0.031 C 
ATOM     55  C   UNL A   1      45.618  25.751  32.675  1.00  0.00     0.029 A 
ATOM     56  C   UNL A   1      44.857  26.799  33.165  1.00  0.00     0.049 A 
ATOM     57  H   UNL A   1      43.259  27.829  32.245  1.00  0.00     0.167 HD
ATOM     58  C   UNL A   1      44.153  28.472  34.836  1.00  0.00     0.074 A 
ATOM     59  C   UNL A   1      44.237  29.156  36.110  1.00  0.00     0.031 C 
ATOM     60  C   UNL A   1      44.957  27.460  34.440  1.00  0.00     0.031 A 
BRANCH  47  61
ATOM     61  C   UNL A   1      43.676  25.404  28.762  1.00  0.00    -0.014 A 
ATOM     62  C   UNL A   1      44.622  25.754  27.787  1.00  0.00     0.010 A 
ATOM     63  C   UNL A   1      42.964  24.197  28.656  1.00  0.00     0.010 A 
ATOM     64  C   UNL A   1      44.827  24.916  26.693  1.00  0.00     0.020 A 
ATOM     65  C   UNL A   1      43.185  23.347  27.579  1.00  0.00     0.020 A 
ATOM     66  C   UNL A   1      44.104  23.721  26.596  1.00  0.00     0.054 A 
BRANCH  66  67
ATOM     67  S   UNL A   1      44.392  22.640  25.173  1.00  0.00     0.124 S 
ATOM     68  O   UNL A   1      44.708  23.605  24.123  1.00  0.00    -0.237 OA
ATOM     69  O   UNL A   1      45.507  21.810  25.623  1.00  0.00    -0.237 OA
ATOM     70  O   UNL A   1      43.122  21.936  25.012  1.00  0.00    -0.744 OA
ENDBRANCH  66  67
ENDBRANCH  47  61
BRANCH  48  71
ATOM     71  C   UNL A   1      41.340  32.157  35.516  1.00  0.00    -0.014 A 
ATOM     72  C   UNL A   1      40.366  31.999  36.520  1.00  0.00     0.010 A 
ATOM     73  C   UNL A   1      41.964  33.413  35.380  1.00  0.00     0.010 A 
ATOM     74  C   UNL A   1      39.999  33.077  37.339  1.00  0.00     0.020 A 
ATOM     75  C   UNL A   1      41.613  34.489  36.206  1.00  0.00     0.020 A 
ATOM     76  C   UNL A   1      40.619  34.319  37.171  1.00  0.00     0.054 A 
BRANCH  76  77
ATOM     77  S   UNL A   1      40.128  35.706  38.242  1.00  0.00     0.124 S 
ATOM     78  O   UNL A   1      41.307  35.873  39.085  1.00  0.00    -0.237 OA
ATOM     79  O   UNL A   1      39.882  36.776  37.279  1.00  0.00    -0.237 OA
ATOM     80  O   UNL A   1      38.937  35.206  38.924  1.00  0.00    -0.744 OA
ENDBRANCH  76  77
ENDBRANCH  48  71
BRANCH  60  81
ATOM     81  C   UNL A   1      46.037  27.030  35.386  1.00  0.00    -0.014 A 
ATOM     82  C   UNL A   1      47.272  27.699  35.425  1.00  0.00     0.010 A 
ATOM     83  C   UNL A   1      45.794  25.973  36.281  1.00  0.00     0.010 A 
ATOM     84  C   UNL A   1      48.257  27.302  36.332  1.00  0.00     0.020 A 
ATOM     85  C   UNL A   1      46.767  25.591  37.206  1.00  0.00     0.020 A 
ATOM     86  C   UNL A   1      47.997  26.251  37.217  1.00  0.00     0.054 A 
BRANCH  86  87
ATOM     87  S   UNL A   1      49.269  25.795  38.425  1.00  0.00     0.124 S 
ATOM     88  O   UNL A   1      50.418  25.519  37.567  1.00  0.00    -0.237 OA
ATOM     89  O   UNL A   1      49.374  26.996  39.251  1.00  0.00    -0.237 OA
ATOM     90  O   UNL A   1      48.702  24.631  39.102  1.00  0.00    -0.744 OA
ENDBRANCH  86  87
ENDBRANCH  60  81
ENDBRANCH  34  35
ENDBRANCH  27  29
ENDBRANCH  26  27
ENDBRANCH  25  26
ENDBRANCH  24  25
ENDBRANCH  23  24
ENDBRANCH  21  23
ENDBRANCH  20  21
ENDBRANCH  19  20
ENDBRANCH   1  19
TORSDOF 27
ENDMDL
MODEL 3
REMARK VINA RESULT:      -8.3      6.537     12.134
REMARK SMILES CC/C=C/C/C=C/C/C=C/C/C=C/CC/C=C/COCC(=O)OCCOC(=O)c1ccc(-c2c3nc(c(-c4ccc(S(=O)(=O)[O-])cc4)c4ccc([nH]4)c(-c4ccc(S(=O)(=O)[O-])cc4)c4nc(c(-c5ccc(S(=O)(=O)[O-])cc5)c5ccc2[nH]5)C=C4)C=C3)cc1
REMARK SMILES IDX 18 1 17 2 16 3 15 4 14 5 13 6 12 7 11 8 10 9 9 10 8 11 7 12
REMARK SMILES IDX 6 13 5 14 4 15 3 16 2 17 1 18 19 19 20 20 21 21 22 22 23 23
REMARK SMILES IDX 24 24 25 25 26 26 27 27 28 28 29 29 30 30 88 31 31 32 87 33
REMARK SMILES IDX 32 34 33 35 34 36 81 37 35 38 86 39 80 40 82 41 36 42 85 43
REMARK SMILES IDX 79 44 78 45 37 47 67 48 48 49 66 50 49 51 52 52 65 53 83 54
REMARK SMILES IDX 50 55 51 56 64 58 84 59 53 60 38 61 39 62 47 63 40 64 46 65
REMARK SMILES IDX 41 66 42 67 43 68 44 69 45 70 68 71 69 72 77 73 70 74 76 75
REMARK SMILES IDX 71 76 72 77 73 78 74 79 75 80 54 81 55 82 63 83 56 84 62 85
REMARK SMILES IDX 57 86 58 87 59 88 60 89 61 90
REMARK H PARENT 82 46 52 57
REMARK Flexibility Score: inf
ROOT
ATOM      1  C   UNL A   1      34.134  20.536  26.256  1.00  0.00     0.188 C 
ENDROOT
BRANCH   1   2
ATOM      2  C   UNL A   1      32.910  20.339  25.401  1.00  0.00    -0.003 C 
ATOM      3  C   UNL A   1      33.039  19.903  24.143  1.00  0.00    -0.029 C 
BRANCH   3   4
ATOM      4  C   UNL A   1      32.070  20.056  22.999  1.00  0.00     0.031 C 
BRANCH   4   5
ATOM      5  C   UNL A   1      31.955  21.488  22.291  1.00  0.00     0.031 C 
BRANCH   5   6
ATOM      6  C   UNL A   1      32.596  22.862  22.700  1.00  0.00    -0.031 C 
ATOM      7  C   UNL A   1      33.896  23.198  22.932  1.00  0.00    -0.027 C 
BRANCH   7   8
ATOM      8  C   UNL A   1      34.603  24.512  23.244  1.00  0.00     0.054 C 
BRANCH   8   9
ATOM      9  C   UNL A   1      33.737  25.777  23.169  1.00  0.00    -0.027 C 
ATOM     10  C   UNL A   1      33.817  26.926  23.886  1.00  0.00    -0.027 C 
BRANCH  10  11
ATOM     11  C   UNL A   1      32.979  28.177  23.607  1.00  0.00     0.054 C 
BRANCH  11  12
ATOM     12  C   UNL A   1      31.585  27.930  23.053  1.00  0.00    -0.027 C 
ATOM     13  C   UNL A   1      30.443  28.347  23.646  1.00  0.00    -0.027 C 
BRANCH  13  14
ATOM     14  C   UNL A   1      29.044  28.213  23.081  1.00  0.00     0.054 C 
BRANCH  14  15
ATOM     15  C   UNL A   1      28.473  29.547  22.672  1.00  0.00    -0.027 C 
ATOM     16  C   UNL A   1      28.515  30.679  23.399  1.00  0.00    -0.031 C 
BRANCH  16  17
ATOM     17  C   UNL A   1      27.972  31.998  22.910  1.00  0.00     0.023 C 
ATOM     18  C   UNL A   1      28.967  33.134  23.092  1.00  0.00     0.008 C 
ENDBRANCH  16  17
ENDBRANCH  14  15
ENDBRANCH  13  14
ENDBRANCH  11  12
ENDBRANCH  10  11
ENDBRANCH   8   9
ENDBRANCH   7   8
ENDBRANCH   5   6
ENDBRANCH   4   5
ENDBRANCH   3   4
ENDBRANCH   1   2
BRANCH   1  19
ATOM     19  O   UNL A   1      35.026  21.486  25.658  1.00  0.00    -0.366 OA
BRANCH  19  20
ATOM     20  C   UNL A   1      36.413  21.236  25.824  1.00  0.00     0.283 C 
BRANCH  20  21
ATOM     21  C   UNL A   1      37.489  21.876  24.948  1.00  0.00     0.332 C 
ATOM     22  O   UNL A   1      37.238  22.757  24.129  1.00  0.00    -0.250 OA
BRANCH  21  23
ATOM     23  O   UNL A   1      38.741  21.463  25.284  1.00  0.00    -0.460 OA
BRANCH  23  24
ATOM     24  C   UNL A   1      39.156  21.752  26.637  1.00  0.00     0.274 C 
BRANCH  24  25
ATOM     25  C   UNL A   1      40.348  22.715  26.639  1.00  0.00     0.275 C 
BRANCH  25  26
ATOM     26  O   UNL A   1      40.077  23.806  27.540  1.00  0.00    -0.458 OA
BRANCH  26  27
ATOM     27  C   UNL A   1      39.440  24.902  27.032  1.00  0.00     0.338 C 
ATOM     28  O   UNL A   1      38.872  24.960  25.960  1.00  0.00    -0.246 OA
BRANCH  27  29
ATOM     29  C   UNL A   1      39.559  26.039  28.004  1.00  0.00     0.060 A 
ATOM     30  C   UNL A   1      38.990  25.912  29.253  1.00  0.00     0.016 A 
ATOM     31  C   UNL A   1      40.208  27.246  27.739  1.00  0.00     0.016 A 
ATOM     32  C   UNL A   1      39.117  26.923  30.229  1.00  0.00     0.010 A 
ATOM     33  C   UNL A   1      40.364  28.238  28.766  1.00  0.00     0.010 A 
ATOM     34  C   UNL A   1      39.852  28.072  30.074  1.00  0.00    -0.014 A 
BRANCH  34  35
ATOM     35  C   UNL A   1      39.929  29.094  31.206  1.00  0.00     0.031 A 
ATOM     36  C   UNL A   1      41.114  28.990  32.106  1.00  0.00     0.074 A 
ATOM     37  C   UNL A   1      39.239  30.256  31.415  1.00  0.00     0.049 A 
ATOM     38  N   UNL A   1      41.310  29.522  33.278  1.00  0.00    -0.248 NA
ATOM     39  C   UNL A   1      42.263  28.261  31.551  1.00  0.00     0.031 C 
ATOM     40  C   UNL A   1      38.459  31.007  30.458  1.00  0.00     0.029 A 
ATOM     41  N   UNL A   1      39.068  31.039  32.552  1.00  0.00    -0.354 N 
ATOM     42  C   UNL A   1      42.601  29.176  33.616  1.00  0.00     0.074 A 
ATOM     43  C   UNL A   1      43.130  28.359  32.542  1.00  0.00     0.031 C 
ATOM     44  C   UNL A   1      37.707  31.951  31.041  1.00  0.00     0.029 A 
ATOM     45  C   UNL A   1      38.043  31.974  32.445  1.00  0.00     0.049 A 
ATOM     46  H   UNL A   1      39.622  30.941  33.359  1.00  0.00     0.167 HD
ATOM     47  C   UNL A   1      43.298  29.521  34.718  1.00  0.00     0.031 A 
ATOM     48  C   UNL A   1      37.435  32.790  33.333  1.00  0.00     0.031 A 
ATOM     49  C   UNL A   1      42.824  30.374  35.767  1.00  0.00     0.049 A 
ATOM     50  C   UNL A   1      38.036  32.910  34.694  1.00  0.00     0.074 A 
ATOM     51  C   UNL A   1      43.434  30.653  36.975  1.00  0.00     0.029 A 
ATOM     52  N   UNL A   1      41.652  31.111  35.730  1.00  0.00    -0.354 N 
ATOM     53  N   UNL A   1      39.156  32.385  35.121  1.00  0.00    -0.248 NA
ATOM     54  C   UNL A   1      37.354  33.770  35.672  1.00  0.00     0.031 C 
ATOM     55  C   UNL A   1      42.607  31.522  37.694  1.00  0.00     0.029 A 
ATOM     56  C   UNL A   1      41.504  31.819  36.912  1.00  0.00     0.049 A 
ATOM     57  H   UNL A   1      41.018  31.129  34.976  1.00  0.00     0.167 HD
ATOM     58  C   UNL A   1      39.349  32.901  36.390  1.00  0.00     0.074 A 
ATOM     59  C   UNL A   1      38.224  33.768  36.674  1.00  0.00     0.031 C 
ATOM     60  C   UNL A   1      40.394  32.683  37.219  1.00  0.00     0.031 A 
BRANCH  47  61
ATOM     61  C   UNL A   1      44.617  28.844  34.867  1.00  0.00    -0.014 A 
ATOM     62  C   UNL A   1      44.730  27.554  35.406  1.00  0.00     0.010 A 
ATOM     63  C   UNL A   1      45.770  29.572  34.524  1.00  0.00     0.010 A 
ATOM     64  C   UNL A   1      45.993  27.009  35.633  1.00  0.00     0.020 A 
ATOM     65  C   UNL A   1      47.030  29.021  34.726  1.00  0.00     0.020 A 
ATOM     66  C   UNL A   1      47.133  27.750  35.294  1.00  0.00     0.054 A 
BRANCH  66  67
ATOM     67  S   UNL A   1      48.764  27.022  35.587  1.00  0.00     0.124 S 
ATOM     68  O   UNL A   1      48.608  25.692  35.003  1.00  0.00    -0.237 OA
ATOM     69  O   UNL A   1      49.652  27.928  34.862  1.00  0.00    -0.237 OA
ATOM     70  O   UNL A   1      48.900  27.053  37.040  1.00  0.00    -0.744 OA
ENDBRANCH  66  67
ENDBRANCH  47  61
BRANCH  48  71
ATOM     71  C   UNL A   1      36.199  33.564  32.985  1.00  0.00    -0.014 A 
ATOM     72  C   UNL A   1      36.263  34.839  32.394  1.00  0.00     0.010 A 
ATOM     73  C   UNL A   1      34.934  33.050  33.334  1.00  0.00     0.010 A 
ATOM     74  C   UNL A   1      35.099  35.596  32.191  1.00  0.00     0.020 A 
ATOM     75  C   UNL A   1      33.766  33.795  33.120  1.00  0.00     0.020 A 
ATOM     76  C   UNL A   1      33.857  35.071  32.564  1.00  0.00     0.054 A 
BRANCH  76  77
ATOM     77  S   UNL A   1      32.360  36.068  32.297  1.00  0.00     0.124 S 
ATOM     78  O   UNL A   1      32.541  37.154  33.254  1.00  0.00    -0.237 OA
ATOM     79  O   UNL A   1      32.475  36.440  30.889  1.00  0.00    -0.237 OA
ATOM     80  O   UNL A   1      31.272  35.141  32.601  1.00  0.00    -0.744 OA
ENDBRANCH  76  77
ENDBRANCH  48  71
BRANCH  60  81
ATOM     81  C   UNL A   1      40.398  33.416  38.527  1.00  0.00    -0.014 A 
ATOM     82  C   UNL A   1      39.479  33.093  39.539  1.00  0.00     0.010 A 
ATOM     83  C   UNL A   1      41.366  34.409  38.761  1.00  0.00     0.010 A 
ATOM     84  C   UNL A   1      39.515  33.768  40.760  1.00  0.00     0.020 A 
ATOM     85  C   UNL A   1      41.420  35.068  39.991  1.00  0.00     0.020 A 
ATOM     86  C   UNL A   1      40.486  34.751  40.979  1.00  0.00     0.054 A 
BRANCH  86  87
ATOM     87  S   UNL A   1      40.549  35.569  42.595  1.00  0.00     0.124 S 
ATOM     88  O   UNL A   1      40.780  34.444  43.496  1.00  0.00    -0.237 OA
ATOM     89  O   UNL A   1      41.670  36.494  42.443  1.00  0.00    -0.237 OA
ATOM     90  O   UNL A   1      39.239  36.204  42.712  1.00  0.00    -0.744 OA
ENDBRANCH  86  87
ENDBRANCH  60  81
ENDBRANCH  34  35
ENDBRANCH  27  29
ENDBRANCH  26  27
ENDBRANCH  25  26
ENDBRANCH  24  25
ENDBRANCH  23  24
ENDBRANCH  21  23
ENDBRANCH  20  21
ENDBRANCH  19  20
ENDBRANCH   1  19
TORSDOF 27
ENDMDL
