MODEL 1
REMARK VINA RESULT:     -11.1      0.000      0.000
REMARK SMILES Cc1ccccc1C(=O)Nc1cc(C(=O)OCCOC(=O)c2ccc(-c3c4nc(c(-c5ccc(S(=O)(=O)[O-])cc5)c5ccc([nH]5)c(-c5ccc(S(=O)(=O)[O-])cc5)c5nc(c(-c6ccc(S(=O)(=O)[O-])cc6)c6ccc3[nH]6)C=C5)C=C4)cc2)ccc1N1CC[NH+](CC(=O)Nc2ccc(F)cc2)CC1
REMARK SMILES IDX 17 1 16 2 14 3 15 4 13 5 11 6 12 7 84 8 83 9 82 10 10 11
REMARK SMILES IDX 8 12 9 13 7 15 1 16 2 17 3 18 4 19 6 20 5 21 85 22 86 23
REMARK SMILES IDX 101 24 87 25 100 26 88 27 89 29 90 30 91 31 92 32 93 34
REMARK SMILES IDX 94 35 99 36 95 37 98 38 96 39 97 40 18 41 19 42 20 43 21 44
REMARK SMILES IDX 22 45 23 46 81 47 24 48 80 49 25 50 26 51 27 52 74 53 28 54
REMARK SMILES IDX 79 55 73 56 75 57 29 58 78 59 72 60 71 61 30 63 60 64 41 65
REMARK SMILES IDX 59 66 42 67 45 68 58 69 76 70 43 71 44 72 57 74 77 75 46 76
REMARK SMILES IDX 31 77 32 78 40 79 33 80 39 81 34 82 35 83 36 84 37 85 38 86
REMARK SMILES IDX 61 87 62 88 70 89 63 90 69 91 64 92 65 93 66 94 67 95 68 96
REMARK SMILES IDX 47 97 48 98 56 99 49 100 55 101 50 102 51 103 52 104 53 105
REMARK SMILES IDX 54 106
REMARK H PARENT 10 14 88 28 92 33 75 62 45 73
REMARK Flexibility Score: inf
ROOT
ATOM      1  C   UNL A   1      48.036  26.539  24.379  1.00  0.00     0.275 C 
ENDROOT
BRANCH   1   2
ATOM      2  O   UNL A   1      46.705  26.530  24.870  1.00  0.00    -0.458 OA
BRANCH   2   3
ATOM      3  C   UNL A   1      46.046  27.704  24.685  1.00  0.00     0.338 C 
ATOM      4  O   UNL A   1      46.527  28.708  24.199  1.00  0.00    -0.246 OA
BRANCH   3   5
ATOM      5  C   UNL A   1      44.633  27.409  25.223  1.00  0.00     0.062 A 
ATOM      6  C   UNL A   1      42.842  28.960  27.166  1.00  0.00     0.065 A 
ATOM      7  C   UNL A   1      44.353  28.809  26.322  1.00  0.00     0.044 A 
ATOM      8  C   UNL A   1      41.521  27.749  27.056  1.00  0.00     0.061 A 
ATOM      9  C   UNL A   1      41.613  26.329  26.025  1.00  0.00     0.029 A 
ATOM     10  C   UNL A   1      43.114  26.058  25.057  1.00  0.00     0.018 A 
BRANCH   6  11
ATOM     11  N   UNL A   1      42.637  30.093  28.011  1.00  0.00    -0.320 N 
ATOM     12  C   UNL A   1      43.391  30.647  29.052  1.00  0.00     0.255 C 
ATOM     13  O   UNL A   1      42.955  31.637  29.644  1.00  0.00    -0.269 OA
ATOM     14  H   UNL A   1      41.802  30.578  27.826  1.00  0.00     0.170 HD
BRANCH  12  15
ATOM     15  C   UNL A   1      44.745  30.146  29.429  1.00  0.00     0.043 A 
ATOM     16  C   UNL A   1      43.953  27.901  30.174  1.00  0.00     0.045 C 
ATOM     17  C   UNL A   1      44.878  29.065  30.270  1.00  0.00    -0.038 A 
ATOM     18  C   UNL A   1      46.016  29.011  31.068  1.00  0.00     0.004 A 
ATOM     19  C   UNL A   1      47.185  29.639  30.691  1.00  0.00     0.000 A 
ATOM     20  C   UNL A   1      45.928  30.727  28.956  1.00  0.00     0.014 A 
ATOM     21  C   UNL A   1      47.164  30.404  29.540  1.00  0.00     0.001 A 
ENDBRANCH  12  15
ENDBRANCH   6  11
BRANCH   8  22
ATOM     22  N   UNL A   1      40.381  27.967  27.863  1.00  0.00    -0.359 N 
ATOM     23  C   UNL A   1      39.424  29.098  27.731  1.00  0.00     0.178 C 
ATOM     24  C   UNL A   1      40.579  27.587  29.250  1.00  0.00     0.178 C 
ATOM     25  C   UNL A   1      38.169  28.923  28.697  1.00  0.00     0.284 C 
ATOM     26  C   UNL A   1      39.224  27.117  29.804  1.00  0.00     0.284 C 
ATOM     27  N   UNL A   1      38.337  28.245  30.001  1.00  0.00    -0.324 N 
ATOM     28  H   UNL A   1      37.377  27.998  30.242  1.00  0.00     0.348 HD
BRANCH  27  29
ATOM     29  C   UNL A   1      38.632  28.987  31.248  1.00  0.00     0.364 C 
BRANCH  29  30
ATOM     30  C   UNL A   1      37.515  29.311  32.247  1.00  0.00     0.279 C 
ATOM     31  O   UNL A   1      37.409  28.576  33.246  1.00  0.00    -0.268 OA
ATOM     32  N   UNL A   1      36.671  30.391  32.253  1.00  0.00    -0.321 N 
ATOM     33  H   UNL A   1      36.298  30.489  33.158  1.00  0.00     0.170 HD
BRANCH  32  34
ATOM     34  C   UNL A   1      36.136  31.425  31.434  1.00  0.00     0.041 A 
ATOM     35  C   UNL A   1      35.147  32.226  32.035  1.00  0.00     0.029 A 
ATOM     36  C   UNL A   1      36.368  31.679  30.085  1.00  0.00     0.029 A 
ATOM     37  C   UNL A   1      34.452  33.225  31.326  1.00  0.00     0.041 A 
ATOM     38  C   UNL A   1      35.650  32.639  29.348  1.00  0.00     0.041 A 
ATOM     39  C   UNL A   1      34.708  33.419  29.982  1.00  0.00     0.123 A 
ATOM     40  F   UNL A   1      34.042  34.353  29.292  1.00  0.00    -0.207 F 
ENDBRANCH  32  34
ENDBRANCH  29  30
ENDBRANCH  27  29
ENDBRANCH   8  22
ENDBRANCH   3   5
ENDBRANCH   2   3
ENDBRANCH   1   2
BRANCH   1  41
ATOM     41  C   UNL A   1      48.960  27.131  25.458  1.00  0.00     0.275 C 
BRANCH  41  42
ATOM     42  O   UNL A   1      48.886  26.445  26.726  1.00  0.00    -0.458 OA
BRANCH  42  43
ATOM     43  C   UNL A   1      48.215  27.012  27.781  1.00  0.00     0.338 C 
ATOM     44  O   UNL A   1      47.520  28.010  27.737  1.00  0.00    -0.246 OA
BRANCH  43  45
ATOM     45  C   UNL A   1      48.199  25.977  28.867  1.00  0.00     0.060 A 
ATOM     46  C   UNL A   1      49.239  26.184  30.323  1.00  0.00     0.016 A 
ATOM     47  C   UNL A   1      46.611  25.369  29.090  1.00  0.00     0.016 A 
ATOM     48  C   UNL A   1      48.440  25.790  32.162  1.00  0.00     0.010 A 
ATOM     49  C   UNL A   1      45.914  25.070  30.644  1.00  0.00     0.010 A 
ATOM     50  C   UNL A   1      46.676  25.292  32.237  1.00  0.00    -0.014 A 
BRANCH  50  51
ATOM     51  C   UNL A   1      45.539  25.532  33.324  1.00  0.00     0.031 A 
ATOM     52  C   UNL A   1      44.897  26.840  33.765  1.00  0.00     0.074 A 
ATOM     53  C   UNL A   1      44.858  24.449  33.821  1.00  0.00     0.049 A 
ATOM     54  N   UNL A   1      43.621  27.133  33.664  1.00  0.00    -0.248 NA
ATOM     55  C   UNL A   1      45.653  27.928  34.395  1.00  0.00     0.031 C 
ATOM     56  C   UNL A   1      43.647  24.350  34.641  1.00  0.00     0.029 A 
ATOM     57  N   UNL A   1      45.217  23.095  33.788  1.00  0.00    -0.354 N 
ATOM     58  C   UNL A   1      43.384  28.428  34.151  1.00  0.00     0.074 A 
ATOM     59  C   UNL A   1      44.727  28.896  34.510  1.00  0.00     0.031 C 
ATOM     60  C   UNL A   1      43.676  23.191  35.340  1.00  0.00     0.029 A 
ATOM     61  C   UNL A   1      44.931  22.524  35.018  1.00  0.00     0.049 A 
ATOM     62  H   UNL A   1      45.608  22.625  33.017  1.00  0.00     0.167 HD
ATOM     63  C   UNL A   1      42.388  28.678  35.057  1.00  0.00     0.031 A 
ATOM     64  C   UNL A   1      45.995  22.206  35.808  1.00  0.00     0.031 A 
ATOM     65  C   UNL A   1      42.317  27.647  36.060  1.00  0.00     0.049 A 
ATOM     66  C   UNL A   1      45.964  23.157  36.970  1.00  0.00     0.074 A 
ATOM     67  C   UNL A   1      41.481  26.579  36.300  1.00  0.00     0.029 A 
ATOM     68  N   UNL A   1      43.407  27.507  36.900  1.00  0.00    -0.354 N 
ATOM     69  N   UNL A   1      45.450  24.358  36.891  1.00  0.00    -0.248 NA
ATOM     70  C   UNL A   1      46.319  22.781  38.332  1.00  0.00     0.031 C 
ATOM     71  C   UNL A   1      42.170  25.711  37.199  1.00  0.00     0.029 A 
ATOM     72  C   UNL A   1      43.397  26.280  37.517  1.00  0.00     0.049 A 
ATOM     73  H   UNL A   1      44.097  28.196  37.038  1.00  0.00     0.167 HD
ATOM     74  C   UNL A   1      45.222  24.819  38.148  1.00  0.00     0.074 A 
ATOM     75  C   UNL A   1      45.849  23.837  39.019  1.00  0.00     0.031 C 
ATOM     76  C   UNL A   1      44.473  25.923  38.427  1.00  0.00     0.031 A 
BRANCH  63  77
ATOM     77  C   UNL A   1      41.425  29.846  34.925  1.00  0.00    -0.014 A 
ATOM     78  C   UNL A   1      40.285  29.910  35.759  1.00  0.00     0.010 A 
ATOM     79  C   UNL A   1      41.558  30.884  33.975  1.00  0.00     0.010 A 
ATOM     80  C   UNL A   1      39.309  30.918  35.631  1.00  0.00     0.020 A 
ATOM     81  C   UNL A   1      40.586  31.908  33.844  1.00  0.00     0.020 A 
ATOM     82  C   UNL A   1      39.457  31.907  34.663  1.00  0.00     0.054 A 
BRANCH  82  83
ATOM     83  S   UNL A   1      38.138  33.152  34.478  1.00  0.00     0.124 S 
ATOM     84  O   UNL A   1      38.213  33.482  33.056  1.00  0.00    -0.237 OA
ATOM     85  O   UNL A   1      36.942  32.418  34.884  1.00  0.00    -0.237 OA
ATOM     86  O   UNL A   1      38.539  34.228  35.381  1.00  0.00    -0.744 OA
ENDBRANCH  82  83
ENDBRANCH  63  77
BRANCH  64  87
ATOM     87  C   UNL A   1      47.170  21.684  35.003  1.00  0.00    -0.014 A 
ATOM     88  C   UNL A   1      48.248  22.589  34.796  1.00  0.00     0.010 A 
ATOM     89  C   UNL A   1      47.437  20.318  34.798  1.00  0.00     0.010 A 
ATOM     90  C   UNL A   1      49.559  22.147  34.545  1.00  0.00     0.020 A 
ATOM     91  C   UNL A   1      48.751  19.871  34.503  1.00  0.00     0.020 A 
ATOM     92  C   UNL A   1      49.810  20.785  34.418  1.00  0.00     0.054 A 
BRANCH  92  93
ATOM     93  S   UNL A   1      51.553  20.230  34.328  1.00  0.00     0.124 S 
ATOM     94  O   UNL A   1      52.213  21.119  35.278  1.00  0.00    -0.237 OA
ATOM     95  O   UNL A   1      51.473  18.830  34.742  1.00  0.00    -0.237 OA
ATOM     96  O   UNL A   1      51.913  20.436  32.927  1.00  0.00    -0.744 OA
ENDBRANCH  92  93
ENDBRANCH  64  87
BRANCH  76  97
ATOM     97  C   UNL A   1      44.695  26.732  39.667  1.00  0.00    -0.014 A 
ATOM     98  C   UNL A   1      44.168  26.343  40.908  1.00  0.00     0.010 A 
ATOM     99  C   UNL A   1      45.586  27.828  39.650  1.00  0.00     0.010 A 
ATOM    100  C   UNL A   1      44.396  27.092  42.054  1.00  0.00     0.020 A 
ATOM    101  C   UNL A   1      45.885  28.540  40.810  1.00  0.00     0.020 A 
ATOM    102  C   UNL A   1      45.244  28.194  41.995  1.00  0.00     0.054 A 
BRANCH 102 103
ATOM    103  S   UNL A   1      45.502  29.151  43.499  1.00  0.00     0.124 S 
ATOM    104  O   UNL A   1      44.491  30.196  43.357  1.00  0.00    -0.237 OA
ATOM    105  O   UNL A   1      45.247  28.167  44.549  1.00  0.00    -0.237 OA
ATOM    106  O   UNL A   1      46.889  29.595  43.390  1.00  0.00    -0.744 OA
ENDBRANCH 102 103
ENDBRANCH  76  97
ENDBRANCH  50  51
ENDBRANCH  43  45
ENDBRANCH  42  43
ENDBRANCH  41  42
ENDBRANCH   1  41
TORSDOF 20
ENDMDL
MODEL 2
REMARK VINA RESULT:     -11.1      6.194     13.799
REMARK SMILES Cc1ccccc1C(=O)Nc1cc(C(=O)OCCOC(=O)c2ccc(-c3c4nc(c(-c5ccc(S(=O)(=O)[O-])cc5)c5ccc([nH]5)c(-c5ccc(S(=O)(=O)[O-])cc5)c5nc(c(-c6ccc(S(=O)(=O)[O-])cc6)c6ccc3[nH]6)C=C5)C=C4)cc2)ccc1N1CC[NH+](CC(=O)Nc2ccc(F)cc2)CC1
REMARK SMILES IDX 17 1 16 2 14 3 15 4 13 5 11 6 12 7 84 8 83 9 82 10 10 11
REMARK SMILES IDX 8 12 9 13 7 15 1 16 2 17 3 18 4 19 6 20 5 21 85 22 86 23
REMARK SMILES IDX 101 24 87 25 100 26 88 27 89 29 90 30 91 31 92 32 93 34
REMARK SMILES IDX 94 35 99 36 95 37 98 38 96 39 97 40 18 41 19 42 20 43 21 44
REMARK SMILES IDX 22 45 23 46 81 47 24 48 80 49 25 50 26 51 27 52 74 53 28 54
REMARK SMILES IDX 79 55 73 56 75 57 29 58 78 59 72 60 71 61 30 63 60 64 41 65
REMARK SMILES IDX 59 66 42 67 45 68 58 69 76 70 43 71 44 72 57 74 77 75 46 76
REMARK SMILES IDX 31 77 32 78 40 79 33 80 39 81 34 82 35 83 36 84 37 85 38 86
REMARK SMILES IDX 61 87 62 88 70 89 63 90 69 91 64 92 65 93 66 94 67 95 68 96
REMARK SMILES IDX 47 97 48 98 56 99 49 100 55 101 50 102 51 103 52 104 53 105
REMARK SMILES IDX 54 106
REMARK H PARENT 10 14 88 28 92 33 75 62 45 73
REMARK Flexibility Score: inf
ROOT
ATOM      1  C   UNL A   1      41.273  34.887  38.464  1.00  0.00     0.275 C 
ENDROOT
BRANCH   1   2
ATOM      2  O   UNL A   1      41.259  33.481  38.272  1.00  0.00    -0.458 OA
BRANCH   2   3
ATOM      3  C   UNL A   1      40.012  32.940  38.294  1.00  0.00     0.338 C 
ATOM      4  O   UNL A   1      39.522  32.347  39.233  1.00  0.00    -0.246 OA
BRANCH   3   5
ATOM      5  C   UNL A   1      39.454  33.276  36.898  1.00  0.00     0.062 A 
ATOM      6  C   UNL A   1      38.189  31.500  34.744  1.00  0.00     0.065 A 
ATOM      7  C   UNL A   1      38.937  31.654  36.304  1.00  0.00     0.044 A 
ATOM      8  C   UNL A   1      37.936  32.883  33.626  1.00  0.00     0.061 A 
ATOM      9  C   UNL A   1      38.364  34.536  34.041  1.00  0.00     0.029 A 
ATOM     10  C   UNL A   1      39.122  34.855  35.651  1.00  0.00     0.018 A 
BRANCH   6  11
ATOM     11  N   UNL A   1      37.767  30.207  34.309  1.00  0.00    -0.320 N 
ATOM     12  C   UNL A   1      38.215  29.357  33.291  1.00  0.00     0.255 C 
ATOM     13  O   UNL A   1      37.639  28.282  33.114  1.00  0.00    -0.269 OA
ATOM     14  H   UNL A   1      37.013  29.843  34.825  1.00  0.00     0.170 HD
BRANCH  12  15
ATOM     15  C   UNL A   1      39.418  29.652  32.458  1.00  0.00     0.043 A 
ATOM     16  C   UNL A   1      41.065  28.825  34.140  1.00  0.00     0.045 C 
ATOM     17  C   UNL A   1      40.662  29.744  33.038  1.00  0.00    -0.038 A 
ATOM     18  C   UNL A   1      41.589  30.585  32.433  1.00  0.00     0.004 A 
ATOM     19  C   UNL A   1      41.522  30.874  31.085  1.00  0.00     0.000 A 
ATOM     20  C   UNL A   1      39.352  29.840  31.073  1.00  0.00     0.014 A 
ATOM     21  C   UNL A   1      40.446  30.377  30.373  1.00  0.00     0.001 A 
ENDBRANCH  12  15
ENDBRANCH   6  11
BRANCH   8  22
ATOM     22  N   UNL A   1      37.386  32.590  32.356  1.00  0.00    -0.359 N 
ATOM     23  C   UNL A   1      37.827  33.174  31.061  1.00  0.00     0.178 C 
ATOM     24  C   UNL A   1      35.952  32.371  32.390  1.00  0.00     0.178 C 
ATOM     25  C   UNL A   1      37.097  32.481  29.826  1.00  0.00     0.284 C 
ATOM     26  C   UNL A   1      35.608  31.360  31.284  1.00  0.00     0.284 C 
ATOM     27  N   UNL A   1      35.714  31.979  29.978  1.00  0.00    -0.324 N 
ATOM     28  H   UNL A   1      35.628  31.336  29.191  1.00  0.00     0.348 HD
BRANCH  27  29
ATOM     29  C   UNL A   1      34.530  32.804  29.645  1.00  0.00     0.364 C 
BRANCH  29  30
ATOM     30  C   UNL A   1      34.090  32.986  28.188  1.00  0.00     0.279 C 
ATOM     31  O   UNL A   1      34.148  34.134  27.710  1.00  0.00    -0.268 OA
ATOM     32  N   UNL A   1      33.743  32.017  27.281  1.00  0.00    -0.321 N 
ATOM     33  H   UNL A   1      33.820  32.397  26.377  1.00  0.00     0.170 HD
BRANCH  32  34
ATOM     34  C   UNL A   1      33.312  30.666  27.165  1.00  0.00     0.041 A 
ATOM     35  C   UNL A   1      34.337  29.701  27.140  1.00  0.00     0.029 A 
ATOM     36  C   UNL A   1      32.027  30.174  26.953  1.00  0.00     0.029 A 
ATOM     37  C   UNL A   1      34.080  28.333  26.932  1.00  0.00     0.041 A 
ATOM     38  C   UNL A   1      31.755  28.817  26.695  1.00  0.00     0.041 A 
ATOM     39  C   UNL A   1      32.786  27.902  26.705  1.00  0.00     0.123 A 
ATOM     40  F   UNL A   1      32.530  26.607  26.488  1.00  0.00    -0.207 F 
ENDBRANCH  32  34
ENDBRANCH  29  30
ENDBRANCH  27  29
ENDBRANCH   8  22
ENDBRANCH   3   5
ENDBRANCH   2   3
ENDBRANCH   1   2
BRANCH   1  41
ATOM     41  C   UNL A   1      42.541  35.465  37.810  1.00  0.00     0.275 C 
BRANCH  41  42
ATOM     42  O   UNL A   1      43.507  34.462  37.429  1.00  0.00    -0.458 OA
BRANCH  42  43
ATOM     43  C   UNL A   1      44.257  34.621  36.290  1.00  0.00     0.338 C 
ATOM     44  O   UNL A   1      45.345  34.123  36.072  1.00  0.00    -0.246 OA
BRANCH  43  45
ATOM     45  C   UNL A   1      43.329  35.193  35.259  1.00  0.00     0.060 A 
ATOM     46  C   UNL A   1      43.670  36.807  34.537  1.00  0.00     0.016 A 
ATOM     47  C   UNL A   1      42.748  33.954  34.225  1.00  0.00     0.016 A 
ATOM     48  C   UNL A   1      43.454  37.044  32.519  1.00  0.00     0.010 A 
ATOM     49  C   UNL A   1      42.599  34.134  32.511  1.00  0.00     0.010 A 
ATOM     50  C   UNL A   1      42.968  35.575  31.535  1.00  0.00    -0.014 A 
BRANCH  50  51
ATOM     51  C   UNL A   1      43.313  35.117  30.050  1.00  0.00     0.031 A 
ATOM     52  C   UNL A   1      43.950  33.819  29.572  1.00  0.00     0.074 A 
ATOM     53  C   UNL A   1      42.814  35.846  29.000  1.00  0.00     0.049 A 
ATOM     54  N   UNL A   1      43.391  32.952  28.759  1.00  0.00    -0.248 NA
ATOM     55  C   UNL A   1      45.304  33.405  29.956  1.00  0.00     0.031 C 
ATOM     56  C   UNL A   1      42.765  35.574  27.560  1.00  0.00     0.029 A 
ATOM     57  N   UNL A   1      42.311  37.153  28.997  1.00  0.00    -0.354 N 
ATOM     58  C   UNL A   1      44.254  31.866  28.546  1.00  0.00     0.074 A 
ATOM     59  C   UNL A   1      45.401  32.183  29.405  1.00  0.00     0.031 C 
ATOM     60  C   UNL A   1      42.724  36.748  26.887  1.00  0.00     0.029 A 
ATOM     61  C   UNL A   1      42.785  37.815  27.876  1.00  0.00     0.049 A 
ATOM     62  H   UNL A   1      41.718  37.540  29.680  1.00  0.00     0.167 HD
ATOM     63  C   UNL A   1      44.542  31.420  27.285  1.00  0.00     0.031 A 
ATOM     64  C   UNL A   1      43.726  38.779  28.086  1.00  0.00     0.031 A 
ATOM     65  C   UNL A   1      44.734  32.515  26.369  1.00  0.00     0.049 A 
ATOM     66  C   UNL A   1      45.013  38.250  27.519  1.00  0.00     0.074 A 
ATOM     67  C   UNL A   1      43.980  33.094  25.372  1.00  0.00     0.029 A 
ATOM     68  N   UNL A   1      45.810  33.352  26.603  1.00  0.00    -0.354 N 
ATOM     69  N   UNL A   1      45.284  36.972  27.446  1.00  0.00    -0.248 NA
ATOM     70  C   UNL A   1      45.991  39.078  26.826  1.00  0.00     0.031 C 
ATOM     71  C   UNL A   1      44.550  34.378  25.118  1.00  0.00     0.029 A 
ATOM     72  C   UNL A   1      45.659  34.544  25.939  1.00  0.00     0.049 A 
ATOM     73  H   UNL A   1      46.582  33.122  27.169  1.00  0.00     0.167 HD
ATOM     74  C   UNL A   1      46.305  36.792  26.568  1.00  0.00     0.074 A 
ATOM     75  C   UNL A   1      46.768  38.136  26.264  1.00  0.00     0.031 C 
ATOM     76  C   UNL A   1      46.673  35.577  26.073  1.00  0.00     0.031 A 
BRANCH  63  77
ATOM     77  C   UNL A   1      44.538  29.948  26.907  1.00  0.00    -0.014 A 
ATOM     78  C   UNL A   1      43.321  29.228  26.909  1.00  0.00     0.010 A 
ATOM     79  C   UNL A   1      45.698  29.205  26.589  1.00  0.00     0.010 A 
ATOM     80  C   UNL A   1      43.260  27.844  26.653  1.00  0.00     0.020 A 
ATOM     81  C   UNL A   1      45.646  27.814  26.321  1.00  0.00     0.020 A 
ATOM     82  C   UNL A   1      44.427  27.138  26.373  1.00  0.00     0.054 A 
BRANCH  82  83
ATOM     83  S   UNL A   1      44.318  25.336  26.119  1.00  0.00     0.124 S 
ATOM     84  O   UNL A   1      45.689  24.986  25.752  1.00  0.00    -0.237 OA
ATOM     85  O   UNL A   1      43.880  24.852  27.426  1.00  0.00    -0.237 OA
ATOM     86  O   UNL A   1      43.338  25.190  25.046  1.00  0.00    -0.744 OA
ENDBRANCH  82  83
ENDBRANCH  63  77
BRANCH  64  87
ATOM     87  C   UNL A   1      43.468  39.564  29.357  1.00  0.00    -0.014 A 
ATOM     88  C   UNL A   1      44.576  39.734  30.233  1.00  0.00     0.010 A 
ATOM     89  C   UNL A   1      42.377  40.435  29.534  1.00  0.00     0.010 A 
ATOM     90  C   UNL A   1      44.658  40.806  31.138  1.00  0.00     0.020 A 
ATOM     91  C   UNL A   1      42.439  41.493  30.477  1.00  0.00     0.020 A 
ATOM     92  C   UNL A   1      43.594  41.696  31.245  1.00  0.00     0.054 A 
BRANCH  92  93
ATOM     93  S   UNL A   1      43.825  43.207  32.253  1.00  0.00     0.124 S 
ATOM     94  O   UNL A   1      43.431  42.757  33.584  1.00  0.00    -0.237 OA
ATOM     95  O   UNL A   1      45.250  43.492  32.094  1.00  0.00    -0.237 OA
ATOM     96  O   UNL A   1      42.931  44.181  31.633  1.00  0.00    -0.744 OA
ENDBRANCH  92  93
ENDBRANCH  64  87
BRANCH  76  97
ATOM     97  C   UNL A   1      48.072  35.306  25.612  1.00  0.00    -0.014 A 
ATOM     98  C   UNL A   1      48.793  36.237  24.849  1.00  0.00     0.010 A 
ATOM     99  C   UNL A   1      48.764  34.166  26.077  1.00  0.00     0.010 A 
ATOM    100  C   UNL A   1      50.096  35.981  24.443  1.00  0.00     0.020 A 
ATOM    101  C   UNL A   1      50.098  33.938  25.742  1.00  0.00     0.020 A 
ATOM    102  C   UNL A   1      50.736  34.826  24.883  1.00  0.00     0.054 A 
BRANCH 102 103
ATOM    103  S   UNL A   1      52.420  34.521  24.323  1.00  0.00     0.124 S 
ATOM    104  O   UNL A   1      53.089  34.189  25.579  1.00  0.00    -0.237 OA
ATOM    105  O   UNL A   1      52.248  33.409  23.389  1.00  0.00    -0.237 OA
ATOM    106  O   UNL A   1      52.815  35.787  23.712  1.00  0.00    -0.744 OA
ENDBRANCH 102 103
ENDBRANCH  76  97
ENDBRANCH  50  51
ENDBRANCH  43  45
ENDBRANCH  42  43
ENDBRANCH  41  42
ENDBRANCH   1  41
TORSDOF 20
ENDMDL
MODEL 3
REMARK VINA RESULT:     -10.9      6.077     13.910
REMARK SMILES Cc1ccccc1C(=O)Nc1cc(C(=O)OCCOC(=O)c2ccc(-c3c4nc(c(-c5ccc(S(=O)(=O)[O-])cc5)c5ccc([nH]5)c(-c5ccc(S(=O)(=O)[O-])cc5)c5nc(c(-c6ccc(S(=O)(=O)[O-])cc6)c6ccc3[nH]6)C=C5)C=C4)cc2)ccc1N1CC[NH+](CC(=O)Nc2ccc(F)cc2)CC1
REMARK SMILES IDX 17 1 16 2 14 3 15 4 13 5 11 6 12 7 84 8 83 9 82 10 10 11
REMARK SMILES IDX 8 12 9 13 7 15 1 16 2 17 3 18 4 19 6 20 5 21 85 22 86 23
REMARK SMILES IDX 101 24 87 25 100 26 88 27 89 29 90 30 91 31 92 32 93 34
REMARK SMILES IDX 94 35 99 36 95 37 98 38 96 39 97 40 18 41 19 42 20 43 21 44
REMARK SMILES IDX 22 45 23 46 81 47 24 48 80 49 25 50 26 51 27 52 74 53 28 54
REMARK SMILES IDX 79 55 73 56 75 57 29 58 78 59 72 60 71 61 30 63 60 64 41 65
REMARK SMILES IDX 59 66 42 67 45 68 58 69 76 70 43 71 44 72 57 74 77 75 46 76
REMARK SMILES IDX 31 77 32 78 40 79 33 80 39 81 34 82 35 83 36 84 37 85 38 86
REMARK SMILES IDX 61 87 62 88 70 89 63 90 69 91 64 92 65 93 66 94 67 95 68 96
REMARK SMILES IDX 47 97 48 98 56 99 49 100 55 101 50 102 51 103 52 104 53 105
REMARK SMILES IDX 54 106
REMARK H PARENT 10 14 88 28 92 33 75 62 45 73
REMARK Flexibility Score: inf
ROOT
ATOM      1  C   UNL A   1      42.202  35.589  38.962  1.00  0.00     0.275 C 
ENDROOT
BRANCH   1   2
ATOM      2  O   UNL A   1      42.087  34.190  38.761  1.00  0.00    -0.458 OA
BRANCH   2   3
ATOM      3  C   UNL A   1      40.803  33.744  38.746  1.00  0.00     0.338 C 
ATOM      4  O   UNL A   1      40.203  33.301  39.704  1.00  0.00    -0.246 OA
BRANCH   3   5
ATOM      5  C   UNL A   1      40.371  33.954  37.282  1.00  0.00     0.062 A 
ATOM      6  C   UNL A   1      39.601  31.952  35.093  1.00  0.00     0.065 A 
ATOM      7  C   UNL A   1      40.139  32.258  36.716  1.00  0.00     0.044 A 
ATOM      8  C   UNL A   1      39.304  33.249  33.886  1.00  0.00     0.061 A 
ATOM      9  C   UNL A   1      39.466  34.957  34.264  1.00  0.00     0.029 A 
ATOM     10  C   UNL A   1      39.985  35.430  35.929  1.00  0.00     0.018 A 
BRANCH   6  11
ATOM     11  N   UNL A   1      39.402  30.600  34.678  1.00  0.00    -0.320 N 
ATOM     12  C   UNL A   1      40.204  29.697  33.971  1.00  0.00     0.255 C 
ATOM     13  O   UNL A   1      39.763  28.574  33.722  1.00  0.00    -0.269 OA
ATOM     14  H   UNL A   1      38.529  30.231  34.942  1.00  0.00     0.170 HD
BRANCH  12  15
ATOM     15  C   UNL A   1      41.609  30.002  33.571  1.00  0.00     0.043 A 
ATOM     16  C   UNL A   1      42.649  28.928  35.568  1.00  0.00     0.045 C 
ATOM     17  C   UNL A   1      42.621  29.969  34.502  1.00  0.00    -0.038 A 
ATOM     18  C   UNL A   1      43.710  30.809  34.295  1.00  0.00     0.004 A 
ATOM     19  C   UNL A   1      44.061  31.227  33.028  1.00  0.00     0.000 A 
ATOM     20  C   UNL A   1      41.971  30.323  32.257  1.00  0.00     0.014 A 
ATOM     21  C   UNL A   1      43.239  30.862  31.978  1.00  0.00     0.001 A 
ENDBRANCH  12  15
ENDBRANCH   6  11
BRANCH   8  22
ATOM     22  N   UNL A   1      38.947  32.841  32.580  1.00  0.00    -0.359 N 
ATOM     23  C   UNL A   1      39.669  33.197  31.330  1.00  0.00     0.178 C 
ATOM     24  C   UNL A   1      37.512  32.772  32.374  1.00  0.00     0.178 C 
ATOM     25  C   UNL A   1      39.081  32.417  30.070  1.00  0.00     0.284 C 
ATOM     26  C   UNL A   1      37.240  31.659  31.349  1.00  0.00     0.284 C 
ATOM     27  N   UNL A   1      37.642  32.080  30.023  1.00  0.00    -0.324 N 
ATOM     28  H   UNL A   1      37.614  31.348  29.314  1.00  0.00     0.348 HD
BRANCH  27  29
ATOM     29  C   UNL A   1      36.641  32.965  29.383  1.00  0.00     0.364 C 
BRANCH  29  30
ATOM     30  C   UNL A   1      35.141  32.714  29.574  1.00  0.00     0.279 C 
ATOM     31  O   UNL A   1      34.651  31.713  29.020  1.00  0.00    -0.268 OA
ATOM     32  N   UNL A   1      34.266  33.392  30.385  1.00  0.00    -0.321 N 
ATOM     33  H   UNL A   1      33.479  32.821  30.537  1.00  0.00     0.170 HD
BRANCH  32  34
ATOM     34  C   UNL A   1      34.076  34.614  31.088  1.00  0.00     0.041 A 
ATOM     35  C   UNL A   1      33.345  35.603  30.402  1.00  0.00     0.029 A 
ATOM     36  C   UNL A   1      34.612  35.012  32.310  1.00  0.00     0.029 A 
ATOM     37  C   UNL A   1      33.156  36.897  30.922  1.00  0.00     0.041 A 
ATOM     38  C   UNL A   1      34.475  36.315  32.823  1.00  0.00     0.041 A 
ATOM     39  C   UNL A   1      33.730  37.245  32.131  1.00  0.00     0.123 A 
ATOM     40  F   UNL A   1      33.572  38.477  32.628  1.00  0.00    -0.207 F 
ENDBRANCH  32  34
ENDBRANCH  29  30
ENDBRANCH  27  29
ENDBRANCH   8  22
ENDBRANCH   3   5
ENDBRANCH   2   3
ENDBRANCH   1   2
BRANCH   1  41
ATOM     41  C   UNL A   1      43.322  36.131  38.056  1.00  0.00     0.275 C 
BRANCH  41  42
ATOM     42  O   UNL A   1      44.055  35.100  37.360  1.00  0.00    -0.458 OA
BRANCH  42  43
ATOM     43  C   UNL A   1      44.751  35.400  36.214  1.00  0.00     0.338 C 
ATOM     44  O   UNL A   1      45.903  35.094  35.973  1.00  0.00    -0.246 OA
BRANCH  43  45
ATOM     45  C   UNL A   1      43.724  35.824  35.205  1.00  0.00     0.060 A 
ATOM     46  C   UNL A   1      43.877  37.418  34.381  1.00  0.00     0.016 A 
ATOM     47  C   UNL A   1      43.212  34.480  34.271  1.00  0.00     0.016 A 
ATOM     48  C   UNL A   1      43.542  37.517  32.368  1.00  0.00     0.010 A 
ATOM     49  C   UNL A   1      42.964  34.545  32.561  1.00  0.00     0.010 A 
ATOM     50  C   UNL A   1      43.149  35.955  31.491  1.00  0.00    -0.014 A 
BRANCH  50  51
ATOM     51  C   UNL A   1      43.462  35.445  30.016  1.00  0.00     0.031 A 
ATOM     52  C   UNL A   1      44.090  34.131  29.572  1.00  0.00     0.074 A 
ATOM     53  C   UNL A   1      42.941  36.136  28.951  1.00  0.00     0.049 A 
ATOM     54  N   UNL A   1      43.515  33.236  28.801  1.00  0.00    -0.248 NA
ATOM     55  C   UNL A   1      45.452  33.731  29.940  1.00  0.00     0.031 C 
ATOM     56  C   UNL A   1      42.862  35.813  27.523  1.00  0.00     0.029 A 
ATOM     57  N   UNL A   1      42.437  37.443  28.913  1.00  0.00    -0.354 N 
ATOM     58  C   UNL A   1      44.375  32.143  28.609  1.00  0.00     0.074 A 
ATOM     59  C   UNL A   1      45.539  32.490  29.431  1.00  0.00     0.031 C 
ATOM     60  C   UNL A   1      42.806  36.963  26.810  1.00  0.00     0.029 A 
ATOM     61  C   UNL A   1      42.887  38.065  27.759  1.00  0.00     0.049 A 
ATOM     62  H   UNL A   1      41.858  37.853  29.595  1.00  0.00     0.167 HD
ATOM     63  C   UNL A   1      44.636  31.652  27.358  1.00  0.00     0.031 A 
ATOM     64  C   UNL A   1      43.831  39.035  27.915  1.00  0.00     0.031 A 
ATOM     65  C   UNL A   1      44.808  32.715  26.401  1.00  0.00     0.049 A 
ATOM     66  C   UNL A   1      45.106  38.487  27.340  1.00  0.00     0.074 A 
ATOM     67  C   UNL A   1      44.033  33.257  25.400  1.00  0.00     0.029 A 
ATOM     68  N   UNL A   1      45.888  33.559  26.582  1.00  0.00    -0.354 N 
ATOM     69  N   UNL A   1      45.376  37.207  27.307  1.00  0.00    -0.248 NA
ATOM     70  C   UNL A   1      46.069  39.289  26.598  1.00  0.00     0.031 C 
ATOM     71  C   UNL A   1      44.596  34.532  25.089  1.00  0.00     0.029 A 
ATOM     72  C   UNL A   1      45.721  34.727  25.879  1.00  0.00     0.049 A 
ATOM     73  H   UNL A   1      46.672  33.350  27.140  1.00  0.00     0.167 HD
ATOM     74  C   UNL A   1      46.379  36.996  26.415  1.00  0.00     0.074 A 
ATOM     75  C   UNL A   1      46.835  38.329  26.053  1.00  0.00     0.031 C 
ATOM     76  C   UNL A   1      46.738  35.764  25.955  1.00  0.00     0.031 A 
BRANCH  63  77
ATOM     77  C   UNL A   1      44.626  30.168  27.034  1.00  0.00    -0.014 A 
ATOM     78  C   UNL A   1      45.848  29.494  26.803  1.00  0.00     0.010 A 
ATOM     79  C   UNL A   1      43.453  29.392  26.895  1.00  0.00     0.010 A 
ATOM     80  C   UNL A   1      45.904  28.141  26.415  1.00  0.00     0.020 A 
ATOM     81  C   UNL A   1      43.499  28.027  26.513  1.00  0.00     0.020 A 
ATOM     82  C   UNL A   1      44.726  27.415  26.257  1.00  0.00     0.054 A 
BRANCH  82  83
ATOM     83  S   UNL A   1      44.835  25.688  25.682  1.00  0.00     0.124 S 
ATOM     84  O   UNL A   1      43.519  25.472  25.083  1.00  0.00    -0.237 OA
ATOM     85  O   UNL A   1      45.950  25.732  24.739  1.00  0.00    -0.237 OA
ATOM     86  O   UNL A   1      45.087  24.926  26.903  1.00  0.00    -0.744 OA
ENDBRANCH  82  83
ENDBRANCH  63  77
BRANCH  64  87
ATOM     87  C   UNL A   1      43.599  39.865  29.163  1.00  0.00    -0.014 A 
ATOM     88  C   UNL A   1      44.761  40.354  29.824  1.00  0.00     0.010 A 
ATOM     89  C   UNL A   1      42.379  40.492  29.473  1.00  0.00     0.010 A 
ATOM     90  C   UNL A   1      44.733  41.500  30.636  1.00  0.00     0.020 A 
ATOM     91  C   UNL A   1      42.341  41.625  30.327  1.00  0.00     0.020 A 
ATOM     92  C   UNL A   1      43.523  42.146  30.871  1.00  0.00     0.054 A 
BRANCH  92  93
ATOM     93  S   UNL A   1      43.555  43.761  31.733  1.00  0.00     0.124 S 
ATOM     94  O   UNL A   1      43.421  44.706  30.630  1.00  0.00    -0.237 OA
ATOM     95  O   UNL A   1      42.398  43.680  32.623  1.00  0.00    -0.237 OA
ATOM     96  O   UNL A   1      44.851  43.771  32.408  1.00  0.00    -0.744 OA
ENDBRANCH  92  93
ENDBRANCH  64  87
BRANCH  76  97
ATOM     97  C   UNL A   1      48.127  35.477  25.474  1.00  0.00    -0.014 A 
ATOM     98  C   UNL A   1      48.875  36.428  24.765  1.00  0.00     0.010 A 
ATOM     99  C   UNL A   1      48.784  34.291  25.871  1.00  0.00     0.010 A 
ATOM    100  C   UNL A   1      50.169  36.156  24.341  1.00  0.00     0.020 A 
ATOM    101  C   UNL A   1      50.109  34.042  25.519  1.00  0.00     0.020 A 
ATOM    102  C   UNL A   1      50.773  34.958  24.710  1.00  0.00     0.054 A 
BRANCH 102 103
ATOM    103  S   UNL A   1      52.446  34.634  24.128  1.00  0.00     0.124 S 
ATOM    104  O   UNL A   1      53.180  34.539  25.388  1.00  0.00    -0.237 OA
ATOM    105  O   UNL A   1      52.291  33.378  23.395  1.00  0.00    -0.237 OA
ATOM    106  O   UNL A   1      52.757  35.798  23.303  1.00  0.00    -0.744 OA
ENDBRANCH 102 103
ENDBRANCH  76  97
ENDBRANCH  50  51
ENDBRANCH  43  45
ENDBRANCH  42  43
ENDBRANCH  41  42
ENDBRANCH   1  41
TORSDOF 20
ENDMDL
