MODEL 1
REMARK VINA RESULT:     -12.8      0.000      0.000
REMARK SMILES CCc1cccc(C)c1Nc1ccccc1CC(=O)OCCOC(=O)c1ccc(-c2c3nc(c(-c4ccc(S(=O)(=O)[O-])cc4)c4ccc([nH]4)c(-c4ccc(S(=O)(=O)[O-])cc4)c4nc(c(-c5ccc(S(=O)(=O)[O-])cc5)c5ccc2[nH]5)C=C4)C=C3)cc1
REMARK SMILES IDX 21 1 20 2 18 3 19 4 17 5 16 6 11 7 12 8 13 9 15 10 14 11
REMARK SMILES IDX 10 12 9 14 3 15 4 16 5 17 7 18 6 19 8 20 2 21 1 22 22 23
REMARK SMILES IDX 23 24 24 25 25 26 26 27 27 28 85 29 28 30 84 31 29 32 30 33
REMARK SMILES IDX 31 34 78 35 32 36 83 37 77 38 79 39 33 40 82 41 76 42 75 43
REMARK SMILES IDX 34 45 64 46 45 47 63 48 46 49 49 50 62 51 80 52 47 53 48 54
REMARK SMILES IDX 61 56 81 57 50 58 35 59 36 60 44 61 37 62 43 63 38 64 39 65
REMARK SMILES IDX 40 66 41 67 42 68 65 69 66 70 74 71 67 72 73 73 68 74 69 75
REMARK SMILES IDX 70 76 71 77 72 78 51 79 52 80 60 81 53 82 59 83 54 84 55 85
REMARK SMILES IDX 56 86 57 87 58 88
REMARK H PARENT 10 13 79 44 49 55
REMARK Flexibility Score: inf
ROOT
ATOM      1  C   UNL A   1      32.686  30.115  25.857  1.00  0.00     0.274 C 
ENDROOT
BRANCH   1   2
ATOM      2  O   UNL A   1      31.585  29.035  26.136  1.00  0.00    -0.462 OA
BRANCH   2   3
ATOM      3  C   UNL A   1      31.664  27.856  26.848  1.00  0.00     0.310 C 
ATOM      4  O   UNL A   1      31.053  27.786  27.918  1.00  0.00    -0.252 OA
BRANCH   3   5
ATOM      5  C   UNL A   1      32.408  26.516  26.261  1.00  0.00     0.160 C 
BRANCH   5   6
ATOM      6  C   UNL A   1      32.717  26.006  24.781  1.00  0.00    -0.013 A 
ATOM      7  C   UNL A   1      33.847  25.277  24.160  1.00  0.00     0.042 A 
ATOM      8  C   UNL A   1      33.712  24.861  22.814  1.00  0.00     0.026 A 
ATOM      9  C   UNL A   1      32.610  25.193  22.035  1.00  0.00     0.002 A 
ATOM     10  C   UNL A   1      31.669  26.396  23.900  1.00  0.00     0.006 A 
ATOM     11  C   UNL A   1      31.621  26.006  22.561  1.00  0.00     0.000 A 
BRANCH   7  12
ATOM     12  N   UNL A   1      35.145  24.797  24.678  1.00  0.00    -0.355 N 
ATOM     13  H   UNL A   1      35.953  25.320  24.466  1.00  0.00     0.167 HD
BRANCH  12  14
ATOM     14  C   UNL A   1      35.300  23.570  25.499  1.00  0.00     0.045 A 
ATOM     15  C   UNL A   1      34.045  22.307  25.776  1.00  0.00    -0.024 A 
ATOM     16  C   UNL A   1      34.416  20.563  25.442  1.00  0.00     0.006 A 
ATOM     17  C   UNL A   1      36.028  20.066  24.842  1.00  0.00     0.001 A 
ATOM     18  C   UNL A   1      36.941  23.121  25.052  1.00  0.00    -0.027 A 
ATOM     19  C   UNL A   1      37.309  21.359  24.585  1.00  0.00     0.005 A 
ATOM     20  C   UNL A   1      37.622  24.076  26.274  1.00  0.00     0.046 C 
BRANCH  15  21
ATOM     21  C   UNL A   1      32.569  22.609  25.874  1.00  0.00     0.034 C 
ATOM     22  C   UNL A   1      32.042  22.921  27.263  1.00  0.00     0.009 C 
ENDBRANCH  15  21
ENDBRANCH  12  14
ENDBRANCH   7  12
ENDBRANCH   5   6
ENDBRANCH   3   5
ENDBRANCH   2   3
ENDBRANCH   1   2
BRANCH   1  23
ATOM     23  C   UNL A   1      33.731  30.763  27.208  1.00  0.00     0.275 C 
BRANCH  23  24
ATOM     24  O   UNL A   1      34.780  29.684  28.233  1.00  0.00    -0.458 OA
BRANCH  24  25
ATOM     25  C   UNL A   1      36.540  29.574  29.001  1.00  0.00     0.338 C 
ATOM     26  O   UNL A   1      36.821  29.842  30.187  1.00  0.00    -0.246 OA
BRANCH  25  27
ATOM     27  C   UNL A   1      37.941  29.132  28.501  1.00  0.00     0.060 A 
ATOM     28  C   UNL A   1      38.639  29.508  27.331  1.00  0.00     0.016 A 
ATOM     29  C   UNL A   1      38.574  28.172  29.189  1.00  0.00     0.016 A 
ATOM     30  C   UNL A   1      39.995  29.115  27.207  1.00  0.00     0.010 A 
ATOM     31  C   UNL A   1      39.820  28.559  29.493  1.00  0.00     0.010 A 
ATOM     32  C   UNL A   1      40.580  28.610  28.361  1.00  0.00    -0.014 A 
BRANCH  32  33
ATOM     33  C   UNL A   1      41.794  27.862  28.661  1.00  0.00     0.031 A 
ATOM     34  C   UNL A   1      41.762  26.411  28.473  1.00  0.00     0.074 A 
ATOM     35  C   UNL A   1      42.906  28.664  28.582  1.00  0.00     0.049 A 
ATOM     36  N   UNL A   1      42.544  25.579  29.049  1.00  0.00    -0.248 NA
ATOM     37  C   UNL A   1      40.814  25.752  27.570  1.00  0.00     0.031 C 
ATOM     38  C   UNL A   1      44.330  28.477  28.356  1.00  0.00     0.029 A 
ATOM     39  N   UNL A   1      42.857  30.080  28.661  1.00  0.00    -0.354 N 
ATOM     40  C   UNL A   1      42.537  24.449  28.254  1.00  0.00     0.074 A 
ATOM     41  C   UNL A   1      41.310  24.512  27.502  1.00  0.00     0.031 C 
ATOM     42  C   UNL A   1      44.975  29.593  28.797  1.00  0.00     0.029 A 
ATOM     43  C   UNL A   1      43.969  30.516  29.347  1.00  0.00     0.049 A 
ATOM     44  H   UNL A   1      42.148  30.653  28.290  1.00  0.00     0.167 HD
ATOM     45  C   UNL A   1      43.699  23.750  28.110  1.00  0.00     0.031 A 
ATOM     46  C   UNL A   1      43.692  30.854  30.641  1.00  0.00     0.031 A 
ATOM     47  C   UNL A   1      44.784  24.453  28.823  1.00  0.00     0.049 A 
ATOM     48  C   UNL A   1      44.188  29.729  31.517  1.00  0.00     0.074 A 
ATOM     49  C   UNL A   1      45.833  25.242  28.380  1.00  0.00     0.029 A 
ATOM     50  N   UNL A   1      44.623  24.760  30.173  1.00  0.00    -0.354 N 
ATOM     51  N   UNL A   1      44.371  28.508  31.093  1.00  0.00    -0.248 NA
ATOM     52  C   UNL A   1      44.580  29.902  32.905  1.00  0.00     0.031 C 
ATOM     53  C   UNL A   1      46.197  26.123  29.447  1.00  0.00     0.029 A 
ATOM     54  C   UNL A   1      45.364  25.881  30.528  1.00  0.00     0.049 A 
ATOM     55  H   UNL A   1      44.057  24.248  30.796  1.00  0.00     0.167 HD
ATOM     56  C   UNL A   1      44.929  27.748  32.063  1.00  0.00     0.074 A 
ATOM     57  C   UNL A   1      45.044  28.672  33.186  1.00  0.00     0.031 C 
ATOM     58  C   UNL A   1      45.232  26.428  31.883  1.00  0.00     0.031 A 
BRANCH  45  59
ATOM     59  C   UNL A   1      43.940  22.645  27.097  1.00  0.00    -0.014 A 
ATOM     60  C   UNL A   1      45.205  22.552  26.479  1.00  0.00     0.010 A 
ATOM     61  C   UNL A   1      43.006  21.651  26.733  1.00  0.00     0.010 A 
ATOM     62  C   UNL A   1      45.517  21.555  25.542  1.00  0.00     0.020 A 
ATOM     63  C   UNL A   1      43.297  20.654  25.779  1.00  0.00     0.020 A 
ATOM     64  C   UNL A   1      44.559  20.609  25.195  1.00  0.00     0.054 A 
BRANCH  64  65
ATOM     65  S   UNL A   1      45.008  19.302  24.019  1.00  0.00     0.124 S 
ATOM     66  O   UNL A   1      46.458  19.218  24.180  1.00  0.00    -0.237 OA
ATOM     67  O   UNL A   1      44.254  18.156  24.523  1.00  0.00    -0.237 OA
ATOM     68  O   UNL A   1      44.559  19.821  22.730  1.00  0.00    -0.744 OA
ENDBRANCH  64  65
ENDBRANCH  45  59
BRANCH  46  69
ATOM     69  C   UNL A   1      42.365  31.597  30.825  1.00  0.00    -0.014 A 
ATOM     70  C   UNL A   1      42.243  32.941  30.374  1.00  0.00     0.010 A 
ATOM     71  C   UNL A   1      41.169  30.950  31.190  1.00  0.00     0.010 A 
ATOM     72  C   UNL A   1      40.996  33.593  30.264  1.00  0.00     0.020 A 
ATOM     73  C   UNL A   1      39.917  31.605  31.101  1.00  0.00     0.020 A 
ATOM     74  C   UNL A   1      39.835  32.923  30.642  1.00  0.00     0.054 A 
BRANCH  74  75
ATOM     75  S   UNL A   1      38.201  33.739  30.517  1.00  0.00     0.124 S 
ATOM     76  O   UNL A   1      37.751  33.714  31.907  1.00  0.00    -0.237 OA
ATOM     77  O   UNL A   1      38.515  35.074  30.011  1.00  0.00    -0.237 OA
ATOM     78  O   UNL A   1      37.456  32.863  29.615  1.00  0.00    -0.744 OA
ENDBRANCH  74  75
ENDBRANCH  46  69
BRANCH  58  79
ATOM     79  C   UNL A   1      45.480  25.514  33.041  1.00  0.00    -0.014 A 
ATOM     80  C   UNL A   1      44.446  24.980  33.824  1.00  0.00     0.010 A 
ATOM     81  C   UNL A   1      46.794  25.065  33.294  1.00  0.00     0.010 A 
ATOM     82  C   UNL A   1      44.728  24.173  34.920  1.00  0.00     0.020 A 
ATOM     83  C   UNL A   1      47.075  24.183  34.327  1.00  0.00     0.020 A 
ATOM     84  C   UNL A   1      46.045  23.798  35.175  1.00  0.00     0.054 A 
BRANCH  84  85
ATOM     85  S   UNL A   1      46.403  22.806  36.633  1.00  0.00     0.124 S 
ATOM     86  O   UNL A   1      47.862  22.753  36.596  1.00  0.00    -0.237 OA
ATOM     87  O   UNL A   1      45.830  23.603  37.715  1.00  0.00    -0.237 OA
ATOM     88  O   UNL A   1      45.721  21.543  36.365  1.00  0.00    -0.744 OA
ENDBRANCH  84  85
ENDBRANCH  58  79
ENDBRANCH  32  33
ENDBRANCH  25  27
ENDBRANCH  24  25
ENDBRANCH  23  24
ENDBRANCH   1  23
TORSDOF 18
ENDMDL
MODEL 2
REMARK VINA RESULT:     -12.4      2.278      3.975
REMARK SMILES CCc1cccc(C)c1Nc1ccccc1CC(=O)OCCOC(=O)c1ccc(-c2c3nc(c(-c4ccc(S(=O)(=O)[O-])cc4)c4ccc([nH]4)c(-c4ccc(S(=O)(=O)[O-])cc4)c4nc(c(-c5ccc(S(=O)(=O)[O-])cc5)c5ccc2[nH]5)C=C4)C=C3)cc1
REMARK SMILES IDX 21 1 20 2 18 3 19 4 17 5 16 6 11 7 12 8 13 9 15 10 14 11
REMARK SMILES IDX 10 12 9 14 3 15 4 16 5 17 7 18 6 19 8 20 2 21 1 22 22 23
REMARK SMILES IDX 23 24 24 25 25 26 26 27 27 28 85 29 28 30 84 31 29 32 30 33
REMARK SMILES IDX 31 34 78 35 32 36 83 37 77 38 79 39 33 40 82 41 76 42 75 43
REMARK SMILES IDX 34 45 64 46 45 47 63 48 46 49 49 50 62 51 80 52 47 53 48 54
REMARK SMILES IDX 61 56 81 57 50 58 35 59 36 60 44 61 37 62 43 63 38 64 39 65
REMARK SMILES IDX 40 66 41 67 42 68 65 69 66 70 74 71 67 72 73 73 68 74 69 75
REMARK SMILES IDX 70 76 71 77 72 78 51 79 52 80 60 81 53 82 59 83 54 84 55 85
REMARK SMILES IDX 56 86 57 87 58 88
REMARK H PARENT 10 13 79 44 49 55
REMARK Flexibility Score: inf
ROOT
ATOM      1  C   UNL A   1      32.897  29.056  26.636  1.00  0.00     0.274 C 
ENDROOT
BRANCH   1   2
ATOM      2  O   UNL A   1      31.915  27.870  26.930  1.00  0.00    -0.462 OA
BRANCH   2   3
ATOM      3  C   UNL A   1      31.985  26.548  26.539  1.00  0.00     0.310 C 
ATOM      4  O   UNL A   1      31.068  25.796  26.882  1.00  0.00    -0.252 OA
BRANCH   3   5
ATOM      5  C   UNL A   1      33.147  25.985  25.526  1.00  0.00     0.160 C 
BRANCH   5   6
ATOM      6  C   UNL A   1      33.408  24.559  24.860  1.00  0.00    -0.013 A 
ATOM      7  C   UNL A   1      32.830  23.847  23.696  1.00  0.00     0.042 A 
ATOM      8  C   UNL A   1      33.419  22.621  23.307  1.00  0.00     0.026 A 
ATOM      9  C   UNL A   1      34.447  22.022  24.026  1.00  0.00     0.002 A 
ATOM     10  C   UNL A   1      34.388  23.843  25.604  1.00  0.00     0.006 A 
ATOM     11  C   UNL A   1      34.888  22.603  25.202  1.00  0.00     0.000 A 
BRANCH   7  12
ATOM     12  N   UNL A   1      31.747  24.177  22.748  1.00  0.00    -0.355 N 
ATOM     13  H   UNL A   1      31.201  23.439  22.390  1.00  0.00     0.167 HD
BRANCH  12  14
ATOM     14  C   UNL A   1      31.435  25.559  22.304  1.00  0.00     0.045 A 
ATOM     15  C   UNL A   1      30.425  26.761  23.188  1.00  0.00    -0.024 A 
ATOM     16  C   UNL A   1      31.078  28.415  23.546  1.00  0.00     0.006 A 
ATOM     17  C   UNL A   1      32.724  28.884  23.025  1.00  0.00     0.001 A 
ATOM     18  C   UNL A   1      33.000  26.017  21.643  1.00  0.00    -0.027 A 
ATOM     19  C   UNL A   1      33.740  27.660  22.104  1.00  0.00     0.005 A 
ATOM     20  C   UNL A   1      32.627  25.395  20.112  1.00  0.00     0.046 C 
BRANCH  15  21
ATOM     21  C   UNL A   1      29.225  26.383  24.024  1.00  0.00     0.034 C 
ATOM     22  C   UNL A   1      27.929  27.102  23.695  1.00  0.00     0.009 C 
ENDBRANCH  15  21
ENDBRANCH  12  14
ENDBRANCH   7  12
ENDBRANCH   5   6
ENDBRANCH   3   5
ENDBRANCH   2   3
ENDBRANCH   1   2
BRANCH   1  23
ATOM     23  C   UNL A   1      32.375  30.790  26.879  1.00  0.00     0.275 C 
BRANCH  23  24
ATOM     24  O   UNL A   1      33.528  32.086  27.431  1.00  0.00    -0.458 OA
BRANCH  24  25
ATOM     25  C   UNL A   1      35.342  32.347  28.016  1.00  0.00     0.338 C 
ATOM     26  O   UNL A   1      36.041  33.348  27.756  1.00  0.00    -0.246 OA
BRANCH  25  27
ATOM     27  C   UNL A   1      36.343  31.561  28.903  1.00  0.00     0.060 A 
ATOM     28  C   UNL A   1      36.095  30.708  30.003  1.00  0.00     0.016 A 
ATOM     29  C   UNL A   1      37.652  31.775  28.706  1.00  0.00     0.016 A 
ATOM     30  C   UNL A   1      37.176  29.950  30.518  1.00  0.00     0.010 A 
ATOM     31  C   UNL A   1      38.297  30.612  28.550  1.00  0.00     0.010 A 
ATOM     32  C   UNL A   1      38.322  29.931  29.733  1.00  0.00    -0.014 A 
BRANCH  32  33
ATOM     33  C   UNL A   1      39.711  29.545  29.942  1.00  0.00     0.031 A 
ATOM     34  C   UNL A   1      40.106  28.191  29.551  1.00  0.00     0.074 A 
ATOM     35  C   UNL A   1      40.532  30.644  29.995  1.00  0.00     0.049 A 
ATOM     36  N   UNL A   1      41.115  27.557  30.014  1.00  0.00    -0.248 NA
ATOM     37  C   UNL A   1      39.372  27.413  28.548  1.00  0.00     0.031 C 
ATOM     38  C   UNL A   1      41.941  30.923  29.768  1.00  0.00     0.029 A 
ATOM     39  N   UNL A   1      40.068  31.956  30.274  1.00  0.00    -0.354 N 
ATOM     40  C   UNL A   1      41.422  26.600  29.067  1.00  0.00     0.074 A 
ATOM     41  C   UNL A   1      40.212  26.400  28.312  1.00  0.00     0.031 C 
ATOM     42  C   UNL A   1      42.238  32.107  30.373  1.00  0.00     0.029 A 
ATOM     43  C   UNL A   1      41.018  32.602  31.033  1.00  0.00     0.049 A 
ATOM     44  H   UNL A   1      39.210  32.338  29.977  1.00  0.00     0.167 HD
ATOM     45  C   UNL A   1      42.735  26.305  28.844  1.00  0.00     0.031 A 
ATOM     46  C   UNL A   1      40.689  32.657  32.357  1.00  0.00     0.031 A 
ATOM     47  C   UNL A   1      43.581  27.192  29.666  1.00  0.00     0.049 A 
ATOM     48  C   UNL A   1      41.520  31.619  33.072  1.00  0.00     0.074 A 
ATOM     49  C   UNL A   1      44.337  28.312  29.356  1.00  0.00     0.029 A 
ATOM     50  N   UNL A   1      43.374  27.245  31.044  1.00  0.00    -0.354 N 
ATOM     51  N   UNL A   1      42.046  30.581  32.482  1.00  0.00    -0.248 NA
ATOM     52  C   UNL A   1      41.880  31.705  34.476  1.00  0.00     0.031 C 
ATOM     53  C   UNL A   1      44.451  29.103  30.543  1.00  0.00     0.029 A 
ATOM     54  C   UNL A   1      43.758  28.474  31.566  1.00  0.00     0.049 A 
ATOM     55  H   UNL A   1      43.002  26.506  31.579  1.00  0.00     0.167 HD
ATOM     56  C   UNL A   1      42.830  29.893  33.343  1.00  0.00     0.074 A 
ATOM     57  C   UNL A   1      42.696  30.643  34.588  1.00  0.00     0.031 C 
ATOM     58  C   UNL A   1      43.506  28.763  32.982  1.00  0.00     0.031 A 
BRANCH  45  59
ATOM     59  C   UNL A   1      43.266  25.476  27.689  1.00  0.00    -0.014 A 
ATOM     60  C   UNL A   1      43.888  24.241  27.966  1.00  0.00     0.010 A 
ATOM     61  C   UNL A   1      43.158  25.814  26.321  1.00  0.00     0.010 A 
ATOM     62  C   UNL A   1      44.395  23.407  26.957  1.00  0.00     0.020 A 
ATOM     63  C   UNL A   1      43.679  24.997  25.298  1.00  0.00     0.020 A 
ATOM     64  C   UNL A   1      44.288  23.790  25.625  1.00  0.00     0.054 A 
BRANCH  64  65
ATOM     65  S   UNL A   1      44.906  22.666  24.341  1.00  0.00     0.124 S 
ATOM     66  O   UNL A   1      45.208  21.455  25.101  1.00  0.00    -0.237 OA
ATOM     67  O   UNL A   1      43.764  22.570  23.434  1.00  0.00    -0.237 OA
ATOM     68  O   UNL A   1      46.071  23.361  23.799  1.00  0.00    -0.744 OA
ENDBRANCH  64  65
ENDBRANCH  45  59
BRANCH  46  69
ATOM     69  C   UNL A   1      39.206  32.938  32.624  1.00  0.00    -0.014 A 
ATOM     70  C   UNL A   1      38.585  34.067  32.020  1.00  0.00     0.010 A 
ATOM     71  C   UNL A   1      38.347  32.004  33.233  1.00  0.00     0.010 A 
ATOM     72  C   UNL A   1      37.184  34.240  31.999  1.00  0.00     0.020 A 
ATOM     73  C   UNL A   1      36.943  32.182  33.233  1.00  0.00     0.020 A 
ATOM     74  C   UNL A   1      36.366  33.298  32.620  1.00  0.00     0.054 A 
BRANCH  74  75
ATOM     75  S   UNL A   1      34.547  33.492  32.616  1.00  0.00     0.124 S 
ATOM     76  O   UNL A   1      34.233  33.371  34.038  1.00  0.00    -0.237 OA
ATOM     77  O   UNL A   1      34.338  34.830  32.066  1.00  0.00    -0.237 OA
ATOM     78  O   UNL A   1      34.091  32.375  31.791  1.00  0.00    -0.744 OA
ENDBRANCH  74  75
ENDBRANCH  46  69
BRANCH  58  79
ATOM     79  C   UNL A   1      44.046  27.811  34.003  1.00  0.00    -0.014 A 
ATOM     80  C   UNL A   1      45.377  27.839  34.442  1.00  0.00     0.010 A 
ATOM     81  C   UNL A   1      43.160  26.922  34.649  1.00  0.00     0.010 A 
ATOM     82  C   UNL A   1      45.845  26.903  35.357  1.00  0.00     0.020 A 
ATOM     83  C   UNL A   1      43.598  26.048  35.635  1.00  0.00     0.020 A 
ATOM     84  C   UNL A   1      44.953  26.000  35.931  1.00  0.00     0.054 A 
BRANCH  84  85
ATOM     85  S   UNL A   1      45.583  24.754  37.065  1.00  0.00     0.124 S 
ATOM     86  O   UNL A   1      45.023  25.210  38.336  1.00  0.00    -0.237 OA
ATOM     87  O   UNL A   1      45.015  23.517  36.536  1.00  0.00    -0.237 OA
ATOM     88  O   UNL A   1      47.032  24.874  36.937  1.00  0.00    -0.744 OA
ENDBRANCH  84  85
ENDBRANCH  58  79
ENDBRANCH  32  33
ENDBRANCH  25  27
ENDBRANCH  24  25
ENDBRANCH  23  24
ENDBRANCH   1  23
TORSDOF 18
ENDMDL
MODEL 3
REMARK VINA RESULT:     -12.3      1.942      2.866
REMARK SMILES CCc1cccc(C)c1Nc1ccccc1CC(=O)OCCOC(=O)c1ccc(-c2c3nc(c(-c4ccc(S(=O)(=O)[O-])cc4)c4ccc([nH]4)c(-c4ccc(S(=O)(=O)[O-])cc4)c4nc(c(-c5ccc(S(=O)(=O)[O-])cc5)c5ccc2[nH]5)C=C4)C=C3)cc1
REMARK SMILES IDX 21 1 20 2 18 3 19 4 17 5 16 6 11 7 12 8 13 9 15 10 14 11
REMARK SMILES IDX 10 12 9 14 3 15 4 16 5 17 7 18 6 19 8 20 2 21 1 22 22 23
REMARK SMILES IDX 23 24 24 25 25 26 26 27 27 28 85 29 28 30 84 31 29 32 30 33
REMARK SMILES IDX 31 34 78 35 32 36 83 37 77 38 79 39 33 40 82 41 76 42 75 43
REMARK SMILES IDX 34 45 64 46 45 47 63 48 46 49 49 50 62 51 80 52 47 53 48 54
REMARK SMILES IDX 61 56 81 57 50 58 35 59 36 60 44 61 37 62 43 63 38 64 39 65
REMARK SMILES IDX 40 66 41 67 42 68 65 69 66 70 74 71 67 72 73 73 68 74 69 75
REMARK SMILES IDX 70 76 71 77 72 78 51 79 52 80 60 81 53 82 59 83 54 84 55 85
REMARK SMILES IDX 56 86 57 87 58 88
REMARK H PARENT 10 13 79 44 49 55
REMARK Flexibility Score: inf
ROOT
ATOM      1  C   UNL A   1      32.295  30.151  25.772  1.00  0.00     0.274 C 
ENDROOT
BRANCH   1   2
ATOM      2  O   UNL A   1      31.462  28.831  25.913  1.00  0.00    -0.462 OA
BRANCH   2   3
ATOM      3  C   UNL A   1      31.776  27.653  26.559  1.00  0.00     0.310 C 
ATOM      4  O   UNL A   1      31.451  27.540  27.744  1.00  0.00    -0.252 OA
BRANCH   3   5
ATOM      5  C   UNL A   1      32.423  26.362  25.779  1.00  0.00     0.160 C 
BRANCH   5   6
ATOM      6  C   UNL A   1      32.608  26.007  24.234  1.00  0.00    -0.013 A 
ATOM      7  C   UNL A   1      33.580  25.184  23.477  1.00  0.00     0.042 A 
ATOM      8  C   UNL A   1      33.347  24.980  22.097  1.00  0.00     0.026 A 
ATOM      9  C   UNL A   1      32.305  25.595  21.415  1.00  0.00     0.002 A 
ATOM     10  C   UNL A   1      31.627  26.684  23.456  1.00  0.00     0.006 A 
ATOM     11  C   UNL A   1      31.485  26.489  22.081  1.00  0.00     0.000 A 
BRANCH   7  12
ATOM     12  N   UNL A   1      34.783  24.424  23.874  1.00  0.00    -0.355 N 
ATOM     13  H   UNL A   1      35.644  24.665  23.461  1.00  0.00     0.167 HD
BRANCH  12  14
ATOM     14  C   UNL A   1      34.767  23.315  24.863  1.00  0.00     0.045 A 
ATOM     15  C   UNL A   1      33.497  22.048  25.022  1.00  0.00    -0.024 A 
ATOM     16  C   UNL A   1      33.952  20.292  25.007  1.00  0.00     0.006 A 
ATOM     17  C   UNL A   1      35.661  19.789  24.840  1.00  0.00     0.001 A 
ATOM     18  C   UNL A   1      36.471  22.879  24.843  1.00  0.00    -0.027 A 
ATOM     19  C   UNL A   1      36.953  21.089  24.700  1.00  0.00     0.005 A 
ATOM     20  C   UNL A   1      36.857  24.005  26.049  1.00  0.00     0.046 C 
BRANCH  15  21
ATOM     21  C   UNL A   1      32.032  22.301  24.759  1.00  0.00     0.034 C 
ATOM     22  C   UNL A   1      31.214  22.784  25.943  1.00  0.00     0.009 C 
ENDBRANCH  15  21
ENDBRANCH  12  14
ENDBRANCH   7  12
ENDBRANCH   5   6
ENDBRANCH   3   5
ENDBRANCH   2   3
ENDBRANCH   1   2
BRANCH   1  23
ATOM     23  C   UNL A   1      32.028  31.557  26.908  1.00  0.00     0.275 C 
BRANCH  23  24
ATOM     24  O   UNL A   1      33.395  32.364  27.799  1.00  0.00    -0.458 OA
BRANCH  24  25
ATOM     25  C   UNL A   1      35.298  32.261  28.059  1.00  0.00     0.338 C 
ATOM     26  O   UNL A   1      36.128  33.073  27.602  1.00  0.00    -0.246 OA
BRANCH  25  27
ATOM     27  C   UNL A   1      36.260  31.329  28.843  1.00  0.00     0.060 A 
ATOM     28  C   UNL A   1      35.964  30.287  29.750  1.00  0.00     0.016 A 
ATOM     29  C   UNL A   1      37.574  31.582  28.765  1.00  0.00     0.016 A 
ATOM     30  C   UNL A   1      37.026  29.451  30.178  1.00  0.00     0.010 A 
ATOM     31  C   UNL A   1      38.245  30.470  28.435  1.00  0.00     0.010 A 
ATOM     32  C   UNL A   1      38.213  29.583  29.470  1.00  0.00    -0.014 A 
BRANCH  32  33
ATOM     33  C   UNL A   1      39.594  29.170  29.685  1.00  0.00     0.031 A 
ATOM     34  C   UNL A   1      39.951  27.792  29.348  1.00  0.00     0.074 A 
ATOM     35  C   UNL A   1      40.443  30.250  29.685  1.00  0.00     0.049 A 
ATOM     36  N   UNL A   1      40.949  27.153  29.830  1.00  0.00    -0.248 NA
ATOM     37  C   UNL A   1      39.189  26.992  28.385  1.00  0.00     0.031 C 
ATOM     38  C   UNL A   1      41.856  30.483  29.434  1.00  0.00     0.029 A 
ATOM     39  N   UNL A   1      40.014  31.584  29.912  1.00  0.00    -0.354 N 
ATOM     40  C   UNL A   1      41.223  26.149  28.921  1.00  0.00     0.074 A 
ATOM     41  C   UNL A   1      40.001  25.948  28.186  1.00  0.00     0.031 C 
ATOM     42  C   UNL A   1      42.188  31.684  29.986  1.00  0.00     0.029 A 
ATOM     43  C   UNL A   1      40.988  32.237  30.634  1.00  0.00     0.049 A 
ATOM     44  H   UNL A   1      39.164  31.975  29.605  1.00  0.00     0.167 HD
ATOM     45  C   UNL A   1      42.526  25.812  28.700  1.00  0.00     0.031 A 
ATOM     46  C   UNL A   1      40.672  32.357  31.958  1.00  0.00     0.031 A 
ATOM     47  C   UNL A   1      43.402  26.711  29.477  1.00  0.00     0.049 A 
ATOM     48  C   UNL A   1      41.483  31.329  32.709  1.00  0.00     0.074 A 
ATOM     49  C   UNL A   1      44.182  27.798  29.114  1.00  0.00     0.029 A 
ATOM     50  N   UNL A   1      43.209  26.827  30.853  1.00  0.00    -0.354 N 
ATOM     51  N   UNL A   1      41.977  30.254  32.160  1.00  0.00    -0.248 NA
ATOM     52  C   UNL A   1      41.858  31.465  34.106  1.00  0.00     0.031 C 
ATOM     53  C   UNL A   1      44.327  28.635  30.266  1.00  0.00     0.029 A 
ATOM     54  C   UNL A   1      43.628  28.068  31.320  1.00  0.00     0.049 A 
ATOM     55  H   UNL A   1      42.823  26.122  31.422  1.00  0.00     0.167 HD
ATOM     56  C   UNL A   1      42.752  29.582  33.042  1.00  0.00     0.074 A 
ATOM     57  C   UNL A   1      42.649  30.388  34.255  1.00  0.00     0.031 C 
ATOM     58  C   UNL A   1      43.397  28.421  32.724  1.00  0.00     0.031 A 
BRANCH  45  59
ATOM     59  C   UNL A   1      43.025  24.922  27.577  1.00  0.00    -0.014 A 
ATOM     60  C   UNL A   1      43.818  23.800  27.897  1.00  0.00     0.010 A 
ATOM     61  C   UNL A   1      42.731  25.092  26.205  1.00  0.00     0.010 A 
ATOM     62  C   UNL A   1      44.310  22.918  26.922  1.00  0.00     0.020 A 
ATOM     63  C   UNL A   1      43.234  24.227  25.212  1.00  0.00     0.020 A 
ATOM     64  C   UNL A   1      44.015  23.137  25.581  1.00  0.00     0.054 A 
BRANCH  64  65
ATOM     65  S   UNL A   1      44.622  21.951  24.349  1.00  0.00     0.124 S 
ATOM     66  O   UNL A   1      44.128  22.518  23.096  1.00  0.00    -0.237 OA
ATOM     67  O   UNL A   1      46.069  22.016  24.539  1.00  0.00    -0.237 OA
ATOM     68  O   UNL A   1      44.001  20.689  24.743  1.00  0.00    -0.744 OA
ENDBRANCH  64  65
ENDBRANCH  45  59
BRANCH  46  69
ATOM     69  C   UNL A   1      39.199  32.686  32.224  1.00  0.00    -0.014 A 
ATOM     70  C   UNL A   1      38.647  33.896  31.719  1.00  0.00     0.010 A 
ATOM     71  C   UNL A   1      38.283  31.743  32.728  1.00  0.00     0.010 A 
ATOM     72  C   UNL A   1      37.256  34.140  31.691  1.00  0.00     0.020 A 
ATOM     73  C   UNL A   1      36.889  31.991  32.721  1.00  0.00     0.020 A 
ATOM     74  C   UNL A   1      36.381  33.188  32.206  1.00  0.00     0.054 A 
BRANCH  74  75
ATOM     75  S   UNL A   1      34.573  33.472  32.190  1.00  0.00     0.124 S 
ATOM     76  O   UNL A   1      34.101  32.335  31.402  1.00  0.00    -0.237 OA
ATOM     77  O   UNL A   1      34.199  33.423  33.602  1.00  0.00    -0.237 OA
ATOM     78  O   UNL A   1      34.443  34.770  31.532  1.00  0.00    -0.744 OA
ENDBRANCH  74  75
ENDBRANCH  46  69
BRANCH  58  79
ATOM     79  C   UNL A   1      43.922  27.500  33.780  1.00  0.00    -0.014 A 
ATOM     80  C   UNL A   1      45.291  27.303  34.007  1.00  0.00     0.010 A 
ATOM     81  C   UNL A   1      43.015  26.890  34.672  1.00  0.00     0.010 A 
ATOM     82  C   UNL A   1      45.732  26.400  34.967  1.00  0.00     0.020 A 
ATOM     83  C   UNL A   1      43.449  26.061  35.698  1.00  0.00     0.020 A 
ATOM     84  C   UNL A   1      44.803  25.770  35.792  1.00  0.00     0.054 A 
BRANCH  84  85
ATOM     85  S   UNL A   1      45.381  24.557  36.988  1.00  0.00     0.124 S 
ATOM     86  O   UNL A   1      44.413  24.732  38.069  1.00  0.00    -0.237 OA
ATOM     87  O   UNL A   1      45.279  23.300  36.250  1.00  0.00    -0.237 OA
ATOM     88  O   UNL A   1      46.743  24.990  37.287  1.00  0.00    -0.744 OA
ENDBRANCH  84  85
ENDBRANCH  58  79
ENDBRANCH  32  33
ENDBRANCH  25  27
ENDBRANCH  24  25
ENDBRANCH  23  24
ENDBRANCH   1  23
TORSDOF 18
ENDMDL
