MODEL 1
REMARK VINA RESULT:     -11.0      0.000      0.000
REMARK SMILES O=C(C[C@@H](NC(=O)C1CCN(C(=O)c2cccs2)CC1)c1cccs1)OCCOC(=O)c1ccc(-c2c3nc(c(-c4ccc(S(=O)(=O)[O-])cc4)c4ccc([nH]4)c(-c4ccc(S(=O)(=O)[O-])cc4)c4nc(c(-c5ccc(S(=O)(=O)[O-])cc5)c5ccc2[nH]5)C=C4)C=C3)cc1
REMARK SMILES IDX 27 1 26 2 2 3 1 4 3 5 4 6 5 7 6 8 7 10 8 11 9 12 20 13 10 14
REMARK SMILES IDX 19 15 11 16 12 17 13 18 14 19 15 20 18 21 16 22 17 23 21 24
REMARK SMILES IDX 22 25 25 26 23 27 24 28 28 29 29 30 30 31 31 32 32 33 33 34
REMARK SMILES IDX 91 35 34 36 90 37 35 38 36 39 37 40 84 41 38 42 89 43 83 44
REMARK SMILES IDX 85 45 39 46 88 47 82 48 81 49 40 51 70 52 51 53 69 54 52 55
REMARK SMILES IDX 55 56 68 57 86 58 53 59 54 60 67 62 87 63 56 64 41 65 42 66
REMARK SMILES IDX 50 67 43 68 49 69 44 70 45 71 46 72 47 73 48 74 71 75 72 76
REMARK SMILES IDX 80 77 73 78 79 79 74 80 75 81 76 82 77 83 78 84 57 85 58 86
REMARK SMILES IDX 66 87 59 88 65 89 60 90 61 91 62 92 63 93 64 94
REMARK H PARENT 5 9 85 50 55 61
REMARK Flexibility Score: inf
ROOT
ATOM      1  C   UNL A   1      32.135  29.952  25.818  1.00  0.00     0.274 C 
ENDROOT
BRANCH   1   2
ATOM      2  O   UNL A   1      33.073  29.246  24.985  1.00  0.00    -0.462 OA
BRANCH   2   3
ATOM      3  C   UNL A   1      32.784  28.015  24.492  1.00  0.00     0.308 C 
ATOM      4  O   UNL A   1      32.753  27.034  25.228  1.00  0.00    -0.252 OA
BRANCH   3   5
ATOM      5  C   UNL A   1      32.650  27.878  22.997  1.00  0.00     0.153 C 
BRANCH   5   6
ATOM      6  C   UNL A   1      31.311  27.248  22.570  1.00  0.00     0.133 C 
BRANCH   6   7
ATOM      7  N   UNL A   1      31.082  25.910  23.195  1.00  0.00    -0.348 N 
ATOM      8  C   UNL A   1      31.326  24.594  22.950  1.00  0.00     0.223 C 
ATOM      9  H   UNL A   1      30.607  26.013  24.051  1.00  0.00     0.164 HD
ATOM     10  O   UNL A   1      30.387  23.856  23.293  1.00  0.00    -0.275 OA
BRANCH   8  11
ATOM     11  C   UNL A   1      32.647  23.922  22.522  1.00  0.00     0.082 C 
ATOM     12  C   UNL A   1      32.896  22.476  22.860  1.00  0.00     0.035 C 
ATOM     13  C   UNL A   1      33.921  24.722  22.951  1.00  0.00     0.035 C 
ATOM     14  C   UNL A   1      33.114  22.359  24.345  1.00  0.00     0.120 C 
ATOM     15  C   UNL A   1      34.528  24.348  24.333  1.00  0.00     0.120 C 
ATOM     16  N   UNL A   1      34.415  22.917  24.626  1.00  0.00    -0.338 N 
ATOM     17  C   UNL A   1      35.439  21.986  24.848  1.00  0.00     0.263 C 
ATOM     18  O   UNL A   1      35.212  20.784  24.695  1.00  0.00    -0.268 OA
BRANCH  17  19
ATOM     19  C   UNL A   1      36.733  22.436  25.310  1.00  0.00     0.092 A 
ATOM     20  C   UNL A   1      37.112  23.634  25.881  1.00  0.00     0.025 A 
ATOM     21  S   UNL A   1      38.011  21.290  25.338  1.00  0.00    -0.139 S 
ATOM     22  C   UNL A   1      38.447  23.589  26.382  1.00  0.00     0.012 A 
ATOM     23  C   UNL A   1      39.045  22.368  26.161  1.00  0.00     0.065 A 
ENDBRANCH  17  19
ENDBRANCH   8  11
ENDBRANCH   6   7
BRANCH   6  24
ATOM     24  C   UNL A   1      30.100  28.144  22.646  1.00  0.00     0.027 A 
ATOM     25  C   UNL A   1      28.826  27.845  23.109  1.00  0.00     0.017 A 
ATOM     26  S   UNL A   1      30.132  29.758  22.059  1.00  0.00    -0.147 S 
ATOM     27  C   UNL A   1      27.989  29.001  23.205  1.00  0.00     0.012 A 
ATOM     28  C   UNL A   1      28.618  30.132  22.740  1.00  0.00     0.065 A 
ENDBRANCH   6  24
ENDBRANCH   5   6
ENDBRANCH   3   5
ENDBRANCH   2   3
ENDBRANCH   1   2
BRANCH   1  29
ATOM     29  C   UNL A   1      32.628  30.114  27.254  1.00  0.00     0.275 C 
BRANCH  29  30
ATOM     30  O   UNL A   1      34.026  29.791  27.350  1.00  0.00    -0.458 OA
BRANCH  30  31
ATOM     31  C   UNL A   1      34.817  30.768  27.863  1.00  0.00     0.338 C 
ATOM     32  O   UNL A   1      34.474  31.906  28.140  1.00  0.00    -0.246 OA
BRANCH  31  33
ATOM     33  C   UNL A   1      36.145  30.207  28.202  1.00  0.00     0.060 A 
ATOM     34  C   UNL A   1      36.346  29.702  29.493  1.00  0.00     0.016 A 
ATOM     35  C   UNL A   1      37.183  30.162  27.269  1.00  0.00     0.016 A 
ATOM     36  C   UNL A   1      37.586  29.169  29.861  1.00  0.00     0.010 A 
ATOM     37  C   UNL A   1      38.414  29.607  27.632  1.00  0.00     0.010 A 
ATOM     38  C   UNL A   1      38.638  29.131  28.939  1.00  0.00    -0.014 A 
BRANCH  38  39
ATOM     39  C   UNL A   1      40.018  28.726  29.325  1.00  0.00     0.031 A 
ATOM     40  C   UNL A   1      40.966  29.775  29.826  1.00  0.00     0.074 A 
ATOM     41  C   UNL A   1      40.466  27.467  29.163  1.00  0.00     0.049 A 
ATOM     42  N   UNL A   1      42.241  29.672  30.096  1.00  0.00    -0.248 NA
ATOM     43  C   UNL A   1      40.397  31.109  30.074  1.00  0.00     0.031 C 
ATOM     44  C   UNL A   1      39.650  26.325  28.783  1.00  0.00     0.029 A 
ATOM     45  N   UNL A   1      41.737  26.949  29.239  1.00  0.00    -0.354 N 
ATOM     46  C   UNL A   1      42.626  30.921  30.560  1.00  0.00     0.074 A 
ATOM     47  C   UNL A   1      41.465  31.782  30.475  1.00  0.00     0.031 C 
ATOM     48  C   UNL A   1      40.444  25.275  28.519  1.00  0.00     0.029 A 
ATOM     49  C   UNL A   1      41.830  25.669  28.742  1.00  0.00     0.049 A 
ATOM     50  H   UNL A   1      42.504  27.443  29.612  1.00  0.00     0.167 HD
ATOM     51  C   UNL A   1      43.828  31.308  31.045  1.00  0.00     0.031 A 
ATOM     52  C   UNL A   1      42.904  24.901  28.472  1.00  0.00     0.031 A 
ATOM     53  C   UNL A   1      44.986  30.458  31.103  1.00  0.00     0.049 A 
ATOM     54  C   UNL A   1      44.266  25.384  28.881  1.00  0.00     0.074 A 
ATOM     55  C   UNL A   1      46.233  30.738  31.630  1.00  0.00     0.029 A 
ATOM     56  N   UNL A   1      45.048  29.172  30.588  1.00  0.00    -0.354 N 
ATOM     57  N   UNL A   1      44.599  26.534  29.414  1.00  0.00    -0.248 NA
ATOM     58  C   UNL A   1      45.386  24.447  28.718  1.00  0.00     0.031 C 
ATOM     59  C   UNL A   1      47.067  29.644  31.380  1.00  0.00     0.029 A 
ATOM     60  C   UNL A   1      46.323  28.657  30.751  1.00  0.00     0.049 A 
ATOM     61  H   UNL A   1      44.295  28.695  30.169  1.00  0.00     0.167 HD
ATOM     62  C   UNL A   1      45.952  26.437  29.710  1.00  0.00     0.074 A 
ATOM     63  C   UNL A   1      46.383  25.124  29.274  1.00  0.00     0.031 C 
ATOM     64  C   UNL A   1      46.750  27.347  30.321  1.00  0.00     0.031 A 
BRANCH  51  65
ATOM     65  C   UNL A   1      43.937  32.729  31.526  1.00  0.00    -0.014 A 
ATOM     66  C   UNL A   1      43.842  33.040  32.895  1.00  0.00     0.010 A 
ATOM     67  C   UNL A   1      44.108  33.767  30.595  1.00  0.00     0.010 A 
ATOM     68  C   UNL A   1      43.840  34.371  33.318  1.00  0.00     0.020 A 
ATOM     69  C   UNL A   1      44.138  35.099  31.018  1.00  0.00     0.020 A 
ATOM     70  C   UNL A   1      43.973  35.393  32.373  1.00  0.00     0.054 A 
BRANCH  70  71
ATOM     71  S   UNL A   1      43.925  37.113  32.941  1.00  0.00     0.124 S 
ATOM     72  O   UNL A   1      42.704  37.130  33.742  1.00  0.00    -0.237 OA
ATOM     73  O   UNL A   1      45.171  37.240  33.693  1.00  0.00    -0.237 OA
ATOM     74  O   UNL A   1      43.868  37.886  31.702  1.00  0.00    -0.744 OA
ENDBRANCH  70  71
ENDBRANCH  51  65
BRANCH  52  75
ATOM     75  C   UNL A   1      42.716  23.589  27.796  1.00  0.00    -0.014 A 
ATOM     76  C   UNL A   1      42.950  23.444  26.419  1.00  0.00     0.010 A 
ATOM     77  C   UNL A   1      42.348  22.458  28.551  1.00  0.00     0.010 A 
ATOM     78  C   UNL A   1      42.818  22.194  25.806  1.00  0.00     0.020 A 
ATOM     79  C   UNL A   1      42.229  21.203  27.944  1.00  0.00     0.020 A 
ATOM     80  C   UNL A   1      42.464  21.080  26.574  1.00  0.00     0.054 A 
BRANCH  80  81
ATOM     81  S   UNL A   1      42.375  19.456  25.766  1.00  0.00     0.124 S 
ATOM     82  O   UNL A   1      43.329  19.605  24.672  1.00  0.00    -0.237 OA
ATOM     83  O   UNL A   1      42.779  18.551  26.840  1.00  0.00    -0.237 OA
ATOM     84  O   UNL A   1      40.974  19.348  25.366  1.00  0.00    -0.744 OA
ENDBRANCH  80  81
ENDBRANCH  52  75
BRANCH  64  85
ATOM     85  C   UNL A   1      48.171  26.951  30.619  1.00  0.00    -0.014 A 
ATOM     86  C   UNL A   1      49.202  27.156  29.687  1.00  0.00     0.010 A 
ATOM     87  C   UNL A   1      48.489  26.456  31.898  1.00  0.00     0.010 A 
ATOM     88  C   UNL A   1      50.526  26.868  30.028  1.00  0.00     0.020 A 
ATOM     89  C   UNL A   1      49.814  26.192  32.251  1.00  0.00     0.020 A 
ATOM     90  C   UNL A   1      50.825  26.396  31.310  1.00  0.00     0.054 A 
BRANCH  90  91
ATOM     91  S   UNL A   1      52.561  26.119  31.758  1.00  0.00     0.124 S 
ATOM     92  O   UNL A   1      53.257  26.502  30.532  1.00  0.00    -0.237 OA
ATOM     93  O   UNL A   1      52.747  27.017  32.894  1.00  0.00    -0.237 OA
ATOM     94  O   UNL A   1      52.613  24.694  32.084  1.00  0.00    -0.744 OA
ENDBRANCH  90  91
ENDBRANCH  64  85
ENDBRANCH  38  39
ENDBRANCH  31  33
ENDBRANCH  30  31
ENDBRANCH  29  30
ENDBRANCH   1  29
TORSDOF 19
ENDMDL
MODEL 2
REMARK VINA RESULT:     -10.6      2.816      3.479
REMARK SMILES O=C(C[C@@H](NC(=O)C1CCN(C(=O)c2cccs2)CC1)c1cccs1)OCCOC(=O)c1ccc(-c2c3nc(c(-c4ccc(S(=O)(=O)[O-])cc4)c4ccc([nH]4)c(-c4ccc(S(=O)(=O)[O-])cc4)c4nc(c(-c5ccc(S(=O)(=O)[O-])cc5)c5ccc2[nH]5)C=C4)C=C3)cc1
REMARK SMILES IDX 27 1 26 2 2 3 1 4 3 5 4 6 5 7 6 8 7 10 8 11 9 12 20 13 10 14
REMARK SMILES IDX 19 15 11 16 12 17 13 18 14 19 15 20 18 21 16 22 17 23 21 24
REMARK SMILES IDX 22 25 25 26 23 27 24 28 28 29 29 30 30 31 31 32 32 33 33 34
REMARK SMILES IDX 91 35 34 36 90 37 35 38 36 39 37 40 84 41 38 42 89 43 83 44
REMARK SMILES IDX 85 45 39 46 88 47 82 48 81 49 40 51 70 52 51 53 69 54 52 55
REMARK SMILES IDX 55 56 68 57 86 58 53 59 54 60 67 62 87 63 56 64 41 65 42 66
REMARK SMILES IDX 50 67 43 68 49 69 44 70 45 71 46 72 47 73 48 74 71 75 72 76
REMARK SMILES IDX 80 77 73 78 79 79 74 80 75 81 76 82 77 83 78 84 57 85 58 86
REMARK SMILES IDX 66 87 59 88 65 89 60 90 61 91 62 92 63 93 64 94
REMARK H PARENT 5 9 85 50 55 61
REMARK Flexibility Score: inf
ROOT
ATOM      1  C   UNL A   1      31.972  30.081  25.554  1.00  0.00     0.274 C 
ENDROOT
BRANCH   1   2
ATOM      2  O   UNL A   1      33.045  29.536  24.763  1.00  0.00    -0.462 OA
BRANCH   2   3
ATOM      3  C   UNL A   1      32.991  28.267  24.288  1.00  0.00     0.308 C 
ATOM      4  O   UNL A   1      33.682  27.381  24.780  1.00  0.00    -0.252 OA
BRANCH   3   5
ATOM      5  C   UNL A   1      32.168  28.022  23.049  1.00  0.00     0.153 C 
BRANCH   5   6
ATOM      6  C   UNL A   1      30.812  27.356  23.352  1.00  0.00     0.133 C 
BRANCH   6   7
ATOM      7  N   UNL A   1      30.763  26.752  24.717  1.00  0.00    -0.348 N 
ATOM      8  C   UNL A   1      30.481  25.563  25.316  1.00  0.00     0.223 C 
ATOM      9  H   UNL A   1      31.011  27.422  25.394  1.00  0.00     0.164 HD
ATOM     10  O   UNL A   1      29.870  25.695  26.390  1.00  0.00    -0.275 OA
BRANCH   8  11
ATOM     11  C   UNL A   1      30.995  24.154  24.952  1.00  0.00     0.082 C 
ATOM     12  C   UNL A   1      31.173  23.120  26.031  1.00  0.00     0.035 C 
ATOM     13  C   UNL A   1      32.311  24.170  24.107  1.00  0.00     0.035 C 
ATOM     14  C   UNL A   1      32.345  23.516  26.890  1.00  0.00     0.120 C 
ATOM     15  C   UNL A   1      33.640  24.119  24.912  1.00  0.00     0.120 C 
ATOM     16  N   UNL A   1      33.537  23.284  26.111  1.00  0.00    -0.338 N 
ATOM     17  C   UNL A   1      34.256  22.126  26.435  1.00  0.00     0.263 C 
ATOM     18  O   UNL A   1      33.799  21.336  27.264  1.00  0.00    -0.268 OA
BRANCH  17  19
ATOM     19  C   UNL A   1      35.553  21.893  25.839  1.00  0.00     0.092 A 
ATOM     20  C   UNL A   1      36.714  22.638  25.906  1.00  0.00     0.025 A 
ATOM     21  S   UNL A   1      35.811  20.390  25.051  1.00  0.00    -0.139 S 
ATOM     22  C   UNL A   1      37.827  21.944  25.343  1.00  0.00     0.012 A 
ATOM     23  C   UNL A   1      37.475  20.707  24.853  1.00  0.00     0.065 A 
ENDBRANCH  17  19
ENDBRANCH   8  11
ENDBRANCH   6   7
BRANCH   6  24
ATOM     24  C   UNL A   1      29.584  28.171  23.028  1.00  0.00     0.027 A 
ATOM     25  C   UNL A   1      28.249  27.849  23.234  1.00  0.00     0.017 A 
ATOM     26  S   UNL A   1      29.692  29.694  22.240  1.00  0.00    -0.147 S 
ATOM     27  C   UNL A   1      27.372  28.950  22.976  1.00  0.00     0.012 A 
ATOM     28  C   UNL A   1      28.050  30.050  22.506  1.00  0.00     0.065 A 
ENDBRANCH   6  24
ENDBRANCH   5   6
ENDBRANCH   3   5
ENDBRANCH   2   3
ENDBRANCH   1   2
BRANCH   1  29
ATOM     29  C   UNL A   1      32.447  30.612  26.905  1.00  0.00     0.275 C 
BRANCH  29  30
ATOM     30  O   UNL A   1      33.866  30.425  27.053  1.00  0.00    -0.458 OA
BRANCH  30  31
ATOM     31  C   UNL A   1      34.521  31.424  27.700  1.00  0.00     0.338 C 
ATOM     32  O   UNL A   1      34.117  32.562  27.869  1.00  0.00    -0.246 OA
BRANCH  31  33
ATOM     33  C   UNL A   1      35.749  30.886  28.330  1.00  0.00     0.060 A 
ATOM     34  C   UNL A   1      35.626  29.809  29.217  1.00  0.00     0.016 A 
ATOM     35  C   UNL A   1      37.009  31.418  28.054  1.00  0.00     0.016 A 
ATOM     36  C   UNL A   1      36.757  29.272  29.842  1.00  0.00     0.010 A 
ATOM     37  C   UNL A   1      38.140  30.865  28.661  1.00  0.00     0.010 A 
ATOM     38  C   UNL A   1      38.025  29.806  29.582  1.00  0.00    -0.014 A 
BRANCH  38  39
ATOM     39  C   UNL A   1      39.234  29.382  30.339  1.00  0.00     0.031 A 
ATOM     40  C   UNL A   1      39.660  30.185  31.533  1.00  0.00     0.074 A 
ATOM     41  C   UNL A   1      40.004  28.351  29.941  1.00  0.00     0.049 A 
ATOM     42  N   UNL A   1      40.741  30.075  32.257  1.00  0.00    -0.248 NA
ATOM     43  C   UNL A   1      38.732  31.237  31.980  1.00  0.00     0.031 C 
ATOM     44  C   UNL A   1      39.678  27.422  28.871  1.00  0.00     0.029 A 
ATOM     45  N   UNL A   1      41.252  27.950  30.354  1.00  0.00    -0.354 N 
ATOM     46  C   UNL A   1      40.621  31.032  33.255  1.00  0.00     0.074 A 
ATOM     47  C   UNL A   1      39.392  31.754  33.005  1.00  0.00     0.031 C 
ATOM     48  C   UNL A   1      40.745  26.651  28.608  1.00  0.00     0.029 A 
ATOM     49  C   UNL A   1      41.823  27.016  29.519  1.00  0.00     0.049 A 
ATOM     50  H   UNL A   1      41.693  28.294  31.164  1.00  0.00     0.167 HD
ATOM     51  C   UNL A   1      41.443  31.265  34.305  1.00  0.00     0.031 A 
ATOM     52  C   UNL A   1      43.076  26.522  29.471  1.00  0.00     0.031 A 
ATOM     53  C   UNL A   1      42.676  30.563  34.535  1.00  0.00     0.049 A 
ATOM     54  C   UNL A   1      44.045  26.887  30.558  1.00  0.00     0.074 A 
ATOM     55  C   UNL A   1      43.550  30.686  35.600  1.00  0.00     0.029 A 
ATOM     56  N   UNL A   1      43.228  29.629  33.670  1.00  0.00    -0.354 N 
ATOM     57  N   UNL A   1      43.878  27.721  31.555  1.00  0.00    -0.248 NA
ATOM     58  C   UNL A   1      45.343  26.199  30.557  1.00  0.00     0.031 C 
ATOM     59  C   UNL A   1      44.659  29.871  35.349  1.00  0.00     0.029 A 
ATOM     60  C   UNL A   1      44.448  29.194  34.158  1.00  0.00     0.049 A 
ATOM     61  H   UNL A   1      42.811  29.321  32.833  1.00  0.00     0.167 HD
ATOM     62  C   UNL A   1      45.020  27.610  32.337  1.00  0.00     0.074 A 
ATOM     63  C   UNL A   1      45.883  26.648  31.684  1.00  0.00     0.031 C 
ATOM     64  C   UNL A   1      45.304  28.230  33.509  1.00  0.00     0.031 A 
BRANCH  51  65
ATOM     65  C   UNL A   1      41.026  32.348  35.261  1.00  0.00    -0.014 A 
ATOM     66  C   UNL A   1      41.498  33.666  35.113  1.00  0.00     0.010 A 
ATOM     67  C   UNL A   1      40.178  32.038  36.337  1.00  0.00     0.010 A 
ATOM     68  C   UNL A   1      41.189  34.638  36.067  1.00  0.00     0.020 A 
ATOM     69  C   UNL A   1      39.840  33.016  37.277  1.00  0.00     0.020 A 
ATOM     70  C   UNL A   1      40.373  34.300  37.152  1.00  0.00     0.054 A 
BRANCH  70  71
ATOM     71  S   UNL A   1      40.019  35.567  38.400  1.00  0.00     0.124 S 
ATOM     72  O   UNL A   1      38.885  34.980  39.108  1.00  0.00    -0.237 OA
ATOM     73  O   UNL A   1      41.267  35.631  39.157  1.00  0.00    -0.237 OA
ATOM     74  O   UNL A   1      39.713  36.756  37.610  1.00  0.00    -0.744 OA
ENDBRANCH  70  71
ENDBRANCH  51  65
BRANCH  52  75
ATOM     75  C   UNL A   1      43.464  25.615  28.357  1.00  0.00    -0.014 A 
ATOM     76  C   UNL A   1      43.212  24.234  28.428  1.00  0.00     0.010 A 
ATOM     77  C   UNL A   1      44.046  26.146  27.190  1.00  0.00     0.010 A 
ATOM     78  C   UNL A   1      43.538  23.401  27.353  1.00  0.00     0.020 A 
ATOM     79  C   UNL A   1      44.359  25.317  26.108  1.00  0.00     0.020 A 
ATOM     80  C   UNL A   1      44.102  23.948  26.197  1.00  0.00     0.054 A 
BRANCH  80  81
ATOM     81  S   UNL A   1      44.442  22.853  24.789  1.00  0.00     0.124 S 
ATOM     82  O   UNL A   1      43.122  22.715  24.183  1.00  0.00    -0.237 OA
ATOM     83  O   UNL A   1      45.415  23.626  24.020  1.00  0.00    -0.237 OA
ATOM     84  O   UNL A   1      44.975  21.644  25.415  1.00  0.00    -0.744 OA
ENDBRANCH  80  81
ENDBRANCH  52  75
BRANCH  64  85
ATOM     85  C   UNL A   1      46.581  27.855  34.213  1.00  0.00    -0.014 A 
ATOM     86  C   UNL A   1      46.638  26.771  35.104  1.00  0.00     0.010 A 
ATOM     87  C   UNL A   1      47.766  28.547  33.894  1.00  0.00     0.010 A 
ATOM     88  C   UNL A   1      47.858  26.388  35.667  1.00  0.00     0.020 A 
ATOM     89  C   UNL A   1      48.990  28.149  34.435  1.00  0.00     0.020 A 
ATOM     90  C   UNL A   1      49.027  27.073  35.323  1.00  0.00     0.054 A 
BRANCH  90  91
ATOM     91  S   UNL A   1      50.611  26.497  35.996  1.00  0.00     0.124 S 
ATOM     92  O   UNL A   1      51.232  27.746  36.426  1.00  0.00    -0.237 OA
ATOM     93  O   UNL A   1      50.195  25.599  37.070  1.00  0.00    -0.237 OA
ATOM     94  O   UNL A   1      51.254  25.841  34.858  1.00  0.00    -0.744 OA
ENDBRANCH  90  91
ENDBRANCH  64  85
ENDBRANCH  38  39
ENDBRANCH  31  33
ENDBRANCH  30  31
ENDBRANCH  29  30
ENDBRANCH   1  29
TORSDOF 19
ENDMDL
MODEL 3
REMARK VINA RESULT:     -10.4      2.874      8.198
REMARK SMILES O=C(C[C@@H](NC(=O)C1CCN(C(=O)c2cccs2)CC1)c1cccs1)OCCOC(=O)c1ccc(-c2c3nc(c(-c4ccc(S(=O)(=O)[O-])cc4)c4ccc([nH]4)c(-c4ccc(S(=O)(=O)[O-])cc4)c4nc(c(-c5ccc(S(=O)(=O)[O-])cc5)c5ccc2[nH]5)C=C4)C=C3)cc1
REMARK SMILES IDX 27 1 26 2 2 3 1 4 3 5 4 6 5 7 6 8 7 10 8 11 9 12 20 13 10 14
REMARK SMILES IDX 19 15 11 16 12 17 13 18 14 19 15 20 18 21 16 22 17 23 21 24
REMARK SMILES IDX 22 25 25 26 23 27 24 28 28 29 29 30 30 31 31 32 32 33 33 34
REMARK SMILES IDX 91 35 34 36 90 37 35 38 36 39 37 40 84 41 38 42 89 43 83 44
REMARK SMILES IDX 85 45 39 46 88 47 82 48 81 49 40 51 70 52 51 53 69 54 52 55
REMARK SMILES IDX 55 56 68 57 86 58 53 59 54 60 67 62 87 63 56 64 41 65 42 66
REMARK SMILES IDX 50 67 43 68 49 69 44 70 45 71 46 72 47 73 48 74 71 75 72 76
REMARK SMILES IDX 80 77 73 78 79 79 74 80 75 81 76 82 77 83 78 84 57 85 58 86
REMARK SMILES IDX 66 87 59 88 65 89 60 90 61 91 62 92 63 93 64 94
REMARK H PARENT 5 9 85 50 55 61
REMARK Flexibility Score: inf
ROOT
ATOM      1  C   UNL A   1      31.725  29.782  25.750  1.00  0.00     0.274 C 
ENDROOT
BRANCH   1   2
ATOM      2  O   UNL A   1      32.796  29.528  24.821  1.00  0.00    -0.462 OA
BRANCH   2   3
ATOM      3  C   UNL A   1      32.995  28.290  24.303  1.00  0.00     0.308 C 
ATOM      4  O   UNL A   1      33.793  27.514  24.818  1.00  0.00    -0.252 OA
BRANCH   3   5
ATOM      5  C   UNL A   1      32.315  27.964  22.998  1.00  0.00     0.153 C 
BRANCH   5   6
ATOM      6  C   UNL A   1      30.912  27.358  23.187  1.00  0.00     0.133 C 
BRANCH   6   7
ATOM      7  N   UNL A   1      30.764  26.656  24.497  1.00  0.00    -0.348 N 
ATOM      8  C   UNL A   1      30.456  25.423  24.985  1.00  0.00     0.223 C 
ATOM      9  H   UNL A   1      30.945  27.278  25.238  1.00  0.00     0.164 HD
ATOM     10  O   UNL A   1      29.759  25.469  26.013  1.00  0.00    -0.275 OA
BRANCH   8  11
ATOM     11  C   UNL A   1      31.023  24.051  24.565  1.00  0.00     0.082 C 
ATOM     12  C   UNL A   1      31.064  22.921  25.559  1.00  0.00     0.035 C 
ATOM     13  C   UNL A   1      32.439  24.136  23.906  1.00  0.00     0.035 C 
ATOM     14  C   UNL A   1      32.110  23.230  26.598  1.00  0.00     0.120 C 
ATOM     15  C   UNL A   1      33.651  24.004  24.871  1.00  0.00     0.120 C 
ATOM     16  N   UNL A   1      33.395  23.063  25.965  1.00  0.00    -0.338 N 
ATOM     17  C   UNL A   1      34.073  21.877  26.273  1.00  0.00     0.263 C 
ATOM     18  O   UNL A   1      33.516  21.018  26.959  1.00  0.00    -0.268 OA
BRANCH  17  19
ATOM     19  C   UNL A   1      35.439  21.693  25.835  1.00  0.00     0.092 A 
ATOM     20  C   UNL A   1      36.015  20.670  25.108  1.00  0.00     0.025 A 
ATOM     21  S   UNL A   1      36.536  22.991  26.076  1.00  0.00    -0.139 S 
ATOM     22  C   UNL A   1      37.350  20.981  24.713  1.00  0.00     0.012 A 
ATOM     23  C   UNL A   1      37.752  22.218  25.165  1.00  0.00     0.065 A 
ENDBRANCH  17  19
ENDBRANCH   8  11
ENDBRANCH   6   7
BRANCH   6  24
ATOM     24  C   UNL A   1      29.748  28.266  22.875  1.00  0.00     0.027 A 
ATOM     25  C   UNL A   1      28.403  28.085  23.168  1.00  0.00     0.017 A 
ATOM     26  S   UNL A   1      29.950  29.722  21.986  1.00  0.00    -0.147 S 
ATOM     27  C   UNL A   1      27.617  29.246  22.886  1.00  0.00     0.012 A 
ATOM     28  C   UNL A   1      28.365  30.247  22.313  1.00  0.00     0.065 A 
ENDBRANCH   6  24
ENDBRANCH   5   6
ENDBRANCH   3   5
ENDBRANCH   2   3
ENDBRANCH   1   2
BRANCH   1  29
ATOM     29  C   UNL A   1      32.210  30.423  27.048  1.00  0.00     0.275 C 
BRANCH  29  30
ATOM     30  O   UNL A   1      33.648  30.436  27.101  1.00  0.00    -0.458 OA
BRANCH  30  31
ATOM     31  C   UNL A   1      34.199  31.513  27.718  1.00  0.00     0.338 C 
ATOM     32  O   UNL A   1      33.650  32.581  27.936  1.00  0.00    -0.246 OA
BRANCH  31  33
ATOM     33  C   UNL A   1      35.533  31.153  28.250  1.00  0.00     0.060 A 
ATOM     34  C   UNL A   1      35.710  29.875  28.796  1.00  0.00     0.016 A 
ATOM     35  C   UNL A   1      36.606  32.045  28.209  1.00  0.00     0.016 A 
ATOM     36  C   UNL A   1      36.951  29.493  29.317  1.00  0.00     0.010 A 
ATOM     37  C   UNL A   1      37.850  31.653  28.709  1.00  0.00     0.010 A 
ATOM     38  C   UNL A   1      38.030  30.383  29.294  1.00  0.00    -0.014 A 
BRANCH  38  39
ATOM     39  C   UNL A   1      39.318  30.088  29.978  1.00  0.00     0.031 A 
ATOM     40  C   UNL A   1      40.100  28.877  29.558  1.00  0.00     0.074 A 
ATOM     41  C   UNL A   1      39.764  30.823  31.013  1.00  0.00     0.049 A 
ATOM     42  N   UNL A   1      41.173  28.362  30.096  1.00  0.00    -0.248 NA
ATOM     43  C   UNL A   1      39.618  28.168  28.362  1.00  0.00     0.031 C 
ATOM     44  C   UNL A   1      39.177  32.071  31.474  1.00  0.00     0.029 A 
ATOM     45  N   UNL A   1      40.784  30.592  31.907  1.00  0.00    -0.354 N 
ATOM     46  C   UNL A   1      41.507  27.277  29.298  1.00  0.00     0.074 A 
ATOM     47  C   UNL A   1      40.486  27.172  28.278  1.00  0.00     0.031 C 
ATOM     48  C   UNL A   1      39.742  32.428  32.639  1.00  0.00     0.029 A 
ATOM     49  C   UNL A   1      40.757  31.442  32.989  1.00  0.00     0.049 A 
ATOM     50  H   UNL A   1      41.465  29.890  31.785  1.00  0.00     0.167 HD
ATOM     51  C   UNL A   1      42.584  26.463  29.387  1.00  0.00     0.031 A 
ATOM     52  C   UNL A   1      41.449  31.423  34.145  1.00  0.00     0.031 A 
ATOM     53  C   UNL A   1      43.581  26.555  30.418  1.00  0.00     0.049 A 
ATOM     54  C   UNL A   1      42.560  30.427  34.313  1.00  0.00     0.074 A 
ATOM     55  C   UNL A   1      44.740  25.815  30.562  1.00  0.00     0.029 A 
ATOM     56  N   UNL A   1      43.522  27.421  31.500  1.00  0.00    -0.354 N 
ATOM     57  N   UNL A   1      42.927  29.467  33.499  1.00  0.00    -0.248 NA
ATOM     58  C   UNL A   1      43.393  30.548  35.517  1.00  0.00     0.031 C 
ATOM     59  C   UNL A   1      45.351  26.191  31.762  1.00  0.00     0.029 A 
ATOM     60  C   UNL A   1      44.604  27.208  32.337  1.00  0.00     0.049 A 
ATOM     61  H   UNL A   1      42.814  28.089  31.650  1.00  0.00     0.167 HD
ATOM     62  C   UNL A   1      44.071  28.914  34.057  1.00  0.00     0.074 A 
ATOM     63  C   UNL A   1      44.322  29.627  35.292  1.00  0.00     0.031 C 
ATOM     64  C   UNL A   1      44.857  27.924  33.564  1.00  0.00     0.031 A 
BRANCH  51  65
ATOM     65  C   UNL A   1      42.707  25.390  28.341  1.00  0.00    -0.014 A 
ATOM     66  C   UNL A   1      42.181  24.102  28.559  1.00  0.00     0.010 A 
ATOM     67  C   UNL A   1      43.382  25.662  27.140  1.00  0.00     0.010 A 
ATOM     68  C   UNL A   1      42.394  23.085  27.626  1.00  0.00     0.020 A 
ATOM     69  C   UNL A   1      43.570  24.655  26.190  1.00  0.00     0.020 A 
ATOM     70  C   UNL A   1      43.101  23.366  26.454  1.00  0.00     0.054 A 
BRANCH  70  71
ATOM     71  S   UNL A   1      43.401  22.020  25.277  1.00  0.00     0.124 S 
ATOM     72  O   UNL A   1      42.289  21.118  25.564  1.00  0.00    -0.237 OA
ATOM     73  O   UNL A   1      43.339  22.701  23.986  1.00  0.00    -0.237 OA
ATOM     74  O   UNL A   1      44.722  21.521  25.651  1.00  0.00    -0.744 OA
ENDBRANCH  70  71
ENDBRANCH  51  65
BRANCH  52  75
ATOM     75  C   UNL A   1      41.112  32.397  35.218  1.00  0.00    -0.014 A 
ATOM     76  C   UNL A   1      41.843  33.587  35.370  1.00  0.00     0.010 A 
ATOM     77  C   UNL A   1      40.013  32.156  36.065  1.00  0.00     0.010 A 
ATOM     78  C   UNL A   1      41.484  34.517  36.351  1.00  0.00     0.020 A 
ATOM     79  C   UNL A   1      39.642  33.091  37.037  1.00  0.00     0.020 A 
ATOM     80  C   UNL A   1      40.382  34.266  37.174  1.00  0.00     0.054 A 
BRANCH  80  81
ATOM     81  S   UNL A   1      39.892  35.527  38.386  1.00  0.00     0.124 S 
ATOM     82  O   UNL A   1      41.106  35.673  39.183  1.00  0.00    -0.237 OA
ATOM     83  O   UNL A   1      39.553  36.664  37.534  1.00  0.00    -0.237 OA
ATOM     84  O   UNL A   1      38.758  34.916  39.077  1.00  0.00    -0.744 OA
ENDBRANCH  80  81
ENDBRANCH  52  75
BRANCH  64  85
ATOM     85  C   UNL A   1      46.109  27.576  34.323  1.00  0.00    -0.014 A 
ATOM     86  C   UNL A   1      47.316  28.261  34.105  1.00  0.00     0.010 A 
ATOM     87  C   UNL A   1      46.043  26.608  35.344  1.00  0.00     0.010 A 
ATOM     88  C   UNL A   1      48.436  27.981  34.892  1.00  0.00     0.020 A 
ATOM     89  C   UNL A   1      47.153  26.345  36.150  1.00  0.00     0.020 A 
ATOM     90  C   UNL A   1      48.345  27.031  35.914  1.00  0.00     0.054 A 
BRANCH  90  91
ATOM     91  S   UNL A   1      49.786  26.753  36.982  1.00  0.00     0.124 S 
ATOM     92  O   UNL A   1      50.530  25.744  36.233  1.00  0.00    -0.237 OA
ATOM     93  O   UNL A   1      50.403  28.075  37.038  1.00  0.00    -0.237 OA
ATOM     94  O   UNL A   1      49.203  26.291  38.240  1.00  0.00    -0.744 OA
ENDBRANCH  90  91
ENDBRANCH  64  85
ENDBRANCH  38  39
ENDBRANCH  31  33
ENDBRANCH  30  31
ENDBRANCH  29  30
ENDBRANCH   1  29
TORSDOF 19
ENDMDL
