MODEL 1
REMARK VINA RESULT:      -9.7      0.000      0.000
REMARK SMILES Cc1cc(Br)c(C)c([C@@H]2[NH2+][C@H](C(=O)OCCOC(=O)c3ccc(-c4c5nc(c(-c6ccc(S(=O)(=O)[O-])cc6)c6ccc([nH]6)c(-c6ccc(S(=O)(=O)[O-])cc6)c6nc(c(-c7ccc(S(=O)(=O)[O-])cc7)c7ccc4[nH]7)C=C6)C=C5)cc3)CS2)c1O
REMARK SMILES IDX 16 1 15 2 14 3 12 4 13 5 11 6 9 7 10 8 81 9 80 12 8 13 1 14
REMARK SMILES IDX 2 15 3 16 82 17 4 18 5 19 6 20 7 21 83 22 17 24 18 25 19 26
REMARK SMILES IDX 20 27 21 28 79 29 22 30 78 31 23 32 24 33 25 34 72 35 26 36
REMARK SMILES IDX 77 37 71 38 73 39 27 40 76 41 70 42 69 43 28 45 58 46 39 47
REMARK SMILES IDX 57 48 40 49 43 50 56 51 74 52 41 53 42 54 55 56 75 57 44 58
REMARK SMILES IDX 29 59 30 60 38 61 31 62 37 63 32 64 33 65 34 66 35 67 36 68
REMARK SMILES IDX 59 69 60 70 68 71 61 72 67 73 62 74 63 75 64 76 65 77 66 78
REMARK SMILES IDX 45 79 46 80 54 81 47 82 53 83 48 84 49 85 50 86 51 87 52 88
REMARK H PARENT 10 10 10 11 83 23 73 44 43 55
REMARK Flexibility Score: inf
ROOT
ATOM      1  C   UNL A   1      34.791  32.573  27.666  1.00  0.00     0.275 C 
ENDROOT
BRANCH   1   2
ATOM      2  C   UNL A   1      34.849  33.800  28.576  1.00  0.00     0.274 C 
BRANCH   2   3
ATOM      3  O   UNL A   1      36.199  34.000  29.032  1.00  0.00    -0.458 OA
BRANCH   3   4
ATOM      4  C   UNL A   1      36.441  33.922  30.366  1.00  0.00     0.365 C 
ATOM      5  O   UNL A   1      37.463  34.346  30.900  1.00  0.00    -0.245 OA
BRANCH   4   6
ATOM      6  C   UNL A   1      35.297  33.287  31.172  1.00  0.00     0.304 C 
ATOM      7  C   UNL A   1      35.874  32.308  33.296  1.00  0.00     0.278 C 
ATOM      8  N   UNL A   1      35.654  32.028  31.877  1.00  0.00    -0.319 N 
ATOM      9  S   UNL A   1      34.827  33.685  33.790  1.00  0.00    -0.087 SA
ATOM     10  H   UNL A   1      34.893  31.357  31.778  1.00  0.00     0.348 HD
ATOM     11  H   UNL A   1      36.505  31.643  31.472  1.00  0.00     0.348 HD
ATOM     12  C   UNL A   1      34.645  34.309  32.104  1.00  0.00     0.153 C 
BRANCH   7  13
ATOM     13  C   UNL A   1      37.357  32.349  33.663  1.00  0.00     0.066 A 
ATOM     14  C   UNL A   1      40.153  34.921  34.366  1.00  0.00     0.048 C 
ATOM     15  C   UNL A   1      39.412  33.628  34.176  1.00  0.00    -0.008 A 
ATOM     16  C   UNL A   1      40.132  32.434  34.220  1.00  0.00     0.023 A 
ATOM     17  C   UNL A   1      38.036  33.568  33.902  1.00  0.00     0.128 A 
ATOM     18  C   UNL A   1      39.501  31.210  33.993  1.00  0.00     0.021 A 
ATOM     19  Br  UNL A   1      40.605  29.664  34.155  1.00  0.00    -0.051 Br
ATOM     20  C   UNL A   1      38.128  31.141  33.672  1.00  0.00    -0.023 A 
ATOM     21  C   UNL A   1      37.505  29.793  33.385  1.00  0.00     0.046 C 
BRANCH  17  22
ATOM     22  O   UNL A   1      37.333  34.742  33.849  1.00  0.00    -0.507 OA
ATOM     23  H   UNL A   1      37.697  35.487  33.411  1.00  0.00     0.293 HD
ENDBRANCH  17  22
ENDBRANCH   7  13
ENDBRANCH   4   6
ENDBRANCH   3   4
ENDBRANCH   2   3
ENDBRANCH   1   2
BRANCH   1  24
ATOM     24  O   UNL A   1      34.285  31.446  28.397  1.00  0.00    -0.458 OA
BRANCH  24  25
ATOM     25  C   UNL A   1      34.564  30.232  27.858  1.00  0.00     0.338 C 
ATOM     26  O   UNL A   1      33.890  29.586  27.086  1.00  0.00    -0.246 OA
BRANCH  25  27
ATOM     27  C   UNL A   1      35.947  29.886  28.228  1.00  0.00     0.060 A 
ATOM     28  C   UNL A   1      36.264  29.461  29.518  1.00  0.00     0.016 A 
ATOM     29  C   UNL A   1      36.937  30.002  27.247  1.00  0.00     0.016 A 
ATOM     30  C   UNL A   1      37.590  29.164  29.828  1.00  0.00     0.010 A 
ATOM     31  C   UNL A   1      38.260  29.712  27.558  1.00  0.00     0.010 A 
ATOM     32  C   UNL A   1      38.593  29.293  28.851  1.00  0.00    -0.014 A 
BRANCH  32  33
ATOM     33  C   UNL A   1      39.981  28.899  29.165  1.00  0.00     0.031 A 
ATOM     34  C   UNL A   1      40.879  29.808  29.945  1.00  0.00     0.074 A 
ATOM     35  C   UNL A   1      40.415  27.703  28.730  1.00  0.00     0.049 A 
ATOM     36  N   UNL A   1      42.074  29.565  30.414  1.00  0.00    -0.248 NA
ATOM     37  C   UNL A   1      40.378  31.161  30.233  1.00  0.00     0.031 C 
ATOM     38  C   UNL A   1      39.622  26.771  27.924  1.00  0.00     0.029 A 
ATOM     39  N   UNL A   1      41.609  27.058  28.914  1.00  0.00    -0.354 N 
ATOM     40  C   UNL A   1      42.462  30.723  31.076  1.00  0.00     0.074 A 
ATOM     41  C   UNL A   1      41.398  31.689  30.901  1.00  0.00     0.031 C 
ATOM     42  C   UNL A   1      40.337  25.654  27.721  1.00  0.00     0.029 A 
ATOM     43  C   UNL A   1      41.639  25.798  28.365  1.00  0.00     0.049 A 
ATOM     44  H   UNL A   1      42.370  27.457  29.394  1.00  0.00     0.167 HD
ATOM     45  C   UNL A   1      43.595  30.942  31.783  1.00  0.00     0.031 A 
ATOM     46  C   UNL A   1      42.599  24.853  28.400  1.00  0.00     0.031 A 
ATOM     47  C   UNL A   1      44.649  29.971  31.923  1.00  0.00     0.049 A 
ATOM     48  C   UNL A   1      43.854  25.125  29.176  1.00  0.00     0.074 A 
ATOM     49  C   UNL A   1      45.823  30.077  32.649  1.00  0.00     0.029 A 
ATOM     50  N   UNL A   1      44.663  28.719  31.322  1.00  0.00    -0.354 N 
ATOM     51  N   UNL A   1      44.174  26.194  29.865  1.00  0.00    -0.248 NA
ATOM     52  C   UNL A   1      44.868  24.063  29.198  1.00  0.00     0.031 C 
ATOM     53  C   UNL A   1      46.571  28.916  32.440  1.00  0.00     0.029 A 
ATOM     54  C   UNL A   1      45.837  28.056  31.637  1.00  0.00     0.049 A 
ATOM     55  H   UNL A   1      43.943  28.357  30.757  1.00  0.00     0.167 HD
ATOM     56  C   UNL A   1      45.425  25.934  30.411  1.00  0.00     0.074 A 
ATOM     57  C   UNL A   1      45.794  24.597  29.987  1.00  0.00     0.031 C 
ATOM     58  C   UNL A   1      46.194  26.731  31.190  1.00  0.00     0.031 A 
BRANCH  45  59
ATOM     59  C   UNL A   1      43.755  32.268  32.481  1.00  0.00    -0.014 A 
ATOM     60  C   UNL A   1      43.574  32.363  33.872  1.00  0.00     0.010 A 
ATOM     61  C   UNL A   1      43.979  33.442  31.740  1.00  0.00     0.010 A 
ATOM     62  C   UNL A   1      43.592  33.608  34.508  1.00  0.00     0.020 A 
ATOM     63  C   UNL A   1      44.022  34.687  32.374  1.00  0.00     0.020 A 
ATOM     64  C   UNL A   1      43.806  34.764  33.752  1.00  0.00     0.054 A 
BRANCH  64  65
ATOM     65  S   UNL A   1      43.814  36.374  34.588  1.00  0.00     0.124 S 
ATOM     66  O   UNL A   1      43.047  37.205  33.666  1.00  0.00    -0.237 OA
ATOM     67  O   UNL A   1      43.163  36.078  35.863  1.00  0.00    -0.237 OA
ATOM     68  O   UNL A   1      45.236  36.699  34.690  1.00  0.00    -0.744 OA
ENDBRANCH  64  65
ENDBRANCH  45  59
BRANCH  46  69
ATOM     69  C   UNL A   1      42.340  23.549  27.735  1.00  0.00    -0.014 A 
ATOM     70  C   UNL A   1      41.618  22.541  28.400  1.00  0.00     0.010 A 
ATOM     71  C   UNL A   1      42.928  23.264  26.490  1.00  0.00     0.010 A 
ATOM     72  C   UNL A   1      41.540  21.253  27.862  1.00  0.00     0.020 A 
ATOM     73  C   UNL A   1      42.828  21.983  25.936  1.00  0.00     0.020 A 
ATOM     74  C   UNL A   1      42.164  20.978  26.643  1.00  0.00     0.054 A 
BRANCH  74  75
ATOM     75  S   UNL A   1      42.118  19.282  26.001  1.00  0.00     0.124 S 
ATOM     76  O   UNL A   1      42.962  19.389  24.814  1.00  0.00    -0.237 OA
ATOM     77  O   UNL A   1      42.679  18.506  27.104  1.00  0.00    -0.237 OA
ATOM     78  O   UNL A   1      40.699  19.054  25.740  1.00  0.00    -0.744 OA
ENDBRANCH  74  75
ENDBRANCH  46  69
BRANCH  58  79
ATOM     79  C   UNL A   1      47.535  26.204  31.629  1.00  0.00    -0.014 A 
ATOM     80  C   UNL A   1      48.606  26.168  30.717  1.00  0.00     0.010 A 
ATOM     81  C   UNL A   1      47.691  25.621  32.898  1.00  0.00     0.010 A 
ATOM     82  C   UNL A   1      49.797  25.524  31.051  1.00  0.00     0.020 A 
ATOM     83  C   UNL A   1      48.893  24.997  33.245  1.00  0.00     0.020 A 
ATOM     84  C   UNL A   1      49.928  24.930  32.309  1.00  0.00     0.054 A 
BRANCH  84  85
ATOM     85  S   UNL A   1      51.469  24.062  32.715  1.00  0.00     0.124 S 
ATOM     86  O   UNL A   1      51.481  24.125  34.174  1.00  0.00    -0.237 OA
ATOM     87  O   UNL A   1      51.251  22.735  32.144  1.00  0.00    -0.237 OA
ATOM     88  O   UNL A   1      52.496  24.857  32.046  1.00  0.00    -0.744 OA
ENDBRANCH  84  85
ENDBRANCH  58  79
ENDBRANCH  32  33
ENDBRANCH  25  27
ENDBRANCH  24  25
ENDBRANCH   1  24
TORSDOF 16
ENDMDL
MODEL 2
REMARK VINA RESULT:      -9.7      3.849     10.808
REMARK SMILES Cc1cc(Br)c(C)c([C@@H]2[NH2+][C@H](C(=O)OCCOC(=O)c3ccc(-c4c5nc(c(-c6ccc(S(=O)(=O)[O-])cc6)c6ccc([nH]6)c(-c6ccc(S(=O)(=O)[O-])cc6)c6nc(c(-c7ccc(S(=O)(=O)[O-])cc7)c7ccc4[nH]7)C=C6)C=C5)cc3)CS2)c1O
REMARK SMILES IDX 16 1 15 2 14 3 12 4 13 5 11 6 9 7 10 8 81 9 80 12 8 13 1 14
REMARK SMILES IDX 2 15 3 16 82 17 4 18 5 19 6 20 7 21 83 22 17 24 18 25 19 26
REMARK SMILES IDX 20 27 21 28 79 29 22 30 78 31 23 32 24 33 25 34 72 35 26 36
REMARK SMILES IDX 77 37 71 38 73 39 27 40 76 41 70 42 69 43 28 45 58 46 39 47
REMARK SMILES IDX 57 48 40 49 43 50 56 51 74 52 41 53 42 54 55 56 75 57 44 58
REMARK SMILES IDX 29 59 30 60 38 61 31 62 37 63 32 64 33 65 34 66 35 67 36 68
REMARK SMILES IDX 59 69 60 70 68 71 61 72 67 73 62 74 63 75 64 76 65 77 66 78
REMARK SMILES IDX 45 79 46 80 54 81 47 82 53 83 48 84 49 85 50 86 51 87 52 88
REMARK H PARENT 10 10 10 11 83 23 73 44 43 55
REMARK Flexibility Score: inf
ROOT
ATOM      1  C   UNL A   1      36.985  21.875  25.301  1.00  0.00     0.275 C 
ENDROOT
BRANCH   1   2
ATOM      2  C   UNL A   1      35.510  21.889  25.701  1.00  0.00     0.274 C 
BRANCH   2   3
ATOM      3  O   UNL A   1      35.168  23.180  26.237  1.00  0.00    -0.458 OA
BRANCH   3   4
ATOM      4  C   UNL A   1      34.319  23.964  25.524  1.00  0.00     0.365 C 
ATOM      5  O   UNL A   1      34.686  24.754  24.657  1.00  0.00    -0.245 OA
BRANCH   4   6
ATOM      6  C   UNL A   1      32.836  23.750  25.864  1.00  0.00     0.304 C 
ATOM      7  C   UNL A   1      31.397  25.677  25.726  1.00  0.00     0.278 C 
ATOM      8  N   UNL A   1      32.205  24.857  26.629  1.00  0.00    -0.319 N 
ATOM      9  S   UNL A   1      30.757  24.637  24.405  1.00  0.00    -0.087 SA
ATOM     10  H   UNL A   1      31.608  24.468  27.358  1.00  0.00     0.348 HD
ATOM     11  H   UNL A   1      32.931  25.433  27.051  1.00  0.00     0.348 HD
ATOM     12  C   UNL A   1      32.032  23.374  24.619  1.00  0.00     0.153 C 
BRANCH   7  13
ATOM     13  C   UNL A   1      32.084  26.990  25.354  1.00  0.00     0.066 A 
ATOM     14  C   UNL A   1      34.161  28.523  22.479  1.00  0.00     0.048 C 
ATOM     15  C   UNL A   1      33.420  28.348  23.774  1.00  0.00    -0.008 A 
ATOM     16  C   UNL A   1      33.464  29.378  24.713  1.00  0.00     0.023 A 
ATOM     17  C   UNL A   1      32.729  27.172  24.106  1.00  0.00     0.128 A 
ATOM     18  C   UNL A   1      32.841  29.242  25.953  1.00  0.00     0.021 A 
ATOM     19  Br  UNL A   1      32.933  30.763  27.101  1.00  0.00    -0.051 Br
ATOM     20  C   UNL A   1      32.182  28.048  26.316  1.00  0.00    -0.023 A 
ATOM     21  C   UNL A   1      31.566  27.935  27.693  1.00  0.00     0.046 C 
BRANCH  17  22
ATOM     22  O   UNL A   1      32.695  26.158  23.187  1.00  0.00    -0.507 OA
ATOM     23  H   UNL A   1      31.948  25.592  23.140  1.00  0.00     0.293 HD
ENDBRANCH  17  22
ENDBRANCH   7  13
ENDBRANCH   4   6
ENDBRANCH   3   4
ENDBRANCH   2   3
ENDBRANCH   1   2
BRANCH   1  24
ATOM     24  O   UNL A   1      37.625  23.080  25.748  1.00  0.00    -0.458 OA
BRANCH  24  25
ATOM     25  C   UNL A   1      38.906  22.934  26.171  1.00  0.00     0.338 C 
ATOM     26  O   UNL A   1      39.673  22.029  25.927  1.00  0.00    -0.246 OA
BRANCH  25  27
ATOM     27  C   UNL A   1      39.296  24.180  26.854  1.00  0.00     0.060 A 
ATOM     28  C   UNL A   1      38.899  24.438  28.166  1.00  0.00     0.016 A 
ATOM     29  C   UNL A   1      40.073  25.101  26.145  1.00  0.00     0.016 A 
ATOM     30  C   UNL A   1      39.273  25.639  28.765  1.00  0.00     0.010 A 
ATOM     31  C   UNL A   1      40.441  26.302  26.740  1.00  0.00     0.010 A 
ATOM     32  C   UNL A   1      40.042  26.578  28.053  1.00  0.00    -0.014 A 
BRANCH  32  33
ATOM     33  C   UNL A   1      40.503  27.811  28.721  1.00  0.00     0.031 A 
ATOM     34  C   UNL A   1      41.921  27.950  29.180  1.00  0.00     0.074 A 
ATOM     35  C   UNL A   1      39.615  28.804  28.905  1.00  0.00     0.049 A 
ATOM     36  N   UNL A   1      42.520  29.005  29.664  1.00  0.00    -0.248 NA
ATOM     37  C   UNL A   1      42.776  26.756  29.091  1.00  0.00     0.031 C 
ATOM     38  C   UNL A   1      38.200  28.737  28.528  1.00  0.00     0.029 A 
ATOM     39  N   UNL A   1      39.765  30.059  29.431  1.00  0.00    -0.354 N 
ATOM     40  C   UNL A   1      43.829  28.614  29.915  1.00  0.00     0.074 A 
ATOM     41  C   UNL A   1      43.924  27.210  29.581  1.00  0.00     0.031 C 
ATOM     42  C   UNL A   1      37.624  29.918  28.796  1.00  0.00     0.029 A 
ATOM     43  C   UNL A   1      38.619  30.814  29.376  1.00  0.00     0.049 A 
ATOM     44  H   UNL A   1      40.612  30.387  29.810  1.00  0.00     0.167 HD
ATOM     45  C   UNL A   1      44.857  29.374  30.360  1.00  0.00     0.031 A 
ATOM     46  C   UNL A   1      38.400  32.097  29.728  1.00  0.00     0.031 A 
ATOM     47  C   UNL A   1      44.731  30.766  30.706  1.00  0.00     0.049 A 
ATOM     48  C   UNL A   1      39.551  32.914  30.236  1.00  0.00     0.074 A 
ATOM     49  C   UNL A   1      45.718  31.637  31.132  1.00  0.00     0.029 A 
ATOM     50  N   UNL A   1      43.546  31.489  30.674  1.00  0.00    -0.354 N 
ATOM     51  N   UNL A   1      40.803  32.555  30.392  1.00  0.00    -0.248 NA
ATOM     52  C   UNL A   1      39.271  34.310  30.597  1.00  0.00     0.031 C 
ATOM     53  C   UNL A   1      45.121  32.868  31.412  1.00  0.00     0.029 A 
ATOM     54  C   UNL A   1      43.772  32.787  31.101  1.00  0.00     0.049 A 
ATOM     55  H   UNL A   1      42.674  31.132  30.389  1.00  0.00     0.167 HD
ATOM     56  C   UNL A   1      41.466  33.681  30.863  1.00  0.00     0.074 A 
ATOM     57  C   UNL A   1      40.478  34.741  30.947  1.00  0.00     0.031 C 
ATOM     58  C   UNL A   1      42.772  33.823  31.195  1.00  0.00     0.031 A 
BRANCH  45  59
ATOM     59  C   UNL A   1      46.216  28.733  30.480  1.00  0.00    -0.014 A 
ATOM     60  C   UNL A   1      47.093  28.719  29.381  1.00  0.00     0.010 A 
ATOM     61  C   UNL A   1      46.581  28.050  31.654  1.00  0.00     0.010 A 
ATOM     62  C   UNL A   1      48.299  28.015  29.444  1.00  0.00     0.020 A 
ATOM     63  C   UNL A   1      47.798  27.365  31.730  1.00  0.00     0.020 A 
ATOM     64  C   UNL A   1      48.639  27.334  30.616  1.00  0.00     0.054 A 
BRANCH  64  65
ATOM     65  S   UNL A   1      50.202  26.415  30.678  1.00  0.00     0.124 S 
ATOM     66  O   UNL A   1      51.031  27.272  31.519  1.00  0.00    -0.237 OA
ATOM     67  O   UNL A   1      49.803  25.141  31.273  1.00  0.00    -0.237 OA
ATOM     68  O   UNL A   1      50.607  26.334  29.276  1.00  0.00    -0.744 OA
ENDBRANCH  64  65
ENDBRANCH  45  59
BRANCH  46  69
ATOM     69  C   UNL A   1      37.044  32.671  29.524  1.00  0.00    -0.014 A 
ATOM     70  C   UNL A   1      36.721  33.325  28.320  1.00  0.00     0.010 A 
ATOM     71  C   UNL A   1      36.117  32.683  30.581  1.00  0.00     0.010 A 
ATOM     72  C   UNL A   1      35.522  34.032  28.198  1.00  0.00     0.020 A 
ATOM     73  C   UNL A   1      34.904  33.369  30.452  1.00  0.00     0.020 A 
ATOM     74  C   UNL A   1      34.631  34.066  29.273  1.00  0.00     0.054 A 
BRANCH  74  75
ATOM     75  S   UNL A   1      33.117  35.055  29.123  1.00  0.00     0.124 S 
ATOM     76  O   UNL A   1      32.591  35.004  30.484  1.00  0.00    -0.237 OA
ATOM     77  O   UNL A   1      33.625  36.356  28.693  1.00  0.00    -0.237 OA
ATOM     78  O   UNL A   1      32.336  34.333  28.123  1.00  0.00    -0.744 OA
ENDBRANCH  74  75
ENDBRANCH  46  69
BRANCH  58  79
ATOM     79  C   UNL A   1      43.227  35.163  31.707  1.00  0.00    -0.014 A 
ATOM     80  C   UNL A   1      43.017  35.504  33.057  1.00  0.00     0.010 A 
ATOM     81  C   UNL A   1      43.732  36.131  30.823  1.00  0.00     0.010 A 
ATOM     82  C   UNL A   1      43.271  36.801  33.505  1.00  0.00     0.020 A 
ATOM     83  C   UNL A   1      44.012  37.424  31.275  1.00  0.00     0.020 A 
ATOM     84  C   UNL A   1      43.754  37.757  32.607  1.00  0.00     0.054 A 
BRANCH  84  85
ATOM     85  S   UNL A   1      44.040  39.449  33.196  1.00  0.00     0.124 S 
ATOM     86  O   UNL A   1      44.681  39.219  34.489  1.00  0.00    -0.237 OA
ATOM     87  O   UNL A   1      44.901  40.010  32.158  1.00  0.00    -0.237 OA
ATOM     88  O   UNL A   1      42.698  40.022  33.257  1.00  0.00    -0.744 OA
ENDBRANCH  84  85
ENDBRANCH  58  79
ENDBRANCH  32  33
ENDBRANCH  25  27
ENDBRANCH  24  25
ENDBRANCH   1  24
TORSDOF 16
ENDMDL
MODEL 3
REMARK VINA RESULT:      -9.6      4.067      6.627
REMARK SMILES Cc1cc(Br)c(C)c([C@@H]2[NH2+][C@H](C(=O)OCCOC(=O)c3ccc(-c4c5nc(c(-c6ccc(S(=O)(=O)[O-])cc6)c6ccc([nH]6)c(-c6ccc(S(=O)(=O)[O-])cc6)c6nc(c(-c7ccc(S(=O)(=O)[O-])cc7)c7ccc4[nH]7)C=C6)C=C5)cc3)CS2)c1O
REMARK SMILES IDX 16 1 15 2 14 3 12 4 13 5 11 6 9 7 10 8 81 9 80 12 8 13 1 14
REMARK SMILES IDX 2 15 3 16 82 17 4 18 5 19 6 20 7 21 83 22 17 24 18 25 19 26
REMARK SMILES IDX 20 27 21 28 79 29 22 30 78 31 23 32 24 33 25 34 72 35 26 36
REMARK SMILES IDX 77 37 71 38 73 39 27 40 76 41 70 42 69 43 28 45 58 46 39 47
REMARK SMILES IDX 57 48 40 49 43 50 56 51 74 52 41 53 42 54 55 56 75 57 44 58
REMARK SMILES IDX 29 59 30 60 38 61 31 62 37 63 32 64 33 65 34 66 35 67 36 68
REMARK SMILES IDX 59 69 60 70 68 71 61 72 67 73 62 74 63 75 64 76 65 77 66 78
REMARK SMILES IDX 45 79 46 80 54 81 47 82 53 83 48 84 49 85 50 86 51 87 52 88
REMARK H PARENT 10 10 10 11 83 23 73 44 43 55
REMARK Flexibility Score: inf
ROOT
ATOM      1  C   UNL A   1      32.266  29.647  27.171  1.00  0.00     0.275 C 
ENDROOT
BRANCH   1   2
ATOM      2  C   UNL A   1      31.428  28.415  27.510  1.00  0.00     0.274 C 
BRANCH   2   3
ATOM      3  O   UNL A   1      32.019  27.248  26.910  1.00  0.00    -0.458 OA
BRANCH   3   4
ATOM      4  C   UNL A   1      31.223  26.439  26.165  1.00  0.00     0.365 C 
ATOM      5  O   UNL A   1      30.072  26.141  26.475  1.00  0.00    -0.245 OA
BRANCH   4   6
ATOM      6  C   UNL A   1      31.874  25.951  24.861  1.00  0.00     0.304 C 
ATOM      7  C   UNL A   1      30.964  26.809  22.803  1.00  0.00     0.278 C 
ATOM      8  N   UNL A   1      30.924  25.694  23.748  1.00  0.00    -0.319 N 
ATOM      9  S   UNL A   1      32.615  27.521  22.807  1.00  0.00    -0.087 SA
ATOM     10  H   UNL A   1      31.189  24.834  23.269  1.00  0.00     0.348 HD
ATOM     11  H   UNL A   1      29.981  25.601  24.122  1.00  0.00     0.348 HD
ATOM     12  C   UNL A   1      33.023  26.868  24.441  1.00  0.00     0.153 C 
BRANCH   7  13
ATOM     13  C   UNL A   1      29.764  27.745  22.948  1.00  0.00     0.066 A 
ATOM     14  C   UNL A   1      26.045  27.633  23.992  1.00  0.00     0.048 C 
ATOM     15  C   UNL A   1      27.388  28.122  23.526  1.00  0.00    -0.008 A 
ATOM     16  C   UNL A   1      27.505  29.445  23.102  1.00  0.00     0.023 A 
ATOM     17  C   UNL A   1      28.517  27.293  23.446  1.00  0.00     0.128 A 
ATOM     18  C   UNL A   1      28.715  29.932  22.607  1.00  0.00     0.021 A 
ATOM     19  Br  UNL A   1      28.735  31.779  22.131  1.00  0.00    -0.051 Br
ATOM     20  C   UNL A   1      29.845  29.097  22.480  1.00  0.00    -0.023 A 
ATOM     21  C   UNL A   1      31.118  29.663  21.889  1.00  0.00     0.046 C 
BRANCH  17  22
ATOM     22  O   UNL A   1      28.397  25.991  23.854  1.00  0.00    -0.507 OA
ATOM     23  H   UNL A   1      28.695  25.297  23.299  1.00  0.00     0.293 HD
ENDBRANCH  17  22
ENDBRANCH   7  13
ENDBRANCH   4   6
ENDBRANCH   3   4
ENDBRANCH   2   3
ENDBRANCH   1   2
BRANCH   1  24
ATOM     24  O   UNL A   1      33.641  29.413  27.515  1.00  0.00    -0.458 OA
BRANCH  24  25
ATOM     25  C   UNL A   1      34.360  30.523  27.816  1.00  0.00     0.338 C 
ATOM     26  O   UNL A   1      33.958  31.658  27.952  1.00  0.00    -0.246 OA
BRANCH  25  27
ATOM     27  C   UNL A   1      35.731  30.093  28.143  1.00  0.00     0.060 A 
ATOM     28  C   UNL A   1      36.754  30.164  27.197  1.00  0.00     0.016 A 
ATOM     29  C   UNL A   1      35.976  29.605  29.430  1.00  0.00     0.016 A 
ATOM     30  C   UNL A   1      38.030  29.727  27.544  1.00  0.00     0.010 A 
ATOM     31  C   UNL A   1      37.247  29.162  29.773  1.00  0.00     0.010 A 
ATOM     32  C   UNL A   1      38.281  29.219  28.831  1.00  0.00    -0.014 A 
BRANCH  32  33
ATOM     33  C   UNL A   1      39.653  28.834  29.217  1.00  0.00     0.031 A 
ATOM     34  C   UNL A   1      40.495  29.738  30.063  1.00  0.00     0.074 A 
ATOM     35  C   UNL A   1      40.124  27.650  28.787  1.00  0.00     0.049 A 
ATOM     36  N   UNL A   1      41.664  29.499  30.595  1.00  0.00    -0.248 NA
ATOM     37  C   UNL A   1      39.963  31.080  30.345  1.00  0.00     0.031 C 
ATOM     38  C   UNL A   1      39.389  26.724  27.920  1.00  0.00     0.029 A 
ATOM     39  N   UNL A   1      41.313  27.014  29.028  1.00  0.00    -0.354 N 
ATOM     40  C   UNL A   1      42.000  30.648  31.298  1.00  0.00     0.074 A 
ATOM     41  C   UNL A   1      40.938  31.606  31.079  1.00  0.00     0.031 C 
ATOM     42  C   UNL A   1      40.127  25.619  27.740  1.00  0.00     0.029 A 
ATOM     43  C   UNL A   1      41.388  25.765  28.459  1.00  0.00     0.049 A 
ATOM     44  H   UNL A   1      42.041  27.412  29.557  1.00  0.00     0.167 HD
ATOM     45  C   UNL A   1      43.088  30.866  32.072  1.00  0.00     0.031 A 
ATOM     46  C   UNL A   1      42.355  24.829  28.533  1.00  0.00     0.031 A 
ATOM     47  C   UNL A   1      44.144  29.903  32.256  1.00  0.00     0.049 A 
ATOM     48  C   UNL A   1      43.561  25.099  29.384  1.00  0.00     0.074 A 
ATOM     49  C   UNL A   1      45.273  30.009  33.049  1.00  0.00     0.029 A 
ATOM     50  N   UNL A   1      44.206  28.663  31.635  1.00  0.00    -0.354 N 
ATOM     51  N   UNL A   1      43.830  26.160  30.108  1.00  0.00    -0.248 NA
ATOM     52  C   UNL A   1      44.584  24.048  29.445  1.00  0.00     0.031 C 
ATOM     53  C   UNL A   1      46.045  28.859  32.862  1.00  0.00     0.029 A 
ATOM     54  C   UNL A   1      45.368  28.006  32.004  1.00  0.00     0.049 A 
ATOM     55  H   UNL A   1      43.524  28.303  31.023  1.00  0.00     0.167 HD
ATOM     56  C   UNL A   1      45.050  25.903  30.720  1.00  0.00     0.074 A 
ATOM     57  C   UNL A   1      45.458  24.577  30.295  1.00  0.00     0.031 C 
ATOM     58  C   UNL A   1      45.765  26.694  31.556  1.00  0.00     0.031 A 
BRANCH  45  59
ATOM     59  C   UNL A   1      43.194  32.181  32.801  1.00  0.00    -0.014 A 
ATOM     60  C   UNL A   1      42.561  32.354  34.045  1.00  0.00     0.010 A 
ATOM     61  C   UNL A   1      43.831  33.281  32.200  1.00  0.00     0.010 A 
ATOM     62  C   UNL A   1      42.544  33.607  34.665  1.00  0.00     0.020 A 
ATOM     63  C   UNL A   1      43.837  34.530  32.828  1.00  0.00     0.020 A 
ATOM     64  C   UNL A   1      43.174  34.690  34.046  1.00  0.00     0.054 A 
BRANCH  64  65
ATOM     65  S   UNL A   1      43.133  36.313  34.856  1.00  0.00     0.124 S 
ATOM     66  O   UNL A   1      41.727  36.439  35.224  1.00  0.00    -0.237 OA
ATOM     67  O   UNL A   1      44.064  36.141  35.969  1.00  0.00    -0.237 OA
ATOM     68  O   UNL A   1      43.592  37.228  33.812  1.00  0.00    -0.744 OA
ENDBRANCH  64  65
ENDBRANCH  45  59
BRANCH  46  69
ATOM     69  C   UNL A   1      42.150  23.535  27.832  1.00  0.00    -0.014 A 
ATOM     70  C   UNL A   1      41.503  22.467  28.482  1.00  0.00     0.010 A 
ATOM     71  C   UNL A   1      42.716  23.322  26.562  1.00  0.00     0.010 A 
ATOM     72  C   UNL A   1      41.479  21.195  27.903  1.00  0.00     0.020 A 
ATOM     73  C   UNL A   1      42.671  22.056  25.969  1.00  0.00     0.020 A 
ATOM     74  C   UNL A   1      42.083  20.994  26.659  1.00  0.00     0.054 A 
BRANCH  74  75
ATOM     75  S   UNL A   1      42.112  19.319  25.962  1.00  0.00     0.124 S 
ATOM     76  O   UNL A   1      43.004  19.487  24.819  1.00  0.00    -0.237 OA
ATOM     77  O   UNL A   1      42.644  18.522  27.064  1.00  0.00    -0.237 OA
ATOM     78  O   UNL A   1      40.712  19.063  25.631  1.00  0.00    -0.744 OA
ENDBRANCH  74  75
ENDBRANCH  46  69
BRANCH  58  79
ATOM     79  C   UNL A   1      47.084  26.172  32.062  1.00  0.00    -0.014 A 
ATOM     80  C   UNL A   1      48.231  26.270  31.253  1.00  0.00     0.010 A 
ATOM     81  C   UNL A   1      47.154  25.466  33.274  1.00  0.00     0.010 A 
ATOM     82  C   UNL A   1      49.417  25.638  31.629  1.00  0.00     0.020 A 
ATOM     83  C   UNL A   1      48.348  24.854  33.667  1.00  0.00     0.020 A 
ATOM     84  C   UNL A   1      49.463  24.921  32.828  1.00  0.00     0.054 A 
BRANCH  84  85
ATOM     85  S   UNL A   1      51.000  24.072  33.285  1.00  0.00     0.124 S 
ATOM     86  O   UNL A   1      50.599  23.335  34.480  1.00  0.00    -0.237 OA
ATOM     87  O   UNL A   1      51.280  23.256  32.106  1.00  0.00    -0.237 OA
ATOM     88  O   UNL A   1      51.941  25.166  33.512  1.00  0.00    -0.744 OA
ENDBRANCH  84  85
ENDBRANCH  58  79
ENDBRANCH  32  33
ENDBRANCH  25  27
ENDBRANCH  24  25
ENDBRANCH   1  24
TORSDOF 16
ENDMDL
