MODEL 1
REMARK VINA RESULT:     -10.6      0.000      0.000
REMARK SMILES Nc1ccc2[nH]cc(C(=O)OCCOC(=O)c3ccc(-c4c5nc(c(-c6ccc(S(=O)(=O)[O-])cc6)c6ccc([nH]6)c(-c6ccc(S(=O)(=O)[O-])cc6)c6nc(c(-c7ccc(S(=O)(=O)[O-])cc7)c7ccc4[nH]7)C=C6)C=C5)cc3)c2c1
REMARK SMILES IDX 13 1 12 2 11 3 9 4 10 5 8 6 2 7 3 8 78 9 4 10 77 11 5 12
REMARK SMILES IDX 6 13 7 14 1 16 14 19 15 20 16 21 17 22 18 23 76 24 19 25
REMARK SMILES IDX 75 26 20 27 21 28 22 29 69 30 23 31 74 32 68 33 70 34 24 35
REMARK SMILES IDX 73 36 67 37 66 38 25 40 55 41 36 42 54 43 37 44 40 45 53 46
REMARK SMILES IDX 71 47 38 48 39 49 52 51 72 52 41 53 26 54 27 55 35 56 28 57
REMARK SMILES IDX 34 58 29 59 30 60 31 61 32 62 33 63 56 64 57 65 65 66 58 67
REMARK SMILES IDX 64 68 59 69 60 70 61 71 62 72 63 73 42 74 43 75 51 76 44 77
REMARK SMILES IDX 50 78 45 79 46 80 47 81 48 82 49 83
REMARK H PARENT 6 15 1 17 1 18 70 39 40 50
REMARK Flexibility Score: inf
ROOT
ATOM      1  C   UNL A   1      34.004  33.733  32.440  1.00  0.00     0.275 C 
ENDROOT
BRANCH   1   2
ATOM      2  C   UNL A   1      34.510  34.592  31.272  1.00  0.00     0.275 C 
BRANCH   2   3
ATOM      3  O   UNL A   1      33.752  34.367  30.057  1.00  0.00    -0.458 OA
BRANCH   3   4
ATOM      4  C   UNL A   1      34.468  34.417  28.897  1.00  0.00     0.340 C 
ATOM      5  O   UNL A   1      34.439  35.394  28.146  1.00  0.00    -0.246 OA
BRANCH   4   6
ATOM      6  C   UNL A   1      35.295  33.242  28.627  1.00  0.00     0.085 A 
ATOM      7  C   UNL A   1      33.760  30.007  27.274  1.00  0.00     0.032 A 
ATOM      8  C   UNL A   1      34.958  29.293  27.223  1.00  0.00     0.027 A 
ATOM      9  C   UNL A   1      33.741  31.304  27.806  1.00  0.00     0.036 A 
ATOM     10  C   UNL A   1      36.172  29.875  27.582  1.00  0.00     0.029 A 
ATOM     11  C   UNL A   1      34.948  31.929  28.171  1.00  0.00     0.016 A 
ATOM     12  C   UNL A   1      36.131  31.195  28.020  1.00  0.00     0.046 A 
ATOM     13  N   UNL A   1      37.171  32.019  28.341  1.00  0.00    -0.360 N 
ATOM     14  C   UNL A   1      36.675  33.239  28.670  1.00  0.00     0.099 A 
ATOM     15  H   UNL A   1      38.123  31.770  28.334  1.00  0.00     0.166 HD
BRANCH   7  16
ATOM     16  N   UNL A   1      32.568  29.387  26.915  1.00  0.00    -0.399 N 
ATOM     17  H   UNL A   1      32.365  28.481  27.245  1.00  0.00     0.156 HD
ATOM     18  H   UNL A   1      31.927  29.853  26.331  1.00  0.00     0.156 HD
ENDBRANCH   7  16
ENDBRANCH   4   6
ENDBRANCH   3   4
ENDBRANCH   2   3
ENDBRANCH   1   2
BRANCH   1  19
ATOM     19  O   UNL A   1      34.645  32.452  32.386  1.00  0.00    -0.458 OA
BRANCH  19  20
ATOM     20  C   UNL A   1      35.842  32.339  33.004  1.00  0.00     0.338 C 
ATOM     21  O   UNL A   1      36.067  32.469  34.200  1.00  0.00    -0.246 OA
BRANCH  20  22
ATOM     22  C   UNL A   1      36.745  31.681  32.037  1.00  0.00     0.060 A 
ATOM     23  C   UNL A   1      36.517  30.372  31.586  1.00  0.00     0.016 A 
ATOM     24  C   UNL A   1      37.977  32.291  31.838  1.00  0.00     0.016 A 
ATOM     25  C   UNL A   1      37.586  29.602  31.118  1.00  0.00     0.010 A 
ATOM     26  C   UNL A   1      39.025  31.528  31.347  1.00  0.00     0.010 A 
ATOM     27  C   UNL A   1      38.867  30.153  31.087  1.00  0.00    -0.014 A 
BRANCH  27  28
ATOM     28  C   UNL A   1      40.040  29.326  30.747  1.00  0.00     0.031 A 
ATOM     29  C   UNL A   1      40.901  28.973  31.896  1.00  0.00     0.074 A 
ATOM     30  C   UNL A   1      40.324  28.714  29.572  1.00  0.00     0.049 A 
ATOM     31  N   UNL A   1      42.067  29.465  32.152  1.00  0.00    -0.248 NA
ATOM     32  C   UNL A   1      40.392  28.048  32.916  1.00  0.00     0.031 C 
ATOM     33  C   UNL A   1      39.530  28.642  28.345  1.00  0.00     0.029 A 
ATOM     34  N   UNL A   1      41.367  27.874  29.282  1.00  0.00    -0.354 N 
ATOM     35  C   UNL A   1      42.505  28.806  33.288  1.00  0.00     0.074 A 
ATOM     36  C   UNL A   1      41.361  28.116  33.827  1.00  0.00     0.031 C 
ATOM     37  C   UNL A   1      39.940  27.596  27.589  1.00  0.00     0.029 A 
ATOM     38  C   UNL A   1      41.173  27.084  28.153  1.00  0.00     0.049 A 
ATOM     39  H   UNL A   1      42.186  27.832  29.827  1.00  0.00     0.167 HD
ATOM     40  C   UNL A   1      43.823  28.677  33.596  1.00  0.00     0.031 A 
ATOM     41  C   UNL A   1      41.977  26.094  27.697  1.00  0.00     0.031 A 
ATOM     42  C   UNL A   1      44.668  29.458  32.734  1.00  0.00     0.049 A 
ATOM     43  C   UNL A   1      43.338  26.373  28.201  1.00  0.00     0.074 A 
ATOM     44  C   UNL A   1      44.802  30.802  32.450  1.00  0.00     0.029 A 
ATOM     45  N   UNL A   1      45.297  28.783  31.714  1.00  0.00    -0.354 N 
ATOM     46  N   UNL A   1      44.040  27.409  27.837  1.00  0.00    -0.248 NA
ATOM     47  C   UNL A   1      43.836  25.663  29.368  1.00  0.00     0.031 C 
ATOM     48  C   UNL A   1      45.156  30.868  31.072  1.00  0.00     0.029 A 
ATOM     49  C   UNL A   1      45.243  29.562  30.583  1.00  0.00     0.049 A 
ATOM     50  H   UNL A   1      45.712  27.893  31.782  1.00  0.00     0.167 HD
ATOM     51  C   UNL A   1      44.778  27.740  28.957  1.00  0.00     0.074 A 
ATOM     52  C   UNL A   1      44.748  26.543  29.790  1.00  0.00     0.031 C 
ATOM     53  C   UNL A   1      45.085  29.040  29.236  1.00  0.00     0.031 A 
BRANCH  40  54
ATOM     54  C   UNL A   1      44.357  27.583  34.475  1.00  0.00    -0.014 A 
ATOM     55  C   UNL A   1      44.661  27.778  35.839  1.00  0.00     0.010 A 
ATOM     56  C   UNL A   1      44.392  26.262  33.993  1.00  0.00     0.010 A 
ATOM     57  C   UNL A   1      45.062  26.732  36.665  1.00  0.00     0.020 A 
ATOM     58  C   UNL A   1      44.736  25.193  34.830  1.00  0.00     0.020 A 
ATOM     59  C   UNL A   1      45.090  25.439  36.158  1.00  0.00     0.054 A 
BRANCH  59  60
ATOM     60  S   UNL A   1      45.498  24.091  37.290  1.00  0.00     0.124 S 
ATOM     61  O   UNL A   1      44.757  24.472  38.489  1.00  0.00    -0.237 OA
ATOM     62  O   UNL A   1      44.990  22.920  36.581  1.00  0.00    -0.237 OA
ATOM     63  O   UNL A   1      46.952  24.166  37.400  1.00  0.00    -0.744 OA
ENDBRANCH  59  60
ENDBRANCH  40  54
BRANCH  41  64
ATOM     64  C   UNL A   1      41.629  24.796  27.072  1.00  0.00    -0.014 A 
ATOM     65  C   UNL A   1      40.646  23.978  27.665  1.00  0.00     0.010 A 
ATOM     66  C   UNL A   1      42.485  24.211  26.118  1.00  0.00     0.010 A 
ATOM     67  C   UNL A   1      40.591  22.604  27.398  1.00  0.00     0.020 A 
ATOM     68  C   UNL A   1      42.434  22.835  25.845  1.00  0.00     0.020 A 
ATOM     69  C   UNL A   1      41.516  22.033  26.522  1.00  0.00     0.054 A 
BRANCH  69  70
ATOM     70  S   UNL A   1      41.565  20.222  26.375  1.00  0.00     0.124 S 
ATOM     71  O   UNL A   1      42.532  20.034  25.297  1.00  0.00    -0.237 OA
ATOM     72  O   UNL A   1      42.016  19.809  27.701  1.00  0.00    -0.237 OA
ATOM     73  O   UNL A   1      40.187  19.863  26.047  1.00  0.00    -0.744 OA
ENDBRANCH  69  70
ENDBRANCH  41  64
BRANCH  53  74
ATOM     74  C   UNL A   1      44.955  30.067  28.126  1.00  0.00    -0.014 A 
ATOM     75  C   UNL A   1      46.138  30.610  27.592  1.00  0.00     0.010 A 
ATOM     76  C   UNL A   1      43.725  30.627  27.726  1.00  0.00     0.010 A 
ATOM     77  C   UNL A   1      46.101  31.702  26.720  1.00  0.00     0.020 A 
ATOM     78  C   UNL A   1      43.679  31.708  26.830  1.00  0.00     0.020 A 
ATOM     79  C   UNL A   1      44.870  32.255  26.355  1.00  0.00     0.054 A 
BRANCH  79  80
ATOM     80  S   UNL A   1      44.867  33.717  25.280  1.00  0.00     0.124 S 
ATOM     81  O   UNL A   1      44.333  33.180  24.030  1.00  0.00    -0.237 OA
ATOM     82  O   UNL A   1      43.982  34.640  25.988  1.00  0.00    -0.237 OA
ATOM     83  O   UNL A   1      46.269  34.125  25.228  1.00  0.00    -0.744 OA
ENDBRANCH  79  80
ENDBRANCH  53  74
ENDBRANCH  27  28
ENDBRANCH  20  22
ENDBRANCH  19  20
ENDBRANCH   1  19
TORSDOF 15
ENDMDL
MODEL 2
REMARK VINA RESULT:     -10.6      3.097     10.760
REMARK SMILES Nc1ccc2[nH]cc(C(=O)OCCOC(=O)c3ccc(-c4c5nc(c(-c6ccc(S(=O)(=O)[O-])cc6)c6ccc([nH]6)c(-c6ccc(S(=O)(=O)[O-])cc6)c6nc(c(-c7ccc(S(=O)(=O)[O-])cc7)c7ccc4[nH]7)C=C6)C=C5)cc3)c2c1
REMARK SMILES IDX 13 1 12 2 11 3 9 4 10 5 8 6 2 7 3 8 78 9 4 10 77 11 5 12
REMARK SMILES IDX 6 13 7 14 1 16 14 19 15 20 16 21 17 22 18 23 76 24 19 25
REMARK SMILES IDX 75 26 20 27 21 28 22 29 69 30 23 31 74 32 68 33 70 34 24 35
REMARK SMILES IDX 73 36 67 37 66 38 25 40 55 41 36 42 54 43 37 44 40 45 53 46
REMARK SMILES IDX 71 47 38 48 39 49 52 51 72 52 41 53 26 54 27 55 35 56 28 57
REMARK SMILES IDX 34 58 29 59 30 60 31 61 32 62 33 63 56 64 57 65 65 66 58 67
REMARK SMILES IDX 64 68 59 69 60 70 61 71 62 72 63 73 42 74 43 75 51 76 44 77
REMARK SMILES IDX 50 78 45 79 46 80 47 81 48 82 49 83
REMARK H PARENT 6 15 1 17 1 18 70 39 40 50
REMARK Flexibility Score: inf
ROOT
ATOM      1  C   UNL A   1      44.034  21.650  25.403  1.00  0.00     0.275 C 
ENDROOT
BRANCH   1   2
ATOM      2  C   UNL A   1      42.929  20.971  26.225  1.00  0.00     0.275 C 
BRANCH   2   3
ATOM      3  O   UNL A   1      41.604  21.306  25.743  1.00  0.00    -0.458 OA
BRANCH   3   4
ATOM      4  C   UNL A   1      40.625  21.354  26.692  1.00  0.00     0.340 C 
ATOM      5  O   UNL A   1      40.631  20.621  27.684  1.00  0.00    -0.246 OA
BRANCH   4   6
ATOM      6  C   UNL A   1      39.588  22.359  26.463  1.00  0.00     0.085 A 
ATOM      7  C   UNL A   1      36.065  21.354  25.357  1.00  0.00     0.032 A 
ATOM      8  C   UNL A   1      35.558  22.654  25.303  1.00  0.00     0.027 A 
ATOM      9  C   UNL A   1      37.420  21.144  25.648  1.00  0.00     0.036 A 
ATOM     10  C   UNL A   1      36.336  23.757  25.648  1.00  0.00     0.029 A 
ATOM     11  C   UNL A   1      38.236  22.232  26.010  1.00  0.00     0.016 A 
ATOM     12  C   UNL A   1      37.652  23.505  26.022  1.00  0.00     0.046 A 
ATOM     13  N   UNL A   1      38.588  24.383  26.487  1.00  0.00    -0.360 N 
ATOM     14  C   UNL A   1      39.723  23.698  26.776  1.00  0.00     0.099 A 
ATOM     15  H   UNL A   1      38.461  25.353  26.595  1.00  0.00     0.166 HD
BRANCH   7  16
ATOM     16  N   UNL A   1      35.258  20.280  24.996  1.00  0.00    -0.399 N 
ATOM     17  H   UNL A   1      34.791  20.284  24.129  1.00  0.00     0.156 HD
ATOM     18  H   UNL A   1      35.153  19.516  25.609  1.00  0.00     0.156 HD
ENDBRANCH   7  16
ENDBRANCH   4   6
ENDBRANCH   3   4
ENDBRANCH   2   3
ENDBRANCH   1   2
BRANCH   1  19
ATOM     19  O   UNL A   1      43.516  22.861  24.838  1.00  0.00    -0.458 OA
BRANCH  19  20
ATOM     20  C   UNL A   1      44.162  24.008  25.145  1.00  0.00     0.338 C 
ATOM     21  O   UNL A   1      45.180  24.442  24.621  1.00  0.00    -0.246 OA
BRANCH  20  22
ATOM     22  C   UNL A   1      43.226  24.802  25.967  1.00  0.00     0.060 A 
ATOM     23  C   UNL A   1      42.269  25.650  25.387  1.00  0.00     0.016 A 
ATOM     24  C   UNL A   1      43.537  24.910  27.317  1.00  0.00     0.016 A 
ATOM     25  C   UNL A   1      41.773  26.737  26.112  1.00  0.00     0.010 A 
ATOM     26  C   UNL A   1      43.018  25.977  28.035  1.00  0.00     0.010 A 
ATOM     27  C   UNL A   1      42.222  26.957  27.413  1.00  0.00    -0.014 A 
BRANCH  27  28
ATOM     28  C   UNL A   1      41.840  28.176  28.150  1.00  0.00     0.031 A 
ATOM     29  C   UNL A   1      42.749  29.326  27.956  1.00  0.00     0.074 A 
ATOM     30  C   UNL A   1      40.692  28.424  28.827  1.00  0.00     0.049 A 
ATOM     31  N   UNL A   1      43.593  29.784  28.818  1.00  0.00    -0.248 NA
ATOM     32  C   UNL A   1      42.798  29.988  26.645  1.00  0.00     0.031 C 
ATOM     33  C   UNL A   1      39.495  27.596  28.960  1.00  0.00     0.029 A 
ATOM     34  N   UNL A   1      40.301  29.587  29.437  1.00  0.00    -0.354 N 
ATOM     35  C   UNL A   1      44.179  30.885  28.215  1.00  0.00     0.074 A 
ATOM     36  C   UNL A   1      43.813  30.830  26.823  1.00  0.00     0.031 C 
ATOM     37  C   UNL A   1      38.438  28.363  29.319  1.00  0.00     0.029 A 
ATOM     38  C   UNL A   1      38.933  29.677  29.678  1.00  0.00     0.049 A 
ATOM     39  H   UNL A   1      40.934  30.300  29.685  1.00  0.00     0.167 HD
ATOM     40  C   UNL A   1      44.737  31.898  28.929  1.00  0.00     0.031 A 
ATOM     41  C   UNL A   1      38.255  30.746  30.161  1.00  0.00     0.031 A 
ATOM     42  C   UNL A   1      44.825  31.599  30.333  1.00  0.00     0.049 A 
ATOM     43  C   UNL A   1      39.216  31.555  30.939  1.00  0.00     0.074 A 
ATOM     44  C   UNL A   1      45.456  30.634  31.091  1.00  0.00     0.029 A 
ATOM     45  N   UNL A   1      43.861  32.157  31.140  1.00  0.00    -0.354 N 
ATOM     46  N   UNL A   1      39.780  31.140  32.038  1.00  0.00    -0.248 NA
ATOM     47  C   UNL A   1      39.813  32.739  30.341  1.00  0.00     0.031 C 
ATOM     48  C   UNL A   1      44.583  30.379  32.187  1.00  0.00     0.029 A 
ATOM     49  C   UNL A   1      43.470  31.214  32.059  1.00  0.00     0.049 A 
ATOM     50  H   UNL A   1      43.511  33.074  31.070  1.00  0.00     0.167 HD
ATOM     51  C   UNL A   1      41.036  31.716  32.022  1.00  0.00     0.074 A 
ATOM     52  C   UNL A   1      40.932  32.812  31.066  1.00  0.00     0.031 C 
ATOM     53  C   UNL A   1      42.111  31.066  32.554  1.00  0.00     0.031 A 
BRANCH  40  54
ATOM     54  C   UNL A   1      44.904  33.289  28.387  1.00  0.00    -0.014 A 
ATOM     55  C   UNL A   1      43.834  34.202  28.283  1.00  0.00     0.010 A 
ATOM     56  C   UNL A   1      46.197  33.784  28.140  1.00  0.00     0.010 A 
ATOM     57  C   UNL A   1      44.022  35.519  27.871  1.00  0.00     0.020 A 
ATOM     58  C   UNL A   1      46.405  35.123  27.782  1.00  0.00     0.020 A 
ATOM     59  C   UNL A   1      45.311  35.976  27.630  1.00  0.00     0.054 A 
BRANCH  59  60
ATOM     60  S   UNL A   1      45.529  37.722  27.215  1.00  0.00     0.124 S 
ATOM     61  O   UNL A   1      46.487  37.652  26.116  1.00  0.00    -0.237 OA
ATOM     62  O   UNL A   1      44.175  38.129  26.846  1.00  0.00    -0.237 OA
ATOM     63  O   UNL A   1      46.035  38.307  28.454  1.00  0.00    -0.744 OA
ENDBRANCH  59  60
ENDBRANCH  40  54
BRANCH  41  64
ATOM     64  C   UNL A   1      36.911  31.260  29.805  1.00  0.00    -0.014 A 
ATOM     65  C   UNL A   1      36.627  31.604  28.469  1.00  0.00     0.010 A 
ATOM     66  C   UNL A   1      36.041  31.734  30.807  1.00  0.00     0.010 A 
ATOM     67  C   UNL A   1      35.580  32.480  28.154  1.00  0.00     0.020 A 
ATOM     68  C   UNL A   1      34.988  32.610  30.499  1.00  0.00     0.020 A 
ATOM     69  C   UNL A   1      34.794  33.013  29.178  1.00  0.00     0.054 A 
BRANCH  69  70
ATOM     70  S   UNL A   1      33.598  34.316  28.761  1.00  0.00     0.124 S 
ATOM     71  O   UNL A   1      32.690  33.614  27.859  1.00  0.00    -0.237 OA
ATOM     72  O   UNL A   1      33.040  34.663  30.066  1.00  0.00    -0.237 OA
ATOM     73  O   UNL A   1      34.417  35.355  28.140  1.00  0.00    -0.744 OA
ENDBRANCH  69  70
ENDBRANCH  41  64
BRANCH  53  74
ATOM     74  C   UNL A   1      41.860  29.904  33.498  1.00  0.00    -0.014 A 
ATOM     75  C   UNL A   1      41.971  30.144  34.880  1.00  0.00     0.010 A 
ATOM     76  C   UNL A   1      41.693  28.574  33.064  1.00  0.00     0.010 A 
ATOM     77  C   UNL A   1      41.957  29.090  35.798  1.00  0.00     0.020 A 
ATOM     78  C   UNL A   1      41.653  27.512  33.983  1.00  0.00     0.020 A 
ATOM     79  C   UNL A   1      41.814  27.777  35.343  1.00  0.00     0.054 A 
BRANCH  79  80
ATOM     80  S   UNL A   1      41.875  26.431  36.559  1.00  0.00     0.124 S 
ATOM     81  O   UNL A   1      42.924  26.885  37.470  1.00  0.00    -0.237 OA
ATOM     82  O   UNL A   1      40.524  26.435  37.116  1.00  0.00    -0.237 OA
ATOM     83  O   UNL A   1      42.212  25.250  35.767  1.00  0.00    -0.744 OA
ENDBRANCH  79  80
ENDBRANCH  53  74
ENDBRANCH  27  28
ENDBRANCH  20  22
ENDBRANCH  19  20
ENDBRANCH   1  19
TORSDOF 15
ENDMDL
MODEL 3
REMARK VINA RESULT:     -10.6      1.906      3.375
REMARK SMILES Nc1ccc2[nH]cc(C(=O)OCCOC(=O)c3ccc(-c4c5nc(c(-c6ccc(S(=O)(=O)[O-])cc6)c6ccc([nH]6)c(-c6ccc(S(=O)(=O)[O-])cc6)c6nc(c(-c7ccc(S(=O)(=O)[O-])cc7)c7ccc4[nH]7)C=C6)C=C5)cc3)c2c1
REMARK SMILES IDX 13 1 12 2 11 3 9 4 10 5 8 6 2 7 3 8 78 9 4 10 77 11 5 12
REMARK SMILES IDX 6 13 7 14 1 16 14 19 15 20 16 21 17 22 18 23 76 24 19 25
REMARK SMILES IDX 75 26 20 27 21 28 22 29 69 30 23 31 74 32 68 33 70 34 24 35
REMARK SMILES IDX 73 36 67 37 66 38 25 40 55 41 36 42 54 43 37 44 40 45 53 46
REMARK SMILES IDX 71 47 38 48 39 49 52 51 72 52 41 53 26 54 27 55 35 56 28 57
REMARK SMILES IDX 34 58 29 59 30 60 31 61 32 62 33 63 56 64 57 65 65 66 58 67
REMARK SMILES IDX 64 68 59 69 60 70 61 71 62 72 63 73 42 74 43 75 51 76 44 77
REMARK SMILES IDX 50 78 45 79 46 80 47 81 48 82 49 83
REMARK H PARENT 6 15 1 17 1 18 70 39 40 50
REMARK Flexibility Score: inf
ROOT
ATOM      1  C   UNL A   1      33.462  33.339  28.211  1.00  0.00     0.275 C 
ENDROOT
BRANCH   1   2
ATOM      2  C   UNL A   1      33.561  34.836  28.538  1.00  0.00     0.275 C 
BRANCH   2   3
ATOM      3  O   UNL A   1      32.727  35.207  29.664  1.00  0.00    -0.458 OA
BRANCH   3   4
ATOM      4  C   UNL A   1      33.139  36.300  30.369  1.00  0.00     0.340 C 
ATOM      5  O   UNL A   1      33.103  37.440  29.900  1.00  0.00    -0.246 OA
BRANCH   4   6
ATOM      6  C   UNL A   1      33.596  36.024  31.730  1.00  0.00     0.085 A 
ATOM      7  C   UNL A   1      35.498  32.810  32.568  1.00  0.00     0.032 A 
ATOM      8  C   UNL A   1      35.656  33.090  33.927  1.00  0.00     0.027 A 
ATOM      9  C   UNL A   1      34.753  33.678  31.758  1.00  0.00     0.036 A 
ATOM     10  C   UNL A   1      35.190  34.277  34.488  1.00  0.00     0.029 A 
ATOM     11  C   UNL A   1      34.273  34.891  32.285  1.00  0.00     0.016 A 
ATOM     12  C   UNL A   1      34.534  35.160  33.635  1.00  0.00     0.046 A 
ATOM     13  N   UNL A   1      34.066  36.414  33.903  1.00  0.00    -0.360 N 
ATOM     14  C   UNL A   1      33.539  36.935  32.766  1.00  0.00     0.099 A 
ATOM     15  H   UNL A   1      34.105  36.865  34.777  1.00  0.00     0.166 HD
BRANCH   7  16
ATOM     16  N   UNL A   1      35.971  31.609  32.048  1.00  0.00    -0.399 N 
ATOM     17  H   UNL A   1      36.850  31.576  31.606  1.00  0.00     0.156 HD
ATOM     18  H   UNL A   1      35.425  30.793  32.122  1.00  0.00     0.156 HD
ENDBRANCH   7  16
ENDBRANCH   4   6
ENDBRANCH   3   4
ENDBRANCH   2   3
ENDBRANCH   1   2
BRANCH   1  19
ATOM     19  O   UNL A   1      34.785  32.804  28.076  1.00  0.00    -0.458 OA
BRANCH  19  20
ATOM     20  C   UNL A   1      34.890  31.475  27.853  1.00  0.00     0.338 C 
ATOM     21  O   UNL A   1      34.298  30.823  27.004  1.00  0.00    -0.246 OA
BRANCH  20  22
ATOM     22  C   UNL A   1      36.101  31.031  28.573  1.00  0.00     0.060 A 
ATOM     23  C   UNL A   1      37.214  31.870  28.736  1.00  0.00     0.016 A 
ATOM     24  C   UNL A   1      36.209  29.664  28.804  1.00  0.00     0.016 A 
ATOM     25  C   UNL A   1      38.481  31.314  28.933  1.00  0.00     0.010 A 
ATOM     26  C   UNL A   1      37.467  29.125  29.026  1.00  0.00     0.010 A 
ATOM     27  C   UNL A   1      38.623  29.928  28.984  1.00  0.00    -0.014 A 
BRANCH  27  28
ATOM     28  C   UNL A   1      39.958  29.304  29.035  1.00  0.00     0.031 A 
ATOM     29  C   UNL A   1      40.449  29.005  30.397  1.00  0.00     0.074 A 
ATOM     30  C   UNL A   1      40.699  28.819  28.009  1.00  0.00     0.049 A 
ATOM     31  N   UNL A   1      41.376  29.642  31.030  1.00  0.00    -0.248 NA
ATOM     32  C   UNL A   1      39.793  27.950  31.180  1.00  0.00     0.031 C 
ATOM     33  C   UNL A   1      40.364  28.715  26.589  1.00  0.00     0.029 A 
ATOM     34  N   UNL A   1      41.900  28.161  28.065  1.00  0.00    -0.354 N 
ATOM     35  C   UNL A   1      41.524  28.980  32.237  1.00  0.00     0.074 A 
ATOM     36  C   UNL A   1      40.393  28.097  32.359  1.00  0.00     0.031 C 
ATOM     37  C   UNL A   1      41.157  27.792  25.993  1.00  0.00     0.029 A 
ATOM     38  C   UNL A   1      42.207  27.428  26.923  1.00  0.00     0.049 A 
ATOM     39  H   UNL A   1      42.495  28.203  28.848  1.00  0.00     0.167 HD
ATOM     40  C   UNL A   1      42.676  29.023  32.957  1.00  0.00     0.031 A 
ATOM     41  C   UNL A   1      43.262  26.598  26.741  1.00  0.00     0.031 A 
ATOM     42  C   UNL A   1      43.618  29.975  32.433  1.00  0.00     0.049 A 
ATOM     43  C   UNL A   1      44.326  27.038  27.667  1.00  0.00     0.074 A 
ATOM     44  C   UNL A   1      43.621  31.339  32.230  1.00  0.00     0.029 A 
ATOM     45  N   UNL A   1      44.640  29.467  31.665  1.00  0.00    -0.354 N 
ATOM     46  N   UNL A   1      44.933  28.187  27.570  1.00  0.00    -0.248 NA
ATOM     47  C   UNL A   1      44.528  26.332  28.922  1.00  0.00     0.031 C 
ATOM     48  C   UNL A   1      44.385  31.547  31.045  1.00  0.00     0.029 A 
ATOM     49  C   UNL A   1      44.831  30.303  30.592  1.00  0.00     0.049 A 
ATOM     50  H   UNL A   1      45.148  28.645  31.852  1.00  0.00     0.167 HD
ATOM     51  C   UNL A   1      45.209  28.546  28.876  1.00  0.00     0.074 A 
ATOM     52  C   UNL A   1      45.103  27.305  29.634  1.00  0.00     0.031 C 
ATOM     53  C   UNL A   1      45.199  29.855  29.259  1.00  0.00     0.031 A 
BRANCH  40  54
ATOM     54  C   UNL A   1      43.066  27.962  33.946  1.00  0.00    -0.014 A 
ATOM     55  C   UNL A   1      43.600  26.715  33.560  1.00  0.00     0.010 A 
ATOM     56  C   UNL A   1      43.080  28.269  35.319  1.00  0.00     0.010 A 
ATOM     57  C   UNL A   1      44.047  25.781  34.491  1.00  0.00     0.020 A 
ATOM     58  C   UNL A   1      43.583  27.360  36.260  1.00  0.00     0.020 A 
ATOM     59  C   UNL A   1      44.044  26.112  35.840  1.00  0.00     0.054 A 
BRANCH  59  60
ATOM     60  S   UNL A   1      44.744  24.924  37.007  1.00  0.00     0.124 S 
ATOM     61  O   UNL A   1      44.356  23.650  36.408  1.00  0.00    -0.237 OA
ATOM     62  O   UNL A   1      46.170  25.235  36.956  1.00  0.00    -0.237 OA
ATOM     63  O   UNL A   1      44.082  25.252  38.267  1.00  0.00    -0.744 OA
ENDBRANCH  59  60
ENDBRANCH  40  54
BRANCH  41  64
ATOM     64  C   UNL A   1      43.344  25.308  26.016  1.00  0.00    -0.014 A 
ATOM     65  C   UNL A   1      42.603  24.202  26.476  1.00  0.00     0.010 A 
ATOM     66  C   UNL A   1      44.393  25.067  25.106  1.00  0.00     0.010 A 
ATOM     67  C   UNL A   1      42.964  22.893  26.128  1.00  0.00     0.020 A 
ATOM     68  C   UNL A   1      44.759  23.758  24.752  1.00  0.00     0.020 A 
ATOM     69  C   UNL A   1      44.069  22.679  25.303  1.00  0.00     0.054 A 
BRANCH  69  70
ATOM     70  S   UNL A   1      44.648  20.973  25.058  1.00  0.00     0.124 S 
ATOM     71  O   UNL A   1      43.639  20.206  25.782  1.00  0.00    -0.237 OA
ATOM     72  O   UNL A   1      44.615  20.834  23.604  1.00  0.00    -0.237 OA
ATOM     73  O   UNL A   1      45.983  20.969  25.652  1.00  0.00    -0.744 OA
ENDBRANCH  69  70
ENDBRANCH  41  64
BRANCH  53  74
ATOM     74  C   UNL A   1      45.272  30.924  28.184  1.00  0.00    -0.014 A 
ATOM     75  C   UNL A   1      46.426  31.728  28.135  1.00  0.00     0.010 A 
ATOM     76  C   UNL A   1      44.186  31.265  27.354  1.00  0.00     0.010 A 
ATOM     77  C   UNL A   1      46.481  32.859  27.315  1.00  0.00     0.020 A 
ATOM     78  C   UNL A   1      44.244  32.386  26.508  1.00  0.00     0.020 A 
ATOM     79  C   UNL A   1      45.383  33.191  26.516  1.00  0.00     0.054 A 
BRANCH  79  80
ATOM     80  S   UNL A   1      45.466  34.706  25.522  1.00  0.00     0.124 S 
ATOM     81  O   UNL A   1      46.805  34.622  24.941  1.00  0.00    -0.237 OA
ATOM     82  O   UNL A   1      44.367  34.534  24.575  1.00  0.00    -0.237 OA
ATOM     83  O   UNL A   1      45.280  35.781  26.493  1.00  0.00    -0.744 OA
ENDBRANCH  79  80
ENDBRANCH  53  74
ENDBRANCH  27  28
ENDBRANCH  20  22
ENDBRANCH  19  20
ENDBRANCH   1  19
TORSDOF 15
ENDMDL
