MODEL 1
REMARK VINA RESULT:     -11.6      0.000      0.000
REMARK SMILES Cc1ncccc1NC(=O)N1CCC(C(=O)OCCOC(=O)c2ccc(-c3c4nc(c(-c5ccc(S(=O)(=O)[O-])cc5)c5ccc([nH]5)c(-c5ccc(S(=O)(=O)[O-])cc5)c5nc(c(-c6ccc(S(=O)(=O)[O-])cc6)c6ccc3[nH]6)C=C5)C=C4)cc2)CC1
REMARK SMILES IDX 19 1 18 2 17 3 15 4 16 5 14 6 8 7 9 8 10 10 11 11 12 12
REMARK SMILES IDX 84 13 13 14 83 15 7 16 1 17 2 18 3 19 4 20 6 21 5 22 20 23
REMARK SMILES IDX 21 24 22 25 23 26 24 27 82 28 25 29 81 30 26 31 27 32 28 33
REMARK SMILES IDX 75 34 29 35 80 36 74 37 76 38 30 39 79 40 73 41 72 42 31 44
REMARK SMILES IDX 61 45 42 46 60 47 43 48 46 49 59 50 77 51 44 52 45 53 58 55
REMARK SMILES IDX 78 56 47 57 32 58 33 59 41 60 34 61 40 62 35 63 36 64 37 65
REMARK SMILES IDX 38 66 39 67 62 68 63 69 71 70 64 71 70 72 65 73 66 74 67 75
REMARK SMILES IDX 68 76 69 77 48 78 49 79 57 80 50 81 56 82 51 83 52 84 53 85
REMARK SMILES IDX 54 86 55 87
REMARK H PARENT 8 9 76 43 46 54
REMARK Flexibility Score: inf
ROOT
ATOM      1  C   UNL A   1      41.297  22.672  26.220  1.00  0.00     0.275 C 
ENDROOT
BRANCH   1   2
ATOM      2  C   UNL A   1      39.939  22.270  26.801  1.00  0.00     0.274 C 
BRANCH   2   3
ATOM      3  O   UNL A   1      38.958  22.092  25.762  1.00  0.00    -0.462 OA
BRANCH   3   4
ATOM      4  C   UNL A   1      37.857  22.880  25.848  1.00  0.00     0.309 C 
ATOM      5  O   UNL A   1      37.871  24.105  25.843  1.00  0.00    -0.252 OA
BRANCH   4   6
ATOM      6  C   UNL A   1      36.569  22.097  25.967  1.00  0.00     0.103 C 
ATOM      7  N   UNL A   1      32.150  19.917  24.470  1.00  0.00    -0.306 N 
ATOM      8  C   UNL A   1      32.576  21.002  25.172  1.00  0.00     0.321 C 
ATOM      9  H   UNL A   1      31.439  20.109  23.816  1.00  0.00     0.171 HD
ATOM     10  O   UNL A   1      31.752  21.892  25.397  1.00  0.00    -0.248 OA
ATOM     11  N   UNL A   1      33.894  21.111  25.554  1.00  0.00    -0.324 N 
ATOM     12  C   UNL A   1      34.203  21.904  26.743  1.00  0.00     0.122 C 
ATOM     13  C   UNL A   1      35.023  20.500  24.842  1.00  0.00     0.122 C 
ATOM     14  C   UNL A   1      35.372  22.860  26.533  1.00  0.00     0.037 C 
ATOM     15  C   UNL A   1      36.175  21.480  24.628  1.00  0.00     0.037 C 
BRANCH   7  16
ATOM     16  C   UNL A   1      32.548  18.562  24.515  1.00  0.00     0.064 A 
ATOM     17  C   UNL A   1      32.523  18.412  21.969  1.00  0.00     0.069 C 
ATOM     18  C   UNL A   1      32.776  17.839  23.333  1.00  0.00     0.061 A 
ATOM     19  N   UNL A   1      33.195  16.544  23.331  1.00  0.00    -0.259 NA
ATOM     20  C   UNL A   1      33.377  15.939  24.523  1.00  0.00     0.111 A 
ATOM     21  C   UNL A   1      32.676  17.869  25.721  1.00  0.00     0.030 A 
ATOM     22  C   UNL A   1      33.117  16.548  25.733  1.00  0.00     0.022 A 
ENDBRANCH   7  16
ENDBRANCH   4   6
ENDBRANCH   3   4
ENDBRANCH   2   3
ENDBRANCH   1   2
BRANCH   1  23
ATOM     23  O   UNL A   1      41.862  23.803  26.909  1.00  0.00    -0.458 OA
BRANCH  23  24
ATOM     24  C   UNL A   1      41.587  25.008  26.355  1.00  0.00     0.338 C 
ATOM     25  O   UNL A   1      41.502  25.270  25.168  1.00  0.00    -0.246 OA
BRANCH  24  26
ATOM     26  C   UNL A   1      41.274  25.988  27.408  1.00  0.00     0.060 A 
ATOM     27  C   UNL A   1      42.110  27.100  27.537  1.00  0.00     0.016 A 
ATOM     28  C   UNL A   1      40.235  25.774  28.316  1.00  0.00     0.016 A 
ATOM     29  C   UNL A   1      41.911  28.008  28.574  1.00  0.00     0.010 A 
ATOM     30  C   UNL A   1      40.038  26.686  29.361  1.00  0.00     0.010 A 
ATOM     31  C   UNL A   1      40.881  27.803  29.502  1.00  0.00    -0.014 A 
BRANCH  31  32
ATOM     32  C   UNL A   1      40.720  28.749  30.633  1.00  0.00     0.031 A 
ATOM     33  C   UNL A   1      41.637  28.670  31.823  1.00  0.00     0.074 A 
ATOM     34  C   UNL A   1      39.775  29.707  30.574  1.00  0.00     0.049 A 
ATOM     35  N   UNL A   1      41.652  29.408  32.903  1.00  0.00    -0.248 NA
ATOM     36  C   UNL A   1      42.672  27.625  31.792  1.00  0.00     0.031 C 
ATOM     37  C   UNL A   1      38.849  29.912  29.459  1.00  0.00     0.029 A 
ATOM     38  N   UNL A   1      39.446  30.692  31.470  1.00  0.00    -0.354 N 
ATOM     39  C   UNL A   1      42.683  28.909  33.690  1.00  0.00     0.074 A 
ATOM     40  C   UNL A   1      43.262  27.795  32.967  1.00  0.00     0.031 C 
ATOM     41  C   UNL A   1      38.068  30.970  29.730  1.00  0.00     0.029 A 
ATOM     42  C   UNL A   1      38.409  31.492  31.051  1.00  0.00     0.049 A 
ATOM     43  H   UNL A   1      39.908  30.816  32.330  1.00  0.00     0.167 HD
ATOM     44  C   UNL A   1      43.108  29.337  34.903  1.00  0.00     0.031 A 
ATOM     45  C   UNL A   1      37.793  32.520  31.666  1.00  0.00     0.031 A 
ATOM     46  C   UNL A   1      42.531  30.442  35.624  1.00  0.00     0.049 A 
ATOM     47  C   UNL A   1      38.252  32.943  33.034  1.00  0.00     0.074 A 
ATOM     48  C   UNL A   1      42.910  30.963  36.850  1.00  0.00     0.029 A 
ATOM     49  N   UNL A   1      41.450  31.193  35.190  1.00  0.00    -0.354 N 
ATOM     50  N   UNL A   1      39.236  32.466  33.757  1.00  0.00    -0.248 NA
ATOM     51  C   UNL A   1      37.513  34.044  33.667  1.00  0.00     0.031 C 
ATOM     52  C   UNL A   1      42.029  32.001  37.177  1.00  0.00     0.029 A 
ATOM     53  C   UNL A   1      41.131  32.157  36.133  1.00  0.00     0.049 A 
ATOM     54  H   UNL A   1      40.979  31.063  34.336  1.00  0.00     0.167 HD
ATOM     55  C   UNL A   1      39.243  33.217  34.927  1.00  0.00     0.074 A 
ATOM     56  C   UNL A   1      38.178  34.193  34.804  1.00  0.00     0.031 C 
ATOM     57  C   UNL A   1      40.057  33.108  36.007  1.00  0.00     0.031 A 
BRANCH  44  58
ATOM     58  C   UNL A   1      44.232  28.573  35.550  1.00  0.00    -0.014 A 
ATOM     59  C   UNL A   1      43.982  27.438  36.343  1.00  0.00     0.010 A 
ATOM     60  C   UNL A   1      45.561  28.985  35.340  1.00  0.00     0.010 A 
ATOM     61  C   UNL A   1      45.040  26.754  36.948  1.00  0.00     0.020 A 
ATOM     62  C   UNL A   1      46.622  28.291  35.926  1.00  0.00     0.020 A 
ATOM     63  C   UNL A   1      46.353  27.190  36.744  1.00  0.00     0.054 A 
BRANCH  63  64
ATOM     64  S   UNL A   1      47.711  26.284  37.536  1.00  0.00     0.124 S 
ATOM     65  O   UNL A   1      47.676  25.010  36.824  1.00  0.00    -0.237 OA
ATOM     66  O   UNL A   1      48.871  27.129  37.255  1.00  0.00    -0.237 OA
ATOM     67  O   UNL A   1      47.314  26.226  38.940  1.00  0.00    -0.744 OA
ENDBRANCH  63  64
ENDBRANCH  44  58
BRANCH  45  68
ATOM     68  C   UNL A   1      36.663  33.213  30.994  1.00  0.00    -0.014 A 
ATOM     69  C   UNL A   1      35.366  33.152  31.533  1.00  0.00     0.010 A 
ATOM     70  C   UNL A   1      36.882  33.947  29.814  1.00  0.00     0.010 A 
ATOM     71  C   UNL A   1      34.307  33.809  30.900  1.00  0.00     0.020 A 
ATOM     72  C   UNL A   1      35.830  34.624  29.193  1.00  0.00     0.020 A 
ATOM     73  C   UNL A   1      34.546  34.544  29.735  1.00  0.00     0.054 A 
BRANCH  73  74
ATOM     74  S   UNL A   1      33.172  35.445  28.966  1.00  0.00     0.124 S 
ATOM     75  O   UNL A   1      33.873  36.477  28.210  1.00  0.00    -0.237 OA
ATOM     76  O   UNL A   1      32.518  34.410  28.171  1.00  0.00    -0.237 OA
ATOM     77  O   UNL A   1      32.398  35.921  30.110  1.00  0.00    -0.744 OA
ENDBRANCH  73  74
ENDBRANCH  45  68
BRANCH  57  78
ATOM     78  C   UNL A   1      39.829  34.079  37.134  1.00  0.00    -0.014 A 
ATOM     79  C   UNL A   1      39.037  33.731  38.241  1.00  0.00     0.010 A 
ATOM     80  C   UNL A   1      40.427  35.351  37.089  1.00  0.00     0.010 A 
ATOM     81  C   UNL A   1      38.809  34.654  39.265  1.00  0.00     0.020 A 
ATOM     82  C   UNL A   1      40.221  36.269  38.123  1.00  0.00     0.020 A 
ATOM     83  C   UNL A   1      39.397  35.921  39.195  1.00  0.00     0.054 A 
BRANCH  83  84
ATOM     84  S   UNL A   1      39.102  37.101  40.541  1.00  0.00     0.124 S 
ATOM     85  O   UNL A   1      40.456  37.550  40.851  1.00  0.00    -0.237 OA
ATOM     86  O   UNL A   1      38.236  38.098  39.916  1.00  0.00    -0.237 OA
ATOM     87  O   UNL A   1      38.460  36.291  41.575  1.00  0.00    -0.744 OA
ENDBRANCH  83  84
ENDBRANCH  57  78
ENDBRANCH  31  32
ENDBRANCH  24  26
ENDBRANCH  23  24
ENDBRANCH   1  23
TORSDOF 15
ENDMDL
MODEL 2
REMARK VINA RESULT:     -11.4      2.253      3.453
REMARK SMILES Cc1ncccc1NC(=O)N1CCC(C(=O)OCCOC(=O)c2ccc(-c3c4nc(c(-c5ccc(S(=O)(=O)[O-])cc5)c5ccc([nH]5)c(-c5ccc(S(=O)(=O)[O-])cc5)c5nc(c(-c6ccc(S(=O)(=O)[O-])cc6)c6ccc3[nH]6)C=C5)C=C4)cc2)CC1
REMARK SMILES IDX 19 1 18 2 17 3 15 4 16 5 14 6 8 7 9 8 10 10 11 11 12 12
REMARK SMILES IDX 84 13 13 14 83 15 7 16 1 17 2 18 3 19 4 20 6 21 5 22 20 23
REMARK SMILES IDX 21 24 22 25 23 26 24 27 82 28 25 29 81 30 26 31 27 32 28 33
REMARK SMILES IDX 75 34 29 35 80 36 74 37 76 38 30 39 79 40 73 41 72 42 31 44
REMARK SMILES IDX 61 45 42 46 60 47 43 48 46 49 59 50 77 51 44 52 45 53 58 55
REMARK SMILES IDX 78 56 47 57 32 58 33 59 41 60 34 61 40 62 35 63 36 64 37 65
REMARK SMILES IDX 38 66 39 67 62 68 63 69 71 70 64 71 70 72 65 73 66 74 67 75
REMARK SMILES IDX 68 76 69 77 48 78 49 79 57 80 50 81 56 82 51 83 52 84 53 85
REMARK SMILES IDX 54 86 55 87
REMARK H PARENT 8 9 76 43 46 54
REMARK Flexibility Score: inf
ROOT
ATOM      1  C   UNL A   1      39.660  22.258  26.442  1.00  0.00     0.275 C 
ENDROOT
BRANCH   1   2
ATOM      2  C   UNL A   1      38.510  21.639  25.643  1.00  0.00     0.274 C 
BRANCH   2   3
ATOM      3  O   UNL A   1      37.285  22.371  25.839  1.00  0.00    -0.462 OA
BRANCH   3   4
ATOM      4  C   UNL A   1      36.762  22.952  24.731  1.00  0.00     0.309 C 
ATOM      5  O   UNL A   1      37.392  23.213  23.713  1.00  0.00    -0.252 OA
BRANCH   4   6
ATOM      6  C   UNL A   1      35.290  23.274  24.863  1.00  0.00     0.103 C 
ATOM      7  N   UNL A   1      31.025  25.431  26.782  1.00  0.00    -0.306 N 
ATOM      8  C   UNL A   1      31.655  24.224  26.776  1.00  0.00     0.321 C 
ATOM      9  H   UNL A   1      30.699  25.715  27.667  1.00  0.00     0.171 HD
ATOM     10  O   UNL A   1      31.279  23.383  27.595  1.00  0.00    -0.248 OA
ATOM     11  N   UNL A   1      32.709  23.994  25.921  1.00  0.00    -0.324 N 
ATOM     12  C   UNL A   1      32.967  22.616  25.502  1.00  0.00     0.122 C 
ATOM     13  C   UNL A   1      33.611  25.032  25.407  1.00  0.00     0.122 C 
ATOM     14  C   UNL A   1      34.440  22.233  25.592  1.00  0.00     0.037 C 
ATOM     15  C   UNL A   1      35.081  24.634  25.522  1.00  0.00     0.037 C 
BRANCH   7  16
ATOM     16  C   UNL A   1      30.758  26.349  25.742  1.00  0.00     0.064 A 
ATOM     17  C   UNL A   1      32.070  28.177  26.941  1.00  0.00     0.069 C 
ATOM     18  C   UNL A   1      31.284  27.650  25.776  1.00  0.00     0.061 A 
ATOM     19  N   UNL A   1      31.082  28.554  24.779  1.00  0.00    -0.259 NA
ATOM     20  C   UNL A   1      30.324  28.173  23.729  1.00  0.00     0.111 A 
ATOM     21  C   UNL A   1      29.918  26.029  24.672  1.00  0.00     0.030 A 
ATOM     22  C   UNL A   1      29.713  26.940  23.639  1.00  0.00     0.022 A 
ENDBRANCH   7  16
ENDBRANCH   4   6
ENDBRANCH   3   4
ENDBRANCH   2   3
ENDBRANCH   1   2
BRANCH   1  23
ATOM     23  O   UNL A   1      39.482  23.675  26.629  1.00  0.00    -0.458 OA
BRANCH  23  24
ATOM     24  C   UNL A   1      40.627  24.382  26.776  1.00  0.00     0.338 C 
ATOM     25  O   UNL A   1      41.663  24.245  26.148  1.00  0.00    -0.246 OA
BRANCH  24  26
ATOM     26  C   UNL A   1      40.429  25.466  27.753  1.00  0.00     0.060 A 
ATOM     27  C   UNL A   1      41.425  26.440  27.860  1.00  0.00     0.016 A 
ATOM     28  C   UNL A   1      39.333  25.476  28.617  1.00  0.00     0.016 A 
ATOM     29  C   UNL A   1      41.330  27.434  28.831  1.00  0.00     0.010 A 
ATOM     30  C   UNL A   1      39.240  26.474  29.595  1.00  0.00     0.010 A 
ATOM     31  C   UNL A   1      40.242  27.453  29.715  1.00  0.00    -0.014 A 
BRANCH  31  32
ATOM     32  C   UNL A   1      40.186  28.485  30.779  1.00  0.00     0.031 A 
ATOM     33  C   UNL A   1      41.138  28.425  31.942  1.00  0.00     0.074 A 
ATOM     34  C   UNL A   1      39.307  29.499  30.681  1.00  0.00     0.049 A 
ATOM     35  N   UNL A   1      41.241  29.234  32.965  1.00  0.00    -0.248 NA
ATOM     36  C   UNL A   1      42.099  27.311  31.954  1.00  0.00     0.031 C 
ATOM     37  C   UNL A   1      38.357  29.690  29.583  1.00  0.00     0.029 A 
ATOM     38  N   UNL A   1      39.077  30.566  31.512  1.00  0.00    -0.354 N 
ATOM     39  C   UNL A   1      42.263  28.720  33.754  1.00  0.00     0.074 A 
ATOM     40  C   UNL A   1      42.740  27.521  33.095  1.00  0.00     0.031 C 
ATOM     41  C   UNL A   1      37.659  30.817  29.801  1.00  0.00     0.029 A 
ATOM     42  C   UNL A   1      38.082  31.405  31.069  1.00  0.00     0.049 A 
ATOM     43  H   UNL A   1      39.577  30.717  32.347  1.00  0.00     0.167 HD
ATOM     44  C   UNL A   1      42.760  29.202  34.919  1.00  0.00     0.031 A 
ATOM     45  C   UNL A   1      37.559  32.514  31.627  1.00  0.00     0.031 A 
ATOM     46  C   UNL A   1      42.286  30.392  35.576  1.00  0.00     0.049 A 
ATOM     47  C   UNL A   1      38.094  32.999  32.946  1.00  0.00     0.074 A 
ATOM     48  C   UNL A   1      42.743  30.970  36.749  1.00  0.00     0.029 A 
ATOM     49  N   UNL A   1      41.243  31.184  35.122  1.00  0.00    -0.354 N 
ATOM     50  N   UNL A   1      39.069  32.505  33.671  1.00  0.00    -0.248 NA
ATOM     51  C   UNL A   1      37.454  34.190  33.521  1.00  0.00     0.031 C 
ATOM     52  C   UNL A   1      41.945  32.087  37.027  1.00  0.00     0.029 A 
ATOM     53  C   UNL A   1      41.023  32.231  36.003  1.00  0.00     0.049 A 
ATOM     54  H   UNL A   1      40.733  31.028  34.295  1.00  0.00     0.167 HD
ATOM     55  C   UNL A   1      39.169  33.334  34.783  1.00  0.00     0.074 A 
ATOM     56  C   UNL A   1      38.168  34.371  34.623  1.00  0.00     0.031 C 
ATOM     57  C   UNL A   1      40.011  33.244  35.842  1.00  0.00     0.031 A 
BRANCH  44  58
ATOM     58  C   UNL A   1      43.852  28.408  35.584  1.00  0.00    -0.014 A 
ATOM     59  C   UNL A   1      43.560  27.278  36.370  1.00  0.00     0.010 A 
ATOM     60  C   UNL A   1      45.195  28.786  35.399  1.00  0.00     0.010 A 
ATOM     61  C   UNL A   1      44.589  26.567  36.992  1.00  0.00     0.020 A 
ATOM     62  C   UNL A   1      46.228  28.064  36.002  1.00  0.00     0.020 A 
ATOM     63  C   UNL A   1      45.917  26.969  36.812  1.00  0.00     0.054 A 
BRANCH  63  64
ATOM     64  S   UNL A   1      47.237  26.028  37.627  1.00  0.00     0.124 S 
ATOM     65  O   UNL A   1      47.440  26.797  38.851  1.00  0.00    -0.237 OA
ATOM     66  O   UNL A   1      46.630  24.710  37.806  1.00  0.00    -0.237 OA
ATOM     67  O   UNL A   1      48.338  26.078  36.668  1.00  0.00    -0.744 OA
ENDBRANCH  63  64
ENDBRANCH  44  58
BRANCH  45  68
ATOM     68  C   UNL A   1      36.455  33.235  30.942  1.00  0.00    -0.014 A 
ATOM     69  C   UNL A   1      35.146  33.187  31.453  1.00  0.00     0.010 A 
ATOM     70  C   UNL A   1      36.711  33.984  29.779  1.00  0.00     0.010 A 
ATOM     71  C   UNL A   1      34.111  33.871  30.808  1.00  0.00     0.020 A 
ATOM     72  C   UNL A   1      35.683  34.687  29.147  1.00  0.00     0.020 A 
ATOM     73  C   UNL A   1      34.387  34.619  29.660  1.00  0.00     0.054 A 
BRANCH  73  74
ATOM     74  S   UNL A   1      33.044  35.555  28.877  1.00  0.00     0.124 S 
ATOM     75  O   UNL A   1      33.779  36.563  28.120  1.00  0.00    -0.237 OA
ATOM     76  O   UNL A   1      32.366  34.534  28.082  1.00  0.00    -0.237 OA
ATOM     77  O   UNL A   1      32.276  36.059  30.013  1.00  0.00    -0.744 OA
ENDBRANCH  73  74
ENDBRANCH  45  68
BRANCH  57  78
ATOM     78  C   UNL A   1      39.891  34.305  36.902  1.00  0.00    -0.014 A 
ATOM     79  C   UNL A   1      40.483  35.569  36.732  1.00  0.00     0.010 A 
ATOM     80  C   UNL A   1      39.166  34.038  38.077  1.00  0.00     0.010 A 
ATOM     81  C   UNL A   1      40.389  36.535  37.738  1.00  0.00     0.020 A 
ATOM     82  C   UNL A   1      39.049  35.010  39.076  1.00  0.00     0.020 A 
ATOM     83  C   UNL A   1      39.679  36.244  38.908  1.00  0.00     0.054 A 
BRANCH  83  84
ATOM     84  S   UNL A   1      39.556  37.515  40.197  1.00  0.00     0.124 S 
ATOM     85  O   UNL A   1      40.950  37.918  40.358  1.00  0.00    -0.237 OA
ATOM     86  O   UNL A   1      38.678  38.513  39.589  1.00  0.00    -0.237 OA
ATOM     87  O   UNL A   1      38.979  36.799  41.333  1.00  0.00    -0.744 OA
ENDBRANCH  83  84
ENDBRANCH  57  78
ENDBRANCH  31  32
ENDBRANCH  24  26
ENDBRANCH  23  24
ENDBRANCH   1  23
TORSDOF 15
ENDMDL
MODEL 3
REMARK VINA RESULT:     -11.2      7.034     12.461
REMARK SMILES Cc1ncccc1NC(=O)N1CCC(C(=O)OCCOC(=O)c2ccc(-c3c4nc(c(-c5ccc(S(=O)(=O)[O-])cc5)c5ccc([nH]5)c(-c5ccc(S(=O)(=O)[O-])cc5)c5nc(c(-c6ccc(S(=O)(=O)[O-])cc6)c6ccc3[nH]6)C=C5)C=C4)cc2)CC1
REMARK SMILES IDX 19 1 18 2 17 3 15 4 16 5 14 6 8 7 9 8 10 10 11 11 12 12
REMARK SMILES IDX 84 13 13 14 83 15 7 16 1 17 2 18 3 19 4 20 6 21 5 22 20 23
REMARK SMILES IDX 21 24 22 25 23 26 24 27 82 28 25 29 81 30 26 31 27 32 28 33
REMARK SMILES IDX 75 34 29 35 80 36 74 37 76 38 30 39 79 40 73 41 72 42 31 44
REMARK SMILES IDX 61 45 42 46 60 47 43 48 46 49 59 50 77 51 44 52 45 53 58 55
REMARK SMILES IDX 78 56 47 57 32 58 33 59 41 60 34 61 40 62 35 63 36 64 37 65
REMARK SMILES IDX 38 66 39 67 62 68 63 69 71 70 64 71 70 72 65 73 66 74 67 75
REMARK SMILES IDX 68 76 69 77 48 78 49 79 57 80 50 81 56 82 51 83 52 84 53 85
REMARK SMILES IDX 54 86 55 87
REMARK H PARENT 8 9 76 43 46 54
REMARK Flexibility Score: inf
ROOT
ATOM      1  C   UNL A   1      35.470  30.623  27.689  1.00  0.00     0.275 C 
ENDROOT
BRANCH   1   2
ATOM      2  C   UNL A   1      33.966  30.397  27.513  1.00  0.00     0.274 C 
BRANCH   2   3
ATOM      3  O   UNL A   1      33.699  29.458  26.454  1.00  0.00    -0.462 OA
BRANCH   3   4
ATOM      4  C   UNL A   1      32.516  28.800  26.533  1.00  0.00     0.309 C 
ATOM      5  O   UNL A   1      31.571  29.140  27.236  1.00  0.00    -0.252 OA
BRANCH   4   6
ATOM      6  C   UNL A   1      32.459  27.565  25.662  1.00  0.00     0.103 C 
ATOM      7  N   UNL A   1      34.174  23.799  22.597  1.00  0.00    -0.306 N 
ATOM      8  C   UNL A   1      33.472  24.962  22.505  1.00  0.00     0.321 C 
ATOM      9  H   UNL A   1      34.874  23.692  21.912  1.00  0.00     0.171 HD
ATOM     10  O   UNL A   1      33.317  25.445  21.381  1.00  0.00    -0.248 OA
ATOM     11  N   UNL A   1      33.013  25.589  23.641  1.00  0.00    -0.324 N 
ATOM     12  C   UNL A   1      31.824  26.435  23.528  1.00  0.00     0.122 C 
ATOM     13  C   UNL A   1      33.640  25.486  24.964  1.00  0.00     0.122 C 
ATOM     14  C   UNL A   1      31.984  27.781  24.225  1.00  0.00     0.037 C 
ATOM     15  C   UNL A   1      33.805  26.847  25.637  1.00  0.00     0.037 C 
BRANCH   7  16
ATOM     16  C   UNL A   1      34.075  22.719  23.501  1.00  0.00     0.064 A 
ATOM     17  C   UNL A   1      36.593  22.749  23.901  1.00  0.00     0.069 C 
ATOM     18  C   UNL A   1      35.210  22.232  24.169  1.00  0.00     0.061 A 
ATOM     19  N   UNL A   1      35.153  21.218  25.075  1.00  0.00    -0.259 NA
ATOM     20  C   UNL A   1      33.951  20.654  25.315  1.00  0.00     0.111 A 
ATOM     21  C   UNL A   1      32.867  22.053  23.727  1.00  0.00     0.030 A 
ATOM     22  C   UNL A   1      32.793  21.022  24.661  1.00  0.00     0.022 A 
ENDBRANCH   7  16
ENDBRANCH   4   6
ENDBRANCH   3   4
ENDBRANCH   2   3
ENDBRANCH   1   2
BRANCH   1  23
ATOM     23  O   UNL A   1      36.181  29.384  27.869  1.00  0.00    -0.458 OA
BRANCH  23  24
ATOM     24  C   UNL A   1      36.977  29.334  28.963  1.00  0.00     0.338 C 
ATOM     25  O   UNL A   1      36.629  29.393  30.130  1.00  0.00    -0.246 OA
BRANCH  24  26
ATOM     26  C   UNL A   1      38.369  29.070  28.563  1.00  0.00     0.060 A 
ATOM     27  C   UNL A   1      39.258  28.623  29.544  1.00  0.00     0.016 A 
ATOM     28  C   UNL A   1      38.820  29.346  27.271  1.00  0.00     0.016 A 
ATOM     29  C   UNL A   1      40.606  28.447  29.238  1.00  0.00     0.010 A 
ATOM     30  C   UNL A   1      40.176  29.172  26.965  1.00  0.00     0.010 A 
ATOM     31  C   UNL A   1      41.079  28.730  27.949  1.00  0.00    -0.014 A 
BRANCH  31  32
ATOM     32  C   UNL A   1      42.527  28.592  27.658  1.00  0.00     0.031 A 
ATOM     33  C   UNL A   1      43.466  29.736  27.926  1.00  0.00     0.074 A 
ATOM     34  C   UNL A   1      43.005  27.424  27.189  1.00  0.00     0.049 A 
ATOM     35  N   UNL A   1      44.759  29.802  27.737  1.00  0.00    -0.248 NA
ATOM     36  C   UNL A   1      42.873  30.962  28.480  1.00  0.00     0.031 C 
ATOM     37  C   UNL A   1      42.203  26.229  26.923  1.00  0.00     0.029 A 
ATOM     38  N   UNL A   1      44.284  27.049  26.863  1.00  0.00    -0.354 N 
ATOM     39  C   UNL A   1      45.135  31.081  28.130  1.00  0.00     0.074 A 
ATOM     40  C   UNL A   1      43.929  31.761  28.557  1.00  0.00     0.031 C 
ATOM     41  C   UNL A   1      43.012  25.247  26.491  1.00  0.00     0.029 A 
ATOM     42  C   UNL A   1      44.379  25.755  26.411  1.00  0.00     0.049 A 
ATOM     43  H   UNL A   1      45.059  27.650  26.944  1.00  0.00     0.167 HD
ATOM     44  C   UNL A   1      46.370  31.638  28.135  1.00  0.00     0.031 A 
ATOM     45  C   UNL A   1      45.444  25.057  25.970  1.00  0.00     0.031 A 
ATOM     46  C   UNL A   1      47.569  30.965  27.709  1.00  0.00     0.049 A 
ATOM     47  C   UNL A   1      46.795  25.716  25.939  1.00  0.00     0.074 A 
ATOM     48  C   UNL A   1      48.869  31.442  27.700  1.00  0.00     0.029 A 
ATOM     49  N   UNL A   1      47.616  29.672  27.211  1.00  0.00    -0.354 N 
ATOM     50  N   UNL A   1      47.133  26.923  26.326  1.00  0.00    -0.248 NA
ATOM     51  C   UNL A   1      47.908  24.917  25.408  1.00  0.00     0.031 C 
ATOM     52  C   UNL A   1      49.695  30.452  27.153  1.00  0.00     0.029 A 
ATOM     53  C   UNL A   1      48.917  29.343  26.867  1.00  0.00     0.049 A 
ATOM     54  H   UNL A   1      46.840  29.075  27.116  1.00  0.00     0.167 HD
ATOM     55  C   UNL A   1      48.501  27.024  26.097  1.00  0.00     0.074 A 
ATOM     56  C   UNL A   1      48.930  25.749  25.558  1.00  0.00     0.031 C 
ATOM     57  C   UNL A   1      49.327  28.078  26.313  1.00  0.00     0.031 A 
BRANCH  44  58
ATOM     58  C   UNL A   1      46.478  33.073  28.579  1.00  0.00    -0.014 A 
ATOM     59  C   UNL A   1      46.728  33.406  29.922  1.00  0.00     0.010 A 
ATOM     60  C   UNL A   1      46.349  34.103  27.629  1.00  0.00     0.010 A 
ATOM     61  C   UNL A   1      46.807  34.745  30.314  1.00  0.00     0.020 A 
ATOM     62  C   UNL A   1      46.448  35.443  28.013  1.00  0.00     0.020 A 
ATOM     63  C   UNL A   1      46.657  35.756  29.359  1.00  0.00     0.054 A 
BRANCH  63  64
ATOM     64  S   UNL A   1      46.767  37.487  29.890  1.00  0.00     0.124 S 
ATOM     65  O   UNL A   1      48.049  37.894  29.321  1.00  0.00    -0.237 OA
ATOM     66  O   UNL A   1      45.587  38.090  29.273  1.00  0.00    -0.237 OA
ATOM     67  O   UNL A   1      46.729  37.404  31.348  1.00  0.00    -0.744 OA
ENDBRANCH  63  64
ENDBRANCH  44  58
BRANCH  45  68
ATOM     68  C   UNL A   1      45.270  23.656  25.507  1.00  0.00    -0.014 A 
ATOM     69  C   UNL A   1      45.452  22.583  26.397  1.00  0.00     0.010 A 
ATOM     70  C   UNL A   1      44.909  23.389  24.174  1.00  0.00     0.010 A 
ATOM     71  C   UNL A   1      45.283  21.266  25.959  1.00  0.00     0.020 A 
ATOM     72  C   UNL A   1      44.715  22.076  23.740  1.00  0.00     0.020 A 
ATOM     73  C   UNL A   1      44.912  21.021  24.633  1.00  0.00     0.054 A 
BRANCH  73  74
ATOM     74  S   UNL A   1      44.630  19.309  24.101  1.00  0.00     0.124 S 
ATOM     75  O   UNL A   1      43.359  18.997  24.747  1.00  0.00    -0.237 OA
ATOM     76  O   UNL A   1      44.589  19.430  22.647  1.00  0.00    -0.237 OA
ATOM     77  O   UNL A   1      45.792  18.596  24.626  1.00  0.00    -0.744 OA
ENDBRANCH  73  74
ENDBRANCH  45  68
BRANCH  57  78
ATOM     78  C   UNL A   1      50.781  27.885  25.974  1.00  0.00    -0.014 A 
ATOM     79  C   UNL A   1      51.275  28.204  24.698  1.00  0.00     0.010 A 
ATOM     80  C   UNL A   1      51.664  27.392  26.950  1.00  0.00     0.010 A 
ATOM     81  C   UNL A   1      52.621  27.992  24.388  1.00  0.00     0.020 A 
ATOM     82  C   UNL A   1      53.016  27.200  26.652  1.00  0.00     0.020 A 
ATOM     83  C   UNL A   1      53.481  27.483  25.366  1.00  0.00     0.054 A 
BRANCH  83  84
ATOM     84  S   UNL A   1      55.229  27.226  24.950  1.00  0.00     0.124 S 
ATOM     85  O   UNL A   1      55.666  26.334  26.020  1.00  0.00    -0.237 OA
ATOM     86  O   UNL A   1      55.163  26.628  23.618  1.00  0.00    -0.237 OA
ATOM     87  O   UNL A   1      55.794  28.574  24.991  1.00  0.00    -0.744 OA
ENDBRANCH  83  84
ENDBRANCH  57  78
ENDBRANCH  31  32
ENDBRANCH  24  26
ENDBRANCH  23  24
ENDBRANCH   1  23
TORSDOF 15
ENDMDL
