MODEL 1
REMARK VINA RESULT:     -12.1      0.000      0.000
REMARK SMILES CC(C)OC(=O)c1c(NC(=O)[C@H]2[C@@H](C(=O)OCCOC(=O)c3ccc(-c4c5nc(c(-c6ccc(S(=O)(=O)[O-])cc6)c6ccc([nH]6)c(-c6ccc(S(=O)(=O)[O-])cc6)c6nc(c(-c7ccc(S(=O)(=O)[O-])cc7)c7ccc4[nH]7)C=C6)C=C5)cc3)[C@@H]3C=C[C@H]2CC3)sc2c1CCC2
REMARK SMILES IDX 17 1 16 2 14 3 15 4 13 5 12 6 85 7 82 8 84 9 86 10 83 11
REMARK SMILES IDX 87 12 10 13 9 14 11 16 8 17 7 18 90 19 88 20 89 21 91 22
REMARK SMILES IDX 93 23 92 24 5 25 6 26 4 27 2 28 1 29 3 30 18 31 19 32 20 33
REMARK SMILES IDX 21 34 22 35 23 36 81 37 24 38 80 39 25 40 26 41 27 42 74 43
REMARK SMILES IDX 28 44 79 45 73 46 75 47 29 48 78 49 72 50 71 51 30 53 60 54
REMARK SMILES IDX 41 55 59 56 42 57 45 58 58 59 76 60 43 61 44 62 57 64 77 65
REMARK SMILES IDX 46 66 31 67 32 68 40 69 33 70 39 71 34 72 35 73 36 74 37 75
REMARK SMILES IDX 38 76 61 77 62 78 70 79 63 80 69 81 64 82 65 83 66 84 67 85
REMARK SMILES IDX 68 86 47 87 48 88 56 89 49 90 55 91 50 92 51 93 52 94 53 95
REMARK SMILES IDX 54 96
REMARK H PARENT 9 15 75 52 45 63
REMARK Flexibility Score: inf
ROOT
ATOM      1  C   UNL A   1      37.036  21.607  24.280  1.00  0.00     0.274 C 
ENDROOT
BRANCH   1   2
ATOM      2  O   UNL A   1      35.602  21.525  24.312  1.00  0.00    -0.462 OA
BRANCH   2   3
ATOM      3  C   UNL A   1      34.951  22.552  23.690  1.00  0.00     0.310 C 
ATOM      4  O   UNL A   1      35.372  23.111  22.686  1.00  0.00    -0.252 OA
BRANCH   3   5
ATOM      5  C   UNL A   1      33.564  22.750  24.274  1.00  0.00     0.119 C 
ATOM      6  C   UNL A   1      33.387  23.959  25.240  1.00  0.00     0.100 C 
ATOM      7  C   UNL A   1      32.863  23.447  26.612  1.00  0.00     0.025 C 
ATOM      8  C   UNL A   1      32.948  21.478  24.922  1.00  0.00     0.026 C 
ATOM      9  C   UNL A   1      31.510  22.825  26.323  1.00  0.00    -0.027 C 
ATOM     10  C   UNL A   1      33.777  22.314  27.144  1.00  0.00     0.009 C 
ATOM     11  C   UNL A   1      31.550  21.825  25.426  1.00  0.00    -0.027 C 
ATOM     12  C   UNL A   1      33.779  21.120  26.167  1.00  0.00     0.009 C 
BRANCH   6  13
ATOM     13  C   UNL A   1      34.528  24.944  25.480  1.00  0.00     0.229 C 
ATOM     14  N   UNL A   1      34.492  26.228  24.996  1.00  0.00    -0.317 N 
ATOM     15  H   UNL A   1      35.380  26.646  24.917  1.00  0.00     0.170 HD
ATOM     16  O   UNL A   1      35.507  24.624  26.163  1.00  0.00    -0.274 OA
BRANCH  14  17
ATOM     17  C   UNL A   1      33.448  27.052  24.595  1.00  0.00     0.110 A 
ATOM     18  C   UNL A   1      32.762  27.989  25.383  1.00  0.00     0.098 A 
ATOM     19  C   UNL A   1      31.780  28.659  24.588  1.00  0.00    -0.017 A 
ATOM     20  S   UNL A   1      32.709  26.875  23.055  1.00  0.00    -0.122 S 
ATOM     21  C   UNL A   1      31.769  28.210  23.300  1.00  0.00     0.011 A 
ATOM     22  C   UNL A   1      30.793  29.761  24.749  1.00  0.00     0.038 C 
ATOM     23  C   UNL A   1      30.874  28.947  22.387  1.00  0.00     0.047 C 
ATOM     24  C   UNL A   1      29.961  29.656  23.422  1.00  0.00     0.010 C 
BRANCH  18  25
ATOM     25  C   UNL A   1      33.062  28.212  26.790  1.00  0.00     0.341 C 
ATOM     26  O   UNL A   1      32.188  28.265  27.652  1.00  0.00    -0.246 OA
BRANCH  25  27
ATOM     27  O   UNL A   1      34.381  28.471  27.000  1.00  0.00    -0.459 OA
BRANCH  27  28
ATOM     28  C   UNL A   1      34.826  29.822  27.264  1.00  0.00     0.170 C 
ATOM     29  C   UNL A   1      33.695  30.847  27.358  1.00  0.00     0.052 C 
ATOM     30  C   UNL A   1      35.765  29.863  28.461  1.00  0.00     0.052 C 
ENDBRANCH  27  28
ENDBRANCH  25  27
ENDBRANCH  18  25
ENDBRANCH  14  17
ENDBRANCH   6  13
ENDBRANCH   3   5
ENDBRANCH   2   3
ENDBRANCH   1   2
BRANCH   1  31
ATOM     31  C   UNL A   1      37.652  21.454  25.666  1.00  0.00     0.275 C 
BRANCH  31  32
ATOM     32  O   UNL A   1      38.346  22.628  26.083  1.00  0.00    -0.458 OA
BRANCH  32  33
ATOM     33  C   UNL A   1      39.610  22.443  26.531  1.00  0.00     0.338 C 
ATOM     34  O   UNL A   1      40.139  21.381  26.814  1.00  0.00    -0.246 OA
BRANCH  33  35
ATOM     35  C   UNL A   1      40.206  23.753  26.830  1.00  0.00     0.060 A 
ATOM     36  C   UNL A   1      41.327  23.792  27.666  1.00  0.00     0.016 A 
ATOM     37  C   UNL A   1      39.484  24.911  26.516  1.00  0.00     0.016 A 
ATOM     38  C   UNL A   1      41.608  24.968  28.337  1.00  0.00     0.010 A 
ATOM     39  C   UNL A   1      39.744  26.068  27.206  1.00  0.00     0.010 A 
ATOM     40  C   UNL A   1      40.754  26.062  28.164  1.00  0.00    -0.014 A 
BRANCH  40  41
ATOM     41  C   UNL A   1      40.996  27.277  28.915  1.00  0.00     0.031 A 
ATOM     42  C   UNL A   1      42.219  27.985  28.469  1.00  0.00     0.074 A 
ATOM     43  C   UNL A   1      40.105  27.781  29.791  1.00  0.00     0.049 A 
ATOM     44  N   UNL A   1      43.322  28.139  29.119  1.00  0.00    -0.248 NA
ATOM     45  C   UNL A   1      42.287  28.412  27.059  1.00  0.00     0.031 C 
ATOM     46  C   UNL A   1      38.743  27.317  30.073  1.00  0.00     0.029 A 
ATOM     47  N   UNL A   1      40.196  28.908  30.545  1.00  0.00    -0.354 N 
ATOM     48  C   UNL A   1      44.141  28.885  28.283  1.00  0.00     0.074 A 
ATOM     49  C   UNL A   1      43.548  28.831  26.972  1.00  0.00     0.031 C 
ATOM     50  C   UNL A   1      38.069  28.285  30.740  1.00  0.00     0.029 A 
ATOM     51  C   UNL A   1      38.985  29.371  31.049  1.00  0.00     0.049 A 
ATOM     52  H   UNL A   1      41.052  29.362  30.721  1.00  0.00     0.167 HD
ATOM     53  C   UNL A   1      45.085  29.730  28.781  1.00  0.00     0.031 A 
ATOM     54  C   UNL A   1      38.753  30.586  31.616  1.00  0.00     0.031 A 
ATOM     55  C   UNL A   1      45.375  29.454  30.163  1.00  0.00     0.049 A 
ATOM     56  C   UNL A   1      40.074  31.129  32.027  1.00  0.00     0.074 A 
ATOM     57  C   UNL A   1      45.841  28.348  30.846  1.00  0.00     0.029 A 
ATOM     58  N   UNL A   1      44.767  30.253  31.104  1.00  0.00    -0.354 N 
ATOM     59  N   UNL A   1      40.810  30.589  32.958  1.00  0.00    -0.248 NA
ATOM     60  C   UNL A   1      40.789  31.966  31.076  1.00  0.00     0.031 C 
ATOM     61  C   UNL A   1      45.074  28.307  32.046  1.00  0.00     0.029 A 
ATOM     62  C   UNL A   1      44.248  29.432  32.074  1.00  0.00     0.049 A 
ATOM     63  H   UNL A   1      44.715  31.236  31.085  1.00  0.00     0.167 HD
ATOM     64  C   UNL A   1      42.106  30.645  32.465  1.00  0.00     0.074 A 
ATOM     65  C   UNL A   1      42.041  31.579  31.339  1.00  0.00     0.031 C 
ATOM     66  C   UNL A   1      43.045  29.722  32.828  1.00  0.00     0.031 A 
BRANCH  53  67
ATOM     67  C   UNL A   1      45.420  31.043  28.122  1.00  0.00    -0.014 A 
ATOM     68  C   UNL A   1      44.434  32.042  28.029  1.00  0.00     0.010 A 
ATOM     69  C   UNL A   1      46.598  31.233  27.365  1.00  0.00     0.010 A 
ATOM     70  C   UNL A   1      44.612  33.159  27.201  1.00  0.00     0.020 A 
ATOM     71  C   UNL A   1      46.806  32.362  26.575  1.00  0.00     0.020 A 
ATOM     72  C   UNL A   1      45.799  33.309  26.479  1.00  0.00     0.054 A 
BRANCH  72  73
ATOM     73  S   UNL A   1      45.997  34.726  25.373  1.00  0.00     0.124 S 
ATOM     74  O   UNL A   1      47.433  34.708  25.115  1.00  0.00    -0.237 OA
ATOM     75  O   UNL A   1      45.143  34.358  24.247  1.00  0.00    -0.237 OA
ATOM     76  O   UNL A   1      45.516  35.852  26.170  1.00  0.00    -0.744 OA
ENDBRANCH  72  73
ENDBRANCH  53  67
BRANCH  54  77
ATOM     77  C   UNL A   1      37.547  31.450  31.494  1.00  0.00    -0.014 A 
ATOM     78  C   UNL A   1      36.417  31.254  32.314  1.00  0.00     0.010 A 
ATOM     79  C   UNL A   1      37.622  32.660  30.774  1.00  0.00     0.010 A 
ATOM     80  C   UNL A   1      35.434  32.255  32.454  1.00  0.00     0.020 A 
ATOM     81  C   UNL A   1      36.647  33.659  30.904  1.00  0.00     0.020 A 
ATOM     82  C   UNL A   1      35.568  33.462  31.764  1.00  0.00     0.054 A 
BRANCH  82  83
ATOM     83  S   UNL A   1      34.400  34.821  32.085  1.00  0.00     0.124 S 
ATOM     84  O   UNL A   1      34.036  35.246  30.737  1.00  0.00    -0.237 OA
ATOM     85  O   UNL A   1      33.344  34.160  32.846  1.00  0.00    -0.237 OA
ATOM     86  O   UNL A   1      35.195  35.785  32.845  1.00  0.00    -0.744 OA
ENDBRANCH  82  83
ENDBRANCH  54  77
BRANCH  66  87
ATOM     87  C   UNL A   1      42.727  28.785  33.976  1.00  0.00    -0.014 A 
ATOM     88  C   UNL A   1      41.976  27.598  33.850  1.00  0.00     0.010 A 
ATOM     89  C   UNL A   1      43.347  29.051  35.208  1.00  0.00     0.010 A 
ATOM     90  C   UNL A   1      41.831  26.720  34.937  1.00  0.00     0.020 A 
ATOM     91  C   UNL A   1      43.223  28.175  36.288  1.00  0.00     0.020 A 
ATOM     92  C   UNL A   1      42.456  27.016  36.153  1.00  0.00     0.054 A 
BRANCH  92  93
ATOM     93  S   UNL A   1      42.298  25.871  37.552  1.00  0.00     0.124 S 
ATOM     94  O   UNL A   1      42.763  24.609  36.985  1.00  0.00    -0.237 OA
ATOM     95  O   UNL A   1      43.171  26.467  38.561  1.00  0.00    -0.237 OA
ATOM     96  O   UNL A   1      40.873  25.913  37.878  1.00  0.00    -0.744 OA
ENDBRANCH  92  93
ENDBRANCH  66  87
ENDBRANCH  40  41
ENDBRANCH  33  35
ENDBRANCH  32  33
ENDBRANCH  31  32
ENDBRANCH   1  31
TORSDOF 19
ENDMDL
MODEL 2
REMARK VINA RESULT:     -11.9      2.532      9.384
REMARK SMILES CC(C)OC(=O)c1c(NC(=O)[C@H]2[C@@H](C(=O)OCCOC(=O)c3ccc(-c4c5nc(c(-c6ccc(S(=O)(=O)[O-])cc6)c6ccc([nH]6)c(-c6ccc(S(=O)(=O)[O-])cc6)c6nc(c(-c7ccc(S(=O)(=O)[O-])cc7)c7ccc4[nH]7)C=C6)C=C5)cc3)[C@@H]3C=C[C@H]2CC3)sc2c1CCC2
REMARK SMILES IDX 17 1 16 2 14 3 15 4 13 5 12 6 85 7 82 8 84 9 86 10 83 11
REMARK SMILES IDX 87 12 10 13 9 14 11 16 8 17 7 18 90 19 88 20 89 21 91 22
REMARK SMILES IDX 93 23 92 24 5 25 6 26 4 27 2 28 1 29 3 30 18 31 19 32 20 33
REMARK SMILES IDX 21 34 22 35 23 36 81 37 24 38 80 39 25 40 26 41 27 42 74 43
REMARK SMILES IDX 28 44 79 45 73 46 75 47 29 48 78 49 72 50 71 51 30 53 60 54
REMARK SMILES IDX 41 55 59 56 42 57 45 58 58 59 76 60 43 61 44 62 57 64 77 65
REMARK SMILES IDX 46 66 31 67 32 68 40 69 33 70 39 71 34 72 35 73 36 74 37 75
REMARK SMILES IDX 38 76 61 77 62 78 70 79 63 80 69 81 64 82 65 83 66 84 67 85
REMARK SMILES IDX 68 86 47 87 48 88 56 89 49 90 55 91 50 92 51 93 52 94 53 95
REMARK SMILES IDX 54 96
REMARK H PARENT 9 15 75 52 45 63
REMARK Flexibility Score: inf
ROOT
ATOM      1  C   UNL A   1      31.975  29.504  26.887  1.00  0.00     0.274 C 
ENDROOT
BRANCH   1   2
ATOM      2  O   UNL A   1      31.446  28.843  25.725  1.00  0.00    -0.462 OA
BRANCH   2   3
ATOM      3  C   UNL A   1      31.245  27.499  25.866  1.00  0.00     0.310 C 
ATOM      4  O   UNL A   1      30.789  26.985  26.878  1.00  0.00    -0.252 OA
BRANCH   3   5
ATOM      5  C   UNL A   1      31.456  26.777  24.548  1.00  0.00     0.119 C 
ATOM      6  C   UNL A   1      32.865  26.151  24.320  1.00  0.00     0.100 C 
ATOM      7  C   UNL A   1      33.481  26.734  23.017  1.00  0.00     0.025 C 
ATOM      8  C   UNL A   1      31.046  27.594  23.290  1.00  0.00     0.026 C 
ATOM      9  C   UNL A   1      32.548  26.307  21.900  1.00  0.00    -0.027 C 
ATOM     10  C   UNL A   1      33.454  28.283  23.060  1.00  0.00     0.009 C 
ATOM     11  C   UNL A   1      31.281  26.727  22.057  1.00  0.00    -0.027 C 
ATOM     12  C   UNL A   1      32.002  28.794  23.162  1.00  0.00     0.009 C 
BRANCH   6  13
ATOM     13  C   UNL A   1      33.920  26.174  25.423  1.00  0.00     0.229 C 
ATOM     14  N   UNL A   1      34.264  25.044  26.122  1.00  0.00    -0.317 N 
ATOM     15  H   UNL A   1      34.681  25.230  26.994  1.00  0.00     0.170 HD
ATOM     16  O   UNL A   1      34.533  27.213  25.690  1.00  0.00    -0.274 OA
BRANCH  14  17
ATOM     17  C   UNL A   1      34.139  23.689  25.838  1.00  0.00     0.110 A 
ATOM     18  C   UNL A   1      35.000  22.908  25.053  1.00  0.00     0.098 A 
ATOM     19  C   UNL A   1      34.542  21.554  25.037  1.00  0.00    -0.017 A 
ATOM     20  S   UNL A   1      32.734  22.808  26.284  1.00  0.00    -0.122 S 
ATOM     21  C   UNL A   1      33.404  21.389  25.772  1.00  0.00     0.011 A 
ATOM     22  C   UNL A   1      34.986  20.244  24.489  1.00  0.00     0.038 C 
ATOM     23  C   UNL A   1      32.945  19.994  25.911  1.00  0.00     0.047 C 
ATOM     24  C   UNL A   1      33.732  19.335  24.747  1.00  0.00     0.010 C 
BRANCH  18  25
ATOM     25  C   UNL A   1      36.180  23.449  24.392  1.00  0.00     0.341 C 
ATOM     26  O   UNL A   1      36.447  23.209  23.217  1.00  0.00    -0.246 OA
BRANCH  25  27
ATOM     27  O   UNL A   1      36.985  24.130  25.252  1.00  0.00    -0.459 OA
BRANCH  27  28
ATOM     28  C   UNL A   1      37.822  23.413  26.189  1.00  0.00     0.170 C 
ATOM     29  C   UNL A   1      38.276  22.038  25.698  1.00  0.00     0.052 C 
ATOM     30  C   UNL A   1      38.976  24.284  26.666  1.00  0.00     0.052 C 
ENDBRANCH  27  28
ENDBRANCH  25  27
ENDBRANCH  18  25
ENDBRANCH  14  17
ENDBRANCH   6  13
ENDBRANCH   3   5
ENDBRANCH   2   3
ENDBRANCH   1   2
BRANCH   1  31
ATOM     31  C   UNL A   1      33.073  30.499  26.532  1.00  0.00     0.275 C 
BRANCH  31  32
ATOM     32  O   UNL A   1      34.322  30.166  27.134  1.00  0.00    -0.458 OA
BRANCH  32  33
ATOM     33  C   UNL A   1      34.999  31.190  27.704  1.00  0.00     0.338 C 
ATOM     34  O   UNL A   1      34.797  32.383  27.541  1.00  0.00    -0.246 OA
BRANCH  33  35
ATOM     35  C   UNL A   1      36.172  30.654  28.408  1.00  0.00     0.060 A 
ATOM     36  C   UNL A   1      37.090  31.561  28.948  1.00  0.00     0.016 A 
ATOM     37  C   UNL A   1      36.479  29.294  28.269  1.00  0.00     0.016 A 
ATOM     38  C   UNL A   1      38.385  31.133  29.174  1.00  0.00     0.010 A 
ATOM     39  C   UNL A   1      37.772  28.878  28.463  1.00  0.00     0.010 A 
ATOM     40  C   UNL A   1      38.727  29.819  28.839  1.00  0.00    -0.014 A 
BRANCH  40  41
ATOM     41  C   UNL A   1      40.098  29.379  29.004  1.00  0.00     0.031 A 
ATOM     42  C   UNL A   1      40.445  29.125  30.421  1.00  0.00     0.074 A 
ATOM     43  C   UNL A   1      40.894  29.071  27.961  1.00  0.00     0.049 A 
ATOM     44  N   UNL A   1      41.258  29.795  31.166  1.00  0.00    -0.248 NA
ATOM     45  C   UNL A   1      39.652  28.118  31.151  1.00  0.00     0.031 C 
ATOM     46  C   UNL A   1      40.544  29.000  26.539  1.00  0.00     0.029 A 
ATOM     47  N   UNL A   1      42.181  28.637  27.972  1.00  0.00    -0.354 N 
ATOM     48  C   UNL A   1      41.251  29.147  32.394  1.00  0.00     0.074 A 
ATOM     49  C   UNL A   1      40.101  28.280  32.394  1.00  0.00     0.031 C 
ATOM     50  C   UNL A   1      41.512  28.325  25.873  1.00  0.00     0.029 A 
ATOM     51  C   UNL A   1      42.605  28.038  26.789  1.00  0.00     0.049 A 
ATOM     52  H   UNL A   1      42.769  28.737  28.756  1.00  0.00     0.167 HD
ATOM     53  C   UNL A   1      42.343  29.150  33.206  1.00  0.00     0.031 A 
ATOM     54  C   UNL A   1      43.739  27.310  26.609  1.00  0.00     0.031 A 
ATOM     55  C   UNL A   1      43.281  30.177  32.838  1.00  0.00     0.049 A 
ATOM     56  C   UNL A   1      44.654  27.654  27.728  1.00  0.00     0.074 A 
ATOM     57  C   UNL A   1      43.210  31.553  32.737  1.00  0.00     0.029 A 
ATOM     58  N   UNL A   1      44.365  29.796  32.083  1.00  0.00    -0.354 N 
ATOM     59  N   UNL A   1      45.178  28.838  27.884  1.00  0.00    -0.248 NA
ATOM     60  C   UNL A   1      44.595  26.836  28.929  1.00  0.00     0.031 C 
ATOM     61  C   UNL A   1      43.940  31.872  31.556  1.00  0.00     0.029 A 
ATOM     62  C   UNL A   1      44.489  30.692  31.050  1.00  0.00     0.049 A 
ATOM     63  H   UNL A   1      44.948  29.021  32.253  1.00  0.00     0.167 HD
ATOM     64  C   UNL A   1      45.101  29.083  29.248  1.00  0.00     0.074 A 
ATOM     65  C   UNL A   1      44.810  27.781  29.850  1.00  0.00     0.031 C 
ATOM     66  C   UNL A   1      44.996  30.355  29.736  1.00  0.00     0.031 A 
BRANCH  53  67
ATOM     67  C   UNL A   1      42.722  27.962  34.053  1.00  0.00    -0.014 A 
ATOM     68  C   UNL A   1      42.497  28.002  35.440  1.00  0.00     0.010 A 
ATOM     69  C   UNL A   1      43.523  26.906  33.563  1.00  0.00     0.010 A 
ATOM     70  C   UNL A   1      43.067  27.047  36.293  1.00  0.00     0.020 A 
ATOM     71  C   UNL A   1      44.057  25.925  34.396  1.00  0.00     0.020 A 
ATOM     72  C   UNL A   1      43.846  26.015  35.762  1.00  0.00     0.054 A 
BRANCH  72  73
ATOM     73  S   UNL A   1      44.621  24.819  36.874  1.00  0.00     0.124 S 
ATOM     74  O   UNL A   1      44.123  25.251  38.176  1.00  0.00    -0.237 OA
ATOM     75  O   UNL A   1      44.092  23.551  36.379  1.00  0.00    -0.237 OA
ATOM     76  O   UNL A   1      46.051  25.020  36.649  1.00  0.00    -0.744 OA
ENDBRANCH  72  73
ENDBRANCH  53  67
BRANCH  54  77
ATOM     77  C   UNL A   1      43.935  26.093  25.773  1.00  0.00    -0.014 A 
ATOM     78  C   UNL A   1      45.219  25.690  25.353  1.00  0.00     0.010 A 
ATOM     79  C   UNL A   1      42.888  25.159  25.637  1.00  0.00     0.010 A 
ATOM     80  C   UNL A   1      45.455  24.386  24.874  1.00  0.00     0.020 A 
ATOM     81  C   UNL A   1      43.113  23.861  25.158  1.00  0.00     0.020 A 
ATOM     82  C   UNL A   1      44.402  23.472  24.801  1.00  0.00     0.054 A 
BRANCH  82  83
ATOM     83  S   UNL A   1      44.739  21.739  24.359  1.00  0.00     0.124 S 
ATOM     84  O   UNL A   1      44.479  21.725  22.923  1.00  0.00    -0.237 OA
ATOM     85  O   UNL A   1      46.137  21.576  24.748  1.00  0.00    -0.237 OA
ATOM     86  O   UNL A   1      43.783  20.984  25.168  1.00  0.00    -0.744 OA
ENDBRANCH  82  83
ENDBRANCH  54  77
BRANCH  66  87
ATOM     87  C   UNL A   1      45.225  31.511  28.784  1.00  0.00    -0.014 A 
ATOM     88  C   UNL A   1      46.441  32.215  28.663  1.00  0.00     0.010 A 
ATOM     89  C   UNL A   1      44.198  31.796  27.867  1.00  0.00     0.010 A 
ATOM     90  C   UNL A   1      46.610  33.193  27.669  1.00  0.00     0.020 A 
ATOM     91  C   UNL A   1      44.365  32.754  26.864  1.00  0.00     0.020 A 
ATOM     92  C   UNL A   1      45.567  33.458  26.775  1.00  0.00     0.054 A 
BRANCH  92  93
ATOM     93  S   UNL A   1      45.790  34.699  25.469  1.00  0.00     0.124 S 
ATOM     94  O   UNL A   1      44.878  34.234  24.428  1.00  0.00    -0.237 OA
ATOM     95  O   UNL A   1      45.408  35.943  26.133  1.00  0.00    -0.237 OA
ATOM     96  O   UNL A   1      47.211  34.599  25.133  1.00  0.00    -0.744 OA
ENDBRANCH  92  93
ENDBRANCH  66  87
ENDBRANCH  40  41
ENDBRANCH  33  35
ENDBRANCH  32  33
ENDBRANCH  31  32
ENDBRANCH   1  31
TORSDOF 19
ENDMDL
MODEL 3
REMARK VINA RESULT:     -10.6      3.199      7.635
REMARK SMILES CC(C)OC(=O)c1c(NC(=O)[C@H]2[C@@H](C(=O)OCCOC(=O)c3ccc(-c4c5nc(c(-c6ccc(S(=O)(=O)[O-])cc6)c6ccc([nH]6)c(-c6ccc(S(=O)(=O)[O-])cc6)c6nc(c(-c7ccc(S(=O)(=O)[O-])cc7)c7ccc4[nH]7)C=C6)C=C5)cc3)[C@@H]3C=C[C@H]2CC3)sc2c1CCC2
REMARK SMILES IDX 17 1 16 2 14 3 15 4 13 5 12 6 85 7 82 8 84 9 86 10 83 11
REMARK SMILES IDX 87 12 10 13 9 14 11 16 8 17 7 18 90 19 88 20 89 21 91 22
REMARK SMILES IDX 93 23 92 24 5 25 6 26 4 27 2 28 1 29 3 30 18 31 19 32 20 33
REMARK SMILES IDX 21 34 22 35 23 36 81 37 24 38 80 39 25 40 26 41 27 42 74 43
REMARK SMILES IDX 28 44 79 45 73 46 75 47 29 48 78 49 72 50 71 51 30 53 60 54
REMARK SMILES IDX 41 55 59 56 42 57 45 58 58 59 76 60 43 61 44 62 57 64 77 65
REMARK SMILES IDX 46 66 31 67 32 68 40 69 33 70 39 71 34 72 35 73 36 74 37 75
REMARK SMILES IDX 38 76 61 77 62 78 70 79 63 80 69 81 64 82 65 83 66 84 67 85
REMARK SMILES IDX 68 86 47 87 48 88 56 89 49 90 55 91 50 92 51 93 52 94 53 95
REMARK SMILES IDX 54 96
REMARK H PARENT 9 15 75 52 45 63
REMARK Flexibility Score: inf
ROOT
ATOM      1  C   UNL A   1      31.420  29.647  25.373  1.00  0.00     0.274 C 
ENDROOT
BRANCH   1   2
ATOM      2  O   UNL A   1      32.262  28.523  25.071  1.00  0.00    -0.462 OA
BRANCH   2   3
ATOM      3  C   UNL A   1      31.811  27.321  25.538  1.00  0.00     0.310 C 
ATOM      4  O   UNL A   1      31.378  27.154  26.670  1.00  0.00    -0.252 OA
BRANCH   3   5
ATOM      5  C   UNL A   1      31.719  26.302  24.417  1.00  0.00     0.119 C 
ATOM      6  C   UNL A   1      32.825  25.205  24.389  1.00  0.00     0.100 C 
ATOM      7  C   UNL A   1      33.555  25.248  23.017  1.00  0.00     0.025 C 
ATOM      8  C   UNL A   1      31.565  26.915  22.997  1.00  0.00     0.026 C 
ATOM      9  C   UNL A   1      32.494  24.929  21.981  1.00  0.00    -0.027 C 
ATOM     10  C   UNL A   1      34.054  26.685  22.723  1.00  0.00     0.009 C 
ATOM     11  C   UNL A   1      31.450  25.774  21.991  1.00  0.00    -0.027 C 
ATOM     12  C   UNL A   1      32.865  27.665  22.651  1.00  0.00     0.009 C 
BRANCH   6  13
ATOM     13  C   UNL A   1      33.863  25.109  25.503  1.00  0.00     0.229 C 
ATOM     14  N   UNL A   1      34.151  23.922  26.127  1.00  0.00    -0.317 N 
ATOM     15  H   UNL A   1      34.562  24.031  27.015  1.00  0.00     0.170 HD
ATOM     16  O   UNL A   1      34.514  26.102  25.848  1.00  0.00    -0.274 OA
BRANCH  14  17
ATOM     17  C   UNL A   1      33.975  22.595  25.751  1.00  0.00     0.110 A 
ATOM     18  C   UNL A   1      34.911  21.768  25.112  1.00  0.00     0.098 A 
ATOM     19  C   UNL A   1      34.356  20.463  24.931  1.00  0.00    -0.017 A 
ATOM     20  S   UNL A   1      32.442  21.831  25.859  1.00  0.00    -0.122 S 
ATOM     21  C   UNL A   1      33.083  20.376  25.414  1.00  0.00     0.011 A 
ATOM     22  C   UNL A   1      34.794  19.138  24.413  1.00  0.00     0.038 C 
ATOM     23  C   UNL A   1      32.492  19.024  25.382  1.00  0.00     0.047 C 
ATOM     24  C   UNL A   1      33.443  18.340  24.365  1.00  0.00     0.010 C 
BRANCH  18  25
ATOM     25  C   UNL A   1      36.241  22.223  24.731  1.00  0.00     0.341 C 
ATOM     26  O   UNL A   1      36.484  22.705  23.627  1.00  0.00    -0.246 OA
BRANCH  25  27
ATOM     27  O   UNL A   1      37.174  21.938  25.680  1.00  0.00    -0.459 OA
BRANCH  27  28
ATOM     28  C   UNL A   1      38.332  22.790  25.843  1.00  0.00     0.170 C 
ATOM     29  C   UNL A   1      38.033  24.132  26.510  1.00  0.00     0.052 C 
ATOM     30  C   UNL A   1      39.473  22.036  26.512  1.00  0.00     0.052 C 
ENDBRANCH  27  28
ENDBRANCH  25  27
ENDBRANCH  18  25
ENDBRANCH  14  17
ENDBRANCH   6  13
ENDBRANCH   3   5
ENDBRANCH   2   3
ENDBRANCH   1   2
BRANCH   1  31
ATOM     31  C   UNL A   1      31.787  30.302  26.699  1.00  0.00     0.275 C 
BRANCH  31  32
ATOM     32  O   UNL A   1      32.844  31.249  26.562  1.00  0.00    -0.458 OA
BRANCH  32  33
ATOM     33  C   UNL A   1      32.720  32.388  27.283  1.00  0.00     0.338 C 
ATOM     34  O   UNL A   1      31.839  33.227  27.181  1.00  0.00    -0.246 OA
BRANCH  33  35
ATOM     35  C   UNL A   1      33.935  32.578  28.088  1.00  0.00     0.060 A 
ATOM     36  C   UNL A   1      34.930  33.425  27.589  1.00  0.00     0.016 A 
ATOM     37  C   UNL A   1      34.179  31.708  29.158  1.00  0.00     0.016 A 
ATOM     38  C   UNL A   1      36.225  33.260  28.044  1.00  0.00     0.010 A 
ATOM     39  C   UNL A   1      35.470  31.523  29.586  1.00  0.00     0.010 A 
ATOM     40  C   UNL A   1      36.488  32.246  28.970  1.00  0.00    -0.014 A 
BRANCH  40  41
ATOM     41  C   UNL A   1      37.852  32.016  29.403  1.00  0.00     0.031 A 
ATOM     42  C   UNL A   1      38.281  30.613  29.203  1.00  0.00     0.074 A 
ATOM     43  C   UNL A   1      38.676  33.017  29.773  1.00  0.00     0.049 A 
ATOM     44  N   UNL A   1      38.538  29.731  30.109  1.00  0.00    -0.248 NA
ATOM     45  C   UNL A   1      38.242  30.073  27.832  1.00  0.00     0.031 C 
ATOM     46  C   UNL A   1      38.437  34.463  29.713  1.00  0.00     0.029 A 
ATOM     47  N   UNL A   1      39.969  32.947  30.183  1.00  0.00    -0.354 N 
ATOM     48  C   UNL A   1      38.917  28.590  29.415  1.00  0.00     0.074 A 
ATOM     49  C   UNL A   1      38.507  28.785  28.048  1.00  0.00     0.031 C 
ATOM     50  C   UNL A   1      39.617  35.116  29.839  1.00  0.00     0.029 A 
ATOM     51  C   UNL A   1      40.665  34.150  30.123  1.00  0.00     0.049 A 
ATOM     52  H   UNL A   1      40.382  32.110  30.498  1.00  0.00     0.167 HD
ATOM     53  C   UNL A   1      39.793  27.693  29.945  1.00  0.00     0.031 A 
ATOM     54  C   UNL A   1      42.011  34.316  30.235  1.00  0.00     0.031 A 
ATOM     55  C   UNL A   1      39.937  27.862  31.367  1.00  0.00     0.049 A 
ATOM     56  C   UNL A   1      42.542  33.092  30.889  1.00  0.00     0.074 A 
ATOM     57  C   UNL A   1      39.062  27.811  32.435  1.00  0.00     0.029 A 
ATOM     58  N   UNL A   1      41.036  28.561  31.808  1.00  0.00    -0.354 N 
ATOM     59  N   UNL A   1      42.260  32.758  32.118  1.00  0.00    -0.248 NA
ATOM     60  C   UNL A   1      42.980  32.000  30.033  1.00  0.00     0.031 C 
ATOM     61  C   UNL A   1      39.460  28.882  33.286  1.00  0.00     0.029 A 
ATOM     62  C   UNL A   1      40.603  29.471  32.741  1.00  0.00     0.049 A 
ATOM     63  H   UNL A   1      41.965  28.432  31.510  1.00  0.00     0.167 HD
ATOM     64  C   UNL A   1      42.052  31.387  32.075  1.00  0.00     0.074 A 
ATOM     65  C   UNL A   1      42.592  30.964  30.782  1.00  0.00     0.031 C 
ATOM     66  C   UNL A   1      41.212  30.768  32.957  1.00  0.00     0.031 A 
BRANCH  53  67
ATOM     67  C   UNL A   1      40.803  26.959  29.102  1.00  0.00    -0.014 A 
ATOM     68  C   UNL A   1      41.891  27.663  28.557  1.00  0.00     0.010 A 
ATOM     69  C   UNL A   1      40.580  25.649  28.620  1.00  0.00     0.010 A 
ATOM     70  C   UNL A   1      42.698  27.092  27.563  1.00  0.00     0.020 A 
ATOM     71  C   UNL A   1      41.402  25.054  27.665  1.00  0.00     0.020 A 
ATOM     72  C   UNL A   1      42.444  25.789  27.123  1.00  0.00     0.054 A 
BRANCH  72  73
ATOM     73  S   UNL A   1      43.456  25.080  25.803  1.00  0.00     0.124 S 
ATOM     74  O   UNL A   1      44.752  25.704  26.048  1.00  0.00    -0.237 OA
ATOM     75  O   UNL A   1      43.373  23.650  26.087  1.00  0.00    -0.237 OA
ATOM     76  O   UNL A   1      42.773  25.507  24.583  1.00  0.00    -0.744 OA
ENDBRANCH  72  73
ENDBRANCH  53  67
BRANCH  54  77
ATOM     77  C   UNL A   1      42.892  35.266  29.501  1.00  0.00    -0.014 A 
ATOM     78  C   UNL A   1      42.925  35.297  28.092  1.00  0.00     0.010 A 
ATOM     79  C   UNL A   1      43.480  36.348  30.186  1.00  0.00     0.010 A 
ATOM     80  C   UNL A   1      43.469  36.396  27.399  1.00  0.00     0.020 A 
ATOM     81  C   UNL A   1      44.028  37.444  29.505  1.00  0.00     0.020 A 
ATOM     82  C   UNL A   1      43.998  37.475  28.112  1.00  0.00     0.054 A 
BRANCH  82  83
ATOM     83  S   UNL A   1      44.532  38.971  27.223  1.00  0.00     0.124 S 
ATOM     84  O   UNL A   1      45.659  38.482  26.436  1.00  0.00    -0.237 OA
ATOM     85  O   UNL A   1      43.340  39.332  26.461  1.00  0.00    -0.237 OA
ATOM     86  O   UNL A   1      44.883  39.902  28.295  1.00  0.00    -0.744 OA
ENDBRANCH  82  83
ENDBRANCH  54  77
BRANCH  66  87
ATOM     87  C   UNL A   1      40.709  31.559  34.147  1.00  0.00    -0.014 A 
ATOM     88  C   UNL A   1      39.592  32.420  34.116  1.00  0.00     0.010 A 
ATOM     89  C   UNL A   1      41.311  31.297  35.389  1.00  0.00     0.010 A 
ATOM     90  C   UNL A   1      39.114  33.021  35.293  1.00  0.00     0.020 A 
ATOM     91  C   UNL A   1      40.830  31.876  36.566  1.00  0.00     0.020 A 
ATOM     92  C   UNL A   1      39.740  32.745  36.513  1.00  0.00     0.054 A 
BRANCH  92  93
ATOM     93  S   UNL A   1      39.108  33.493  38.041  1.00  0.00     0.124 S 
ATOM     94  O   UNL A   1      37.677  33.215  37.964  1.00  0.00    -0.237 OA
ATOM     95  O   UNL A   1      39.835  32.771  39.083  1.00  0.00    -0.237 OA
ATOM     96  O   UNL A   1      39.470  34.905  37.913  1.00  0.00    -0.744 OA
ENDBRANCH  92  93
ENDBRANCH  66  87
ENDBRANCH  40  41
ENDBRANCH  33  35
ENDBRANCH  32  33
ENDBRANCH  31  32
ENDBRANCH   1  31
TORSDOF 19
ENDMDL
