MODEL 1
REMARK VINA RESULT:     -10.9      0.000      0.000
REMARK SMILES C[C@]([NH3+])(C(=O)N1[C@@H](C(=O)OCCOC(=O)c2ccc(-c3c4nc(c(-c5ccc(S(=O)(=O)[O-])cc5)c5ccc([nH]5)c(-c5ccc(S(=O)(=O)[O-])cc5)c5nc(c(-c6ccc(S(=O)(=O)[O-])cc6)c6ccc3[nH]6)C=C5)C=C4)cc2)C[C@H]2CCCC[C@@H]21)C(F)(F)F
REMARK SMILES IDX 11 1 10 2 8 3 9 4 7 5 6 6 82 7 76 8 77 9 81 10 78 11 80 12
REMARK SMILES IDX 79 13 4 14 5 15 2 16 1 17 83 18 84 19 85 20 86 21 3 22 12 26
REMARK SMILES IDX 13 27 14 28 15 29 16 30 17 31 75 32 18 33 74 34 19 35 20 36
REMARK SMILES IDX 21 37 68 38 22 39 73 40 67 41 69 42 23 43 72 44 66 45 65 46
REMARK SMILES IDX 24 48 54 49 35 50 53 51 36 52 39 53 52 54 70 55 37 56 38 57
REMARK SMILES IDX 51 59 71 60 40 61 25 62 26 63 34 64 27 65 33 66 28 67 29 68
REMARK SMILES IDX 30 69 31 70 32 71 55 72 56 73 64 74 57 75 63 76 58 77 59 78
REMARK SMILES IDX 60 79 61 80 62 81 41 82 42 83 50 84 43 85 49 86 44 87 45 88
REMARK SMILES IDX 46 89 47 90 48 91
REMARK H PARENT 3 23 3 24 3 25 69 47 39 58
REMARK Flexibility Score: inf
ROOT
ATOM      1  C   UNL A   1      33.566  29.657  26.654  1.00  0.00     0.274 C 
ENDROOT
BRANCH   1   2
ATOM      2  O   UNL A   1      32.822  28.698  27.440  1.00  0.00    -0.461 OA
BRANCH   2   3
ATOM      3  C   UNL A   1      32.548  27.501  26.852  1.00  0.00     0.329 C 
ATOM      4  O   UNL A   1      31.702  26.711  27.254  1.00  0.00    -0.250 OA
BRANCH   3   5
ATOM      5  C   UNL A   1      33.497  27.176  25.679  1.00  0.00     0.196 C 
ATOM      6  N   UNL A   1      32.870  27.076  24.340  1.00  0.00    -0.320 N 
ATOM      7  C   UNL A   1      32.871  25.683  23.901  1.00  0.00     0.089 C 
ATOM      8  C   UNL A   1      34.127  25.787  25.918  1.00  0.00     0.043 C 
ATOM      9  C   UNL A   1      34.187  25.200  24.518  1.00  0.00     0.014 C 
ATOM     10  C   UNL A   1      32.891  25.362  22.406  1.00  0.00     0.025 C 
ATOM     11  C   UNL A   1      34.367  23.699  24.389  1.00  0.00     0.006 C 
ATOM     12  C   UNL A   1      33.100  23.855  22.188  1.00  0.00     0.002 C 
ATOM     13  C   UNL A   1      34.334  23.308  22.910  1.00  0.00     0.000 C 
BRANCH   6  14
ATOM     14  C   UNL A   1      32.308  28.084  23.577  1.00  0.00     0.294 C 
ATOM     15  O   UNL A   1      33.022  28.731  22.809  1.00  0.00    -0.267 OA
BRANCH  14  16
ATOM     16  C   UNL A   1      30.812  28.446  23.778  1.00  0.00     0.267 C 
ATOM     17  C   UNL A   1      30.706  29.850  24.407  1.00  0.00     0.100 C 
BRANCH  16  18
ATOM     18  C   UNL A   1      30.186  28.521  22.350  1.00  0.00     0.453 C 
ATOM     19  F   UNL A   1      28.833  28.536  22.374  1.00  0.00    -0.164 F 
ATOM     20  F   UNL A   1      30.565  29.676  21.732  1.00  0.00    -0.164 F 
ATOM     21  F   UNL A   1      30.596  27.516  21.544  1.00  0.00    -0.164 F 
ENDBRANCH  16  18
BRANCH  16  22
ATOM     22  N   UNL A   1      30.113  27.442  24.648  1.00  0.00    -0.337 N 
ATOM     23  H   UNL A   1      30.389  26.501  24.369  1.00  0.00     0.345 HD
ATOM     24  H   UNL A   1      29.105  27.546  24.545  1.00  0.00     0.345 HD
ATOM     25  H   UNL A   1      30.373  27.598  25.623  1.00  0.00     0.345 HD
ENDBRANCH  16  22
ENDBRANCH  14  16
ENDBRANCH   6  14
ENDBRANCH   3   5
ENDBRANCH   2   3
ENDBRANCH   1   2
BRANCH   1  26
ATOM     26  C   UNL A   1      34.205  30.678  27.588  1.00  0.00     0.275 C 
BRANCH  26  27
ATOM     27  O   UNL A   1      35.077  29.964  28.478  1.00  0.00    -0.458 OA
BRANCH  27  28
ATOM     28  C   UNL A   1      36.060  30.694  29.049  1.00  0.00     0.338 C 
ATOM     29  O   UNL A   1      35.939  31.772  29.612  1.00  0.00    -0.246 OA
BRANCH  28  30
ATOM     30  C   UNL A   1      37.350  29.990  28.897  1.00  0.00     0.060 A 
ATOM     31  C   UNL A   1      37.997  29.424  29.998  1.00  0.00     0.016 A 
ATOM     32  C   UNL A   1      37.966  29.968  27.645  1.00  0.00     0.016 A 
ATOM     33  C   UNL A   1      39.292  28.918  29.861  1.00  0.00     0.010 A 
ATOM     34  C   UNL A   1      39.230  29.388  27.500  1.00  0.00     0.010 A 
ATOM     35  C   UNL A   1      39.936  28.902  28.615  1.00  0.00    -0.014 A 
BRANCH  35  36
ATOM     36  C   UNL A   1      41.357  28.459  28.470  1.00  0.00     0.031 A 
ATOM     37  C   UNL A   1      42.480  29.447  28.695  1.00  0.00     0.074 A 
ATOM     38  C   UNL A   1      41.674  27.189  28.143  1.00  0.00     0.049 A 
ATOM     39  N   UNL A   1      43.746  29.350  28.374  1.00  0.00    -0.248 NA
ATOM     40  C   UNL A   1      42.126  30.718  29.349  1.00  0.00     0.031 C 
ATOM     41  C   UNL A   1      40.726  26.091  27.952  1.00  0.00     0.029 A 
ATOM     42  N   UNL A   1      42.900  26.606  27.922  1.00  0.00    -0.354 N 
ATOM     43  C   UNL A   1      44.316  30.578  28.698  1.00  0.00     0.074 A 
ATOM     44  C   UNL A   1      43.262  31.395  29.261  1.00  0.00     0.031 C 
ATOM     45  C   UNL A   1      41.405  24.961  27.696  1.00  0.00     0.029 A 
ATOM     46  C   UNL A   1      42.827  25.271  27.598  1.00  0.00     0.049 A 
ATOM     47  H   UNL A   1      43.751  27.098  27.989  1.00  0.00     0.167 HD
ATOM     48  C   UNL A   1      45.595  30.993  28.530  1.00  0.00     0.031 A 
ATOM     49  C   UNL A   1      43.779  24.399  27.211  1.00  0.00     0.031 A 
ATOM     50  C   UNL A   1      46.661  30.162  28.037  1.00  0.00     0.049 A 
ATOM     51  C   UNL A   1      45.194  24.872  27.035  1.00  0.00     0.074 A 
ATOM     52  C   UNL A   1      47.990  30.494  27.831  1.00  0.00     0.029 A 
ATOM     53  N   UNL A   1      46.529  28.823  27.703  1.00  0.00    -0.354 N 
ATOM     54  N   UNL A   1      45.691  26.068  27.235  1.00  0.00    -0.248 NA
ATOM     55  C   UNL A   1      46.167  23.884  26.550  1.00  0.00     0.031 C 
ATOM     56  C   UNL A   1      48.656  29.362  27.349  1.00  0.00     0.029 A 
ATOM     57  C   UNL A   1      47.751  28.315  27.293  1.00  0.00     0.049 A 
ATOM     58  H   UNL A   1      45.690  28.309  27.749  1.00  0.00     0.167 HD
ATOM     59  C   UNL A   1      47.036  25.977  26.896  1.00  0.00     0.074 A 
ATOM     60  C   UNL A   1      47.280  24.604  26.503  1.00  0.00     0.031 C 
ATOM     61  C   UNL A   1      47.980  26.950  26.897  1.00  0.00     0.031 A 
BRANCH  48  62
ATOM     62  C   UNL A   1      45.902  32.436  28.831  1.00  0.00    -0.014 A 
ATOM     63  C   UNL A   1      45.746  33.444  27.863  1.00  0.00     0.010 A 
ATOM     64  C   UNL A   1      46.330  32.789  30.126  1.00  0.00     0.010 A 
ATOM     65  C   UNL A   1      46.056  34.772  28.173  1.00  0.00     0.020 A 
ATOM     66  C   UNL A   1      46.616  34.119  30.446  1.00  0.00     0.020 A 
ATOM     67  C   UNL A   1      46.496  35.100  29.460  1.00  0.00     0.054 A 
BRANCH  67  68
ATOM     68  S   UNL A   1      46.882  36.831  29.844  1.00  0.00     0.124 S 
ATOM     69  O   UNL A   1      45.792  37.536  29.176  1.00  0.00    -0.237 OA
ATOM     70  O   UNL A   1      46.844  36.855  31.304  1.00  0.00    -0.237 OA
ATOM     71  O   UNL A   1      48.206  37.028  29.257  1.00  0.00    -0.744 OA
ENDBRANCH  67  68
ENDBRANCH  48  62
BRANCH  49  72
ATOM     72  C   UNL A   1      43.401  22.993  26.908  1.00  0.00    -0.014 A 
ATOM     73  C   UNL A   1      43.703  22.429  25.656  1.00  0.00     0.010 A 
ATOM     74  C   UNL A   1      42.786  22.194  27.890  1.00  0.00     0.010 A 
ATOM     75  C   UNL A   1      43.409  21.086  25.398  1.00  0.00     0.020 A 
ATOM     76  C   UNL A   1      42.518  20.846  27.645  1.00  0.00     0.020 A 
ATOM     77  C   UNL A   1      42.828  20.301  26.398  1.00  0.00     0.054 A 
BRANCH  77  78
ATOM     78  S   UNL A   1      42.558  18.533  26.089  1.00  0.00     0.124 S 
ATOM     79  O   UNL A   1      41.128  18.489  25.811  1.00  0.00    -0.237 OA
ATOM     80  O   UNL A   1      43.434  18.270  24.949  1.00  0.00    -0.237 OA
ATOM     81  O   UNL A   1      42.978  17.905  27.340  1.00  0.00    -0.744 OA
ENDBRANCH  77  78
ENDBRANCH  49  72
BRANCH  61  82
ATOM     82  C   UNL A   1      49.370  26.561  26.477  1.00  0.00    -0.014 A 
ATOM     83  C   UNL A   1      50.260  25.966  27.388  1.00  0.00     0.010 A 
ATOM     84  C   UNL A   1      49.776  26.754  25.145  1.00  0.00     0.010 A 
ATOM     85  C   UNL A   1      51.545  25.598  26.981  1.00  0.00     0.020 A 
ATOM     86  C   UNL A   1      51.054  26.370  24.730  1.00  0.00     0.020 A 
ATOM     87  C   UNL A   1      51.935  25.807  25.655  1.00  0.00     0.054 A 
BRANCH  87  88
ATOM     88  S   UNL A   1      53.597  25.293  25.137  1.00  0.00     0.124 S 
ATOM     89  O   UNL A   1      54.439  25.926  26.149  1.00  0.00    -0.237 OA
ATOM     90  O   UNL A   1      53.521  23.835  25.205  1.00  0.00    -0.237 OA
ATOM     91  O   UNL A   1      53.723  25.840  23.789  1.00  0.00    -0.744 OA
ENDBRANCH  87  88
ENDBRANCH  61  82
ENDBRANCH  35  36
ENDBRANCH  28  30
ENDBRANCH  27  28
ENDBRANCH  26  27
ENDBRANCH   1  26
TORSDOF 18
ENDMDL
MODEL 2
REMARK VINA RESULT:     -10.6      2.382      3.321
REMARK SMILES C[C@]([NH3+])(C(=O)N1[C@@H](C(=O)OCCOC(=O)c2ccc(-c3c4nc(c(-c5ccc(S(=O)(=O)[O-])cc5)c5ccc([nH]5)c(-c5ccc(S(=O)(=O)[O-])cc5)c5nc(c(-c6ccc(S(=O)(=O)[O-])cc6)c6ccc3[nH]6)C=C5)C=C4)cc2)C[C@H]2CCCC[C@@H]21)C(F)(F)F
REMARK SMILES IDX 11 1 10 2 8 3 9 4 7 5 6 6 82 7 76 8 77 9 81 10 78 11 80 12
REMARK SMILES IDX 79 13 4 14 5 15 2 16 1 17 83 18 84 19 85 20 86 21 3 22 12 26
REMARK SMILES IDX 13 27 14 28 15 29 16 30 17 31 75 32 18 33 74 34 19 35 20 36
REMARK SMILES IDX 21 37 68 38 22 39 73 40 67 41 69 42 23 43 72 44 66 45 65 46
REMARK SMILES IDX 24 48 54 49 35 50 53 51 36 52 39 53 52 54 70 55 37 56 38 57
REMARK SMILES IDX 51 59 71 60 40 61 25 62 26 63 34 64 27 65 33 66 28 67 29 68
REMARK SMILES IDX 30 69 31 70 32 71 55 72 56 73 64 74 57 75 63 76 58 77 59 78
REMARK SMILES IDX 60 79 61 80 62 81 41 82 42 83 50 84 43 85 49 86 44 87 45 88
REMARK SMILES IDX 46 89 47 90 48 91
REMARK H PARENT 3 23 3 24 3 25 69 47 39 58
REMARK Flexibility Score: inf
ROOT
ATOM      1  C   UNL A   1      32.453  28.864  25.906  1.00  0.00     0.274 C 
ENDROOT
BRANCH   1   2
ATOM      2  O   UNL A   1      33.258  27.790  25.367  1.00  0.00    -0.461 OA
BRANCH   2   3
ATOM      3  C   UNL A   1      32.983  27.395  24.094  1.00  0.00     0.329 C 
ATOM      4  O   UNL A   1      32.746  28.162  23.167  1.00  0.00    -0.250 OA
BRANCH   3   5
ATOM      5  C   UNL A   1      32.884  25.861  23.948  1.00  0.00     0.196 C 
ATOM      6  N   UNL A   1      32.852  25.086  25.211  1.00  0.00    -0.320 N 
ATOM      7  C   UNL A   1      34.108  24.358  25.372  1.00  0.00     0.089 C 
ATOM      8  C   UNL A   1      34.140  25.350  23.210  1.00  0.00     0.043 C 
ATOM      9  C   UNL A   1      34.428  24.032  23.909  1.00  0.00     0.014 C 
ATOM     10  C   UNL A   1      34.130  23.056  26.173  1.00  0.00     0.025 C 
ATOM     11  C   UNL A   1      35.811  23.432  23.742  1.00  0.00     0.006 C 
ATOM     12  C   UNL A   1      35.496  22.367  26.032  1.00  0.00     0.002 C 
ATOM     13  C   UNL A   1      35.914  22.152  24.574  1.00  0.00     0.000 C 
BRANCH   6  14
ATOM     14  C   UNL A   1      31.850  25.037  26.163  1.00  0.00     0.294 C 
ATOM     15  O   UNL A   1      32.049  25.527  27.276  1.00  0.00    -0.267 OA
BRANCH  14  16
ATOM     16  C   UNL A   1      30.535  24.276  25.845  1.00  0.00     0.267 C 
ATOM     17  C   UNL A   1      30.479  23.960  24.337  1.00  0.00     0.100 C 
BRANCH  16  18
ATOM     18  C   UNL A   1      30.622  22.918  26.609  1.00  0.00     0.453 C 
ATOM     19  F   UNL A   1      29.415  22.481  27.036  1.00  0.00    -0.164 F 
ATOM     20  F   UNL A   1      31.103  21.946  25.783  1.00  0.00    -0.164 F 
ATOM     21  F   UNL A   1      31.467  22.962  27.664  1.00  0.00    -0.164 F 
ENDBRANCH  16  18
BRANCH  16  22
ATOM     22  N   UNL A   1      29.326  25.072  26.246  1.00  0.00    -0.337 N 
ATOM     23  H   UNL A   1      29.422  26.029  25.905  1.00  0.00     0.345 HD
ATOM     24  H   UNL A   1      29.245  25.078  27.262  1.00  0.00     0.345 HD
ATOM     25  H   UNL A   1      28.491  24.648  25.840  1.00  0.00     0.345 HD
ENDBRANCH  16  22
ENDBRANCH  14  16
ENDBRANCH   6  14
ENDBRANCH   3   5
ENDBRANCH   2   3
ENDBRANCH   1   2
BRANCH   1  26
ATOM     26  C   UNL A   1      33.365  30.024  26.292  1.00  0.00     0.275 C 
BRANCH  26  27
ATOM     27  O   UNL A   1      33.514  29.999  27.721  1.00  0.00    -0.458 OA
BRANCH  27  28
ATOM     28  C   UNL A   1      34.391  30.888  28.236  1.00  0.00     0.338 C 
ATOM     29  O   UNL A   1      34.163  32.049  28.543  1.00  0.00    -0.246 OA
BRANCH  28  30
ATOM     30  C   UNL A   1      35.715  30.247  28.383  1.00  0.00     0.060 A 
ATOM     31  C   UNL A   1      36.131  29.727  29.611  1.00  0.00     0.016 A 
ATOM     32  C   UNL A   1      36.590  30.241  27.297  1.00  0.00     0.016 A 
ATOM     33  C   UNL A   1      37.446  29.284  29.771  1.00  0.00     0.010 A 
ATOM     34  C   UNL A   1      37.880  29.723  27.443  1.00  0.00     0.010 A 
ATOM     35  C   UNL A   1      38.347  29.285  28.695  1.00  0.00    -0.014 A 
BRANCH  35  36
ATOM     36  C   UNL A   1      39.784  28.912  28.873  1.00  0.00     0.031 A 
ATOM     37  C   UNL A   1      40.761  29.923  29.433  1.00  0.00     0.074 A 
ATOM     38  C   UNL A   1      40.244  27.686  28.548  1.00  0.00     0.049 A 
ATOM     39  N   UNL A   1      42.070  29.902  29.425  1.00  0.00    -0.248 NA
ATOM     40  C   UNL A   1      40.186  31.122  30.065  1.00  0.00     0.031 C 
ATOM     41  C   UNL A   1      39.435  26.570  28.056  1.00  0.00     0.029 A 
ATOM     42  N   UNL A   1      41.519  27.172  28.594  1.00  0.00    -0.354 N 
ATOM     43  C   UNL A   1      42.473  31.122  29.963  1.00  0.00     0.074 A 
ATOM     44  C   UNL A   1      41.269  31.848  30.305  1.00  0.00     0.031 C 
ATOM     45  C   UNL A   1      40.219  25.492  27.898  1.00  0.00     0.029 A 
ATOM     46  C   UNL A   1      41.603  25.865  28.172  1.00  0.00     0.049 A 
ATOM     47  H   UNL A   1      42.298  27.690  28.902  1.00  0.00     0.167 HD
ATOM     48  C   UNL A   1      43.729  31.599  30.142  1.00  0.00     0.031 A 
ATOM     49  C   UNL A   1      42.669  25.065  27.972  1.00  0.00     0.031 A 
ATOM     50  C   UNL A   1      44.928  30.852  29.869  1.00  0.00     0.049 A 
ATOM     51  C   UNL A   1      44.055  25.606  28.180  1.00  0.00     0.074 A 
ATOM     52  C   UNL A   1      46.246  31.253  30.018  1.00  0.00     0.029 A 
ATOM     53  N   UNL A   1      44.959  29.541  29.422  1.00  0.00    -0.354 N 
ATOM     54  N   UNL A   1      44.419  26.801  28.577  1.00  0.00    -0.248 NA
ATOM     55  C   UNL A   1      45.172  24.699  27.883  1.00  0.00     0.031 C 
ATOM     56  C   UNL A   1      47.074  30.189  29.637  1.00  0.00     0.029 A 
ATOM     57  C   UNL A   1      46.270  29.116  29.291  1.00  0.00     0.049 A 
ATOM     58  H   UNL A   1      44.165  28.992  29.227  1.00  0.00     0.167 HD
ATOM     59  C   UNL A   1      45.809  26.791  28.572  1.00  0.00     0.074 A 
ATOM     60  C   UNL A   1      46.220  25.465  28.159  1.00  0.00     0.031 C 
ATOM     61  C   UNL A   1      46.667  27.797  28.871  1.00  0.00     0.031 A 
BRANCH  48  62
ATOM     62  C   UNL A   1      43.870  33.024  30.606  1.00  0.00    -0.014 A 
ATOM     63  C   UNL A   1      44.157  33.342  31.945  1.00  0.00     0.010 A 
ATOM     64  C   UNL A   1      43.738  34.066  29.668  1.00  0.00     0.010 A 
ATOM     65  C   UNL A   1      44.266  34.678  32.344  1.00  0.00     0.020 A 
ATOM     66  C   UNL A   1      43.871  35.401  30.058  1.00  0.00     0.020 A 
ATOM     67  C   UNL A   1      44.114  35.699  31.400  1.00  0.00     0.054 A 
BRANCH  67  68
ATOM     68  S   UNL A   1      44.270  37.426  31.937  1.00  0.00     0.124 S 
ATOM     69  O   UNL A   1      45.695  37.517  32.242  1.00  0.00    -0.237 OA
ATOM     70  O   UNL A   1      43.830  38.172  30.761  1.00  0.00    -0.237 OA
ATOM     71  O   UNL A   1      43.378  37.509  33.091  1.00  0.00    -0.744 OA
ENDBRANCH  67  68
ENDBRANCH  48  62
BRANCH  49  72
ATOM     72  C   UNL A   1      42.457  23.674  27.490  1.00  0.00    -0.014 A 
ATOM     73  C   UNL A   1      42.391  23.400  26.113  1.00  0.00     0.010 A 
ATOM     74  C   UNL A   1      42.376  22.609  28.406  1.00  0.00     0.010 A 
ATOM     75  C   UNL A   1      42.262  22.083  25.661  1.00  0.00     0.020 A 
ATOM     76  C   UNL A   1      42.276  21.290  27.958  1.00  0.00     0.020 A 
ATOM     77  C   UNL A   1      42.216  21.036  26.587  1.00  0.00     0.054 A 
BRANCH  77  78
ATOM     78  S   UNL A   1      42.164  19.325  25.983  1.00  0.00     0.124 S 
ATOM     79  O   UNL A   1      42.665  18.583  27.134  1.00  0.00    -0.237 OA
ATOM     80  O   UNL A   1      40.748  19.136  25.675  1.00  0.00    -0.237 OA
ATOM     81  O   UNL A   1      43.046  19.353  24.817  1.00  0.00    -0.744 OA
ENDBRANCH  77  78
ENDBRANCH  49  72
BRANCH  61  82
ATOM     82  C   UNL A   1      48.137  27.498  28.778  1.00  0.00    -0.014 A 
ATOM     83  C   UNL A   1      48.831  27.657  27.566  1.00  0.00     0.010 A 
ATOM     84  C   UNL A   1      48.841  27.094  29.926  1.00  0.00     0.010 A 
ATOM     85  C   UNL A   1      50.201  27.388  27.496  1.00  0.00     0.020 A 
ATOM     86  C   UNL A   1      50.214  26.841  29.864  1.00  0.00     0.020 A 
ATOM     87  C   UNL A   1      50.882  26.977  28.646  1.00  0.00     0.054 A 
BRANCH  87  88
ATOM     88  S   UNL A   1      52.667  26.662  28.543  1.00  0.00     0.124 S 
ATOM     89  O   UNL A   1      52.744  25.715  27.435  1.00  0.00    -0.237 OA
ATOM     90  O   UNL A   1      53.214  27.990  28.273  1.00  0.00    -0.237 OA
ATOM     91  O   UNL A   1      52.997  26.116  29.857  1.00  0.00    -0.744 OA
ENDBRANCH  87  88
ENDBRANCH  61  82
ENDBRANCH  35  36
ENDBRANCH  28  30
ENDBRANCH  27  28
ENDBRANCH  26  27
ENDBRANCH   1  26
TORSDOF 18
ENDMDL
MODEL 3
REMARK VINA RESULT:     -10.4      6.717     11.948
REMARK SMILES C[C@]([NH3+])(C(=O)N1[C@@H](C(=O)OCCOC(=O)c2ccc(-c3c4nc(c(-c5ccc(S(=O)(=O)[O-])cc5)c5ccc([nH]5)c(-c5ccc(S(=O)(=O)[O-])cc5)c5nc(c(-c6ccc(S(=O)(=O)[O-])cc6)c6ccc3[nH]6)C=C5)C=C4)cc2)C[C@H]2CCCC[C@@H]21)C(F)(F)F
REMARK SMILES IDX 11 1 10 2 8 3 9 4 7 5 6 6 82 7 76 8 77 9 81 10 78 11 80 12
REMARK SMILES IDX 79 13 4 14 5 15 2 16 1 17 83 18 84 19 85 20 86 21 3 22 12 26
REMARK SMILES IDX 13 27 14 28 15 29 16 30 17 31 75 32 18 33 74 34 19 35 20 36
REMARK SMILES IDX 21 37 68 38 22 39 73 40 67 41 69 42 23 43 72 44 66 45 65 46
REMARK SMILES IDX 24 48 54 49 35 50 53 51 36 52 39 53 52 54 70 55 37 56 38 57
REMARK SMILES IDX 51 59 71 60 40 61 25 62 26 63 34 64 27 65 33 66 28 67 29 68
REMARK SMILES IDX 30 69 31 70 32 71 55 72 56 73 64 74 57 75 63 76 58 77 59 78
REMARK SMILES IDX 60 79 61 80 62 81 41 82 42 83 50 84 43 85 49 86 44 87 45 88
REMARK SMILES IDX 46 89 47 90 48 91
REMARK H PARENT 3 23 3 24 3 25 69 47 39 58
REMARK Flexibility Score: inf
ROOT
ATOM      1  C   UNL A   1      38.016  21.401  25.758  1.00  0.00     0.274 C 
ENDROOT
BRANCH   1   2
ATOM      2  O   UNL A   1      37.372  21.190  24.481  1.00  0.00    -0.461 OA
BRANCH   2   3
ATOM      3  C   UNL A   1      36.187  21.826  24.277  1.00  0.00     0.329 C 
ATOM      4  O   UNL A   1      35.990  22.658  23.397  1.00  0.00    -0.250 OA
BRANCH   3   5
ATOM      5  C   UNL A   1      35.127  21.481  25.345  1.00  0.00     0.196 C 
ATOM      6  N   UNL A   1      33.791  21.091  24.838  1.00  0.00    -0.320 N 
ATOM      7  C   UNL A   1      32.827  22.149  25.130  1.00  0.00     0.089 C 
ATOM      8  C   UNL A   1      34.864  22.735  26.208  1.00  0.00     0.043 C 
ATOM      9  C   UNL A   1      33.369  22.655  26.470  1.00  0.00     0.014 C 
ATOM     10  C   UNL A   1      31.349  21.796  25.309  1.00  0.00     0.025 C 
ATOM     11  C   UNL A   1      32.667  23.915  26.937  1.00  0.00     0.006 C 
ATOM     12  C   UNL A   1      30.567  23.020  25.811  1.00  0.00     0.002 C 
ATOM     13  C   UNL A   1      31.168  23.640  27.076  1.00  0.00     0.000 C 
BRANCH   6  14
ATOM     14  C   UNL A   1      33.435  19.946  24.148  1.00  0.00     0.294 C 
ATOM     15  O   UNL A   1      33.129  20.028  22.957  1.00  0.00    -0.267 OA
BRANCH  14  16
ATOM     16  C   UNL A   1      33.329  18.599  24.912  1.00  0.00     0.267 C 
ATOM     17  C   UNL A   1      32.092  17.824  24.415  1.00  0.00     0.100 C 
BRANCH  16  18
ATOM     18  C   UNL A   1      34.593  17.773  24.517  1.00  0.00     0.453 C 
ATOM     19  F   UNL A   1      34.551  17.335  23.237  1.00  0.00    -0.164 F 
ATOM     20  F   UNL A   1      35.710  18.549  24.612  1.00  0.00    -0.164 F 
ATOM     21  F   UNL A   1      34.805  16.715  25.333  1.00  0.00    -0.164 F 
ENDBRANCH  16  18
BRANCH  16  22
ATOM     22  N   UNL A   1      33.237  18.812  26.396  1.00  0.00    -0.337 N 
ATOM     23  H   UNL A   1      32.262  18.964  26.656  1.00  0.00     0.345 HD
ATOM     24  H   UNL A   1      33.791  19.626  26.657  1.00  0.00     0.345 HD
ATOM     25  H   UNL A   1      33.593  17.988  26.880  1.00  0.00     0.345 HD
ENDBRANCH  16  22
ENDBRANCH  14  16
ENDBRANCH   6  14
ENDBRANCH   3   5
ENDBRANCH   2   3
ENDBRANCH   1   2
BRANCH   1  26
ATOM     26  C   UNL A   1      38.693  22.767  25.755  1.00  0.00     0.275 C 
BRANCH  26  27
ATOM     27  O   UNL A   1      39.576  22.815  26.888  1.00  0.00    -0.458 OA
BRANCH  27  28
ATOM     28  C   UNL A   1      40.711  23.527  26.717  1.00  0.00     0.338 C 
ATOM     29  O   UNL A   1      41.686  23.204  26.053  1.00  0.00    -0.246 OA
BRANCH  28  30
ATOM     30  C   UNL A   1      40.616  24.795  27.470  1.00  0.00     0.060 A 
ATOM     31  C   UNL A   1      41.619  25.763  27.379  1.00  0.00     0.016 A 
ATOM     32  C   UNL A   1      39.549  24.983  28.348  1.00  0.00     0.016 A 
ATOM     33  C   UNL A   1      41.595  26.873  28.228  1.00  0.00     0.010 A 
ATOM     34  C   UNL A   1      39.491  26.136  29.138  1.00  0.00     0.010 A 
ATOM     35  C   UNL A   1      40.539  27.073  29.130  1.00  0.00    -0.014 A 
BRANCH  35  36
ATOM     36  C   UNL A   1      40.549  28.198  30.115  1.00  0.00     0.031 A 
ATOM     37  C   UNL A   1      41.600  28.237  31.203  1.00  0.00     0.074 A 
ATOM     38  C   UNL A   1      39.641  29.195  30.062  1.00  0.00     0.049 A 
ATOM     39  N   UNL A   1      41.635  28.958  32.295  1.00  0.00    -0.248 NA
ATOM     40  C   UNL A   1      42.749  27.329  31.049  1.00  0.00     0.031 C 
ATOM     41  C   UNL A   1      38.599  29.352  29.047  1.00  0.00     0.029 A 
ATOM     42  N   UNL A   1      39.458  30.277  30.891  1.00  0.00    -0.354 N 
ATOM     43  C   UNL A   1      42.754  28.525  33.001  1.00  0.00     0.074 A 
ATOM     44  C   UNL A   1      43.381  27.494  32.203  1.00  0.00     0.031 C 
ATOM     45  C   UNL A   1      37.924  30.489  29.280  1.00  0.00     0.029 A 
ATOM     46  C   UNL A   1      38.410  31.087  30.519  1.00  0.00     0.049 A 
ATOM     47  H   UNL A   1      40.025  30.457  31.676  1.00  0.00     0.167 HD
ATOM     48  C   UNL A   1      43.210  28.938  34.208  1.00  0.00     0.031 A 
ATOM     49  C   UNL A   1      37.859  32.157  31.124  1.00  0.00     0.031 A 
ATOM     50  C   UNL A   1      42.631  30.011  34.972  1.00  0.00     0.049 A 
ATOM     51  C   UNL A   1      38.378  32.606  32.460  1.00  0.00     0.074 A 
ATOM     52  C   UNL A   1      43.023  30.499  36.208  1.00  0.00     0.029 A 
ATOM     53  N   UNL A   1      41.557  30.784  34.561  1.00  0.00    -0.354 N 
ATOM     54  N   UNL A   1      39.364  32.110  33.167  1.00  0.00    -0.248 NA
ATOM     55  C   UNL A   1      37.690  33.740  33.092  1.00  0.00     0.031 C 
ATOM     56  C   UNL A   1      42.170  31.554  36.554  1.00  0.00     0.029 A 
ATOM     57  C   UNL A   1      41.273  31.746  35.516  1.00  0.00     0.049 A 
ATOM     58  H   UNL A   1      41.068  30.667  33.714  1.00  0.00     0.167 HD
ATOM     59  C   UNL A   1      39.411  32.869  34.331  1.00  0.00     0.074 A 
ATOM     60  C   UNL A   1      38.372  33.873  34.222  1.00  0.00     0.031 C 
ATOM     61  C   UNL A   1      40.233  32.735  35.400  1.00  0.00     0.031 A 
BRANCH  48  62
ATOM     62  C   UNL A   1      44.366  28.183  34.809  1.00  0.00    -0.014 A 
ATOM     63  C   UNL A   1      44.172  27.040  35.605  1.00  0.00     0.010 A 
ATOM     64  C   UNL A   1      45.679  28.617  34.542  1.00  0.00     0.010 A 
ATOM     65  C   UNL A   1      45.269  26.373  36.159  1.00  0.00     0.020 A 
ATOM     66  C   UNL A   1      46.779  27.938  35.074  1.00  0.00     0.020 A 
ATOM     67  C   UNL A   1      46.564  26.831  35.897  1.00  0.00     0.054 A 
BRANCH  67  68
ATOM     68  S   UNL A   1      47.975  25.943  36.617  1.00  0.00     0.124 S 
ATOM     69  O   UNL A   1      48.879  27.039  36.951  1.00  0.00    -0.237 OA
ATOM     70  O   UNL A   1      47.375  25.254  37.758  1.00  0.00    -0.237 OA
ATOM     71  O   UNL A   1      48.423  25.071  35.534  1.00  0.00    -0.744 OA
ENDBRANCH  67  68
ENDBRANCH  48  62
BRANCH  49  72
ATOM     72  C   UNL A   1      36.703  32.842  30.485  1.00  0.00    -0.014 A 
ATOM     73  C   UNL A   1      35.391  32.577  30.918  1.00  0.00     0.010 A 
ATOM     74  C   UNL A   1      36.913  33.803  29.480  1.00  0.00     0.010 A 
ATOM     75  C   UNL A   1      34.312  33.273  30.363  1.00  0.00     0.020 A 
ATOM     76  C   UNL A   1      35.841  34.520  28.945  1.00  0.00     0.020 A 
ATOM     77  C   UNL A   1      34.546  34.247  29.388  1.00  0.00     0.054 A 
BRANCH  77  78
ATOM     78  S   UNL A   1      33.149  35.223  28.762  1.00  0.00     0.124 S 
ATOM     79  O   UNL A   1      32.467  35.601  29.994  1.00  0.00    -0.237 OA
ATOM     80  O   UNL A   1      33.813  36.309  28.045  1.00  0.00    -0.237 OA
ATOM     81  O   UNL A   1      32.432  34.276  27.909  1.00  0.00    -0.744 OA
ENDBRANCH  77  78
ENDBRANCH  49  72
BRANCH  61  82
ATOM     82  C   UNL A   1      40.055  33.708  36.532  1.00  0.00    -0.014 A 
ATOM     83  C   UNL A   1      40.666  34.974  36.498  1.00  0.00     0.010 A 
ATOM     84  C   UNL A   1      39.234  33.369  37.622  1.00  0.00     0.010 A 
ATOM     85  C   UNL A   1      40.482  35.874  37.551  1.00  0.00     0.020 A 
ATOM     86  C   UNL A   1      39.034  34.273  38.668  1.00  0.00     0.020 A 
ATOM     87  C   UNL A   1      39.670  35.516  38.632  1.00  0.00     0.054 A 
BRANCH  87  88
ATOM     88  S   UNL A   1      39.419  36.711  39.974  1.00  0.00     0.124 S 
ATOM     89  O   UNL A   1      40.786  36.960  40.419  1.00  0.00    -0.237 OA
ATOM     90  O   UNL A   1      38.765  37.828  39.295  1.00  0.00    -0.237 OA
ATOM     91  O   UNL A   1      38.574  35.989  40.924  1.00  0.00    -0.744 OA
ENDBRANCH  87  88
ENDBRANCH  61  82
ENDBRANCH  35  36
ENDBRANCH  28  30
ENDBRANCH  27  28
ENDBRANCH  26  27
ENDBRANCH   1  26
TORSDOF 18
ENDMDL
