MODEL 1
REMARK VINA RESULT:     -10.5      0.000      0.000
REMARK SMILES O=C(C[C@H]1C[C@H]2CC[C@@H](C1)[N@H+]2C[C@@H]1CCCOC1)OCCOC(=O)c1ccc(-c2c3nc(c(-c4ccc(S(=O)(=O)[O-])cc4)c4ccc([nH]4)c(-c4ccc(S(=O)(=O)[O-])cc4)c4nc(c(-c5ccc(S(=O)(=O)[O-])cc5)c5ccc2[nH]5)C=C4)C=C3)cc1
REMARK SMILES IDX 20 1 19 2 2 3 1 4 3 5 4 6 5 7 10 8 6 9 9 10 7 11 11 12 8 13
REMARK SMILES IDX 12 15 13 16 14 17 18 18 15 19 17 20 16 21 21 22 22 23 23 24
REMARK SMILES IDX 24 25 25 26 26 27 84 28 27 29 83 30 28 31 29 32 30 33 77 34
REMARK SMILES IDX 31 35 82 36 76 37 78 38 32 39 81 40 75 41 74 42 33 44 63 45
REMARK SMILES IDX 44 46 62 47 45 48 48 49 61 50 79 51 46 52 47 53 60 55 80 56
REMARK SMILES IDX 49 57 34 58 35 59 43 60 36 61 42 62 37 63 38 64 39 65 40 66
REMARK SMILES IDX 41 67 64 68 65 69 73 70 66 71 72 72 67 73 68 74 69 75 70 76
REMARK SMILES IDX 71 77 50 78 51 79 59 80 52 81 58 82 53 83 54 84 55 85 56 86
REMARK SMILES IDX 57 87
REMARK H PARENT 11 14 78 43 48 54
REMARK Flexibility Score: inf
ROOT
ATOM      1  C   UNL A   1      33.294  34.288  28.927  1.00  0.00     0.274 C 
ENDROOT
BRANCH   1   2
ATOM      2  O   UNL A   1      33.965  34.002  30.161  1.00  0.00    -0.462 OA
BRANCH   2   3
ATOM      3  C   UNL A   1      33.764  34.928  31.136  1.00  0.00     0.306 C 
ATOM      4  O   UNL A   1      33.576  36.113  30.896  1.00  0.00    -0.252 OA
BRANCH   3   5
ATOM      5  C   UNL A   1      33.914  34.367  32.531  1.00  0.00     0.126 C 
BRANCH   5   6
ATOM      6  C   UNL A   1      35.305  33.814  32.850  1.00  0.00     0.012 C 
ATOM      7  C   UNL A   1      35.645  32.511  32.078  1.00  0.00     0.069 C 
ATOM      8  C   UNL A   1      36.372  34.920  32.711  1.00  0.00     0.069 C 
ATOM      9  C   UNL A   1      37.140  32.259  31.838  1.00  0.00     0.184 C 
ATOM     10  C   UNL A   1      37.801  34.399  32.458  1.00  0.00     0.184 C 
ATOM     11  C   UNL A   1      37.590  32.926  30.532  1.00  0.00     0.071 C 
ATOM     12  N   UNL A   1      37.913  33.000  32.800  1.00  0.00    -0.330 N 
ATOM     13  C   UNL A   1      38.036  34.330  30.938  1.00  0.00     0.071 C 
ATOM     14  H   UNL A   1      38.830  32.752  33.172  1.00  0.00     0.348 HD
BRANCH  12  15
ATOM     15  C   UNL A   1      38.502  32.425  33.984  1.00  0.00     0.268 C 
BRANCH  15  16
ATOM     16  C   UNL A   1      37.695  32.220  35.295  1.00  0.00     0.070 C 
ATOM     17  C   UNL A   1      37.449  33.511  36.094  1.00  0.00     0.014 C 
ATOM     18  C   UNL A   1      38.197  31.028  36.110  1.00  0.00     0.169 C 
ATOM     19  C   UNL A   1      37.236  33.331  37.597  1.00  0.00     0.029 C 
ATOM     20  O   UNL A   1      37.608  30.978  37.408  1.00  0.00    -0.381 OA
ATOM     21  C   UNL A   1      37.962  32.128  38.168  1.00  0.00     0.160 C 
ENDBRANCH  15  16
ENDBRANCH  12  15
ENDBRANCH   5   6
ENDBRANCH   3   5
ENDBRANCH   2   3
ENDBRANCH   1   2
BRANCH   1  22
ATOM     22  C   UNL A   1      33.460  33.154  27.911  1.00  0.00     0.275 C 
BRANCH  22  23
ATOM     23  O   UNL A   1      34.680  32.419  28.123  1.00  0.00    -0.458 OA
BRANCH  23  24
ATOM     24  C   UNL A   1      34.585  31.064  28.016  1.00  0.00     0.338 C 
ATOM     25  O   UNL A   1      33.621  30.437  27.629  1.00  0.00    -0.246 OA
BRANCH  24  26
ATOM     26  C   UNL A   1      35.926  30.460  28.257  1.00  0.00     0.060 A 
ATOM     27  C   UNL A   1      36.139  29.783  29.466  1.00  0.00     0.016 A 
ATOM     28  C   UNL A   1      36.929  30.468  27.285  1.00  0.00     0.016 A 
ATOM     29  C   UNL A   1      37.357  29.135  29.711  1.00  0.00     0.010 A 
ATOM     30  C   UNL A   1      38.139  29.806  27.525  1.00  0.00     0.010 A 
ATOM     31  C   UNL A   1      38.379  29.159  28.752  1.00  0.00    -0.014 A 
BRANCH  31  32
ATOM     32  C   UNL A   1      39.747  28.668  29.091  1.00  0.00     0.031 A 
ATOM     33  C   UNL A   1      40.664  29.577  29.874  1.00  0.00     0.074 A 
ATOM     34  C   UNL A   1      40.193  27.449  28.726  1.00  0.00     0.049 A 
ATOM     35  N   UNL A   1      41.881  29.357  30.304  1.00  0.00    -0.248 NA
ATOM     36  C   UNL A   1      40.148  30.918  30.192  1.00  0.00     0.031 C 
ATOM     37  C   UNL A   1      39.450  26.464  27.944  1.00  0.00     0.029 A 
ATOM     38  N   UNL A   1      41.399  26.833  28.971  1.00  0.00    -0.354 N 
ATOM     39  C   UNL A   1      42.276  30.535  30.928  1.00  0.00     0.074 A 
ATOM     40  C   UNL A   1      41.199  31.485  30.761  1.00  0.00     0.031 C 
ATOM     41  C   UNL A   1      40.213  25.368  27.774  1.00  0.00     0.029 A 
ATOM     42  C   UNL A   1      41.500  25.568  28.439  1.00  0.00     0.049 A 
ATOM     43  H   UNL A   1      42.125  27.260  29.481  1.00  0.00     0.167 HD
ATOM     44  C   UNL A   1      43.412  30.804  31.616  1.00  0.00     0.031 A 
ATOM     45  C   UNL A   1      42.503  24.666  28.495  1.00  0.00     0.031 A 
ATOM     46  C   UNL A   1      44.478  29.868  31.827  1.00  0.00     0.049 A 
ATOM     47  C   UNL A   1      43.756  24.977  29.279  1.00  0.00     0.074 A 
ATOM     48  C   UNL A   1      45.633  30.035  32.571  1.00  0.00     0.029 A 
ATOM     49  N   UNL A   1      44.518  28.588  31.302  1.00  0.00    -0.354 N 
ATOM     50  N   UNL A   1      44.066  26.062  29.946  1.00  0.00    -0.248 NA
ATOM     51  C   UNL A   1      44.783  23.923  29.342  1.00  0.00     0.031 C 
ATOM     52  C   UNL A   1      46.389  28.863  32.470  1.00  0.00     0.029 A 
ATOM     53  C   UNL A   1      45.683  27.955  31.697  1.00  0.00     0.049 A 
ATOM     54  H   UNL A   1      43.822  28.188  30.732  1.00  0.00     0.167 HD
ATOM     55  C   UNL A   1      45.300  25.804  30.541  1.00  0.00     0.074 A 
ATOM     56  C   UNL A   1      45.679  24.462  30.157  1.00  0.00     0.031 C 
ATOM     57  C   UNL A   1      46.045  26.608  31.337  1.00  0.00     0.031 A 
BRANCH  44  58
ATOM     58  C   UNL A   1      43.535  32.183  32.204  1.00  0.00    -0.014 A 
ATOM     59  C   UNL A   1      43.167  32.428  33.539  1.00  0.00     0.010 A 
ATOM     60  C   UNL A   1      44.005  33.243  31.411  1.00  0.00     0.010 A 
ATOM     61  C   UNL A   1      43.199  33.726  34.051  1.00  0.00     0.020 A 
ATOM     62  C   UNL A   1      44.067  34.539  31.930  1.00  0.00     0.020 A 
ATOM     63  C   UNL A   1      43.637  34.775  33.239  1.00  0.00     0.054 A 
BRANCH  63  64
ATOM     64  S   UNL A   1      43.645  36.456  33.919  1.00  0.00     0.124 S 
ATOM     65  O   UNL A   1      42.266  36.598  34.377  1.00  0.00    -0.237 OA
ATOM     66  O   UNL A   1      44.651  36.372  34.974  1.00  0.00    -0.237 OA
ATOM     67  O   UNL A   1      44.013  37.288  32.776  1.00  0.00    -0.744 OA
ENDBRANCH  63  64
ENDBRANCH  44  58
BRANCH  45  68
ATOM     68  C   UNL A   1      42.366  23.344  27.823  1.00  0.00    -0.014 A 
ATOM     69  C   UNL A   1      41.735  22.274  28.484  1.00  0.00     0.010 A 
ATOM     70  C   UNL A   1      42.910  23.134  26.545  1.00  0.00     0.010 A 
ATOM     71  C   UNL A   1      41.681  21.008  27.892  1.00  0.00     0.020 A 
ATOM     72  C   UNL A   1      42.839  21.874  25.940  1.00  0.00     0.020 A 
ATOM     73  C   UNL A   1      42.239  20.815  26.625  1.00  0.00     0.054 A 
BRANCH  73  74
ATOM     74  S   UNL A   1      42.146  19.166  25.872  1.00  0.00     0.124 S 
ATOM     75  O   UNL A   1      42.611  18.310  26.959  1.00  0.00    -0.237 OA
ATOM     76  O   UNL A   1      40.730  19.051  25.537  1.00  0.00    -0.237 OA
ATOM     77  O   UNL A   1      43.046  19.267  24.724  1.00  0.00    -0.744 OA
ENDBRANCH  73  74
ENDBRANCH  45  68
BRANCH  57  78
ATOM     78  C   UNL A   1      47.327  26.059  31.908  1.00  0.00    -0.014 A 
ATOM     79  C   UNL A   1      47.340  25.337  33.113  1.00  0.00     0.010 A 
ATOM     80  C   UNL A   1      48.520  26.186  31.172  1.00  0.00     0.010 A 
ATOM     81  C   UNL A   1      48.527  24.761  33.578  1.00  0.00     0.020 A 
ATOM     82  C   UNL A   1      49.703  25.594  31.622  1.00  0.00     0.020 A 
ATOM     83  C   UNL A   1      49.701  24.889  32.827  1.00  0.00     0.054 A 
BRANCH  83  84
ATOM     84  S   UNL A   1      51.209  24.065  33.408  1.00  0.00     0.124 S 
ATOM     85  O   UNL A   1      52.200  25.133  33.305  1.00  0.00    -0.237 OA
ATOM     86  O   UNL A   1      50.855  23.666  34.769  1.00  0.00    -0.237 OA
ATOM     87  O   UNL A   1      51.383  22.960  32.469  1.00  0.00    -0.744 OA
ENDBRANCH  83  84
ENDBRANCH  57  78
ENDBRANCH  31  32
ENDBRANCH  24  26
ENDBRANCH  23  24
ENDBRANCH  22  23
ENDBRANCH   1  22
TORSDOF 17
ENDMDL
MODEL 2
REMARK VINA RESULT:     -10.3      3.357      6.423
REMARK SMILES O=C(C[C@H]1C[C@H]2CC[C@@H](C1)[N@H+]2C[C@@H]1CCCOC1)OCCOC(=O)c1ccc(-c2c3nc(c(-c4ccc(S(=O)(=O)[O-])cc4)c4ccc([nH]4)c(-c4ccc(S(=O)(=O)[O-])cc4)c4nc(c(-c5ccc(S(=O)(=O)[O-])cc5)c5ccc2[nH]5)C=C4)C=C3)cc1
REMARK SMILES IDX 20 1 19 2 2 3 1 4 3 5 4 6 5 7 10 8 6 9 9 10 7 11 11 12 8 13
REMARK SMILES IDX 12 15 13 16 14 17 18 18 15 19 17 20 16 21 21 22 22 23 23 24
REMARK SMILES IDX 24 25 25 26 26 27 84 28 27 29 83 30 28 31 29 32 30 33 77 34
REMARK SMILES IDX 31 35 82 36 76 37 78 38 32 39 81 40 75 41 74 42 33 44 63 45
REMARK SMILES IDX 44 46 62 47 45 48 48 49 61 50 79 51 46 52 47 53 60 55 80 56
REMARK SMILES IDX 49 57 34 58 35 59 43 60 36 61 42 62 37 63 38 64 39 65 40 66
REMARK SMILES IDX 41 67 64 68 65 69 73 70 66 71 72 72 67 73 68 74 69 75 70 76
REMARK SMILES IDX 71 77 50 78 51 79 59 80 52 81 58 82 53 83 54 84 55 85 56 86
REMARK SMILES IDX 57 87
REMARK H PARENT 11 14 78 43 48 54
REMARK Flexibility Score: inf
ROOT
ATOM      1  C   UNL A   1      32.403  29.323  24.941  1.00  0.00     0.274 C 
ENDROOT
BRANCH   1   2
ATOM      2  O   UNL A   1      31.030  29.025  24.658  1.00  0.00    -0.462 OA
BRANCH   2   3
ATOM      3  C   UNL A   1      30.845  28.163  23.624  1.00  0.00     0.306 C 
ATOM      4  O   UNL A   1      31.005  28.487  22.454  1.00  0.00    -0.252 OA
BRANCH   3   5
ATOM      5  C   UNL A   1      30.313  26.817  24.057  1.00  0.00     0.126 C 
BRANCH   5   6
ATOM      6  C   UNL A   1      31.387  25.749  24.282  1.00  0.00     0.012 C 
ATOM      7  C   UNL A   1      32.001  25.779  25.708  1.00  0.00     0.069 C 
ATOM      8  C   UNL A   1      30.869  24.361  23.853  1.00  0.00     0.069 C 
ATOM      9  C   UNL A   1      32.561  24.442  26.211  1.00  0.00     0.184 C 
ATOM     10  C   UNL A   1      31.595  23.175  24.519  1.00  0.00     0.184 C 
ATOM     11  C   UNL A   1      31.461  23.630  26.906  1.00  0.00     0.071 C 
ATOM     12  N   UNL A   1      32.856  23.591  25.088  1.00  0.00    -0.330 N 
ATOM     13  C   UNL A   1      30.831  22.788  25.798  1.00  0.00     0.071 C 
ATOM     14  H   UNL A   1      33.575  22.869  25.038  1.00  0.00     0.348 HD
BRANCH  12  15
ATOM     15  C   UNL A   1      34.178  23.388  24.549  1.00  0.00     0.268 C 
BRANCH  15  16
ATOM     16  C   UNL A   1      35.345  22.827  25.406  1.00  0.00     0.070 C 
ATOM     17  C   UNL A   1      36.459  23.846  25.704  1.00  0.00     0.014 C 
ATOM     18  C   UNL A   1      35.821  21.457  24.921  1.00  0.00     0.169 C 
ATOM     19  C   UNL A   1      37.843  23.257  25.976  1.00  0.00     0.029 C 
ATOM     20  O   UNL A   1      37.027  21.048  25.563  1.00  0.00    -0.381 OA
ATOM     21  C   UNL A   1      38.091  21.944  25.257  1.00  0.00     0.160 C 
ENDBRANCH  15  16
ENDBRANCH  12  15
ENDBRANCH   5   6
ENDBRANCH   3   5
ENDBRANCH   2   3
ENDBRANCH   1   2
BRANCH   1  22
ATOM     22  C   UNL A   1      32.611  29.714  26.408  1.00  0.00     0.275 C 
BRANCH  22  23
ATOM     23  O   UNL A   1      33.973  29.510  26.827  1.00  0.00    -0.458 OA
BRANCH  23  24
ATOM     24  C   UNL A   1      34.450  30.391  27.751  1.00  0.00     0.338 C 
ATOM     25  O   UNL A   1      33.814  31.253  28.320  1.00  0.00    -0.246 OA
BRANCH  24  26
ATOM     26  C   UNL A   1      35.843  30.008  28.118  1.00  0.00     0.060 A 
ATOM     27  C   UNL A   1      36.842  30.133  27.143  1.00  0.00     0.016 A 
ATOM     28  C   UNL A   1      36.190  29.625  29.416  1.00  0.00     0.016 A 
ATOM     29  C   UNL A   1      38.179  29.856  27.457  1.00  0.00     0.010 A 
ATOM     30  C   UNL A   1      37.529  29.366  29.732  1.00  0.00     0.010 A 
ATOM     31  C   UNL A   1      38.534  29.447  28.749  1.00  0.00    -0.014 A 
BRANCH  31  32
ATOM     32  C   UNL A   1      39.908  28.938  29.032  1.00  0.00     0.031 A 
ATOM     33  C   UNL A   1      40.881  29.848  29.743  1.00  0.00     0.074 A 
ATOM     34  C   UNL A   1      40.311  27.701  28.680  1.00  0.00     0.049 A 
ATOM     35  N   UNL A   1      42.113  29.615  30.118  1.00  0.00    -0.248 NA
ATOM     36  C   UNL A   1      40.406  31.207  30.050  1.00  0.00     0.031 C 
ATOM     37  C   UNL A   1      39.511  26.710  27.963  1.00  0.00     0.029 A 
ATOM     38  N   UNL A   1      41.517  27.066  28.880  1.00  0.00    -0.354 N 
ATOM     39  C   UNL A   1      42.562  30.801  30.689  1.00  0.00     0.074 A 
ATOM     40  C   UNL A   1      41.496  31.768  30.550  1.00  0.00     0.031 C 
ATOM     41  C   UNL A   1      40.244  25.595  27.785  1.00  0.00     0.029 A 
ATOM     42  C   UNL A   1      41.566  25.786  28.379  1.00  0.00     0.049 A 
ATOM     43  H   UNL A   1      42.275  27.492  29.342  1.00  0.00     0.167 HD
ATOM     44  C   UNL A   1      43.736  31.064  31.312  1.00  0.00     0.031 A 
ATOM     45  C   UNL A   1      42.553  24.866  28.410  1.00  0.00     0.031 A 
ATOM     46  C   UNL A   1      44.793  30.112  31.495  1.00  0.00     0.049 A 
ATOM     47  C   UNL A   1      43.850  25.171  29.121  1.00  0.00     0.074 A 
ATOM     48  C   UNL A   1      45.987  30.275  32.175  1.00  0.00     0.029 A 
ATOM     49  N   UNL A   1      44.782  28.818  31.004  1.00  0.00    -0.354 N 
ATOM     50  N   UNL A   1      44.214  26.267  29.742  1.00  0.00    -0.248 NA
ATOM     51  C   UNL A   1      44.858  24.099  29.161  1.00  0.00     0.031 C 
ATOM     52  C   UNL A   1      46.715  29.086  32.068  1.00  0.00     0.029 A 
ATOM     53  C   UNL A   1      45.954  28.172  31.357  1.00  0.00     0.049 A 
ATOM     54  H   UNL A   1      44.051  28.418  30.480  1.00  0.00     0.167 HD
ATOM     55  C   UNL A   1      45.471  26.000  30.281  1.00  0.00     0.074 A 
ATOM     56  C   UNL A   1      45.805  24.640  29.915  1.00  0.00     0.031 C 
ATOM     57  C   UNL A   1      46.271  26.809  31.016  1.00  0.00     0.031 A 
BRANCH  44  58
ATOM     58  C   UNL A   1      43.915  32.455  31.854  1.00  0.00    -0.014 A 
ATOM     59  C   UNL A   1      43.546  32.761  33.177  1.00  0.00     0.010 A 
ATOM     60  C   UNL A   1      44.439  33.466  31.031  1.00  0.00     0.010 A 
ATOM     61  C   UNL A   1      43.632  34.073  33.646  1.00  0.00     0.020 A 
ATOM     62  C   UNL A   1      44.554  34.775  31.508  1.00  0.00     0.020 A 
ATOM     63  C   UNL A   1      44.123  35.074  32.803  1.00  0.00     0.054 A 
BRANCH  63  64
ATOM     64  S   UNL A   1      44.200  36.774  33.428  1.00  0.00     0.124 S 
ATOM     65  O   UNL A   1      42.826  36.989  33.875  1.00  0.00    -0.237 OA
ATOM     66  O   UNL A   1      45.198  36.684  34.489  1.00  0.00    -0.237 OA
ATOM     67  O   UNL A   1      44.605  37.552  32.259  1.00  0.00    -0.744 OA
ENDBRANCH  63  64
ENDBRANCH  44  58
BRANCH  45  68
ATOM     68  C   UNL A   1      42.357  23.529  27.782  1.00  0.00    -0.014 A 
ATOM     69  C   UNL A   1      41.784  22.476  28.518  1.00  0.00     0.010 A 
ATOM     70  C   UNL A   1      42.789  23.289  26.467  1.00  0.00     0.010 A 
ATOM     71  C   UNL A   1      41.677  21.198  27.962  1.00  0.00     0.020 A 
ATOM     72  C   UNL A   1      42.664  22.016  25.899  1.00  0.00     0.020 A 
ATOM     73  C   UNL A   1      42.124  20.975  26.657  1.00  0.00     0.054 A 
BRANCH  73  74
ATOM     74  S   UNL A   1      41.964  19.310  25.951  1.00  0.00     0.124 S 
ATOM     75  O   UNL A   1      40.531  19.229  25.690  1.00  0.00    -0.237 OA
ATOM     76  O   UNL A   1      42.820  19.383  24.771  1.00  0.00    -0.237 OA
ATOM     77  O   UNL A   1      42.458  18.441  27.018  1.00  0.00    -0.744 OA
ENDBRANCH  73  74
ENDBRANCH  45  68
BRANCH  57  78
ATOM     78  C   UNL A   1      47.569  26.249  31.537  1.00  0.00    -0.014 A 
ATOM     79  C   UNL A   1      47.644  25.621  32.792  1.00  0.00     0.010 A 
ATOM     80  C   UNL A   1      48.708  26.267  30.711  1.00  0.00     0.010 A 
ATOM     81  C   UNL A   1      48.839  25.031  33.216  1.00  0.00     0.020 A 
ATOM     82  C   UNL A   1      49.898  25.659  31.122  1.00  0.00     0.020 A 
ATOM     83  C   UNL A   1      49.957  25.050  32.377  1.00  0.00     0.054 A 
BRANCH  83  84
ATOM     84  S   UNL A   1      51.472  24.206  32.914  1.00  0.00     0.124 S 
ATOM     85  O   UNL A   1      52.502  24.923  32.167  1.00  0.00    -0.237 OA
ATOM     86  O   UNL A   1      51.472  24.432  34.358  1.00  0.00    -0.237 OA
ATOM     87  O   UNL A   1      51.258  22.819  32.508  1.00  0.00    -0.744 OA
ENDBRANCH  83  84
ENDBRANCH  57  78
ENDBRANCH  31  32
ENDBRANCH  24  26
ENDBRANCH  23  24
ENDBRANCH  22  23
ENDBRANCH   1  22
TORSDOF 17
ENDMDL
MODEL 3
REMARK VINA RESULT:     -10.3      3.739      7.461
REMARK SMILES O=C(C[C@H]1C[C@H]2CC[C@@H](C1)[N@H+]2C[C@@H]1CCCOC1)OCCOC(=O)c1ccc(-c2c3nc(c(-c4ccc(S(=O)(=O)[O-])cc4)c4ccc([nH]4)c(-c4ccc(S(=O)(=O)[O-])cc4)c4nc(c(-c5ccc(S(=O)(=O)[O-])cc5)c5ccc2[nH]5)C=C4)C=C3)cc1
REMARK SMILES IDX 20 1 19 2 2 3 1 4 3 5 4 6 5 7 10 8 6 9 9 10 7 11 11 12 8 13
REMARK SMILES IDX 12 15 13 16 14 17 18 18 15 19 17 20 16 21 21 22 22 23 23 24
REMARK SMILES IDX 24 25 25 26 26 27 84 28 27 29 83 30 28 31 29 32 30 33 77 34
REMARK SMILES IDX 31 35 82 36 76 37 78 38 32 39 81 40 75 41 74 42 33 44 63 45
REMARK SMILES IDX 44 46 62 47 45 48 48 49 61 50 79 51 46 52 47 53 60 55 80 56
REMARK SMILES IDX 49 57 34 58 35 59 43 60 36 61 42 62 37 63 38 64 39 65 40 66
REMARK SMILES IDX 41 67 64 68 65 69 73 70 66 71 72 72 67 73 68 74 69 75 70 76
REMARK SMILES IDX 71 77 50 78 51 79 59 80 52 81 58 82 53 83 54 84 55 85 56 86
REMARK SMILES IDX 57 87
REMARK H PARENT 11 14 78 43 48 54
REMARK Flexibility Score: inf
ROOT
ATOM      1  C   UNL A   1      33.846  28.358  25.935  1.00  0.00     0.274 C 
ENDROOT
BRANCH   1   2
ATOM      2  O   UNL A   1      32.906  27.282  26.039  1.00  0.00    -0.462 OA
BRANCH   2   3
ATOM      3  C   UNL A   1      32.746  26.563  24.897  1.00  0.00     0.306 C 
ATOM      4  O   UNL A   1      31.669  26.457  24.326  1.00  0.00    -0.252 OA
BRANCH   3   5
ATOM      5  C   UNL A   1      33.995  25.822  24.478  1.00  0.00     0.126 C 
BRANCH   5   6
ATOM      6  C   UNL A   1      33.833  24.303  24.385  1.00  0.00     0.012 C 
ATOM      7  C   UNL A   1      35.114  23.572  23.900  1.00  0.00     0.069 C 
ATOM      8  C   UNL A   1      33.251  23.739  25.698  1.00  0.00     0.069 C 
ATOM      9  C   UNL A   1      35.260  22.118  24.368  1.00  0.00     0.184 C 
ATOM     10  C   UNL A   1      33.554  22.246  25.941  1.00  0.00     0.184 C 
ATOM     11  C   UNL A   1      35.972  22.064  25.725  1.00  0.00     0.071 C 
ATOM     12  N   UNL A   1      33.966  21.594  24.720  1.00  0.00    -0.330 N 
ATOM     13  C   UNL A   1      34.852  22.137  26.762  1.00  0.00     0.071 C 
ATOM     14  H   UNL A   1      33.662  20.622  24.664  1.00  0.00     0.348 HD
BRANCH  12  15
ATOM     15  C   UNL A   1      33.181  20.732  23.871  1.00  0.00     0.268 C 
BRANCH  15  16
ATOM     16  C   UNL A   1      33.121  19.194  24.080  1.00  0.00     0.070 C 
ATOM     17  C   UNL A   1      34.422  18.580  24.626  1.00  0.00     0.014 C 
ATOM     18  C   UNL A   1      32.500  18.466  22.889  1.00  0.00     0.169 C 
ATOM     19  C   UNL A   1      34.654  17.108  24.286  1.00  0.00     0.029 C 
ATOM     20  O   UNL A   1      32.650  17.051  22.985  1.00  0.00    -0.381 OA
ATOM     21  C   UNL A   1      34.027  16.687  22.971  1.00  0.00     0.160 C 
ENDBRANCH  15  16
ENDBRANCH  12  15
ENDBRANCH   5   6
ENDBRANCH   3   5
ENDBRANCH   2   3
ENDBRANCH   1   2
BRANCH   1  22
ATOM     22  C   UNL A   1      33.249  29.687  26.410  1.00  0.00     0.275 C 
BRANCH  22  23
ATOM     23  O   UNL A   1      33.527  29.931  27.802  1.00  0.00    -0.458 OA
BRANCH  23  24
ATOM     24  C   UNL A   1      34.405  30.939  28.065  1.00  0.00     0.338 C 
ATOM     25  O   UNL A   1      34.128  32.102  28.269  1.00  0.00    -0.246 OA
BRANCH  24  26
ATOM     26  C   UNL A   1      35.764  30.362  28.267  1.00  0.00     0.060 A 
ATOM     27  C   UNL A   1      36.045  29.742  29.492  1.00  0.00     0.016 A 
ATOM     28  C   UNL A   1      36.719  30.338  27.248  1.00  0.00     0.016 A 
ATOM     29  C   UNL A   1      37.282  29.120  29.707  1.00  0.00     0.010 A 
ATOM     30  C   UNL A   1      37.949  29.701  27.458  1.00  0.00     0.010 A 
ATOM     31  C   UNL A   1      38.256  29.113  28.699  1.00  0.00    -0.014 A 
BRANCH  31  32
ATOM     32  C   UNL A   1      39.646  28.654  28.993  1.00  0.00     0.031 A 
ATOM     33  C   UNL A   1      40.577  29.597  29.718  1.00  0.00     0.074 A 
ATOM     34  C   UNL A   1      40.099  27.435  28.637  1.00  0.00     0.049 A 
ATOM     35  N   UNL A   1      41.813  29.408  30.103  1.00  0.00    -0.248 NA
ATOM     36  C   UNL A   1      40.049  30.935  30.027  1.00  0.00     0.031 C 
ATOM     37  C   UNL A   1      39.343  26.420  27.908  1.00  0.00     0.029 A 
ATOM     38  N   UNL A   1      41.325  26.846  28.846  1.00  0.00    -0.354 N 
ATOM     39  C   UNL A   1      42.212  30.606  30.685  1.00  0.00     0.074 A 
ATOM     40  C   UNL A   1      41.112  31.533  30.541  1.00  0.00     0.031 C 
ATOM     41  C   UNL A   1      40.119  25.334  27.731  1.00  0.00     0.029 A 
ATOM     42  C   UNL A   1      41.427  25.571  28.338  1.00  0.00     0.049 A 
ATOM     43  H   UNL A   1      42.063  27.297  29.318  1.00  0.00     0.167 HD
ATOM     44  C   UNL A   1      43.369  30.910  31.320  1.00  0.00     0.031 A 
ATOM     45  C   UNL A   1      42.448  24.689  28.374  1.00  0.00     0.031 A 
ATOM     46  C   UNL A   1      44.460  29.998  31.508  1.00  0.00     0.049 A 
ATOM     47  C   UNL A   1      43.726  25.039  29.099  1.00  0.00     0.074 A 
ATOM     48  C   UNL A   1      45.641  30.202  32.200  1.00  0.00     0.029 A 
ATOM     49  N   UNL A   1      44.502  28.707  31.010  1.00  0.00    -0.354 N 
ATOM     50  N   UNL A   1      44.043  26.144  29.729  1.00  0.00    -0.248 NA
ATOM     51  C   UNL A   1      44.774  24.004  29.143  1.00  0.00     0.031 C 
ATOM     52  C   UNL A   1      46.414  29.041  32.094  1.00  0.00     0.029 A 
ATOM     53  C   UNL A   1      45.694  28.104  31.370  1.00  0.00     0.049 A 
ATOM     54  H   UNL A   1      43.792  28.283  30.477  1.00  0.00     0.167 HD
ATOM     55  C   UNL A   1      45.304  25.921  30.278  1.00  0.00     0.074 A 
ATOM     56  C   UNL A   1      45.692  24.577  29.909  1.00  0.00     0.031 C 
ATOM     57  C   UNL A   1      46.065  26.755  31.026  1.00  0.00     0.031 A 
BRANCH  44  58
ATOM     58  C   UNL A   1      43.491  32.304  31.872  1.00  0.00    -0.014 A 
ATOM     59  C   UNL A   1      44.038  33.338  31.091  1.00  0.00     0.010 A 
ATOM     60  C   UNL A   1      43.073  32.576  33.186  1.00  0.00     0.010 A 
ATOM     61  C   UNL A   1      44.230  34.607  31.639  1.00  0.00     0.020 A 
ATOM     62  C   UNL A   1      43.238  33.855  33.727  1.00  0.00     0.020 A 
ATOM     63  C   UNL A   1      43.841  34.853  32.959  1.00  0.00     0.054 A 
BRANCH  63  64
ATOM     64  S   UNL A   1      44.125  36.502  33.656  1.00  0.00     0.124 S 
ATOM     65  O   UNL A   1      45.012  36.202  34.777  1.00  0.00    -0.237 OA
ATOM     66  O   UNL A   1      44.742  37.221  32.544  1.00  0.00    -0.237 OA
ATOM     67  O   UNL A   1      42.786  36.957  34.023  1.00  0.00    -0.744 OA
ENDBRANCH  63  64
ENDBRANCH  44  58
BRANCH  45  68
ATOM     68  C   UNL A   1      42.309  23.349  27.737  1.00  0.00    -0.014 A 
ATOM     69  C   UNL A   1      41.747  22.277  28.454  1.00  0.00     0.010 A 
ATOM     70  C   UNL A   1      42.783  23.127  26.433  1.00  0.00     0.010 A 
ATOM     71  C   UNL A   1      41.693  20.998  27.892  1.00  0.00     0.020 A 
ATOM     72  C   UNL A   1      42.711  21.853  25.858  1.00  0.00     0.020 A 
ATOM     73  C   UNL A   1      42.182  20.793  26.598  1.00  0.00     0.054 A 
BRANCH  73  74
ATOM     74  S   UNL A   1      42.090  19.127  25.884  1.00  0.00     0.124 S 
ATOM     75  O   UNL A   1      42.902  19.269  24.679  1.00  0.00    -0.237 OA
ATOM     76  O   UNL A   1      42.664  18.298  26.940  1.00  0.00    -0.237 OA
ATOM     77  O   UNL A   1      40.659  18.934  25.657  1.00  0.00    -0.744 OA
ENDBRANCH  73  74
ENDBRANCH  45  68
BRANCH  57  78
ATOM     78  C   UNL A   1      47.379  26.242  31.556  1.00  0.00    -0.014 A 
ATOM     79  C   UNL A   1      47.474  25.651  32.827  1.00  0.00     0.010 A 
ATOM     80  C   UNL A   1      48.515  26.265  30.725  1.00  0.00     0.010 A 
ATOM     81  C   UNL A   1      48.685  25.102  33.262  1.00  0.00     0.020 A 
ATOM     82  C   UNL A   1      49.720  25.698  31.147  1.00  0.00     0.020 A 
ATOM     83  C   UNL A   1      49.799  25.125  32.417  1.00  0.00     0.054 A 
BRANCH  83  84
ATOM     84  S   UNL A   1      51.336  24.334  32.971  1.00  0.00     0.124 S 
ATOM     85  O   UNL A   1      51.167  22.967  32.487  1.00  0.00    -0.237 OA
ATOM     86  O   UNL A   1      52.366  25.118  32.290  1.00  0.00    -0.237 OA
ATOM     87  O   UNL A   1      51.303  24.491  34.423  1.00  0.00    -0.744 OA
ENDBRANCH  83  84
ENDBRANCH  57  78
ENDBRANCH  31  32
ENDBRANCH  24  26
ENDBRANCH  23  24
ENDBRANCH  22  23
ENDBRANCH   1  22
TORSDOF 17
ENDMDL
