MODEL 1
REMARK VINA RESULT:     -11.4      0.000      0.000
REMARK SMILES C[C@H]1CCCCN1S(=O)(=O)c1ccc(Br)c(C(=O)OCCOC(=O)c2ccc(-c3c4nc(c(-c5ccc(S(=O)(=O)[O-])cc5)c5ccc([nH]5)c(-c5ccc(S(=O)(=O)[O-])cc5)c5nc(c(-c6ccc(S(=O)(=O)[O-])cc6)c6ccc3[nH]6)C=C5)C=C4)cc2)c1
REMARK SMILES IDX 21 1 20 2 19 3 17 4 18 5 16 6 11 7 12 8 85 9 13 10 14 11
REMARK SMILES IDX 15 12 8 13 9 14 10 15 7 16 1 17 2 18 3 19 4 20 6 21 5 22
REMARK SMILES IDX 22 23 23 24 24 25 25 26 26 27 84 28 27 29 83 30 28 31 29 32
REMARK SMILES IDX 30 33 77 34 31 35 82 36 76 37 78 38 32 39 81 40 75 41 74 42
REMARK SMILES IDX 33 44 63 45 44 46 62 47 45 48 48 49 61 50 79 51 46 52 47 53
REMARK SMILES IDX 60 55 80 56 49 57 34 58 35 59 43 60 36 61 42 62 37 63 38 64
REMARK SMILES IDX 39 65 40 66 41 67 64 68 65 69 73 70 66 71 72 72 67 73 68 74
REMARK SMILES IDX 69 75 70 76 71 77 50 78 51 79 59 80 52 81 58 82 53 83 54 84
REMARK SMILES IDX 55 85 56 86 57 87
REMARK H PARENT 78 43 48 54
REMARK Flexibility Score: inf
ROOT
ATOM      1  C   UNL A   1      39.271  22.399  26.286  1.00  0.00     0.275 C 
ENDROOT
BRANCH   1   2
ATOM      2  C   UNL A   1      38.106  23.141  25.629  1.00  0.00     0.275 C 
BRANCH   2   3
ATOM      3  O   UNL A   1      37.419  22.267  24.710  1.00  0.00    -0.458 OA
BRANCH   3   4
ATOM      4  C   UNL A   1      36.420  22.775  23.949  1.00  0.00     0.339 C 
ATOM      5  O   UNL A   1      36.487  23.080  22.771  1.00  0.00    -0.246 OA
BRANCH   4   6
ATOM      6  C   UNL A   1      35.149  22.750  24.722  1.00  0.00     0.075 A 
ATOM      7  C   UNL A   1      33.288  24.030  25.632  1.00  0.00     0.083 A 
ATOM      8  C   UNL A   1      32.552  22.850  25.762  1.00  0.00     0.023 A 
ATOM      9  C   UNL A   1      34.584  23.986  25.103  1.00  0.00     0.038 A 
ATOM     10  C   UNL A   1      33.159  21.620  25.517  1.00  0.00     0.018 A 
ATOM     11  C   UNL A   1      34.464  21.563  25.017  1.00  0.00     0.032 A 
ATOM     12  Br  UNL A   1      35.242  19.832  24.879  1.00  0.00    -0.050 Br
BRANCH   7  13
ATOM     13  S   UNL A   1      32.474  25.589  25.927  1.00  0.00     0.243 S 
ATOM     14  O   UNL A   1      33.509  26.593  26.083  1.00  0.00    -0.207 OA
ATOM     15  O   UNL A   1      31.523  25.344  26.986  1.00  0.00    -0.207 OA
BRANCH  13  16
ATOM     16  N   UNL A   1      31.572  26.015  24.491  1.00  0.00    -0.195 NA
ATOM     17  C   UNL A   1      33.436  26.674  22.919  1.00  0.00     0.026 C 
ATOM     18  C   UNL A   1      32.153  27.113  23.623  1.00  0.00     0.070 C 
ATOM     19  C   UNL A   1      31.177  27.501  22.494  1.00  0.00     0.020 C 
ATOM     20  C   UNL A   1      29.812  27.902  23.014  1.00  0.00     0.003 C 
ATOM     21  C   UNL A   1      30.164  26.372  24.954  1.00  0.00     0.103 C 
ATOM     22  C   UNL A   1      29.238  26.747  23.808  1.00  0.00     0.017 C 
ENDBRANCH  13  16
ENDBRANCH   7  13
ENDBRANCH   4   6
ENDBRANCH   3   4
ENDBRANCH   2   3
ENDBRANCH   1   2
BRANCH   1  23
ATOM     23  O   UNL A   1      39.783  23.166  27.390  1.00  0.00    -0.458 OA
BRANCH  23  24
ATOM     24  C   UNL A   1      40.683  24.115  27.047  1.00  0.00     0.338 C 
ATOM     25  O   UNL A   1      41.499  24.077  26.142  1.00  0.00    -0.246 OA
BRANCH  24  26
ATOM     26  C   UNL A   1      40.444  25.318  27.850  1.00  0.00     0.060 A 
ATOM     27  C   UNL A   1      41.451  26.275  27.874  1.00  0.00     0.016 A 
ATOM     28  C   UNL A   1      39.336  25.437  28.682  1.00  0.00     0.016 A 
ATOM     29  C   UNL A   1      41.417  27.297  28.813  1.00  0.00     0.010 A 
ATOM     30  C   UNL A   1      39.255  26.530  29.556  1.00  0.00     0.010 A 
ATOM     31  C   UNL A   1      40.317  27.450  29.665  1.00  0.00    -0.014 A 
BRANCH  31  32
ATOM     32  C   UNL A   1      40.307  28.540  30.685  1.00  0.00     0.031 A 
ATOM     33  C   UNL A   1      41.321  28.546  31.803  1.00  0.00     0.074 A 
ATOM     34  C   UNL A   1      39.411  29.546  30.602  1.00  0.00     0.049 A 
ATOM     35  N   UNL A   1      41.379  29.310  32.866  1.00  0.00    -0.248 NA
ATOM     36  C   UNL A   1      42.399  27.548  31.727  1.00  0.00     0.031 C 
ATOM     37  C   UNL A   1      38.417  29.714  29.539  1.00  0.00     0.029 A 
ATOM     38  N   UNL A   1      39.201  30.629  31.420  1.00  0.00    -0.354 N 
ATOM     39  C   UNL A   1      42.458  28.846  33.611  1.00  0.00     0.074 A 
ATOM     40  C   UNL A   1      43.014  27.722  32.888  1.00  0.00     0.031 C 
ATOM     41  C   UNL A   1      37.746  30.857  29.738  1.00  0.00     0.029 A 
ATOM     42  C   UNL A   1      38.179  31.448  30.997  1.00  0.00     0.049 A 
ATOM     43  H   UNL A   1      39.730  30.804  32.232  1.00  0.00     0.167 HD
ATOM     44  C   UNL A   1      42.941  29.311  34.791  1.00  0.00     0.031 A 
ATOM     45  C   UNL A   1      37.616  32.528  31.572  1.00  0.00     0.031 A 
ATOM     46  C   UNL A   1      42.401  30.452  35.487  1.00  0.00     0.049 A 
ATOM     47  C   UNL A   1      38.118  32.987  32.910  1.00  0.00     0.074 A 
ATOM     48  C   UNL A   1      42.825  31.014  36.679  1.00  0.00     0.029 A 
ATOM     49  N   UNL A   1      41.324  31.212  35.051  1.00  0.00    -0.354 N 
ATOM     50  N   UNL A   1      39.107  32.507  33.627  1.00  0.00    -0.248 NA
ATOM     51  C   UNL A   1      37.421  34.123  33.524  1.00  0.00     0.031 C 
ATOM     52  C   UNL A   1      41.965  32.071  36.996  1.00  0.00     0.029 A 
ATOM     53  C   UNL A   1      41.050  32.218  35.965  1.00  0.00     0.049 A 
ATOM     54  H   UNL A   1      40.827  31.059  34.215  1.00  0.00     0.167 HD
ATOM     55  C   UNL A   1      39.163  33.297  34.769  1.00  0.00     0.074 A 
ATOM     56  C   UNL A   1      38.120  34.295  34.638  1.00  0.00     0.031 C 
ATOM     57  C   UNL A   1      40.004  33.202  35.829  1.00  0.00     0.031 A 
BRANCH  44  58
ATOM     58  C   UNL A   1      44.070  28.542  35.437  1.00  0.00    -0.014 A 
ATOM     59  C   UNL A   1      45.420  28.847  35.187  1.00  0.00     0.010 A 
ATOM     60  C   UNL A   1      43.766  27.488  36.321  1.00  0.00     0.010 A 
ATOM     61  C   UNL A   1      46.440  28.073  35.752  1.00  0.00     0.020 A 
ATOM     62  C   UNL A   1      44.781  26.735  36.917  1.00  0.00     0.020 A 
ATOM     63  C   UNL A   1      46.113  27.016  36.607  1.00  0.00     0.054 A 
BRANCH  63  64
ATOM     64  S   UNL A   1      47.452  26.015  37.313  1.00  0.00     0.124 S 
ATOM     65  O   UNL A   1      47.015  24.658  36.991  1.00  0.00    -0.237 OA
ATOM     66  O   UNL A   1      48.625  26.486  36.580  1.00  0.00    -0.237 OA
ATOM     67  O   UNL A   1      47.430  26.355  38.733  1.00  0.00    -0.744 OA
ENDBRANCH  63  64
ENDBRANCH  44  58
BRANCH  45  68
ATOM     68  C   UNL A   1      36.489  33.222  30.889  1.00  0.00    -0.014 A 
ATOM     69  C   UNL A   1      35.197  33.203  31.443  1.00  0.00     0.010 A 
ATOM     70  C   UNL A   1      36.712  33.950  29.704  1.00  0.00     0.010 A 
ATOM     71  C   UNL A   1      34.154  33.904  30.831  1.00  0.00     0.020 A 
ATOM     72  C   UNL A   1      35.681  34.681  29.108  1.00  0.00     0.020 A 
ATOM     73  C   UNL A   1      34.405  34.648  29.673  1.00  0.00     0.054 A 
BRANCH  73  74
ATOM     74  S   UNL A   1      33.055  35.621  28.949  1.00  0.00     0.124 S 
ATOM     75  O   UNL A   1      33.783  36.653  28.218  1.00  0.00    -0.237 OA
ATOM     76  O   UNL A   1      32.363  34.632  28.126  1.00  0.00    -0.237 OA
ATOM     77  O   UNL A   1      32.305  36.087  30.113  1.00  0.00    -0.744 OA
ENDBRANCH  73  74
ENDBRANCH  45  68
BRANCH  57  78
ATOM     78  C   UNL A   1      39.860  34.233  36.918  1.00  0.00    -0.014 A 
ATOM     79  C   UNL A   1      40.410  35.521  36.789  1.00  0.00     0.010 A 
ATOM     80  C   UNL A   1      39.121  33.918  38.074  1.00  0.00     0.010 A 
ATOM     81  C   UNL A   1      40.252  36.462  37.810  1.00  0.00     0.020 A 
ATOM     82  C   UNL A   1      38.933  34.866  39.081  1.00  0.00     0.020 A 
ATOM     83  C   UNL A   1      39.514  36.129  38.950  1.00  0.00     0.054 A 
BRANCH  83  84
ATOM     84  S   UNL A   1      39.288  37.383  40.241  1.00  0.00     0.124 S 
ATOM     85  O   UNL A   1      40.666  37.765  40.538  1.00  0.00    -0.237 OA
ATOM     86  O   UNL A   1      38.486  38.398  39.563  1.00  0.00    -0.237 OA
ATOM     87  O   UNL A   1      38.599  36.662  41.309  1.00  0.00    -0.744 OA
ENDBRANCH  83  84
ENDBRANCH  57  78
ENDBRANCH  31  32
ENDBRANCH  24  26
ENDBRANCH  23  24
ENDBRANCH   1  23
TORSDOF 16
ENDMDL
MODEL 2
REMARK VINA RESULT:     -11.4      4.327     10.333
REMARK SMILES C[C@H]1CCCCN1S(=O)(=O)c1ccc(Br)c(C(=O)OCCOC(=O)c2ccc(-c3c4nc(c(-c5ccc(S(=O)(=O)[O-])cc5)c5ccc([nH]5)c(-c5ccc(S(=O)(=O)[O-])cc5)c5nc(c(-c6ccc(S(=O)(=O)[O-])cc6)c6ccc3[nH]6)C=C5)C=C4)cc2)c1
REMARK SMILES IDX 21 1 20 2 19 3 17 4 18 5 16 6 11 7 12 8 85 9 13 10 14 11
REMARK SMILES IDX 15 12 8 13 9 14 10 15 7 16 1 17 2 18 3 19 4 20 6 21 5 22
REMARK SMILES IDX 22 23 23 24 24 25 25 26 26 27 84 28 27 29 83 30 28 31 29 32
REMARK SMILES IDX 30 33 77 34 31 35 82 36 76 37 78 38 32 39 81 40 75 41 74 42
REMARK SMILES IDX 33 44 63 45 44 46 62 47 45 48 48 49 61 50 79 51 46 52 47 53
REMARK SMILES IDX 60 55 80 56 49 57 34 58 35 59 43 60 36 61 42 62 37 63 38 64
REMARK SMILES IDX 39 65 40 66 41 67 64 68 65 69 73 70 66 71 72 72 67 73 68 74
REMARK SMILES IDX 69 75 70 76 71 77 50 78 51 79 59 80 52 81 58 82 53 83 54 84
REMARK SMILES IDX 55 85 56 86 57 87
REMARK H PARENT 78 43 48 54
REMARK Flexibility Score: inf
ROOT
ATOM      1  C   UNL A   1      32.551  30.458  27.062  1.00  0.00     0.275 C 
ENDROOT
BRANCH   1   2
ATOM      2  C   UNL A   1      31.954  30.205  25.676  1.00  0.00     0.275 C 
BRANCH   2   3
ATOM      3  O   UNL A   1      32.734  29.217  24.975  1.00  0.00    -0.458 OA
BRANCH   3   4
ATOM      4  C   UNL A   1      32.322  28.807  23.751  1.00  0.00     0.339 C 
ATOM      5  O   UNL A   1      32.754  29.183  22.676  1.00  0.00    -0.246 OA
BRANCH   4   6
ATOM      6  C   UNL A   1      31.359  27.683  23.904  1.00  0.00     0.075 A 
ATOM      7  C   UNL A   1      30.927  25.481  24.850  1.00  0.00     0.083 A 
ATOM      8  C   UNL A   1      29.557  25.681  24.667  1.00  0.00     0.023 A 
ATOM      9  C   UNL A   1      31.832  26.483  24.480  1.00  0.00     0.038 A 
ATOM     10  C   UNL A   1      29.103  26.802  23.973  1.00  0.00     0.018 A 
ATOM     11  C   UNL A   1      30.002  27.795  23.572  1.00  0.00     0.032 A 
ATOM     12  Br  UNL A   1      29.292  29.193  22.494  1.00  0.00    -0.050 Br
BRANCH   7  13
ATOM     13  S   UNL A   1      31.473  24.050  25.765  1.00  0.00     0.243 S 
ATOM     14  O   UNL A   1      30.706  22.915  25.289  1.00  0.00    -0.207 OA
ATOM     15  O   UNL A   1      31.433  24.433  27.157  1.00  0.00    -0.207 OA
BRANCH  13  16
ATOM     16  N   UNL A   1      33.142  23.740  25.347  1.00  0.00    -0.195 NA
ATOM     17  C   UNL A   1      32.934  23.159  22.898  1.00  0.00     0.026 C 
ATOM     18  C   UNL A   1      33.394  22.695  24.279  1.00  0.00     0.070 C 
ATOM     19  C   UNL A   1      34.900  22.402  24.135  1.00  0.00     0.020 C 
ATOM     20  C   UNL A   1      35.543  21.989  25.442  1.00  0.00     0.003 C 
ATOM     21  C   UNL A   1      33.853  23.375  26.645  1.00  0.00     0.103 C 
ATOM     22  C   UNL A   1      35.335  23.096  26.455  1.00  0.00     0.017 C 
ENDBRANCH  13  16
ENDBRANCH   7  13
ENDBRANCH   4   6
ENDBRANCH   3   4
ENDBRANCH   2   3
ENDBRANCH   1   2
BRANCH   1  23
ATOM     23  O   UNL A   1      33.974  30.251  27.030  1.00  0.00    -0.458 OA
BRANCH  23  24
ATOM     24  C   UNL A   1      34.657  30.872  28.017  1.00  0.00     0.338 C 
ATOM     25  O   UNL A   1      34.267  31.773  28.741  1.00  0.00    -0.246 OA
BRANCH  24  26
ATOM     26  C   UNL A   1      35.940  30.193  28.217  1.00  0.00     0.060 A 
ATOM     27  C   UNL A   1      36.160  29.604  29.455  1.00  0.00     0.016 A 
ATOM     28  C   UNL A   1      36.962  30.263  27.276  1.00  0.00     0.016 A 
ATOM     29  C   UNL A   1      37.436  29.186  29.811  1.00  0.00     0.010 A 
ATOM     30  C   UNL A   1      38.224  29.744  27.601  1.00  0.00     0.010 A 
ATOM     31  C   UNL A   1      38.489  29.240  28.890  1.00  0.00    -0.014 A 
BRANCH  31  32
ATOM     32  C   UNL A   1      39.860  28.810  29.296  1.00  0.00     0.031 A 
ATOM     33  C   UNL A   1      40.725  29.716  30.136  1.00  0.00     0.074 A 
ATOM     34  C   UNL A   1      40.328  27.595  28.939  1.00  0.00     0.049 A 
ATOM     35  N   UNL A   1      41.990  29.593  30.456  1.00  0.00    -0.248 NA
ATOM     36  C   UNL A   1      40.091  30.932  30.669  1.00  0.00     0.031 C 
ATOM     37  C   UNL A   1      39.582  26.582  28.189  1.00  0.00     0.029 A 
ATOM     38  N   UNL A   1      41.542  26.998  29.176  1.00  0.00    -0.354 N 
ATOM     39  C   UNL A   1      42.316  30.741  31.173  1.00  0.00     0.074 A 
ATOM     40  C   UNL A   1      41.121  31.556  31.223  1.00  0.00     0.031 C 
ATOM     41  C   UNL A   1      40.329  25.475  28.078  1.00  0.00     0.029 A 
ATOM     42  C   UNL A   1      41.645  25.732  28.646  1.00  0.00     0.049 A 
ATOM     43  H   UNL A   1      42.271  27.434  29.675  1.00  0.00     0.167 HD
ATOM     44  C   UNL A   1      43.502  31.085  31.735  1.00  0.00     0.031 A 
ATOM     45  C   UNL A   1      42.689  24.884  28.580  1.00  0.00     0.031 A 
ATOM     46  C   UNL A   1      44.677  30.249  31.709  1.00  0.00     0.049 A 
ATOM     47  C   UNL A   1      44.012  25.310  29.146  1.00  0.00     0.074 A 
ATOM     48  C   UNL A   1      45.922  30.497  32.261  1.00  0.00     0.029 A 
ATOM     49  N   UNL A   1      44.751  29.001  31.105  1.00  0.00    -0.354 N 
ATOM     50  N   UNL A   1      44.319  26.420  29.776  1.00  0.00    -0.248 NA
ATOM     51  C   UNL A   1      45.133  24.377  28.982  1.00  0.00     0.031 C 
ATOM     52  C   UNL A   1      46.766  29.430  31.934  1.00  0.00     0.029 A 
ATOM     53  C   UNL A   1      46.028  28.481  31.244  1.00  0.00     0.049 A 
ATOM     54  H   UNL A   1      44.006  28.552  30.645  1.00  0.00     0.167 HD
ATOM     55  C   UNL A   1      45.666  26.309  30.102  1.00  0.00     0.074 A 
ATOM     56  C   UNL A   1      46.109  25.017  29.614  1.00  0.00     0.031 C 
ATOM     57  C   UNL A   1      46.461  27.198  30.747  1.00  0.00     0.031 A 
BRANCH  44  58
ATOM     58  C   UNL A   1      43.604  32.452  32.369  1.00  0.00    -0.014 A 
ATOM     59  C   UNL A   1      43.966  33.593  31.630  1.00  0.00     0.010 A 
ATOM     60  C   UNL A   1      43.326  32.595  33.742  1.00  0.00     0.010 A 
ATOM     61  C   UNL A   1      44.114  34.832  32.263  1.00  0.00     0.020 A 
ATOM     62  C   UNL A   1      43.436  33.838  34.372  1.00  0.00     0.020 A 
ATOM     63  C   UNL A   1      43.856  34.945  33.633  1.00  0.00     0.054 A 
BRANCH  63  64
ATOM     64  S   UNL A   1      44.072  36.558  34.434  1.00  0.00     0.124 S 
ATOM     65  O   UNL A   1      43.129  37.392  33.692  1.00  0.00    -0.237 OA
ATOM     66  O   UNL A   1      43.706  36.280  35.821  1.00  0.00    -0.237 OA
ATOM     67  O   UNL A   1      45.482  36.870  34.216  1.00  0.00    -0.744 OA
ENDBRANCH  63  64
ENDBRANCH  44  58
BRANCH  45  68
ATOM     68  C   UNL A   1      42.521  23.560  27.917  1.00  0.00    -0.014 A 
ATOM     69  C   UNL A   1      42.839  23.397  26.558  1.00  0.00     0.010 A 
ATOM     70  C   UNL A   1      42.089  22.442  28.656  1.00  0.00     0.010 A 
ATOM     71  C   UNL A   1      42.736  22.140  25.953  1.00  0.00     0.020 A 
ATOM     72  C   UNL A   1      42.018  21.178  28.065  1.00  0.00     0.020 A 
ATOM     73  C   UNL A   1      42.338  21.036  26.714  1.00  0.00     0.054 A 
BRANCH  73  74
ATOM     74  S   UNL A   1      42.299  19.401  25.928  1.00  0.00     0.124 S 
ATOM     75  O   UNL A   1      43.162  19.601  24.768  1.00  0.00    -0.237 OA
ATOM     76  O   UNL A   1      42.839  18.537  26.976  1.00  0.00    -0.237 OA
ATOM     77  O   UNL A   1      40.884  19.196  25.629  1.00  0.00    -0.744 OA
ENDBRANCH  73  74
ENDBRANCH  45  68
BRANCH  57  78
ATOM     78  C   UNL A   1      47.888  26.787  31.002  1.00  0.00    -0.014 A 
ATOM     79  C   UNL A   1      48.883  26.938  30.021  1.00  0.00     0.010 A 
ATOM     80  C   UNL A   1      48.245  26.281  32.266  1.00  0.00     0.010 A 
ATOM     81  C   UNL A   1      50.202  26.560  30.287  1.00  0.00     0.020 A 
ATOM     82  C   UNL A   1      49.568  25.932  32.547  1.00  0.00     0.020 A 
ATOM     83  C   UNL A   1      50.536  26.059  31.549  1.00  0.00     0.054 A 
BRANCH  83  84
ATOM     84  S   UNL A   1      52.263  25.615  31.883  1.00  0.00     0.124 S 
ATOM     85  O   UNL A   1      52.930  26.046  30.657  1.00  0.00    -0.237 OA
ATOM     86  O   UNL A   1      52.570  26.401  33.076  1.00  0.00    -0.237 OA
ATOM     87  O   UNL A   1      52.216  24.170  32.090  1.00  0.00    -0.744 OA
ENDBRANCH  83  84
ENDBRANCH  57  78
ENDBRANCH  31  32
ENDBRANCH  24  26
ENDBRANCH  23  24
ENDBRANCH   1  23
TORSDOF 16
ENDMDL
MODEL 3
REMARK VINA RESULT:     -11.2      1.826      2.238
REMARK SMILES C[C@H]1CCCCN1S(=O)(=O)c1ccc(Br)c(C(=O)OCCOC(=O)c2ccc(-c3c4nc(c(-c5ccc(S(=O)(=O)[O-])cc5)c5ccc([nH]5)c(-c5ccc(S(=O)(=O)[O-])cc5)c5nc(c(-c6ccc(S(=O)(=O)[O-])cc6)c6ccc3[nH]6)C=C5)C=C4)cc2)c1
REMARK SMILES IDX 21 1 20 2 19 3 17 4 18 5 16 6 11 7 12 8 85 9 13 10 14 11
REMARK SMILES IDX 15 12 8 13 9 14 10 15 7 16 1 17 2 18 3 19 4 20 6 21 5 22
REMARK SMILES IDX 22 23 23 24 24 25 25 26 26 27 84 28 27 29 83 30 28 31 29 32
REMARK SMILES IDX 30 33 77 34 31 35 82 36 76 37 78 38 32 39 81 40 75 41 74 42
REMARK SMILES IDX 33 44 63 45 44 46 62 47 45 48 48 49 61 50 79 51 46 52 47 53
REMARK SMILES IDX 60 55 80 56 49 57 34 58 35 59 43 60 36 61 42 62 37 63 38 64
REMARK SMILES IDX 39 65 40 66 41 67 64 68 65 69 73 70 66 71 72 72 67 73 68 74
REMARK SMILES IDX 69 75 70 76 71 77 50 78 51 79 59 80 52 81 58 82 53 83 54 84
REMARK SMILES IDX 55 85 56 86 57 87
REMARK H PARENT 78 43 48 54
REMARK Flexibility Score: inf
ROOT
ATOM      1  C   UNL A   1      38.927  23.720  26.157  1.00  0.00     0.275 C 
ENDROOT
BRANCH   1   2
ATOM      2  C   UNL A   1      37.626  22.915  26.150  1.00  0.00     0.275 C 
BRANCH   2   3
ATOM      3  O   UNL A   1      36.670  23.528  25.262  1.00  0.00    -0.458 OA
BRANCH   3   4
ATOM      4  C   UNL A   1      36.309  22.870  24.134  1.00  0.00     0.339 C 
ATOM      5  O   UNL A   1      37.006  22.116  23.479  1.00  0.00    -0.246 OA
BRANCH   4   6
ATOM      6  C   UNL A   1      34.855  23.069  23.891  1.00  0.00     0.075 A 
ATOM      7  C   UNL A   1      33.112  24.524  23.009  1.00  0.00     0.083 A 
ATOM      8  C   UNL A   1      32.240  23.435  22.962  1.00  0.00     0.023 A 
ATOM      9  C   UNL A   1      34.425  24.344  23.464  1.00  0.00     0.038 A 
ATOM     10  C   UNL A   1      32.621  22.212  23.513  1.00  0.00     0.018 A 
ATOM     11  C   UNL A   1      33.919  22.030  23.997  1.00  0.00     0.032 A 
ATOM     12  Br  UNL A   1      34.272  20.378  24.872  1.00  0.00    -0.050 Br
BRANCH   7  13
ATOM     13  S   UNL A   1      32.605  26.067  22.272  1.00  0.00     0.243 S 
ATOM     14  O   UNL A   1      31.278  25.868  21.724  1.00  0.00    -0.207 OA
ATOM     15  O   UNL A   1      33.698  26.475  21.420  1.00  0.00    -0.207 OA
BRANCH  13  16
ATOM     16  N   UNL A   1      32.452  27.256  23.544  1.00  0.00    -0.195 NA
ATOM     17  C   UNL A   1      34.313  28.856  22.946  1.00  0.00     0.026 C 
ATOM     18  C   UNL A   1      33.730  27.925  24.008  1.00  0.00     0.070 C 
ATOM     19  C   UNL A   1      33.474  28.815  25.240  1.00  0.00     0.020 C 
ATOM     20  C   UNL A   1      32.826  28.061  26.382  1.00  0.00     0.003 C 
ATOM     21  C   UNL A   1      31.748  26.560  24.704  1.00  0.00     0.103 C 
ATOM     22  C   UNL A   1      31.516  27.476  25.895  1.00  0.00     0.017 C 
ENDBRANCH  13  16
ENDBRANCH   7  13
ENDBRANCH   4   6
ENDBRANCH   3   4
ENDBRANCH   2   3
ENDBRANCH   1   2
BRANCH   1  23
ATOM     23  O   UNL A   1      38.903  24.684  27.224  1.00  0.00    -0.458 OA
BRANCH  23  24
ATOM     24  C   UNL A   1      39.861  25.634  27.147  1.00  0.00     0.338 C 
ATOM     25  O   UNL A   1      40.698  25.780  26.272  1.00  0.00    -0.246 OA
BRANCH  24  26
ATOM     26  C   UNL A   1      39.664  26.605  28.227  1.00  0.00     0.060 A 
ATOM     27  C   UNL A   1      40.341  27.814  28.124  1.00  0.00     0.016 A 
ATOM     28  C   UNL A   1      38.963  26.284  29.385  1.00  0.00     0.016 A 
ATOM     29  C   UNL A   1      40.423  28.661  29.221  1.00  0.00     0.010 A 
ATOM     30  C   UNL A   1      38.961  27.192  30.453  1.00  0.00     0.010 A 
ATOM     31  C   UNL A   1      39.729  28.372  30.402  1.00  0.00    -0.014 A 
BRANCH  31  32
ATOM     32  C   UNL A   1      39.846  29.282  31.580  1.00  0.00     0.031 A 
ATOM     33  C   UNL A   1      41.021  29.163  32.520  1.00  0.00     0.074 A 
ATOM     34  C   UNL A   1      38.919  30.237  31.801  1.00  0.00     0.049 A 
ATOM     35  N   UNL A   1      41.221  29.748  33.675  1.00  0.00    -0.248 NA
ATOM     36  C   UNL A   1      42.103  28.251  32.118  1.00  0.00     0.031 C 
ATOM     37  C   UNL A   1      37.767  30.520  30.941  1.00  0.00     0.029 A 
ATOM     38  N   UNL A   1      38.808  31.162  32.810  1.00  0.00    -0.354 N 
ATOM     39  C   UNL A   1      42.417  29.230  34.163  1.00  0.00     0.074 A 
ATOM     40  C   UNL A   1      42.886  28.269  33.188  1.00  0.00     0.031 C 
ATOM     41  C   UNL A   1      37.102  31.577  31.426  1.00  0.00     0.029 A 
ATOM     42  C   UNL A   1      37.709  31.981  32.687  1.00  0.00     0.049 A 
ATOM     43  H   UNL A   1      39.451  31.232  33.552  1.00  0.00     0.167 HD
ATOM     44  C   UNL A   1      43.063  29.524  35.319  1.00  0.00     0.031 A 
ATOM     45  C   UNL A   1      37.210  32.923  33.512  1.00  0.00     0.031 A 
ATOM     46  C   UNL A   1      42.606  30.508  36.268  1.00  0.00     0.049 A 
ATOM     47  C   UNL A   1      37.901  33.186  34.818  1.00  0.00     0.074 A 
ATOM     48  C   UNL A   1      43.193  30.893  37.461  1.00  0.00     0.029 A 
ATOM     49  N   UNL A   1      41.451  31.268  36.131  1.00  0.00    -0.354 N 
ATOM     50  N   UNL A   1      39.003  32.652  35.290  1.00  0.00    -0.248 NA
ATOM     51  C   UNL A   1      37.275  34.169  35.710  1.00  0.00     0.031 C 
ATOM     52  C   UNL A   1      42.363  31.837  38.075  1.00  0.00     0.029 A 
ATOM     53  C   UNL A   1      41.294  32.097  37.231  1.00  0.00     0.049 A 
ATOM     54  H   UNL A   1      40.835  31.224  35.365  1.00  0.00     0.167 HD
ATOM     55  C   UNL A   1      39.213  33.250  36.527  1.00  0.00     0.074 A 
ATOM     56  C   UNL A   1      38.134  34.198  36.721  1.00  0.00     0.031 C 
ATOM     57  C   UNL A   1      40.212  33.032  37.418  1.00  0.00     0.031 A 
BRANCH  44  58
ATOM     58  C   UNL A   1      44.302  28.724  35.651  1.00  0.00    -0.014 A 
ATOM     59  C   UNL A   1      45.595  29.197  35.365  1.00  0.00     0.010 A 
ATOM     60  C   UNL A   1      44.161  27.468  36.271  1.00  0.00     0.010 A 
ATOM     61  C   UNL A   1      46.716  28.401  35.628  1.00  0.00     0.020 A 
ATOM     62  C   UNL A   1      45.279  26.685  36.571  1.00  0.00     0.020 A 
ATOM     63  C   UNL A   1      46.550  27.146  36.222  1.00  0.00     0.054 A 
BRANCH  63  64
ATOM     64  S   UNL A   1      48.017  26.126  36.536  1.00  0.00     0.124 S 
ATOM     65  O   UNL A   1      48.061  25.286  35.341  1.00  0.00    -0.237 OA
ATOM     66  O   UNL A   1      49.082  27.119  36.644  1.00  0.00    -0.237 OA
ATOM     67  O   UNL A   1      47.695  25.425  37.777  1.00  0.00    -0.744 OA
ENDBRANCH  63  64
ENDBRANCH  44  58
BRANCH  45  68
ATOM     68  C   UNL A   1      35.971  33.654  33.130  1.00  0.00    -0.014 A 
ATOM     69  C   UNL A   1      34.707  33.072  33.330  1.00  0.00     0.010 A 
ATOM     70  C   UNL A   1      36.045  34.961  32.610  1.00  0.00     0.010 A 
ATOM     71  C   UNL A   1      33.543  33.785  33.025  1.00  0.00     0.020 A 
ATOM     72  C   UNL A   1      34.884  35.690  32.337  1.00  0.00     0.020 A 
ATOM     73  C   UNL A   1      33.639  35.094  32.542  1.00  0.00     0.054 A 
BRANCH  73  74
ATOM     74  S   UNL A   1      32.114  36.027  32.239  1.00  0.00     0.124 S 
ATOM     75  O   UNL A   1      32.217  36.326  30.814  1.00  0.00    -0.237 OA
ATOM     76  O   UNL A   1      31.078  35.065  32.610  1.00  0.00    -0.237 OA
ATOM     77  O   UNL A   1      32.232  37.179  33.131  1.00  0.00    -0.744 OA
ENDBRANCH  73  74
ENDBRANCH  45  68
BRANCH  57  78
ATOM     78  C   UNL A   1      40.209  33.865  38.674  1.00  0.00    -0.014 A 
ATOM     79  C   UNL A   1      40.836  35.122  38.723  1.00  0.00     0.010 A 
ATOM     80  C   UNL A   1      39.526  33.396  39.812  1.00  0.00     0.010 A 
ATOM     81  C   UNL A   1      40.809  35.879  39.897  1.00  0.00     0.020 A 
ATOM     82  C   UNL A   1      39.469  34.164  40.977  1.00  0.00     0.020 A 
ATOM     83  C   UNL A   1      40.124  35.395  41.017  1.00  0.00     0.054 A 
BRANCH  83  84
ATOM     84  S   UNL A   1      40.068  36.417  42.515  1.00  0.00     0.124 S 
ATOM     85  O   UNL A   1      38.928  35.848  43.229  1.00  0.00    -0.237 OA
ATOM     86  O   UNL A   1      41.375  36.170  43.119  1.00  0.00    -0.237 OA
ATOM     87  O   UNL A   1      39.869  37.772  42.005  1.00  0.00    -0.744 OA
ENDBRANCH  83  84
ENDBRANCH  57  78
ENDBRANCH  31  32
ENDBRANCH  24  26
ENDBRANCH  23  24
ENDBRANCH   1  23
TORSDOF 16
ENDMDL
