MODEL 1
REMARK VINA RESULT:     -12.6      0.000      0.000
REMARK SMILES Cc1c(C(=O)Nc2ccc(C(=O)Nc3ccccc3C(=O)OCCOC(=O)c3ccc(-c4c5nc(c(-c6ccc(S(=O)(=O)[O-])cc6)c6ccc([nH]6)c(-c6ccc(S(=O)(=O)[O-])cc6)c6nc(c(-c7ccc(S(=O)(=O)[O-])cc7)c7ccc4[nH]7)C=C6)C=C5)cc3)cc2)cccc1[N+](=O)[O-]
REMARK SMILES IDX 23 1 22 2 20 3 21 4 19 5 14 6 15 7 16 8 18 9 17 10 13 11
REMARK SMILES IDX 11 12 12 13 10 15 7 16 8 17 89 18 9 19 88 20 6 21 4 22 5 23
REMARK SMILES IDX 3 25 1 26 2 27 93 28 90 29 92 30 91 31 94 32 95 33 96 34
REMARK SMILES IDX 24 35 25 36 26 37 27 38 28 39 29 40 87 41 30 42 86 43 31 44
REMARK SMILES IDX 32 45 33 46 80 47 34 48 85 49 79 50 81 51 35 52 84 53 78 54
REMARK SMILES IDX 77 55 36 57 66 58 47 59 65 60 48 61 51 62 64 63 82 64 49 65
REMARK SMILES IDX 50 66 63 68 83 69 52 70 37 71 38 72 46 73 39 74 45 75 40 76
REMARK SMILES IDX 41 77 42 78 43 79 44 80 67 81 68 82 76 83 69 84 75 85 70 86
REMARK SMILES IDX 71 87 72 88 73 89 74 90 53 91 54 92 62 93 55 94 61 95 56 96
REMARK SMILES IDX 57 97 58 98 59 99 60 100
REMARK H PARENT 13 14 6 24 81 56 51 67
REMARK Flexibility Score: inf
ROOT
ATOM      1  C   UNL A   1      31.549  29.592  26.807  1.00  0.00     0.275 C 
ENDROOT
BRANCH   1   2
ATOM      2  O   UNL A   1      31.681  29.904  25.407  1.00  0.00    -0.458 OA
BRANCH   2   3
ATOM      3  C   UNL A   1      30.836  30.897  25.020  1.00  0.00     0.340 C 
ATOM      4  O   UNL A   1      30.724  31.927  25.687  1.00  0.00    -0.246 OA
BRANCH   3   5
ATOM      5  C   UNL A   1      29.914  30.691  23.832  1.00  0.00     0.083 A 
ATOM      6  C   UNL A   1      30.027  29.938  22.633  1.00  0.00     0.056 A 
ATOM      7  C   UNL A   1      28.993  30.068  21.666  1.00  0.00     0.027 A 
ATOM      8  C   UNL A   1      27.826  30.797  21.896  1.00  0.00     0.002 A 
ATOM      9  C   UNL A   1      28.699  31.415  24.028  1.00  0.00     0.018 A 
ATOM     10  C   UNL A   1      27.665  31.453  23.096  1.00  0.00     0.001 A 
BRANCH   6  11
ATOM     11  N   UNL A   1      30.983  28.972  22.212  1.00  0.00    -0.321 N 
ATOM     12  C   UNL A   1      31.013  27.605  22.406  1.00  0.00     0.255 C 
ATOM     13  O   UNL A   1      31.361  26.839  21.509  1.00  0.00    -0.269 OA
ATOM     14  H   UNL A   1      31.743  29.335  21.703  1.00  0.00     0.170 HD
BRANCH  12  15
ATOM     15  C   UNL A   1      30.605  26.973  23.648  1.00  0.00     0.040 A 
ATOM     16  C   UNL A   1      29.899  25.547  25.880  1.00  0.00     0.041 A 
ATOM     17  C   UNL A   1      28.912  25.986  25.012  1.00  0.00     0.027 A 
ATOM     18  C   UNL A   1      31.211  26.018  25.782  1.00  0.00     0.027 A 
ATOM     19  C   UNL A   1      29.302  26.542  23.817  1.00  0.00     0.016 A 
ATOM     20  C   UNL A   1      31.566  26.737  24.641  1.00  0.00     0.016 A 
BRANCH  16  21
ATOM     21  N   UNL A   1      29.646  24.397  26.628  1.00  0.00    -0.322 N 
ATOM     22  C   UNL A   1      30.275  23.164  26.450  1.00  0.00     0.256 C 
ATOM     23  O   UNL A   1      29.866  22.183  27.069  1.00  0.00    -0.269 OA
ATOM     24  H   UNL A   1      28.968  24.459  27.340  1.00  0.00     0.170 HD
BRANCH  22  25
ATOM     25  C   UNL A   1      31.434  22.975  25.480  1.00  0.00     0.049 A 
ATOM     26  C   UNL A   1      33.225  22.569  27.232  1.00  0.00     0.053 C 
ATOM     27  C   UNL A   1      32.826  22.916  25.817  1.00  0.00     0.039 A 
ATOM     28  C   UNL A   1      33.763  23.076  24.754  1.00  0.00     0.273 A 
ATOM     29  C   UNL A   1      31.041  22.953  24.128  1.00  0.00     0.014 A 
ATOM     30  C   UNL A   1      33.331  23.041  23.413  1.00  0.00     0.086 A 
ATOM     31  C   UNL A   1      31.982  22.931  23.105  1.00  0.00     0.008 A 
BRANCH  28  32
ATOM     32  N   UNL A   1      35.200  23.429  24.937  1.00  0.00     0.063 N 
ATOM     33  O   UNL A   1      35.445  24.460  25.585  1.00  0.00    -0.258 OA
ATOM     34  O   UNL A   1      36.072  22.710  24.449  1.00  0.00    -0.258 OA
ENDBRANCH  28  32
ENDBRANCH  22  25
ENDBRANCH  16  21
ENDBRANCH  12  15
ENDBRANCH   6  11
ENDBRANCH   3   5
ENDBRANCH   2   3
ENDBRANCH   1   2
BRANCH   1  35
ATOM     35  C   UNL A   1      32.653  28.741  27.479  1.00  0.00     0.275 C 
BRANCH  35  36
ATOM     36  O   UNL A   1      34.074  29.001  27.321  1.00  0.00    -0.458 OA
BRANCH  36  37
ATOM     37  C   UNL A   1      34.797  30.127  27.536  1.00  0.00     0.338 C 
ATOM     38  O   UNL A   1      34.359  31.248  27.318  1.00  0.00    -0.246 OA
BRANCH  37  39
ATOM     39  C   UNL A   1      36.142  29.898  28.022  1.00  0.00     0.060 A 
ATOM     40  C   UNL A   1      37.250  30.014  27.166  1.00  0.00     0.016 A 
ATOM     41  C   UNL A   1      36.254  29.766  29.400  1.00  0.00     0.016 A 
ATOM     42  C   UNL A   1      38.518  30.077  27.715  1.00  0.00     0.010 A 
ATOM     43  C   UNL A   1      37.474  29.988  29.957  1.00  0.00     0.010 A 
ATOM     44  C   UNL A   1      38.599  30.025  29.105  1.00  0.00    -0.014 A 
BRANCH  44  45
ATOM     45  C   UNL A   1      39.722  29.410  29.783  1.00  0.00     0.031 A 
ATOM     46  C   UNL A   1      40.093  28.030  29.433  1.00  0.00     0.074 A 
ATOM     47  C   UNL A   1      40.488  30.445  30.223  1.00  0.00     0.049 A 
ATOM     48  N   UNL A   1      40.994  27.334  30.026  1.00  0.00    -0.248 NA
ATOM     49  C   UNL A   1      39.424  27.261  28.374  1.00  0.00     0.031 C 
ATOM     50  C   UNL A   1      41.923  30.631  30.291  1.00  0.00     0.029 A 
ATOM     51  N   UNL A   1      40.012  31.693  30.680  1.00  0.00    -0.354 N 
ATOM     52  C   UNL A   1      41.348  26.345  29.121  1.00  0.00     0.074 A 
ATOM     53  C   UNL A   1      40.208  26.181  28.264  1.00  0.00     0.031 C 
ATOM     54  C   UNL A   1      42.175  31.695  31.087  1.00  0.00     0.029 A 
ATOM     55  C   UNL A   1      40.898  32.134  31.650  1.00  0.00     0.049 A 
ATOM     56  H   UNL A   1      39.203  32.161  30.370  1.00  0.00     0.167 HD
ATOM     57  C   UNL A   1      42.667  26.023  28.995  1.00  0.00     0.031 A 
ATOM     58  C   UNL A   1      40.515  32.030  32.959  1.00  0.00     0.031 A 
ATOM     59  C   UNL A   1      43.454  26.836  29.927  1.00  0.00     0.049 A 
ATOM     60  C   UNL A   1      41.291  30.900  33.604  1.00  0.00     0.074 A 
ATOM     61  C   UNL A   1      44.225  27.971  29.739  1.00  0.00     0.029 A 
ATOM     62  N   UNL A   1      43.169  26.771  31.286  1.00  0.00    -0.354 N 
ATOM     63  N   UNL A   1      41.722  29.842  32.968  1.00  0.00    -0.248 NA
ATOM     64  C   UNL A   1      41.722  30.939  34.994  1.00  0.00     0.031 C 
ATOM     65  C   UNL A   1      44.320  28.639  30.994  1.00  0.00     0.029 A 
ATOM     66  C   UNL A   1      43.578  27.928  31.925  1.00  0.00     0.049 A 
ATOM     67  H   UNL A   1      42.738  26.008  31.732  1.00  0.00     0.167 HD
ATOM     68  C   UNL A   1      42.584  29.152  33.772  1.00  0.00     0.074 A 
ATOM     69  C   UNL A   1      42.519  29.859  35.044  1.00  0.00     0.031 C 
ATOM     70  C   UNL A   1      43.330  28.087  33.352  1.00  0.00     0.031 A 
BRANCH  57  71
ATOM     71  C   UNL A   1      43.303  25.265  27.843  1.00  0.00    -0.014 A 
ATOM     72  C   UNL A   1      43.862  23.995  28.106  1.00  0.00     0.010 A 
ATOM     73  C   UNL A   1      43.386  25.709  26.508  1.00  0.00     0.010 A 
ATOM     74  C   UNL A   1      44.490  23.224  27.119  1.00  0.00     0.020 A 
ATOM     75  C   UNL A   1      44.022  24.948  25.505  1.00  0.00     0.020 A 
ATOM     76  C   UNL A   1      44.568  23.705  25.819  1.00  0.00     0.054 A 
BRANCH  76  77
ATOM     77  S   UNL A   1      45.342  22.660  24.557  1.00  0.00     0.124 S 
ATOM     78  O   UNL A   1      44.194  22.212  23.773  1.00  0.00    -0.237 OA
ATOM     79  O   UNL A   1      46.238  23.595  23.882  1.00  0.00    -0.237 OA
ATOM     80  O   UNL A   1      46.007  21.614  25.331  1.00  0.00    -0.744 OA
ENDBRANCH  76  77
ENDBRANCH  57  71
BRANCH  58  81
ATOM     81  C   UNL A   1      39.062  32.327  33.216  1.00  0.00    -0.014 A 
ATOM     82  C   UNL A   1      38.628  33.674  33.147  1.00  0.00     0.010 A 
ATOM     83  C   UNL A   1      38.084  31.318  33.176  1.00  0.00     0.010 A 
ATOM     84  C   UNL A   1      37.275  34.003  32.957  1.00  0.00     0.020 A 
ATOM     85  C   UNL A   1      36.729  31.643  33.001  1.00  0.00     0.020 A 
ATOM     86  C   UNL A   1      36.335  32.979  32.872  1.00  0.00     0.054 A 
BRANCH  86  87
ATOM     87  S   UNL A   1      34.617  33.355  32.396  1.00  0.00     0.124 S 
ATOM     88  O   UNL A   1      33.891  33.078  33.632  1.00  0.00    -0.237 OA
ATOM     89  O   UNL A   1      34.693  34.758  32.008  1.00  0.00    -0.237 OA
ATOM     90  O   UNL A   1      34.398  32.406  31.303  1.00  0.00    -0.744 OA
ENDBRANCH  86  87
ENDBRANCH  58  81
BRANCH  70  91
ATOM     91  C   UNL A   1      43.991  27.104  34.279  1.00  0.00    -0.014 A 
ATOM     92  C   UNL A   1      43.379  25.918  34.700  1.00  0.00     0.010 A 
ATOM     93  C   UNL A   1      45.347  27.297  34.641  1.00  0.00     0.010 A 
ATOM     94  C   UNL A   1      44.038  25.031  35.551  1.00  0.00     0.020 A 
ATOM     95  C   UNL A   1      46.043  26.376  35.418  1.00  0.00     0.020 A 
ATOM     96  C   UNL A   1      45.362  25.273  35.911  1.00  0.00     0.054 A 
BRANCH  96  97
ATOM     97  S   UNL A   1      46.190  24.120  37.020  1.00  0.00     0.124 S 
ATOM     98  O   UNL A   1      47.570  24.200  36.548  1.00  0.00    -0.237 OA
ATOM     99  O   UNL A   1      45.942  24.705  38.337  1.00  0.00    -0.237 OA
ATOM    100  O   UNL A   1      45.512  22.852  36.770  1.00  0.00    -0.744 OA
ENDBRANCH  96  97
ENDBRANCH  70  91
ENDBRANCH  44  45
ENDBRANCH  37  39
ENDBRANCH  36  37
ENDBRANCH  35  36
ENDBRANCH   1  35
TORSDOF 19
ENDMDL
MODEL 2
REMARK VINA RESULT:     -12.3      1.692      2.947
REMARK SMILES Cc1c(C(=O)Nc2ccc(C(=O)Nc3ccccc3C(=O)OCCOC(=O)c3ccc(-c4c5nc(c(-c6ccc(S(=O)(=O)[O-])cc6)c6ccc([nH]6)c(-c6ccc(S(=O)(=O)[O-])cc6)c6nc(c(-c7ccc(S(=O)(=O)[O-])cc7)c7ccc4[nH]7)C=C6)C=C5)cc3)cc2)cccc1[N+](=O)[O-]
REMARK SMILES IDX 23 1 22 2 20 3 21 4 19 5 14 6 15 7 16 8 18 9 17 10 13 11
REMARK SMILES IDX 11 12 12 13 10 15 7 16 8 17 89 18 9 19 88 20 6 21 4 22 5 23
REMARK SMILES IDX 3 25 1 26 2 27 93 28 90 29 92 30 91 31 94 32 95 33 96 34
REMARK SMILES IDX 24 35 25 36 26 37 27 38 28 39 29 40 87 41 30 42 86 43 31 44
REMARK SMILES IDX 32 45 33 46 80 47 34 48 85 49 79 50 81 51 35 52 84 53 78 54
REMARK SMILES IDX 77 55 36 57 66 58 47 59 65 60 48 61 51 62 64 63 82 64 49 65
REMARK SMILES IDX 50 66 63 68 83 69 52 70 37 71 38 72 46 73 39 74 45 75 40 76
REMARK SMILES IDX 41 77 42 78 43 79 44 80 67 81 68 82 76 83 69 84 75 85 70 86
REMARK SMILES IDX 71 87 72 88 73 89 74 90 53 91 54 92 62 93 55 94 61 95 56 96
REMARK SMILES IDX 57 97 58 98 59 99 60 100
REMARK H PARENT 13 14 6 24 81 56 51 67
REMARK Flexibility Score: inf
ROOT
ATOM      1  C   UNL A   1      31.763  30.882  26.495  1.00  0.00     0.275 C 
ENDROOT
BRANCH   1   2
ATOM      2  O   UNL A   1      32.002  30.187  25.255  1.00  0.00    -0.458 OA
BRANCH   2   3
ATOM      3  C   UNL A   1      31.655  28.875  25.326  1.00  0.00     0.340 C 
ATOM      4  O   UNL A   1      31.075  28.427  26.317  1.00  0.00    -0.246 OA
BRANCH   3   5
ATOM      5  C   UNL A   1      32.102  27.910  24.243  1.00  0.00     0.083 A 
ATOM      6  C   UNL A   1      31.919  26.516  24.046  1.00  0.00     0.056 A 
ATOM      7  C   UNL A   1      32.588  25.904  22.951  1.00  0.00     0.027 A 
ATOM      8  C   UNL A   1      33.307  26.629  22.000  1.00  0.00     0.002 A 
ATOM      9  C   UNL A   1      32.837  28.613  23.239  1.00  0.00     0.018 A 
ATOM     10  C   UNL A   1      33.409  27.997  22.129  1.00  0.00     0.001 A 
BRANCH   6  11
ATOM     11  N   UNL A   1      31.099  25.568  24.719  1.00  0.00    -0.321 N 
ATOM     12  C   UNL A   1      31.316  24.879  25.896  1.00  0.00     0.255 C 
ATOM     13  O   UNL A   1      30.414  24.710  26.715  1.00  0.00    -0.269 OA
ATOM     14  H   UNL A   1      30.243  25.371  24.276  1.00  0.00     0.170 HD
BRANCH  12  15
ATOM     15  C   UNL A   1      32.613  24.343  26.273  1.00  0.00     0.040 A 
ATOM     16  C   UNL A   1      35.065  23.217  26.744  1.00  0.00     0.041 A 
ATOM     17  C   UNL A   1      33.932  22.627  27.279  1.00  0.00     0.027 A 
ATOM     18  C   UNL A   1      35.021  24.495  26.183  1.00  0.00     0.027 A 
ATOM     19  C   UNL A   1      32.706  23.107  26.885  1.00  0.00     0.016 A 
ATOM     20  C   UNL A   1      33.770  25.061  25.940  1.00  0.00     0.016 A 
BRANCH  16  21
ATOM     21  N   UNL A   1      36.163  22.396  26.476  1.00  0.00    -0.322 N 
ATOM     22  C   UNL A   1      36.165  21.315  25.593  1.00  0.00     0.256 C 
ATOM     23  O   UNL A   1      37.147  20.575  25.549  1.00  0.00    -0.269 OA
ATOM     24  H   UNL A   1      37.004  22.596  26.948  1.00  0.00     0.170 HD
BRANCH  22  25
ATOM     25  C   UNL A   1      34.972  20.990  24.703  1.00  0.00     0.049 A 
ATOM     26  C   UNL A   1      35.234  22.962  23.125  1.00  0.00     0.053 C 
ATOM     27  C   UNL A   1      34.401  21.842  23.702  1.00  0.00     0.039 A 
ATOM     28  C   UNL A   1      33.100  21.503  23.221  1.00  0.00     0.273 A 
ATOM     29  C   UNL A   1      34.364  19.757  25.003  1.00  0.00     0.014 A 
ATOM     30  C   UNL A   1      32.528  20.255  23.537  1.00  0.00     0.086 A 
ATOM     31  C   UNL A   1      33.180  19.369  24.384  1.00  0.00     0.008 A 
BRANCH  28  32
ATOM     32  N   UNL A   1      32.194  22.440  22.497  1.00  0.00     0.063 N 
ATOM     33  O   UNL A   1      32.527  22.762  21.344  1.00  0.00    -0.258 OA
ATOM     34  O   UNL A   1      31.177  22.856  23.051  1.00  0.00    -0.258 OA
ENDBRANCH  28  32
ENDBRANCH  22  25
ENDBRANCH  16  21
ENDBRANCH  12  15
ENDBRANCH   6  11
ENDBRANCH   3   5
ENDBRANCH   2   3
ENDBRANCH   1   2
BRANCH   1  35
ATOM     35  C   UNL A   1      32.971  31.500  27.238  1.00  0.00     0.275 C 
BRANCH  35  36
ATOM     36  O   UNL A   1      34.290  30.890  27.273  1.00  0.00    -0.458 OA
BRANCH  36  37
ATOM     37  C   UNL A   1      34.678  29.641  27.631  1.00  0.00     0.338 C 
ATOM     38  O   UNL A   1      33.919  28.682  27.618  1.00  0.00    -0.246 OA
BRANCH  37  39
ATOM     39  C   UNL A   1      36.059  29.535  28.054  1.00  0.00     0.060 A 
ATOM     40  C   UNL A   1      37.110  29.723  27.141  1.00  0.00     0.016 A 
ATOM     41  C   UNL A   1      36.247  29.446  29.426  1.00  0.00     0.016 A 
ATOM     42  C   UNL A   1      38.394  29.903  27.626  1.00  0.00     0.010 A 
ATOM     43  C   UNL A   1      37.470  29.780  29.918  1.00  0.00     0.010 A 
ATOM     44  C   UNL A   1      38.545  29.891  29.010  1.00  0.00    -0.014 A 
BRANCH  44  45
ATOM     45  C   UNL A   1      39.747  29.386  29.644  1.00  0.00     0.031 A 
ATOM     46  C   UNL A   1      40.158  27.999  29.382  1.00  0.00     0.074 A 
ATOM     47  C   UNL A   1      40.492  30.488  29.931  1.00  0.00     0.049 A 
ATOM     48  N   UNL A   1      41.136  27.397  29.956  1.00  0.00    -0.248 NA
ATOM     49  C   UNL A   1      39.448  27.111  28.450  1.00  0.00     0.031 C 
ATOM     50  C   UNL A   1      41.917  30.742  29.865  1.00  0.00     0.029 A 
ATOM     51  N   UNL A   1      39.991  31.750  30.319  1.00  0.00    -0.354 N 
ATOM     52  C   UNL A   1      41.468  26.349  29.112  1.00  0.00     0.074 A 
ATOM     53  C   UNL A   1      40.274  26.061  28.368  1.00  0.00     0.031 C 
ATOM     54  C   UNL A   1      42.176  31.881  30.545  1.00  0.00     0.029 A 
ATOM     55  C   UNL A   1      40.928  32.312  31.172  1.00  0.00     0.049 A 
ATOM     56  H   UNL A   1      39.139  32.154  30.037  1.00  0.00     0.167 HD
ATOM     57  C   UNL A   1      42.788  26.073  28.905  1.00  0.00     0.031 A 
ATOM     58  C   UNL A   1      40.653  32.307  32.512  1.00  0.00     0.031 A 
ATOM     59  C   UNL A   1      43.603  26.999  29.698  1.00  0.00     0.049 A 
ATOM     60  C   UNL A   1      41.533  31.273  33.184  1.00  0.00     0.074 A 
ATOM     61  C   UNL A   1      44.299  28.145  29.353  1.00  0.00     0.029 A 
ATOM     62  N   UNL A   1      43.429  27.042  31.076  1.00  0.00    -0.354 N 
ATOM     63  N   UNL A   1      41.965  30.183  32.607  1.00  0.00    -0.248 NA
ATOM     64  C   UNL A   1      42.068  31.453  34.526  1.00  0.00     0.031 C 
ATOM     65  C   UNL A   1      44.459  28.924  30.535  1.00  0.00     0.029 A 
ATOM     66  C   UNL A   1      43.828  28.267  31.580  1.00  0.00     0.049 A 
ATOM     67  H   UNL A   1      43.072  26.303  31.618  1.00  0.00     0.167 HD
ATOM     68  C   UNL A   1      42.920  29.604  33.392  1.00  0.00     0.074 A 
ATOM     69  C   UNL A   1      42.919  30.417  34.602  1.00  0.00     0.031 C 
ATOM     70  C   UNL A   1      43.684  28.540  33.004  1.00  0.00     0.031 A 
BRANCH  57  71
ATOM     71  C   UNL A   1      43.369  25.246  27.773  1.00  0.00    -0.014 A 
ATOM     72  C   UNL A   1      44.492  24.434  28.046  1.00  0.00     0.010 A 
ATOM     73  C   UNL A   1      42.885  25.200  26.450  1.00  0.00     0.010 A 
ATOM     74  C   UNL A   1      45.117  23.650  27.068  1.00  0.00     0.020 A 
ATOM     75  C   UNL A   1      43.508  24.421  25.452  1.00  0.00     0.020 A 
ATOM     76  C   UNL A   1      44.621  23.646  25.772  1.00  0.00     0.054 A 
BRANCH  76  77
ATOM     77  S   UNL A   1      45.422  22.580  24.544  1.00  0.00     0.124 S 
ATOM     78  O   UNL A   1      46.028  21.544  25.375  1.00  0.00    -0.237 OA
ATOM     79  O   UNL A   1      44.294  22.147  23.721  1.00  0.00    -0.237 OA
ATOM     80  O   UNL A   1      46.369  23.470  23.876  1.00  0.00    -0.744 OA
ENDBRANCH  76  77
ENDBRANCH  57  71
BRANCH  58  81
ATOM     81  C   UNL A   1      39.211  32.563  32.861  1.00  0.00    -0.014 A 
ATOM     82  C   UNL A   1      38.708  33.881  32.721  1.00  0.00     0.010 A 
ATOM     83  C   UNL A   1      38.284  31.514  32.981  1.00  0.00     0.010 A 
ATOM     84  C   UNL A   1      37.330  34.134  32.615  1.00  0.00     0.020 A 
ATOM     85  C   UNL A   1      36.905  31.765  32.891  1.00  0.00     0.020 A 
ATOM     86  C   UNL A   1      36.437  33.068  32.689  1.00  0.00     0.054 A 
BRANCH  86  87
ATOM     87  S   UNL A   1      34.671  33.330  32.324  1.00  0.00     0.124 S 
ATOM     88  O   UNL A   1      34.657  34.718  31.873  1.00  0.00    -0.237 OA
ATOM     89  O   UNL A   1      34.404  32.328  31.299  1.00  0.00    -0.237 OA
ATOM     90  O   UNL A   1      34.059  33.078  33.630  1.00  0.00    -0.744 OA
ENDBRANCH  86  87
ENDBRANCH  58  81
BRANCH  70  91
ATOM     91  C   UNL A   1      44.463  27.672  33.953  1.00  0.00    -0.014 A 
ATOM     92  C   UNL A   1      45.813  27.887  34.254  1.00  0.00     0.010 A 
ATOM     93  C   UNL A   1      43.786  26.674  34.695  1.00  0.00     0.010 A 
ATOM     94  C   UNL A   1      46.491  27.062  35.152  1.00  0.00     0.020 A 
ATOM     95  C   UNL A   1      44.430  25.902  35.658  1.00  0.00     0.020 A 
ATOM     96  C   UNL A   1      45.795  26.069  35.839  1.00  0.00     0.054 A 
BRANCH  96  97
ATOM     97  S   UNL A   1      46.692  25.008  36.985  1.00  0.00     0.124 S 
ATOM     98  O   UNL A   1      47.556  24.260  36.076  1.00  0.00    -0.237 OA
ATOM     99  O   UNL A   1      47.373  25.970  37.850  1.00  0.00    -0.237 OA
ATOM    100  O   UNL A   1      45.639  24.232  37.634  1.00  0.00    -0.744 OA
ENDBRANCH  96  97
ENDBRANCH  70  91
ENDBRANCH  44  45
ENDBRANCH  37  39
ENDBRANCH  36  37
ENDBRANCH  35  36
ENDBRANCH   1  35
TORSDOF 19
ENDMDL
MODEL 3
REMARK VINA RESULT:     -12.0      3.426      9.235
REMARK SMILES Cc1c(C(=O)Nc2ccc(C(=O)Nc3ccccc3C(=O)OCCOC(=O)c3ccc(-c4c5nc(c(-c6ccc(S(=O)(=O)[O-])cc6)c6ccc([nH]6)c(-c6ccc(S(=O)(=O)[O-])cc6)c6nc(c(-c7ccc(S(=O)(=O)[O-])cc7)c7ccc4[nH]7)C=C6)C=C5)cc3)cc2)cccc1[N+](=O)[O-]
REMARK SMILES IDX 23 1 22 2 20 3 21 4 19 5 14 6 15 7 16 8 18 9 17 10 13 11
REMARK SMILES IDX 11 12 12 13 10 15 7 16 8 17 89 18 9 19 88 20 6 21 4 22 5 23
REMARK SMILES IDX 3 25 1 26 2 27 93 28 90 29 92 30 91 31 94 32 95 33 96 34
REMARK SMILES IDX 24 35 25 36 26 37 27 38 28 39 29 40 87 41 30 42 86 43 31 44
REMARK SMILES IDX 32 45 33 46 80 47 34 48 85 49 79 50 81 51 35 52 84 53 78 54
REMARK SMILES IDX 77 55 36 57 66 58 47 59 65 60 48 61 51 62 64 63 82 64 49 65
REMARK SMILES IDX 50 66 63 68 83 69 52 70 37 71 38 72 46 73 39 74 45 75 40 76
REMARK SMILES IDX 41 77 42 78 43 79 44 80 67 81 68 82 76 83 69 84 75 85 70 86
REMARK SMILES IDX 71 87 72 88 73 89 74 90 53 91 54 92 62 93 55 94 61 95 56 96
REMARK SMILES IDX 57 97 58 98 59 99 60 100
REMARK H PARENT 13 14 6 24 81 56 51 67
REMARK Flexibility Score: inf
ROOT
ATOM      1  C   UNL A   1      36.647  23.473  25.526  1.00  0.00     0.275 C 
ENDROOT
BRANCH   1   2
ATOM      2  O   UNL A   1      36.015  24.182  24.442  1.00  0.00    -0.458 OA
BRANCH   2   3
ATOM      3  C   UNL A   1      35.603  23.346  23.452  1.00  0.00     0.340 C 
ATOM      4  O   UNL A   1      36.213  23.283  22.383  1.00  0.00    -0.246 OA
BRANCH   3   5
ATOM      5  C   UNL A   1      34.301  22.578  23.598  1.00  0.00     0.083 A 
ATOM      6  C   UNL A   1      33.083  22.584  22.869  1.00  0.00     0.056 A 
ATOM      7  C   UNL A   1      32.007  21.797  23.365  1.00  0.00     0.027 A 
ATOM      8  C   UNL A   1      32.137  20.934  24.454  1.00  0.00     0.002 A 
ATOM      9  C   UNL A   1      34.392  21.673  24.699  1.00  0.00     0.018 A 
ATOM     10  C   UNL A   1      33.346  20.851  25.109  1.00  0.00     0.001 A 
BRANCH   6  11
ATOM     11  N   UNL A   1      32.724  23.194  21.635  1.00  0.00    -0.321 N 
ATOM     12  C   UNL A   1      32.890  24.495  21.203  1.00  0.00     0.255 C 
ATOM     13  O   UNL A   1      33.239  24.747  20.051  1.00  0.00    -0.269 OA
ATOM     14  H   UNL A   1      32.287  22.595  20.988  1.00  0.00     0.170 HD
BRANCH  12  15
ATOM     15  C   UNL A   1      32.709  25.646  22.070  1.00  0.00     0.040 A 
ATOM     16  C   UNL A   1      32.368  27.648  23.910  1.00  0.00     0.041 A 
ATOM     17  C   UNL A   1      31.274  27.187  23.195  1.00  0.00     0.027 A 
ATOM     18  C   UNL A   1      33.670  27.296  23.548  1.00  0.00     0.027 A 
ATOM     19  C   UNL A   1      31.438  26.070  22.411  1.00  0.00     0.016 A 
ATOM     20  C   UNL A   1      33.838  26.273  22.615  1.00  0.00     0.016 A 
BRANCH  16  21
ATOM     21  N   UNL A   1      32.138  28.188  25.177  1.00  0.00    -0.322 N 
ATOM     22  C   UNL A   1      31.844  27.452  26.326  1.00  0.00     0.256 C 
ATOM     23  O   UNL A   1      31.516  28.043  27.353  1.00  0.00    -0.269 OA
ATOM     24  H   UNL A   1      32.189  29.166  25.268  1.00  0.00     0.170 HD
BRANCH  22  25
ATOM     25  C   UNL A   1      31.874  25.929  26.345  1.00  0.00     0.049 A 
ATOM     26  C   UNL A   1      29.450  25.575  25.679  1.00  0.00     0.053 C 
ATOM     27  C   UNL A   1      30.741  25.054  26.263  1.00  0.00     0.039 A 
ATOM     28  C   UNL A   1      30.940  23.691  26.637  1.00  0.00     0.273 A 
ATOM     29  C   UNL A   1      33.158  25.392  26.556  1.00  0.00     0.014 A 
ATOM     30  C   UNL A   1      32.242  23.190  26.831  1.00  0.00     0.086 A 
ATOM     31  C   UNL A   1      33.346  24.027  26.743  1.00  0.00     0.008 A 
BRANCH  28  32
ATOM     32  N   UNL A   1      29.847  22.741  26.989  1.00  0.00     0.063 N 
ATOM     33  O   UNL A   1      29.260  22.937  28.067  1.00  0.00    -0.258 OA
ATOM     34  O   UNL A   1      29.572  21.816  26.225  1.00  0.00    -0.258 OA
ENDBRANCH  28  32
ENDBRANCH  22  25
ENDBRANCH  16  21
ENDBRANCH  12  15
ENDBRANCH   6  11
ENDBRANCH   3   5
ENDBRANCH   2   3
ENDBRANCH   1   2
BRANCH   1  35
ATOM     35  C   UNL A   1      38.150  23.725  25.793  1.00  0.00     0.275 C 
BRANCH  35  36
ATOM     36  O   UNL A   1      38.652  24.866  26.540  1.00  0.00    -0.458 OA
BRANCH  36  37
ATOM     37  C   UNL A   1      39.437  24.926  27.644  1.00  0.00     0.338 C 
ATOM     38  O   UNL A   1      39.926  23.933  28.165  1.00  0.00    -0.246 OA
BRANCH  37  39
ATOM     39  C   UNL A   1      39.632  26.258  28.175  1.00  0.00     0.060 A 
ATOM     40  C   UNL A   1      40.241  27.262  27.403  1.00  0.00     0.016 A 
ATOM     41  C   UNL A   1      39.001  26.507  29.387  1.00  0.00     0.016 A 
ATOM     42  C   UNL A   1      40.150  28.578  27.822  1.00  0.00     0.010 A 
ATOM     43  C   UNL A   1      38.768  27.803  29.722  1.00  0.00     0.010 A 
ATOM     44  C   UNL A   1      39.442  28.810  28.998  1.00  0.00    -0.014 A 
BRANCH  44  45
ATOM     45  C   UNL A   1      39.797  29.882  29.906  1.00  0.00     0.031 A 
ATOM     46  C   UNL A   1      39.110  31.176  29.779  1.00  0.00     0.074 A 
ATOM     47  C   UNL A   1      40.326  29.267  30.999  1.00  0.00     0.049 A 
ATOM     48  N   UNL A   1      39.398  32.235  30.445  1.00  0.00    -0.248 NA
ATOM     49  C   UNL A   1      38.025  31.421  28.818  1.00  0.00     0.031 C 
ATOM     50  C   UNL A   1      40.215  29.542  32.417  1.00  0.00     0.029 A 
ATOM     51  N   UNL A   1      41.104  28.090  30.993  1.00  0.00    -0.354 N 
ATOM     52  C   UNL A   1      38.262  33.026  30.389  1.00  0.00     0.074 A 
ATOM     53  C   UNL A   1      37.572  32.622  29.196  1.00  0.00     0.031 C 
ATOM     54  C   UNL A   1      41.171  28.836  33.062  1.00  0.00     0.029 A 
ATOM     55  C   UNL A   1      42.000  28.191  32.045  1.00  0.00     0.049 A 
ATOM     56  H   UNL A   1      41.026  27.339  30.361  1.00  0.00     0.167 HD
ATOM     57  C   UNL A   1      37.872  33.686  31.516  1.00  0.00     0.031 A 
ATOM     58  C   UNL A   1      43.300  28.498  31.749  1.00  0.00     0.031 A 
ATOM     59  C   UNL A   1      38.826  33.405  32.593  1.00  0.00     0.049 A 
ATOM     60  C   UNL A   1      43.566  29.932  32.160  1.00  0.00     0.074 A 
ATOM     61  C   UNL A   1      38.770  32.544  33.676  1.00  0.00     0.029 A 
ATOM     62  N   UNL A   1      40.167  33.718  32.407  1.00  0.00    -0.354 N 
ATOM     63  N   UNL A   1      42.662  30.877  32.173  1.00  0.00    -0.248 NA
ATOM     64  C   UNL A   1      44.851  30.371  32.683  1.00  0.00     0.031 C 
ATOM     65  C   UNL A   1      40.109  32.270  34.079  1.00  0.00     0.029 A 
ATOM     66  C   UNL A   1      40.968  32.934  33.218  1.00  0.00     0.049 A 
ATOM     67  H   UNL A   1      40.501  34.403  31.784  1.00  0.00     0.167 HD
ATOM     68  C   UNL A   1      43.162  31.970  32.819  1.00  0.00     0.074 A 
ATOM     69  C   UNL A   1      44.550  31.617  33.085  1.00  0.00     0.031 C 
ATOM     70  C   UNL A   1      42.417  33.070  33.143  1.00  0.00     0.031 A 
BRANCH  57  71
ATOM     71  C   UNL A   1      36.503  34.286  31.781  1.00  0.00    -0.014 A 
ATOM     72  C   UNL A   1      35.540  34.235  30.748  1.00  0.00     0.010 A 
ATOM     73  C   UNL A   1      36.086  34.896  32.980  1.00  0.00     0.010 A 
ATOM     74  C   UNL A   1      34.256  34.778  30.881  1.00  0.00     0.020 A 
ATOM     75  C   UNL A   1      34.798  35.455  33.127  1.00  0.00     0.020 A 
ATOM     76  C   UNL A   1      33.889  35.387  32.074  1.00  0.00     0.054 A 
BRANCH  76  77
ATOM     77  S   UNL A   1      32.203  36.034  32.230  1.00  0.00     0.124 S 
ATOM     78  O   UNL A   1      32.375  37.135  33.174  1.00  0.00    -0.237 OA
ATOM     79  O   UNL A   1      31.889  36.425  30.858  1.00  0.00    -0.237 OA
ATOM     80  O   UNL A   1      31.440  34.896  32.738  1.00  0.00    -0.744 OA
ENDBRANCH  76  77
ENDBRANCH  57  71
BRANCH  58  81
ATOM     81  C   UNL A   1      43.830  27.854  30.496  1.00  0.00    -0.014 A 
ATOM     82  C   UNL A   1      43.832  26.439  30.415  1.00  0.00     0.010 A 
ATOM     83  C   UNL A   1      43.993  28.581  29.304  1.00  0.00     0.010 A 
ATOM     84  C   UNL A   1      43.904  25.772  29.181  1.00  0.00     0.020 A 
ATOM     85  C   UNL A   1      44.080  27.917  28.069  1.00  0.00     0.020 A 
ATOM     86  C   UNL A   1      44.015  26.521  28.012  1.00  0.00     0.054 A 
BRANCH  86  87
ATOM     87  S   UNL A   1      43.876  25.705  26.389  1.00  0.00     0.124 S 
ATOM     88  O   UNL A   1      43.351  26.780  25.552  1.00  0.00    -0.237 OA
ATOM     89  O   UNL A   1      45.251  25.304  26.115  1.00  0.00    -0.237 OA
ATOM     90  O   UNL A   1      42.945  24.614  26.684  1.00  0.00    -0.744 OA
ENDBRANCH  86  87
ENDBRANCH  58  81
BRANCH  70  91
ATOM     91  C   UNL A   1      43.004  34.404  33.515  1.00  0.00    -0.014 A 
ATOM     92  C   UNL A   1      43.811  35.153  32.651  1.00  0.00     0.010 A 
ATOM     93  C   UNL A   1      42.620  35.014  34.734  1.00  0.00     0.010 A 
ATOM     94  C   UNL A   1      44.321  36.393  33.036  1.00  0.00     0.020 A 
ATOM     95  C   UNL A   1      43.053  36.288  35.092  1.00  0.00     0.020 A 
ATOM     96  C   UNL A   1      43.946  36.945  34.259  1.00  0.00     0.054 A 
BRANCH  96  97
ATOM     97  S   UNL A   1      44.627  38.541  34.742  1.00  0.00     0.124 S 
ATOM     98  O   UNL A   1      46.032  38.383  34.376  1.00  0.00    -0.237 OA
ATOM     99  O   UNL A   1      43.865  39.479  33.918  1.00  0.00    -0.237 OA
ATOM    100  O   UNL A   1      44.354  38.615  36.174  1.00  0.00    -0.744 OA
ENDBRANCH  96  97
ENDBRANCH  70  91
ENDBRANCH  44  45
ENDBRANCH  37  39
ENDBRANCH  36  37
ENDBRANCH  35  36
ENDBRANCH   1  35
TORSDOF 19
ENDMDL
