MODEL 1
REMARK VINA RESULT:      -9.8      0.000      0.000
REMARK SMILES NC(=O)CC[C@H](NC(=O)N[C@H]1CCOC1)C(=O)OCCOC(=O)c1ccc(-c2c3nc(c(-c4ccc(S(=O)(=O)[O-])cc4)c4ccc([nH]4)c(-c4ccc(S(=O)(=O)[O-])cc4)c4nc(c(-c5ccc(S(=O)(=O)[O-])cc5)c5ccc2[nH]5)C=C4)C=C3)cc1
REMARK SMILES IDX 19 1 18 2 16 3 17 4 6 5 5 6 4 7 2 8 1 9 3 12 7 13 8 14 9 16
REMARK SMILES IDX 10 17 11 19 12 20 15 21 13 22 14 23 20 24 21 25 22 26 23 27
REMARK SMILES IDX 24 28 25 29 83 30 26 31 82 32 27 33 28 34 29 35 76 36 30 37
REMARK SMILES IDX 81 38 75 39 77 40 31 41 80 42 74 43 73 44 32 46 62 47 43 48
REMARK SMILES IDX 61 49 44 50 47 51 60 52 78 53 45 54 46 55 59 57 79 58 48 59
REMARK SMILES IDX 33 60 34 61 42 62 35 63 41 64 36 65 37 66 38 67 39 68 40 69
REMARK SMILES IDX 63 70 64 71 72 72 65 73 71 74 66 75 67 76 68 77 69 78 70 79
REMARK SMILES IDX 49 80 50 81 58 82 51 83 57 84 52 85 53 86 54 87 55 88 56 89
REMARK H PARENT 1 10 1 11 7 15 10 18 77 45 47 56
REMARK Flexibility Score: inf
ROOT
ATOM      1  C   UNL A   1      37.274  23.336  25.295  1.00  0.00     0.274 C 
ENDROOT
BRANCH   1   2
ATOM      2  O   UNL A   1      36.170  23.269  26.218  1.00  0.00    -0.461 OA
BRANCH   2   3
ATOM      3  C   UNL A   1      34.896  23.245  25.729  1.00  0.00     0.328 C 
ATOM      4  O   UNL A   1      34.020  22.485  26.116  1.00  0.00    -0.250 OA
BRANCH   3   5
ATOM      5  C   UNL A   1      34.670  24.366  24.693  1.00  0.00     0.194 C 
BRANCH   5   6
ATOM      6  C   UNL A   1      34.419  25.837  25.130  1.00  0.00     0.047 C 
BRANCH   6   7
ATOM      7  C   UNL A   1      33.499  26.823  24.403  1.00  0.00     0.102 C 
BRANCH   7   8
ATOM      8  C   UNL A   1      33.890  27.429  23.067  1.00  0.00     0.217 C 
ATOM      9  N   UNL A   1      34.346  28.700  23.016  1.00  0.00    -0.370 N 
ATOM     10  H   UNL A   1      34.599  29.097  22.152  1.00  0.00     0.159 HD
ATOM     11  H   UNL A   1      34.424  29.229  23.842  1.00  0.00     0.159 HD
ATOM     12  O   UNL A   1      33.824  26.764  22.035  1.00  0.00    -0.275 OA
ENDBRANCH   7   8
ENDBRANCH   6   7
ENDBRANCH   5   6
BRANCH   5  13
ATOM     13  N   UNL A   1      34.043  23.953  23.429  1.00  0.00    -0.325 N 
ATOM     14  C   UNL A   1      32.885  23.321  23.166  1.00  0.00     0.315 C 
ATOM     15  H   UNL A   1      34.567  24.180  22.627  1.00  0.00     0.166 HD
ATOM     16  O   UNL A   1      32.791  22.679  22.120  1.00  0.00    -0.249 OA
ATOM     17  N   UNL A   1      31.848  23.312  24.022  1.00  0.00    -0.333 N 
ATOM     18  H   UNL A   1      31.285  22.505  23.995  1.00  0.00     0.165 HD
BRANCH  17  19
ATOM     19  C   UNL A   1      31.440  24.318  24.975  1.00  0.00     0.112 C 
ATOM     20  C   UNL A   1      30.310  25.180  24.457  1.00  0.00     0.056 C 
ATOM     21  C   UNL A   1      30.899  23.831  26.318  1.00  0.00     0.185 C 
ATOM     22  C   UNL A   1      29.787  25.771  25.743  1.00  0.00     0.162 C 
ATOM     23  O   UNL A   1      29.779  24.666  26.656  1.00  0.00    -0.379 OA
ENDBRANCH  17  19
ENDBRANCH   5  13
ENDBRANCH   3   5
ENDBRANCH   2   3
ENDBRANCH   1   2
BRANCH   1  24
ATOM     24  C   UNL A   1      38.625  23.466  25.996  1.00  0.00     0.275 C 
BRANCH  24  25
ATOM     25  O   UNL A   1      38.743  24.761  26.597  1.00  0.00    -0.458 OA
BRANCH  25  26
ATOM     26  C   UNL A   1      39.999  25.259  26.593  1.00  0.00     0.338 C 
ATOM     27  O   UNL A   1      40.816  25.194  25.684  1.00  0.00    -0.246 OA
BRANCH  26  28
ATOM     28  C   UNL A   1      40.172  26.128  27.765  1.00  0.00     0.060 A 
ATOM     29  C   UNL A   1      39.259  25.964  28.813  1.00  0.00     0.016 A 
ATOM     30  C   UNL A   1      41.200  27.073  27.848  1.00  0.00     0.016 A 
ATOM     31  C   UNL A   1      39.354  26.751  29.947  1.00  0.00     0.010 A 
ATOM     32  C   UNL A   1      41.275  27.889  28.975  1.00  0.00     0.010 A 
ATOM     33  C   UNL A   1      40.333  27.747  30.008  1.00  0.00    -0.014 A 
BRANCH  33  34
ATOM     34  C   UNL A   1      40.214  28.771  31.060  1.00  0.00     0.031 A 
ATOM     35  C   UNL A   1      41.148  28.682  32.231  1.00  0.00     0.074 A 
ATOM     36  C   UNL A   1      39.354  29.792  30.920  1.00  0.00     0.049 A 
ATOM     37  N   UNL A   1      41.241  29.460  33.274  1.00  0.00    -0.248 NA
ATOM     38  C   UNL A   1      42.115  27.568  32.218  1.00  0.00     0.031 C 
ATOM     39  C   UNL A   1      38.469  30.003  29.773  1.00  0.00     0.029 A 
ATOM     40  N   UNL A   1      39.096  30.851  31.747  1.00  0.00    -0.354 N 
ATOM     41  C   UNL A   1      42.266  28.926  34.047  1.00  0.00     0.074 A 
ATOM     42  C   UNL A   1      42.750  27.748  33.365  1.00  0.00     0.031 C 
ATOM     43  C   UNL A   1      37.758  31.126  29.974  1.00  0.00     0.029 A 
ATOM     44  C   UNL A   1      38.112  31.686  31.276  1.00  0.00     0.049 A 
ATOM     45  H   UNL A   1      39.569  31.000  32.596  1.00  0.00     0.167 HD
ATOM     46  C   UNL A   1      42.757  29.384  35.221  1.00  0.00     0.031 A 
ATOM     47  C   UNL A   1      37.550  32.766  31.852  1.00  0.00     0.031 A 
ATOM     48  C   UNL A   1      42.242  30.545  35.894  1.00  0.00     0.049 A 
ATOM     49  C   UNL A   1      38.052  33.200  33.204  1.00  0.00     0.074 A 
ATOM     50  C   UNL A   1      42.645  31.094  37.097  1.00  0.00     0.029 A 
ATOM     51  N   UNL A   1      41.203  31.333  35.419  1.00  0.00    -0.354 N 
ATOM     52  N   UNL A   1      39.016  32.684  33.933  1.00  0.00    -0.248 NA
ATOM     53  C   UNL A   1      37.396  34.366  33.808  1.00  0.00     0.031 C 
ATOM     54  C   UNL A   1      41.807  32.177  37.379  1.00  0.00     0.029 A 
ATOM     55  C   UNL A   1      40.930  32.348  36.319  1.00  0.00     0.049 A 
ATOM     56  H   UNL A   1      40.728  31.190  34.568  1.00  0.00     0.167 HD
ATOM     57  C   UNL A   1      39.098  33.479  35.071  1.00  0.00     0.074 A 
ATOM     58  C   UNL A   1      38.101  34.521  34.921  1.00  0.00     0.031 C 
ATOM     59  C   UNL A   1      39.921  33.363  36.145  1.00  0.00     0.031 A 
BRANCH  46  60
ATOM     60  C   UNL A   1      43.858  28.588  35.868  1.00  0.00    -0.014 A 
ATOM     61  C   UNL A   1      45.214  28.873  35.621  1.00  0.00     0.010 A 
ATOM     62  C   UNL A   1      43.530  27.540  36.747  1.00  0.00     0.010 A 
ATOM     63  C   UNL A   1      46.219  28.100  36.212  1.00  0.00     0.020 A 
ATOM     64  C   UNL A   1      44.531  26.785  37.362  1.00  0.00     0.020 A 
ATOM     65  C   UNL A   1      45.869  27.060  37.079  1.00  0.00     0.054 A 
BRANCH  65  66
ATOM     66  S   UNL A   1      47.193  26.088  37.849  1.00  0.00     0.124 S 
ATOM     67  O   UNL A   1      47.390  26.795  39.112  1.00  0.00    -0.237 OA
ATOM     68  O   UNL A   1      46.592  24.762  37.959  1.00  0.00    -0.237 OA
ATOM     69  O   UNL A   1      48.298  26.191  36.899  1.00  0.00    -0.744 OA
ENDBRANCH  65  66
ENDBRANCH  46  60
BRANCH  47  70
ATOM     70  C   UNL A   1      36.436  33.481  31.171  1.00  0.00    -0.014 A 
ATOM     71  C   UNL A   1      36.542  33.871  29.825  1.00  0.00     0.010 A 
ATOM     72  C   UNL A   1      35.254  33.779  31.876  1.00  0.00     0.010 A 
ATOM     73  C   UNL A   1      35.497  34.561  29.202  1.00  0.00     0.020 A 
ATOM     74  C   UNL A   1      34.196  34.441  31.249  1.00  0.00     0.020 A 
ATOM     75  C   UNL A   1      34.329  34.840  29.919  1.00  0.00     0.054 A 
BRANCH  75  76
ATOM     76  S   UNL A   1      32.972  35.702  29.080  1.00  0.00     0.124 S 
ATOM     77  O   UNL A   1      32.134  36.115  30.202  1.00  0.00    -0.237 OA
ATOM     78  O   UNL A   1      33.667  36.779  28.380  1.00  0.00    -0.237 OA
ATOM     79  O   UNL A   1      32.396  34.674  28.215  1.00  0.00    -0.744 OA
ENDBRANCH  75  76
ENDBRANCH  47  70
BRANCH  59  80
ATOM     80  C   UNL A   1      39.793  34.410  37.219  1.00  0.00    -0.014 A 
ATOM     81  C   UNL A   1      38.971  34.209  38.342  1.00  0.00     0.010 A 
ATOM     82  C   UNL A   1      40.535  35.601  37.114  1.00  0.00     0.010 A 
ATOM     83  C   UNL A   1      38.855  35.205  39.316  1.00  0.00     0.020 A 
ATOM     84  C   UNL A   1      40.447  36.583  38.104  1.00  0.00     0.020 A 
ATOM     85  C   UNL A   1      39.591  36.386  39.187  1.00  0.00     0.054 A 
BRANCH  85  86
ATOM     86  S   UNL A   1      39.433  37.657  40.472  1.00  0.00     0.124 S 
ATOM     87  O   UNL A   1      40.742  38.300  40.424  1.00  0.00    -0.237 OA
ATOM     88  O   UNL A   1      38.316  38.465  39.987  1.00  0.00    -0.237 OA
ATOM     89  O   UNL A   1      39.159  36.891  41.685  1.00  0.00    -0.744 OA
ENDBRANCH  85  86
ENDBRANCH  59  80
ENDBRANCH  33  34
ENDBRANCH  26  28
ENDBRANCH  25  26
ENDBRANCH  24  25
ENDBRANCH   1  24
TORSDOF 19
ENDMDL
MODEL 2
REMARK VINA RESULT:      -9.8      6.784     11.244
REMARK SMILES NC(=O)CC[C@H](NC(=O)N[C@H]1CCOC1)C(=O)OCCOC(=O)c1ccc(-c2c3nc(c(-c4ccc(S(=O)(=O)[O-])cc4)c4ccc([nH]4)c(-c4ccc(S(=O)(=O)[O-])cc4)c4nc(c(-c5ccc(S(=O)(=O)[O-])cc5)c5ccc2[nH]5)C=C4)C=C3)cc1
REMARK SMILES IDX 19 1 18 2 16 3 17 4 6 5 5 6 4 7 2 8 1 9 3 12 7 13 8 14 9 16
REMARK SMILES IDX 10 17 11 19 12 20 15 21 13 22 14 23 20 24 21 25 22 26 23 27
REMARK SMILES IDX 24 28 25 29 83 30 26 31 82 32 27 33 28 34 29 35 76 36 30 37
REMARK SMILES IDX 81 38 75 39 77 40 31 41 80 42 74 43 73 44 32 46 62 47 43 48
REMARK SMILES IDX 61 49 44 50 47 51 60 52 78 53 45 54 46 55 59 57 79 58 48 59
REMARK SMILES IDX 33 60 34 61 42 62 35 63 41 64 36 65 37 66 38 67 39 68 40 69
REMARK SMILES IDX 63 70 64 71 72 72 65 73 71 74 66 75 67 76 68 77 69 78 70 79
REMARK SMILES IDX 49 80 50 81 58 82 51 83 57 84 52 85 53 86 54 87 55 88 56 89
REMARK H PARENT 1 10 1 11 7 15 10 18 77 45 47 56
REMARK Flexibility Score: inf
ROOT
ATOM      1  C   UNL A   1      38.147  21.948  25.378  1.00  0.00     0.274 C 
ENDROOT
BRANCH   1   2
ATOM      2  O   UNL A   1      36.790  21.726  24.950  1.00  0.00    -0.461 OA
BRANCH   2   3
ATOM      3  C   UNL A   1      36.232  22.579  24.042  1.00  0.00     0.328 C 
ATOM      4  O   UNL A   1      36.839  23.107  23.122  1.00  0.00    -0.250 OA
BRANCH   3   5
ATOM      5  C   UNL A   1      34.710  22.715  24.262  1.00  0.00     0.194 C 
BRANCH   5   6
ATOM      6  C   UNL A   1      33.805  23.460  23.240  1.00  0.00     0.047 C 
BRANCH   6   7
ATOM      7  C   UNL A   1      33.763  24.979  23.051  1.00  0.00     0.102 C 
BRANCH   7   8
ATOM      8  C   UNL A   1      33.184  25.604  21.794  1.00  0.00     0.217 C 
ATOM      9  N   UNL A   1      32.660  26.847  21.844  1.00  0.00    -0.370 N 
ATOM     10  H   UNL A   1      32.283  27.256  21.031  1.00  0.00     0.159 HD
ATOM     11  H   UNL A   1      32.654  27.345  22.693  1.00  0.00     0.159 HD
ATOM     12  O   UNL A   1      33.216  24.999  20.724  1.00  0.00    -0.275 OA
ENDBRANCH   7   8
ENDBRANCH   6   7
ENDBRANCH   5   6
BRANCH   5  13
ATOM     13  N   UNL A   1      34.266  22.752  25.664  1.00  0.00    -0.325 N 
ATOM     14  C   UNL A   1      33.210  22.199  26.286  1.00  0.00     0.315 C 
ATOM     15  H   UNL A   1      34.851  23.278  26.256  1.00  0.00     0.166 HD
ATOM     16  O   UNL A   1      32.791  22.729  27.314  1.00  0.00    -0.249 OA
ATOM     17  N   UNL A   1      32.557  21.128  25.801  1.00  0.00    -0.333 N 
ATOM     18  H   UNL A   1      31.597  21.088  26.013  1.00  0.00     0.165 HD
BRANCH  17  19
ATOM     19  C   UNL A   1      33.063  20.026  25.016  1.00  0.00     0.112 C 
ATOM     20  C   UNL A   1      32.739  18.682  25.631  1.00  0.00     0.056 C 
ATOM     21  C   UNL A   1      32.529  19.879  23.592  1.00  0.00     0.185 C 
ATOM     22  C   UNL A   1      32.931  17.771  24.444  1.00  0.00     0.162 C 
ATOM     23  O   UNL A   1      32.315  18.477  23.359  1.00  0.00    -0.379 OA
ENDBRANCH  17  19
ENDBRANCH   5  13
ENDBRANCH   3   5
ENDBRANCH   2   3
ENDBRANCH   1   2
BRANCH   1  24
ATOM     24  C   UNL A   1      38.954  20.655  25.480  1.00  0.00     0.275 C 
BRANCH  24  25
ATOM     25  O   UNL A   1      39.774  20.680  26.655  1.00  0.00    -0.458 OA
BRANCH  25  26
ATOM     26  C   UNL A   1      41.048  20.280  26.448  1.00  0.00     0.338 C 
ATOM     27  O   UNL A   1      41.421  19.193  26.026  1.00  0.00    -0.246 OA
BRANCH  26  28
ATOM     28  C   UNL A   1      41.938  21.442  26.566  1.00  0.00     0.060 A 
ATOM     29  C   UNL A   1      42.286  21.842  27.863  1.00  0.00     0.016 A 
ATOM     30  C   UNL A   1      42.429  22.123  25.448  1.00  0.00     0.016 A 
ATOM     31  C   UNL A   1      43.115  22.933  28.054  1.00  0.00     0.010 A 
ATOM     32  C   UNL A   1      43.237  23.241  25.641  1.00  0.00     0.010 A 
ATOM     33  C   UNL A   1      43.553  23.662  26.945  1.00  0.00    -0.014 A 
BRANCH  33  34
ATOM     34  C   UNL A   1      44.153  24.986  27.180  1.00  0.00     0.031 A 
ATOM     35  C   UNL A   1      43.258  26.080  27.683  1.00  0.00     0.074 A 
ATOM     36  C   UNL A   1      45.475  25.169  27.028  1.00  0.00     0.049 A 
ATOM     37  N   UNL A   1      43.549  27.320  27.967  1.00  0.00    -0.248 NA
ATOM     38  C   UNL A   1      41.845  25.724  27.905  1.00  0.00     0.031 C 
ATOM     39  C   UNL A   1      46.432  24.138  26.624  1.00  0.00     0.029 A 
ATOM     40  N   UNL A   1      46.239  26.289  27.210  1.00  0.00    -0.354 N 
ATOM     41  C   UNL A   1      42.357  27.895  28.390  1.00  0.00     0.074 A 
ATOM     42  C   UNL A   1      41.335  26.877  28.306  1.00  0.00     0.031 C 
ATOM     43  C   UNL A   1      47.662  24.679  26.585  1.00  0.00     0.029 A 
ATOM     44  C   UNL A   1      47.568  26.098  26.921  1.00  0.00     0.049 A 
ATOM     45  H   UNL A   1      45.872  27.149  27.517  1.00  0.00     0.167 HD
ATOM     46  C   UNL A   1      42.139  29.162  28.811  1.00  0.00     0.031 A 
ATOM     47  C   UNL A   1      48.583  26.983  26.909  1.00  0.00     0.031 A 
ATOM     48  C   UNL A   1      43.167  30.165  28.863  1.00  0.00     0.049 A 
ATOM     49  C   UNL A   1      48.295  28.410  27.294  1.00  0.00     0.074 A 
ATOM     50  C   UNL A   1      43.063  31.487  29.253  1.00  0.00     0.029 A 
ATOM     51  N   UNL A   1      44.491  29.954  28.504  1.00  0.00    -0.354 N 
ATOM     52  N   UNL A   1      47.162  28.948  27.683  1.00  0.00    -0.248 NA
ATOM     53  C   UNL A   1      49.424  29.347  27.244  1.00  0.00     0.031 C 
ATOM     54  C   UNL A   1      44.311  32.091  29.071  1.00  0.00     0.029 A 
ATOM     55  C   UNL A   1      45.210  31.128  28.637  1.00  0.00     0.049 A 
ATOM     56  H   UNL A   1      44.864  29.095  28.199  1.00  0.00     0.167 HD
ATOM     57  C   UNL A   1      47.447  30.284  27.949  1.00  0.00     0.074 A 
ATOM     58  C   UNL A   1      48.864  30.461  27.696  1.00  0.00     0.031 C 
ATOM     59  C   UNL A   1      46.618  31.275  28.365  1.00  0.00     0.031 A 
BRANCH  46  60
ATOM     60  C   UNL A   1      40.730  29.535  29.184  1.00  0.00    -0.014 A 
ATOM     61  C   UNL A   1      39.716  29.644  28.214  1.00  0.00     0.010 A 
ATOM     62  C   UNL A   1      40.412  29.773  30.534  1.00  0.00     0.010 A 
ATOM     63  C   UNL A   1      38.420  30.021  28.583  1.00  0.00     0.020 A 
ATOM     64  C   UNL A   1      39.112  30.120  30.910  1.00  0.00     0.020 A 
ATOM     65  C   UNL A   1      38.128  30.257  29.930  1.00  0.00     0.054 A 
BRANCH  65  66
ATOM     66  S   UNL A   1      36.435  30.722  30.383  1.00  0.00     0.124 S 
ATOM     67  O   UNL A   1      36.074  29.665  31.325  1.00  0.00    -0.237 OA
ATOM     68  O   UNL A   1      36.614  32.049  30.966  1.00  0.00    -0.237 OA
ATOM     69  O   UNL A   1      35.715  30.695  29.112  1.00  0.00    -0.744 OA
ENDBRANCH  65  66
ENDBRANCH  46  60
BRANCH  47  70
ATOM     70  C   UNL A   1      49.946  26.551  26.491  1.00  0.00    -0.014 A 
ATOM     71  C   UNL A   1      50.359  26.656  25.152  1.00  0.00     0.010 A 
ATOM     72  C   UNL A   1      50.843  26.029  27.442  1.00  0.00     0.010 A 
ATOM     73  C   UNL A   1      51.634  26.228  24.768  1.00  0.00     0.020 A 
ATOM     74  C   UNL A   1      52.128  25.628  27.069  1.00  0.00     0.020 A 
ATOM     75  C   UNL A   1      52.511  25.718  25.731  1.00  0.00     0.054 A 
BRANCH  75  76
ATOM     76  S   UNL A   1      54.173  25.205  25.216  1.00  0.00     0.124 S 
ATOM     77  O   UNL A   1      54.963  25.496  26.409  1.00  0.00    -0.237 OA
ATOM     78  O   UNL A   1      53.986  23.789  24.912  1.00  0.00    -0.237 OA
ATOM     79  O   UNL A   1      54.451  26.054  24.060  1.00  0.00    -0.744 OA
ENDBRANCH  75  76
ENDBRANCH  47  70
BRANCH  59  80
ATOM     80  C   UNL A   1      47.237  32.628  28.600  1.00  0.00    -0.014 A 
ATOM     81  C   UNL A   1      47.275  33.601  27.587  1.00  0.00     0.010 A 
ATOM     82  C   UNL A   1      47.759  32.936  29.870  1.00  0.00     0.010 A 
ATOM     83  C   UNL A   1      47.871  34.842  27.825  1.00  0.00     0.020 A 
ATOM     84  C   UNL A   1      48.324  34.189  30.121  1.00  0.00     0.020 A 
ATOM     85  C   UNL A   1      48.396  35.125  29.090  1.00  0.00     0.054 A 
BRANCH  85  86
ATOM     86  S   UNL A   1      49.152  36.748  29.378  1.00  0.00     0.124 S 
ATOM     87  O   UNL A   1      50.530  36.388  29.695  1.00  0.00    -0.237 OA
ATOM     88  O   UNL A   1      48.957  37.424  28.097  1.00  0.00    -0.237 OA
ATOM     89  O   UNL A   1      48.379  37.298  30.489  1.00  0.00    -0.744 OA
ENDBRANCH  85  86
ENDBRANCH  59  80
ENDBRANCH  33  34
ENDBRANCH  26  28
ENDBRANCH  25  26
ENDBRANCH  24  25
ENDBRANCH   1  24
TORSDOF 19
ENDMDL
MODEL 3
REMARK VINA RESULT:      -9.7      4.802      6.074
REMARK SMILES NC(=O)CC[C@H](NC(=O)N[C@H]1CCOC1)C(=O)OCCOC(=O)c1ccc(-c2c3nc(c(-c4ccc(S(=O)(=O)[O-])cc4)c4ccc([nH]4)c(-c4ccc(S(=O)(=O)[O-])cc4)c4nc(c(-c5ccc(S(=O)(=O)[O-])cc5)c5ccc2[nH]5)C=C4)C=C3)cc1
REMARK SMILES IDX 19 1 18 2 16 3 17 4 6 5 5 6 4 7 2 8 1 9 3 12 7 13 8 14 9 16
REMARK SMILES IDX 10 17 11 19 12 20 15 21 13 22 14 23 20 24 21 25 22 26 23 27
REMARK SMILES IDX 24 28 25 29 83 30 26 31 82 32 27 33 28 34 29 35 76 36 30 37
REMARK SMILES IDX 81 38 75 39 77 40 31 41 80 42 74 43 73 44 32 46 62 47 43 48
REMARK SMILES IDX 61 49 44 50 47 51 60 52 78 53 45 54 46 55 59 57 79 58 48 59
REMARK SMILES IDX 33 60 34 61 42 62 35 63 41 64 36 65 37 66 38 67 39 68 40 69
REMARK SMILES IDX 63 70 64 71 72 72 65 73 71 74 66 75 67 76 68 77 69 78 70 79
REMARK SMILES IDX 49 80 50 81 58 82 51 83 57 84 52 85 53 86 54 87 55 88 56 89
REMARK H PARENT 1 10 1 11 7 15 10 18 77 45 47 56
REMARK Flexibility Score: inf
ROOT
ATOM      1  C   UNL A   1      35.718  22.406  24.638  1.00  0.00     0.274 C 
ENDROOT
BRANCH   1   2
ATOM      2  O   UNL A   1      35.219  22.942  23.398  1.00  0.00    -0.461 OA
BRANCH   2   3
ATOM      3  C   UNL A   1      34.348  23.992  23.431  1.00  0.00     0.328 C 
ATOM      4  O   UNL A   1      34.261  24.848  22.562  1.00  0.00    -0.250 OA
BRANCH   3   5
ATOM      5  C   UNL A   1      33.413  23.909  24.657  1.00  0.00     0.194 C 
BRANCH   5   6
ATOM      6  C   UNL A   1      31.995  23.279  24.556  1.00  0.00     0.047 C 
BRANCH   6   7
ATOM      7  C   UNL A   1      31.313  22.476  25.667  1.00  0.00     0.102 C 
BRANCH   7   8
ATOM      8  C   UNL A   1      30.424  23.149  26.697  1.00  0.00     0.217 C 
ATOM      9  N   UNL A   1      29.311  22.522  27.135  1.00  0.00    -0.370 N 
ATOM     10  H   UNL A   1      28.732  22.955  27.802  1.00  0.00     0.159 HD
ATOM     11  H   UNL A   1      29.079  21.631  26.786  1.00  0.00     0.159 HD
ATOM     12  O   UNL A   1      30.725  24.248  27.160  1.00  0.00    -0.275 OA
ENDBRANCH   7   8
ENDBRANCH   6   7
ENDBRANCH   5   6
BRANCH   5  13
ATOM     13  N   UNL A   1      33.578  24.971  25.660  1.00  0.00    -0.325 N 
ATOM     14  C   UNL A   1      33.536  26.312  25.563  1.00  0.00     0.315 C 
ATOM     15  H   UNL A   1      33.752  24.639  26.571  1.00  0.00     0.166 HD
ATOM     16  O   UNL A   1      34.147  26.980  26.396  1.00  0.00    -0.249 OA
ATOM     17  N   UNL A   1      32.903  26.951  24.563  1.00  0.00    -0.333 N 
ATOM     18  H   UNL A   1      33.293  27.816  24.302  1.00  0.00     0.165 HD
BRANCH  17  19
ATOM     19  C   UNL A   1      31.732  26.551  23.818  1.00  0.00     0.112 C 
ATOM     20  C   UNL A   1      30.451  26.779  24.591  1.00  0.00     0.056 C 
ATOM     21  C   UNL A   1      31.460  27.275  22.501  1.00  0.00     0.185 C 
ATOM     22  C   UNL A   1      29.435  26.747  23.476  1.00  0.00     0.162 C 
ATOM     23  O   UNL A   1      30.044  27.511  22.427  1.00  0.00    -0.379 OA
ENDBRANCH  17  19
ENDBRANCH   5  13
ENDBRANCH   3   5
ENDBRANCH   2   3
ENDBRANCH   1   2
BRANCH   1  24
ATOM     24  C   UNL A   1      37.244  22.397  24.708  1.00  0.00     0.275 C 
BRANCH  24  25
ATOM     25  O   UNL A   1      37.674  22.507  26.070  1.00  0.00    -0.458 OA
BRANCH  25  26
ATOM     26  C   UNL A   1      39.013  22.611  26.219  1.00  0.00     0.338 C 
ATOM     27  O   UNL A   1      39.867  21.858  25.770  1.00  0.00    -0.246 OA
BRANCH  26  28
ATOM     28  C   UNL A   1      39.327  23.923  26.802  1.00  0.00     0.060 A 
ATOM     29  C   UNL A   1      39.979  24.843  25.971  1.00  0.00     0.016 A 
ATOM     30  C   UNL A   1      38.991  24.255  28.117  1.00  0.00     0.016 A 
ATOM     31  C   UNL A   1      40.314  26.096  26.451  1.00  0.00     0.010 A 
ATOM     32  C   UNL A   1      39.357  25.505  28.612  1.00  0.00     0.010 A 
ATOM     33  C   UNL A   1      40.045  26.411  27.786  1.00  0.00    -0.014 A 
BRANCH  33  34
ATOM     34  C   UNL A   1      40.691  27.605  28.359  1.00  0.00     0.031 A 
ATOM     35  C   UNL A   1      42.191  27.643  28.389  1.00  0.00     0.074 A 
ATOM     36  C   UNL A   1      39.951  28.652  28.756  1.00  0.00     0.049 A 
ATOM     37  N   UNL A   1      42.985  28.577  28.836  1.00  0.00    -0.248 NA
ATOM     38  C   UNL A   1      42.889  26.470  27.830  1.00  0.00     0.031 C 
ATOM     39  C   UNL A   1      38.491  28.734  28.684  1.00  0.00     0.029 A 
ATOM     40  N   UNL A   1      40.332  29.853  29.289  1.00  0.00    -0.354 N 
ATOM     41  C   UNL A   1      44.274  28.103  28.623  1.00  0.00     0.074 A 
ATOM     42  C   UNL A   1      44.158  26.792  28.027  1.00  0.00     0.031 C 
ATOM     43  C   UNL A   1      38.099  29.928  29.162  1.00  0.00     0.029 A 
ATOM     44  C   UNL A   1      39.275  30.671  29.607  1.00  0.00     0.049 A 
ATOM     45  H   UNL A   1      41.272  30.106  29.432  1.00  0.00     0.167 HD
ATOM     46  C   UNL A   1      45.448  28.713  28.902  1.00  0.00     0.031 A 
ATOM     47  C   UNL A   1      39.269  31.874  30.213  1.00  0.00     0.031 A 
ATOM     48  C   UNL A   1      45.539  30.009  29.517  1.00  0.00     0.049 A 
ATOM     49  C   UNL A   1      40.588  32.491  30.597  1.00  0.00     0.074 A 
ATOM     50  C   UNL A   1      46.672  30.720  29.866  1.00  0.00     0.029 A 
ATOM     51  N   UNL A   1      44.448  30.784  29.884  1.00  0.00    -0.354 N 
ATOM     52  N   UNL A   1      41.803  32.032  30.401  1.00  0.00    -0.248 NA
ATOM     53  C   UNL A   1      40.536  33.790  31.278  1.00  0.00     0.031 C 
ATOM     54  C   UNL A   1      46.264  31.899  30.499  1.00  0.00     0.029 A 
ATOM     55  C   UNL A   1      44.879  31.955  30.480  1.00  0.00     0.049 A 
ATOM     56  H   UNL A   1      43.505  30.537  29.741  1.00  0.00     0.167 HD
ATOM     57  C   UNL A   1      42.662  32.999  30.913  1.00  0.00     0.074 A 
ATOM     58  C   UNL A   1      41.824  34.076  31.405  1.00  0.00     0.031 C 
ATOM     59  C   UNL A   1      44.018  33.002  30.971  1.00  0.00     0.031 A 
BRANCH  46  60
ATOM     60  C   UNL A   1      46.712  27.954  28.597  1.00  0.00    -0.014 A 
ATOM     61  C   UNL A   1      47.259  27.037  29.513  1.00  0.00     0.010 A 
ATOM     62  C   UNL A   1      47.360  28.158  27.365  1.00  0.00     0.010 A 
ATOM     63  C   UNL A   1      48.450  26.366  29.218  1.00  0.00     0.020 A 
ATOM     64  C   UNL A   1      48.534  27.468  27.054  1.00  0.00     0.020 A 
ATOM     65  C   UNL A   1      49.080  26.588  27.989  1.00  0.00     0.054 A 
BRANCH  65  66
ATOM     66  S   UNL A   1      50.611  25.688  27.623  1.00  0.00     0.124 S 
ATOM     67  O   UNL A   1      50.963  26.215  26.306  1.00  0.00    -0.237 OA
ATOM     68  O   UNL A   1      51.489  26.094  28.717  1.00  0.00    -0.237 OA
ATOM     69  O   UNL A   1      50.203  24.285  27.643  1.00  0.00    -0.744 OA
ENDBRANCH  65  66
ENDBRANCH  46  60
BRANCH  47  70
ATOM     70  C   UNL A   1      37.978  32.549  30.520  1.00  0.00    -0.014 A 
ATOM     71  C   UNL A   1      37.313  32.321  31.736  1.00  0.00     0.010 A 
ATOM     72  C   UNL A   1      37.405  33.432  29.584  1.00  0.00     0.010 A 
ATOM     73  C   UNL A   1      36.090  32.946  32.003  1.00  0.00     0.020 A 
ATOM     74  C   UNL A   1      36.199  34.081  29.859  1.00  0.00     0.020 A 
ATOM     75  C   UNL A   1      35.542  33.824  31.063  1.00  0.00     0.054 A 
BRANCH  75  76
ATOM     76  S   UNL A   1      33.974  34.652  31.447  1.00  0.00     0.124 S 
ATOM     77  O   UNL A   1      33.226  34.477  30.206  1.00  0.00    -0.237 OA
ATOM     78  O   UNL A   1      33.487  33.888  32.592  1.00  0.00    -0.237 OA
ATOM     79  O   UNL A   1      34.377  36.025  31.746  1.00  0.00    -0.744 OA
ENDBRANCH  75  76
ENDBRANCH  47  70
BRANCH  59  80
ATOM     80  C   UNL A   1      44.673  34.224  31.561  1.00  0.00    -0.014 A 
ATOM     81  C   UNL A   1      44.998  35.336  30.765  1.00  0.00     0.010 A 
ATOM     82  C   UNL A   1      44.935  34.267  32.944  1.00  0.00     0.010 A 
ATOM     83  C   UNL A   1      45.622  36.449  31.334  1.00  0.00     0.020 A 
ATOM     84  C   UNL A   1      45.526  35.393  33.520  1.00  0.00     0.020 A 
ATOM     85  C   UNL A   1      45.886  36.467  32.707  1.00  0.00     0.054 A 
BRANCH  85  86
ATOM     86  S   UNL A   1      46.683  37.931  33.423  1.00  0.00     0.124 S 
ATOM     87  O   UNL A   1      46.264  38.984  32.504  1.00  0.00    -0.237 OA
ATOM     88  O   UNL A   1      46.098  37.992  34.761  1.00  0.00    -0.237 OA
ATOM     89  O   UNL A   1      48.106  37.602  33.387  1.00  0.00    -0.744 OA
ENDBRANCH  85  86
ENDBRANCH  59  80
ENDBRANCH  33  34
ENDBRANCH  26  28
ENDBRANCH  25  26
ENDBRANCH  24  25
ENDBRANCH   1  24
TORSDOF 19
ENDMDL
