MODEL 1
REMARK VINA RESULT:      -9.3      0.000      0.000
REMARK SMILES O=C(COC[C@@H]1CCCCO1)OCCOC(=O)c1ccc(-c2c3nc(c(-c4ccc(S(=O)(=O)[O-])cc4)c4ccc([nH]4)c(-c4ccc(S(=O)(=O)[O-])cc4)c4nc(c(-c5ccc(S(=O)(=O)[O-])cc5)c5ccc2[nH]5)C=C4)C=C3)cc1
REMARK SMILES IDX 13 1 12 2 2 3 1 4 3 5 4 6 5 7 6 8 7 9 11 10 8 11 10 12 9 13
REMARK SMILES IDX 14 14 15 15 16 16 17 17 18 18 19 19 77 20 20 21 76 22 21 23
REMARK SMILES IDX 22 24 23 25 70 26 24 27 75 28 69 29 71 30 25 31 74 32 68 33
REMARK SMILES IDX 67 34 26 36 56 37 37 38 55 39 38 40 41 41 54 42 72 43 39 44
REMARK SMILES IDX 40 45 53 47 73 48 42 49 27 50 28 51 36 52 29 53 35 54 30 55
REMARK SMILES IDX 31 56 32 57 33 58 34 59 57 60 58 61 66 62 59 63 65 64 60 65
REMARK SMILES IDX 61 66 62 67 63 68 64 69 43 70 44 71 52 72 45 73 51 74 46 75
REMARK SMILES IDX 47 76 48 77 49 78 50 79
REMARK H PARENT 71 35 41 46
REMARK Flexibility Score: inf
ROOT
ATOM      1  C   UNL A   1      40.993  19.909  26.736  1.00  0.00     0.274 C 
ENDROOT
BRANCH   1   2
ATOM      2  O   UNL A   1      42.179  19.920  25.921  1.00  0.00    -0.460 OA
BRANCH   2   3
ATOM      3  C   UNL A   1      42.903  18.821  25.590  1.00  0.00     0.332 C 
ATOM      4  O   UNL A   1      42.488  17.711  25.917  1.00  0.00    -0.250 OA
BRANCH   3   5
ATOM      5  C   UNL A   1      44.281  19.027  24.930  1.00  0.00     0.282 C 
BRANCH   5   6
ATOM      6  O   UNL A   1      44.567  20.054  23.997  1.00  0.00    -0.367 OA
BRANCH   6   7
ATOM      7  C   UNL A   1      45.433  21.111  24.400  1.00  0.00     0.193 C 
BRANCH   7   8
ATOM      8  C   UNL A   1      45.109  22.534  23.897  1.00  0.00     0.144 C 
ATOM      9  C   UNL A   1      45.924  23.687  24.473  1.00  0.00     0.034 C 
ATOM     10  O   UNL A   1      43.702  22.816  23.986  1.00  0.00    -0.376 OA
ATOM     11  C   UNL A   1      45.435  24.116  25.856  1.00  0.00     0.005 C 
ATOM     12  C   UNL A   1      43.230  23.126  25.296  1.00  0.00     0.160 C 
ATOM     13  C   UNL A   1      43.936  24.349  25.844  1.00  0.00     0.029 C 
ENDBRANCH   7   8
ENDBRANCH   6   7
ENDBRANCH   5   6
ENDBRANCH   3   5
ENDBRANCH   2   3
ENDBRANCH   1   2
BRANCH   1  14
ATOM     14  C   UNL A   1      39.866  20.754  26.140  1.00  0.00     0.275 C 
BRANCH  14  15
ATOM     15  O   UNL A   1      40.149  22.169  26.137  1.00  0.00    -0.458 OA
BRANCH  15  16
ATOM     16  C   UNL A   1      39.056  22.980  26.248  1.00  0.00     0.338 C 
ATOM     17  O   UNL A   1      37.925  22.696  25.906  1.00  0.00    -0.246 OA
BRANCH  16  18
ATOM     18  C   UNL A   1      39.399  24.270  26.910  1.00  0.00     0.060 A 
ATOM     19  C   UNL A   1      40.254  25.155  26.236  1.00  0.00     0.016 A 
ATOM     20  C   UNL A   1      38.947  24.601  28.191  1.00  0.00     0.016 A 
ATOM     21  C   UNL A   1      40.642  26.369  26.827  1.00  0.00     0.010 A 
ATOM     22  C   UNL A   1      39.342  25.812  28.783  1.00  0.00     0.010 A 
ATOM     23  C   UNL A   1      40.194  26.711  28.110  1.00  0.00    -0.014 A 
BRANCH  23  24
ATOM     24  C   UNL A   1      40.646  27.962  28.787  1.00  0.00     0.031 A 
ATOM     25  C   UNL A   1      41.961  27.980  29.509  1.00  0.00     0.074 A 
ATOM     26  C   UNL A   1      39.899  29.085  28.801  1.00  0.00     0.049 A 
ATOM     27  N   UNL A   1      42.524  28.971  30.149  1.00  0.00    -0.248 NA
ATOM     28  C   UNL A   1      42.760  26.748  29.468  1.00  0.00     0.031 C 
ATOM     29  C   UNL A   1      38.669  29.282  28.053  1.00  0.00     0.029 A 
ATOM     30  N   UNL A   1      40.041  30.264  29.496  1.00  0.00    -0.354 N 
ATOM     31  C   UNL A   1      43.776  28.512  30.523  1.00  0.00     0.074 A 
ATOM     32  C   UNL A   1      43.853  27.122  30.120  1.00  0.00     0.031 C 
ATOM     33  C   UNL A   1      38.091  30.436  28.425  1.00  0.00     0.029 A 
ATOM     34  C   UNL A   1      38.943  31.092  29.405  1.00  0.00     0.049 A 
ATOM     35  H   UNL A   1      40.849  30.493  30.010  1.00  0.00     0.167 HD
ATOM     36  C   UNL A   1      44.789  29.201  31.098  1.00  0.00     0.031 A 
ATOM     37  C   UNL A   1      38.645  32.250  30.024  1.00  0.00     0.031 A 
ATOM     38  C   UNL A   1      44.700  30.565  31.545  1.00  0.00     0.049 A 
ATOM     39  C   UNL A   1      39.704  32.919  30.851  1.00  0.00     0.074 A 
ATOM     40  C   UNL A   1      45.689  31.349  32.116  1.00  0.00     0.029 A 
ATOM     41  N   UNL A   1      43.555  31.345  31.500  1.00  0.00    -0.354 N 
ATOM     42  N   UNL A   1      40.921  32.504  31.107  1.00  0.00    -0.248 NA
ATOM     43  C   UNL A   1      39.385  34.242  31.403  1.00  0.00     0.031 C 
ATOM     44  C   UNL A   1      45.124  32.578  32.474  1.00  0.00     0.029 A 
ATOM     45  C   UNL A   1      43.798  32.582  32.076  1.00  0.00     0.049 A 
ATOM     46  H   UNL A   1      42.694  31.061  31.115  1.00  0.00     0.167 HD
ATOM     47  C   UNL A   1      41.539  33.549  31.783  1.00  0.00     0.074 A 
ATOM     48  C   UNL A   1      40.553  34.603  31.917  1.00  0.00     0.031 C 
ATOM     49  C   UNL A   1      42.819  33.632  32.218  1.00  0.00     0.031 A 
BRANCH  36  50
ATOM     50  C   UNL A   1      46.089  28.471  31.265  1.00  0.00    -0.014 A 
ATOM     51  C   UNL A   1      47.037  28.460  30.224  1.00  0.00     0.010 A 
ATOM     52  C   UNL A   1      46.377  27.806  32.468  1.00  0.00     0.010 A 
ATOM     53  C   UNL A   1      48.236  27.760  30.370  1.00  0.00     0.020 A 
ATOM     54  C   UNL A   1      47.585  27.124  32.625  1.00  0.00     0.020 A 
ATOM     55  C   UNL A   1      48.499  27.091  31.568  1.00  0.00     0.054 A 
BRANCH  55  56
ATOM     56  S   UNL A   1      50.066  26.194  31.733  1.00  0.00     0.124 S 
ATOM     57  O   UNL A   1      50.607  26.286  30.380  1.00  0.00    -0.237 OA
ATOM     58  O   UNL A   1      50.774  26.971  32.747  1.00  0.00    -0.237 OA
ATOM     59  O   UNL A   1      49.656  24.855  32.151  1.00  0.00    -0.744 OA
ENDBRANCH  55  56
ENDBRANCH  36  50
BRANCH  37  60
ATOM     60  C   UNL A   1      37.305  32.878  29.853  1.00  0.00    -0.014 A 
ATOM     61  C   UNL A   1      36.996  33.627  28.705  1.00  0.00     0.010 A 
ATOM     62  C   UNL A   1      36.335  32.749  30.866  1.00  0.00     0.010 A 
ATOM     63  C   UNL A   1      35.756  34.263  28.586  1.00  0.00     0.020 A 
ATOM     64  C   UNL A   1      35.086  33.370  30.743  1.00  0.00     0.020 A 
ATOM     65  C   UNL A   1      34.811  34.135  29.608  1.00  0.00     0.054 A 
BRANCH  65  66
ATOM     66  S   UNL A   1      33.205  34.964  29.423  1.00  0.00     0.124 S 
ATOM     67  O   UNL A   1      32.554  34.139  28.409  1.00  0.00    -0.237 OA
ATOM     68  O   UNL A   1      32.646  34.872  30.768  1.00  0.00    -0.237 OA
ATOM     69  O   UNL A   1      33.564  36.314  28.994  1.00  0.00    -0.744 OA
ENDBRANCH  65  66
ENDBRANCH  37  60
BRANCH  49  70
ATOM     70  C   UNL A   1      43.251  34.930  32.846  1.00  0.00    -0.014 A 
ATOM     71  C   UNL A   1      43.094  35.165  34.223  1.00  0.00     0.010 A 
ATOM     72  C   UNL A   1      43.854  35.918  32.046  1.00  0.00     0.010 A 
ATOM     73  C   UNL A   1      43.501  36.378  34.783  1.00  0.00     0.020 A 
ATOM     74  C   UNL A   1      44.288  37.121  32.607  1.00  0.00     0.020 A 
ATOM     75  C   UNL A   1      44.095  37.351  33.971  1.00  0.00     0.054 A 
BRANCH  75  76
ATOM     76  S   UNL A   1      44.652  38.901  34.728  1.00  0.00     0.124 S 
ATOM     77  O   UNL A   1      44.656  38.562  36.148  1.00  0.00    -0.237 OA
ATOM     78  O   UNL A   1      45.967  39.100  34.126  1.00  0.00    -0.237 OA
ATOM     79  O   UNL A   1      43.635  39.869  34.321  1.00  0.00    -0.744 OA
ENDBRANCH  75  76
ENDBRANCH  49  70
ENDBRANCH  23  24
ENDBRANCH  16  18
ENDBRANCH  15  16
ENDBRANCH  14  15
ENDBRANCH   1  14
TORSDOF 17
ENDMDL
MODEL 2
REMARK VINA RESULT:      -9.1      2.048      2.697
REMARK SMILES O=C(COC[C@@H]1CCCCO1)OCCOC(=O)c1ccc(-c2c3nc(c(-c4ccc(S(=O)(=O)[O-])cc4)c4ccc([nH]4)c(-c4ccc(S(=O)(=O)[O-])cc4)c4nc(c(-c5ccc(S(=O)(=O)[O-])cc5)c5ccc2[nH]5)C=C4)C=C3)cc1
REMARK SMILES IDX 13 1 12 2 2 3 1 4 3 5 4 6 5 7 6 8 7 9 11 10 8 11 10 12 9 13
REMARK SMILES IDX 14 14 15 15 16 16 17 17 18 18 19 19 77 20 20 21 76 22 21 23
REMARK SMILES IDX 22 24 23 25 70 26 24 27 75 28 69 29 71 30 25 31 74 32 68 33
REMARK SMILES IDX 67 34 26 36 56 37 37 38 55 39 38 40 41 41 54 42 72 43 39 44
REMARK SMILES IDX 40 45 53 47 73 48 42 49 27 50 28 51 36 52 29 53 35 54 30 55
REMARK SMILES IDX 31 56 32 57 33 58 34 59 57 60 58 61 66 62 59 63 65 64 60 65
REMARK SMILES IDX 61 66 62 67 63 68 64 69 43 70 44 71 52 72 45 73 51 74 46 75
REMARK SMILES IDX 47 76 48 77 49 78 50 79
REMARK H PARENT 71 35 41 46
REMARK Flexibility Score: inf
ROOT
ATOM      1  C   UNL A   1      40.981  19.695  26.433  1.00  0.00     0.274 C 
ENDROOT
BRANCH   1   2
ATOM      2  O   UNL A   1      41.951  19.399  25.412  1.00  0.00    -0.460 OA
BRANCH   2   3
ATOM      3  C   UNL A   1      43.107  18.718  25.614  1.00  0.00     0.332 C 
ATOM      4  O   UNL A   1      43.110  17.760  26.384  1.00  0.00    -0.250 OA
BRANCH   3   5
ATOM      5  C   UNL A   1      44.396  19.258  24.962  1.00  0.00     0.282 C 
BRANCH   5   6
ATOM      6  O   UNL A   1      44.563  20.597  24.528  1.00  0.00    -0.367 OA
BRANCH   6   7
ATOM      7  C   UNL A   1      45.724  21.305  24.952  1.00  0.00     0.193 C 
BRANCH   7   8
ATOM      8  C   UNL A   1      45.544  22.396  26.029  1.00  0.00     0.144 C 
ATOM      9  C   UNL A   1      44.214  23.141  26.061  1.00  0.00     0.034 C 
ATOM     10  O   UNL A   1      46.643  23.324  26.027  1.00  0.00    -0.376 OA
ATOM     11  C   UNL A   1      44.134  24.240  25.001  1.00  0.00     0.005 C 
ATOM     12  C   UNL A   1      46.613  24.292  24.981  1.00  0.00     0.160 C 
ATOM     13  C   UNL A   1      45.357  25.134  25.065  1.00  0.00     0.029 C 
ENDBRANCH   7   8
ENDBRANCH   6   7
ENDBRANCH   5   6
ENDBRANCH   3   5
ENDBRANCH   2   3
ENDBRANCH   1   2
BRANCH   1  14
ATOM     14  C   UNL A   1      39.920  20.689  25.961  1.00  0.00     0.275 C 
BRANCH  14  15
ATOM     15  O   UNL A   1      39.666  21.750  26.906  1.00  0.00    -0.458 OA
BRANCH  15  16
ATOM     16  C   UNL A   1      38.910  22.783  26.430  1.00  0.00     0.338 C 
ATOM     17  O   UNL A   1      37.904  22.672  25.757  1.00  0.00    -0.246 OA
BRANCH  16  18
ATOM     18  C   UNL A   1      39.433  24.100  26.889  1.00  0.00     0.060 A 
ATOM     19  C   UNL A   1      40.168  24.875  25.980  1.00  0.00     0.016 A 
ATOM     20  C   UNL A   1      39.265  24.560  28.198  1.00  0.00     0.016 A 
ATOM     21  C   UNL A   1      40.719  26.108  26.368  1.00  0.00     0.010 A 
ATOM     22  C   UNL A   1      39.822  25.791  28.586  1.00  0.00     0.010 A 
ATOM     23  C   UNL A   1      40.555  26.580  27.677  1.00  0.00    -0.014 A 
BRANCH  23  24
ATOM     24  C   UNL A   1      41.187  27.853  28.132  1.00  0.00     0.031 A 
ATOM     25  C   UNL A   1      42.681  27.946  28.229  1.00  0.00     0.074 A 
ATOM     26  C   UNL A   1      40.459  28.930  28.494  1.00  0.00     0.049 A 
ATOM     27  N   UNL A   1      43.411  28.966  28.597  1.00  0.00    -0.248 NA
ATOM     28  C   UNL A   1      43.450  26.762  27.819  1.00  0.00     0.031 C 
ATOM     29  C   UNL A   1      39.020  29.057  28.344  1.00  0.00     0.029 A 
ATOM     30  N   UNL A   1      40.822  30.113  29.096  1.00  0.00    -0.354 N 
ATOM     31  C   UNL A   1      44.725  28.580  28.391  1.00  0.00     0.074 A 
ATOM     32  C   UNL A   1      44.695  27.198  27.956  1.00  0.00     0.031 C 
ATOM     33  C   UNL A   1      38.596  30.174  28.958  1.00  0.00     0.029 A 
ATOM     34  C   UNL A   1      39.748  30.875  29.501  1.00  0.00     0.049 A 
ATOM     35  H   UNL A   1      41.759  30.388  29.224  1.00  0.00     0.167 HD
ATOM     36  C   UNL A   1      45.849  29.325  28.502  1.00  0.00     0.031 A 
ATOM     37  C   UNL A   1      39.682  32.012  30.220  1.00  0.00     0.031 A 
ATOM     38  C   UNL A   1      45.888  30.681  28.981  1.00  0.00     0.049 A 
ATOM     39  C   UNL A   1      40.957  32.739  30.538  1.00  0.00     0.074 A 
ATOM     40  C   UNL A   1      46.984  31.519  29.101  1.00  0.00     0.029 A 
ATOM     41  N   UNL A   1      44.793  31.392  29.448  1.00  0.00    -0.354 N 
ATOM     42  N   UNL A   1      42.187  32.396  30.242  1.00  0.00    -0.248 NA
ATOM     43  C   UNL A   1      40.834  34.040  31.210  1.00  0.00     0.031 C 
ATOM     44  C   UNL A   1      46.562  32.712  29.699  1.00  0.00     0.029 A 
ATOM     45  C   UNL A   1      45.194  32.639  29.901  1.00  0.00     0.049 A 
ATOM     46  H   UNL A   1      43.867  31.059  29.457  1.00  0.00     0.167 HD
ATOM     47  C   UNL A   1      42.978  33.473  30.621  1.00  0.00     0.074 A 
ATOM     48  C   UNL A   1      42.089  34.467  31.190  1.00  0.00     0.031 C 
ATOM     49  C   UNL A   1      44.315  33.630  30.474  1.00  0.00     0.031 A 
BRANCH  36  50
ATOM     50  C   UNL A   1      47.132  28.672  28.081  1.00  0.00    -0.014 A 
ATOM     51  C   UNL A   1      47.884  27.919  29.003  1.00  0.00     0.010 A 
ATOM     52  C   UNL A   1      47.586  28.795  26.758  1.00  0.00     0.010 A 
ATOM     53  C   UNL A   1      49.090  27.333  28.617  1.00  0.00     0.020 A 
ATOM     54  C   UNL A   1      48.781  28.190  26.362  1.00  0.00     0.020 A 
ATOM     55  C   UNL A   1      49.534  27.478  27.300  1.00  0.00     0.054 A 
BRANCH  55  56
ATOM     56  S   UNL A   1      51.102  26.702  26.824  1.00  0.00     0.124 S 
ATOM     57  O   UNL A   1      50.715  25.951  25.632  1.00  0.00    -0.237 OA
ATOM     58  O   UNL A   1      51.970  27.853  26.587  1.00  0.00    -0.237 OA
ATOM     59  O   UNL A   1      51.452  25.888  27.986  1.00  0.00    -0.744 OA
ENDBRANCH  55  56
ENDBRANCH  36  50
BRANCH  37  60
ATOM     60  C   UNL A   1      38.367  32.561  30.651  1.00  0.00    -0.014 A 
ATOM     61  C   UNL A   1      37.851  32.290  31.929  1.00  0.00     0.010 A 
ATOM     62  C   UNL A   1      37.605  33.342  29.760  1.00  0.00     0.010 A 
ATOM     63  C   UNL A   1      36.586  32.760  32.298  1.00  0.00     0.020 A 
ATOM     64  C   UNL A   1      36.346  33.828  30.131  1.00  0.00     0.020 A 
ATOM     65  C   UNL A   1      35.839  33.521  31.395  1.00  0.00     0.054 A 
BRANCH  65  66
ATOM     66  S   UNL A   1      34.205  34.127  31.904  1.00  0.00     0.124 S 
ATOM     67  O   UNL A   1      33.563  34.388  30.618  1.00  0.00    -0.237 OA
ATOM     68  O   UNL A   1      33.671  32.998  32.659  1.00  0.00    -0.237 OA
ATOM     69  O   UNL A   1      34.512  35.313  32.701  1.00  0.00    -0.744 OA
ENDBRANCH  65  66
ENDBRANCH  37  60
BRANCH  49  70
ATOM     70  C   UNL A   1      44.906  34.948  30.895  1.00  0.00    -0.014 A 
ATOM     71  C   UNL A   1      45.411  35.143  32.192  1.00  0.00     0.010 A 
ATOM     72  C   UNL A   1      44.983  36.000  29.964  1.00  0.00     0.010 A 
ATOM     73  C   UNL A   1      45.953  36.378  32.560  1.00  0.00     0.020 A 
ATOM     74  C   UNL A   1      45.549  37.227  30.319  1.00  0.00     0.020 A 
ATOM     75  C   UNL A   1      46.017  37.413  31.621  1.00  0.00     0.054 A 
BRANCH  75  76
ATOM     76  S   UNL A   1      46.762  38.992  32.112  1.00  0.00     0.124 S 
ATOM     77  O   UNL A   1      46.824  39.707  30.840  1.00  0.00    -0.237 OA
ATOM     78  O   UNL A   1      45.801  39.515  33.080  1.00  0.00    -0.237 OA
ATOM     79  O   UNL A   1      48.054  38.606  32.673  1.00  0.00    -0.744 OA
ENDBRANCH  75  76
ENDBRANCH  49  70
ENDBRANCH  23  24
ENDBRANCH  16  18
ENDBRANCH  15  16
ENDBRANCH  14  15
ENDBRANCH   1  14
TORSDOF 17
ENDMDL
MODEL 3
REMARK VINA RESULT:      -8.9      4.356     11.440
REMARK SMILES O=C(COC[C@@H]1CCCCO1)OCCOC(=O)c1ccc(-c2c3nc(c(-c4ccc(S(=O)(=O)[O-])cc4)c4ccc([nH]4)c(-c4ccc(S(=O)(=O)[O-])cc4)c4nc(c(-c5ccc(S(=O)(=O)[O-])cc5)c5ccc2[nH]5)C=C4)C=C3)cc1
REMARK SMILES IDX 13 1 12 2 2 3 1 4 3 5 4 6 5 7 6 8 7 9 11 10 8 11 10 12 9 13
REMARK SMILES IDX 14 14 15 15 16 16 17 17 18 18 19 19 77 20 20 21 76 22 21 23
REMARK SMILES IDX 22 24 23 25 70 26 24 27 75 28 69 29 71 30 25 31 74 32 68 33
REMARK SMILES IDX 67 34 26 36 56 37 37 38 55 39 38 40 41 41 54 42 72 43 39 44
REMARK SMILES IDX 40 45 53 47 73 48 42 49 27 50 28 51 36 52 29 53 35 54 30 55
REMARK SMILES IDX 31 56 32 57 33 58 34 59 57 60 58 61 66 62 59 63 65 64 60 65
REMARK SMILES IDX 61 66 62 67 63 68 64 69 43 70 44 71 52 72 45 73 51 74 46 75
REMARK SMILES IDX 47 76 48 77 49 78 50 79
REMARK H PARENT 71 35 41 46
REMARK Flexibility Score: inf
ROOT
ATOM      1  C   UNL A   1      31.641  28.695  26.491  1.00  0.00     0.274 C 
ENDROOT
BRANCH   1   2
ATOM      2  O   UNL A   1      31.590  27.466  25.744  1.00  0.00    -0.460 OA
BRANCH   2   3
ATOM      3  C   UNL A   1      32.279  27.225  24.600  1.00  0.00     0.332 C 
ATOM      4  O   UNL A   1      33.454  26.871  24.672  1.00  0.00    -0.250 OA
BRANCH   3   5
ATOM      5  C   UNL A   1      31.589  27.530  23.255  1.00  0.00     0.282 C 
BRANCH   5   6
ATOM      6  O   UNL A   1      30.224  27.263  22.986  1.00  0.00    -0.367 OA
BRANCH   6   7
ATOM      7  C   UNL A   1      29.283  28.320  23.150  1.00  0.00     0.193 C 
BRANCH   7   8
ATOM      8  C   UNL A   1      29.774  29.761  22.889  1.00  0.00     0.144 C 
ATOM      9  C   UNL A   1      29.255  30.859  23.812  1.00  0.00     0.034 C 
ATOM     10  O   UNL A   1      29.598  30.135  21.512  1.00  0.00    -0.376 OA
ATOM     11  C   UNL A   1      27.846  31.320  23.439  1.00  0.00     0.005 C 
ATOM     12  C   UNL A   1      28.264  30.476  21.144  1.00  0.00     0.160 C 
ATOM     13  C   UNL A   1      27.767  31.651  21.961  1.00  0.00     0.029 C 
ENDBRANCH   7   8
ENDBRANCH   6   7
ENDBRANCH   5   6
ENDBRANCH   3   5
ENDBRANCH   2   3
ENDBRANCH   1   2
BRANCH   1  14
ATOM     14  C   UNL A   1      32.889  28.795  27.369  1.00  0.00     0.275 C 
BRANCH  14  15
ATOM     15  O   UNL A   1      33.900  29.673  26.833  1.00  0.00    -0.458 OA
BRANCH  15  16
ATOM     16  C   UNL A   1      34.521  30.473  27.749  1.00  0.00     0.338 C 
ATOM     17  O   UNL A   1      34.022  31.431  28.307  1.00  0.00    -0.246 OA
BRANCH  16  18
ATOM     18  C   UNL A   1      35.900  29.994  28.047  1.00  0.00     0.060 A 
ATOM     19  C   UNL A   1      36.169  29.504  29.333  1.00  0.00     0.016 A 
ATOM     20  C   UNL A   1      36.938  30.067  27.113  1.00  0.00     0.016 A 
ATOM     21  C   UNL A   1      37.460  29.075  29.682  1.00  0.00     0.010 A 
ATOM     22  C   UNL A   1      38.230  29.643  27.466  1.00  0.00     0.010 A 
ATOM     23  C   UNL A   1      38.508  29.141  28.754  1.00  0.00    -0.014 A 
BRANCH  23  24
ATOM     24  C   UNL A   1      39.902  28.755  29.121  1.00  0.00     0.031 A 
ATOM     25  C   UNL A   1      40.846  29.797  29.644  1.00  0.00     0.074 A 
ATOM     26  C   UNL A   1      40.364  27.497  28.974  1.00  0.00     0.049 A 
ATOM     27  N   UNL A   1      42.090  29.652  30.021  1.00  0.00    -0.248 NA
ATOM     28  C   UNL A   1      40.314  31.157  29.806  1.00  0.00     0.031 C 
ATOM     29  C   UNL A   1      39.558  26.347  28.604  1.00  0.00     0.029 A 
ATOM     30  N   UNL A   1      41.633  26.974  29.081  1.00  0.00    -0.354 N 
ATOM     31  C   UNL A   1      42.469  30.880  30.536  1.00  0.00     0.074 A 
ATOM     32  C   UNL A   1      41.355  31.785  30.337  1.00  0.00     0.031 C 
ATOM     33  C   UNL A   1      40.353  25.288  28.376  1.00  0.00     0.029 A 
ATOM     34  C   UNL A   1      41.730  25.673  28.639  1.00  0.00     0.049 A 
ATOM     35  H   UNL A   1      42.396  27.482  29.438  1.00  0.00     0.167 HD
ATOM     36  C   UNL A   1      43.621  31.209  31.168  1.00  0.00     0.031 A 
ATOM     37  C   UNL A   1      42.796  24.867  28.467  1.00  0.00     0.031 A 
ATOM     38  C   UNL A   1      44.749  30.330  31.324  1.00  0.00     0.049 A 
ATOM     39  C   UNL A   1      44.133  25.321  28.976  1.00  0.00     0.074 A 
ATOM     40  C   UNL A   1      45.946  30.576  31.974  1.00  0.00     0.029 A 
ATOM     41  N   UNL A   1      44.837  29.048  30.803  1.00  0.00    -0.354 N 
ATOM     42  N   UNL A   1      44.443  26.457  29.552  1.00  0.00    -0.248 NA
ATOM     43  C   UNL A   1      45.243  24.362  28.887  1.00  0.00     0.031 C 
ATOM     44  C   UNL A   1      46.781  29.467  31.791  1.00  0.00     0.029 A 
ATOM     45  C   UNL A   1      46.084  28.509  31.074  1.00  0.00     0.049 A 
ATOM     46  H   UNL A   1      44.118  28.589  30.311  1.00  0.00     0.167 HD
ATOM     47  C   UNL A   1      45.762  26.320  29.965  1.00  0.00     0.074 A 
ATOM     48  C   UNL A   1      46.197  25.001  29.550  1.00  0.00     0.031 C 
ATOM     49  C   UNL A   1      46.525  27.200  30.657  1.00  0.00     0.031 A 
BRANCH  36  50
ATOM     50  C   UNL A   1      43.699  32.591  31.746  1.00  0.00    -0.014 A 
ATOM     51  C   UNL A   1      44.187  33.661  30.970  1.00  0.00     0.010 A 
ATOM     52  C   UNL A   1      43.272  32.832  33.062  1.00  0.00     0.010 A 
ATOM     53  C   UNL A   1      44.283  34.941  31.517  1.00  0.00     0.020 A 
ATOM     54  C   UNL A   1      43.345  34.117  33.603  1.00  0.00     0.020 A 
ATOM     55  C   UNL A   1      43.867  35.159  32.832  1.00  0.00     0.054 A 
BRANCH  55  56
ATOM     56  S   UNL A   1      43.998  36.834  33.515  1.00  0.00     0.124 S 
ATOM     57  O   UNL A   1      45.186  36.722  34.358  1.00  0.00    -0.237 OA
ATOM     58  O   UNL A   1      44.152  37.657  32.318  1.00  0.00    -0.237 OA
ATOM     59  O   UNL A   1      42.739  37.014  34.235  1.00  0.00    -0.744 OA
ENDBRANCH  55  56
ENDBRANCH  36  50
BRANCH  37  60
ATOM     60  C   UNL A   1      42.640  23.531  27.828  1.00  0.00    -0.014 A 
ATOM     61  C   UNL A   1      42.026  22.467  28.510  1.00  0.00     0.010 A 
ATOM     62  C   UNL A   1      43.138  23.312  26.529  1.00  0.00     0.010 A 
ATOM     63  C   UNL A   1      41.943  21.201  27.921  1.00  0.00     0.020 A 
ATOM     64  C   UNL A   1      43.041  22.050  25.929  1.00  0.00     0.020 A 
ATOM     65  C   UNL A   1      42.456  20.999  26.636  1.00  0.00     0.054 A 
BRANCH  65  66
ATOM     66  S   UNL A   1      42.324  19.348  25.892  1.00  0.00     0.124 S 
ATOM     67  O   UNL A   1      42.859  18.495  26.949  1.00  0.00    -0.237 OA
ATOM     68  O   UNL A   1      40.891  19.226  25.646  1.00  0.00    -0.237 OA
ATOM     69  O   UNL A   1      43.150  19.447  24.691  1.00  0.00    -0.744 OA
ENDBRANCH  65  66
ENDBRANCH  37  60
BRANCH  49  70
ATOM     70  C   UNL A   1      47.905  26.752  31.056  1.00  0.00    -0.014 A 
ATOM     71  C   UNL A   1      48.129  26.048  32.252  1.00  0.00     0.010 A 
ATOM     72  C   UNL A   1      48.992  27.015  30.201  1.00  0.00     0.010 A 
ATOM     73  C   UNL A   1      49.421  25.645  32.602  1.00  0.00     0.020 A 
ATOM     74  C   UNL A   1      50.279  26.589  30.534  1.00  0.00     0.020 A 
ATOM     75  C   UNL A   1      50.489  25.919  31.741  1.00  0.00     0.054 A 
BRANCH  75  76
ATOM     76  S   UNL A   1      52.148  25.349  32.198  1.00  0.00     0.124 S 
ATOM     77  O   UNL A   1      52.414  26.124  33.406  1.00  0.00    -0.237 OA
ATOM     78  O   UNL A   1      51.952  23.916  32.402  1.00  0.00    -0.237 OA
ATOM     79  O   UNL A   1      52.966  25.700  31.039  1.00  0.00    -0.744 OA
ENDBRANCH  75  76
ENDBRANCH  49  70
ENDBRANCH  23  24
ENDBRANCH  16  18
ENDBRANCH  15  16
ENDBRANCH  14  15
ENDBRANCH   1  14
TORSDOF 17
ENDMDL
