MODEL 1
REMARK VINA RESULT:     -11.5      0.000      0.000
REMARK SMILES Cc1ccnc(C(=O)c2[nH]c3ccc(C(C)(C)C)cc3c2CC(=O)OCCOC(=O)c2ccc(-c3c4nc(c(-c5ccc(S(=O)(=O)[O-])cc5)c5ccc([nH]5)c(-c5ccc(S(=O)(=O)[O-])cc5)c5nc(c(-c6ccc(S(=O)(=O)[O-])cc6)c6ccc3[nH]6)C=C5)C=C4)cc2)c1
REMARK SMILES IDX 26 1 25 2 23 3 24 4 22 5 21 6 9 7 10 8 11 9 20 11 12 12
REMARK SMILES IDX 19 13 13 14 14 15 7 16 8 17 6 18 1 19 2 20 3 21 91 22 4 23
REMARK SMILES IDX 5 24 15 25 16 26 17 27 18 28 27 29 28 30 29 31 30 32 31 33
REMARK SMILES IDX 32 34 90 35 33 36 89 37 34 38 35 39 36 40 83 41 37 42 88 43
REMARK SMILES IDX 82 44 84 45 38 46 87 47 81 48 80 49 39 51 69 52 50 53 68 54
REMARK SMILES IDX 51 55 54 56 67 57 85 58 52 59 53 60 66 62 86 63 55 64 40 65
REMARK SMILES IDX 41 66 49 67 42 68 48 69 43 70 44 71 45 72 46 73 47 74 70 75
REMARK SMILES IDX 71 76 79 77 72 78 78 79 73 80 74 81 75 82 76 83 77 84 56 85
REMARK SMILES IDX 57 86 65 87 58 88 64 89 59 90 60 91 61 92 62 93 63 94
REMARK H PARENT 10 10 84 50 54 61
REMARK Flexibility Score: inf
ROOT
ATOM      1  C   UNL A   1      32.560  26.994  26.437  1.00  0.00     0.274 C 
ENDROOT
BRANCH   1   2
ATOM      2  O   UNL A   1      33.753  26.263  26.079  1.00  0.00    -0.462 OA
BRANCH   2   3
ATOM      3  C   UNL A   1      33.625  24.916  25.978  1.00  0.00     0.310 C 
ATOM      4  O   UNL A   1      32.829  24.253  26.640  1.00  0.00    -0.252 OA
BRANCH   3   5
ATOM      5  C   UNL A   1      34.426  24.286  24.861  1.00  0.00     0.161 C 
BRANCH   5   6
ATOM      6  C   UNL A   1      33.705  23.739  23.671  1.00  0.00     0.000 A 
ATOM      7  C   UNL A   1      33.128  24.448  22.618  1.00  0.00     0.093 A 
ATOM      8  N   UNL A   1      32.536  23.528  21.788  1.00  0.00    -0.352 N 
ATOM      9  C   UNL A   1      32.561  22.280  22.344  1.00  0.00     0.046 A 
ATOM     10  H   UNL A   1      32.144  23.741  20.909  1.00  0.00     0.167 HD
ATOM     11  C   UNL A   1      33.349  22.355  23.485  1.00  0.00     0.004 A 
ATOM     12  C   UNL A   1      31.952  21.104  21.915  1.00  0.00     0.027 A 
ATOM     13  C   UNL A   1      33.586  21.161  24.206  1.00  0.00     0.015 A 
ATOM     14  C   UNL A   1      32.181  19.945  22.663  1.00  0.00     0.006 A 
ATOM     15  C   UNL A   1      33.006  19.935  23.799  1.00  0.00    -0.042 A 
BRANCH   7  16
ATOM     16  C   UNL A   1      33.079  25.857  22.256  1.00  0.00     0.227 C 
ATOM     17  O   UNL A   1      33.700  26.258  21.274  1.00  0.00    -0.285 OA
BRANCH  16  18
ATOM     18  C   UNL A   1      32.038  26.752  22.895  1.00  0.00     0.113 A 
ATOM     19  C   UNL A   1      28.381  26.680  23.925  1.00  0.00     0.044 C 
ATOM     20  C   UNL A   1      29.773  27.149  23.617  1.00  0.00    -0.047 A 
ATOM     21  C   UNL A   1      30.047  28.517  23.586  1.00  0.00     0.023 A 
ATOM     22  C   UNL A   1      30.793  26.249  23.283  1.00  0.00     0.036 A 
ATOM     23  C   UNL A   1      31.316  28.928  23.218  1.00  0.00     0.112 A 
ATOM     24  N   UNL A   1      32.309  28.084  22.870  1.00  0.00    -0.253 NA
ENDBRANCH  16  18
ENDBRANCH   7  16
BRANCH  15  25
ATOM     25  C   UNL A   1      33.299  18.640  24.580  1.00  0.00    -0.013 C 
ATOM     26  C   UNL A   1      32.544  17.468  23.919  1.00  0.00     0.016 C 
ATOM     27  C   UNL A   1      34.813  18.340  24.575  1.00  0.00     0.016 C 
ATOM     28  C   UNL A   1      32.854  18.693  26.061  1.00  0.00     0.016 C 
ENDBRANCH  15  25
ENDBRANCH   5   6
ENDBRANCH   3   5
ENDBRANCH   2   3
ENDBRANCH   1   2
BRANCH   1  29
ATOM     29  C   UNL A   1      32.868  28.469  26.727  1.00  0.00     0.275 C 
BRANCH  29  30
ATOM     30  O   UNL A   1      34.286  28.725  26.833  1.00  0.00    -0.458 OA
BRANCH  30  31
ATOM     31  C   UNL A   1      34.574  29.833  27.548  1.00  0.00     0.338 C 
ATOM     32  O   UNL A   1      33.795  30.720  27.860  1.00  0.00    -0.246 OA
BRANCH  31  33
ATOM     33  C   UNL A   1      35.945  29.849  28.054  1.00  0.00     0.060 A 
ATOM     34  C   UNL A   1      36.969  30.053  27.130  1.00  0.00     0.016 A 
ATOM     35  C   UNL A   1      36.227  29.393  29.343  1.00  0.00     0.016 A 
ATOM     36  C   UNL A   1      38.272  29.712  27.463  1.00  0.00     0.010 A 
ATOM     37  C   UNL A   1      37.554  29.134  29.703  1.00  0.00     0.010 A 
ATOM     38  C   UNL A   1      38.581  29.257  28.754  1.00  0.00    -0.014 A 
BRANCH  38  39
ATOM     39  C   UNL A   1      39.999  28.963  29.080  1.00  0.00     0.031 A 
ATOM     40  C   UNL A   1      40.858  29.950  29.821  1.00  0.00     0.074 A 
ATOM     41  C   UNL A   1      40.481  27.744  28.773  1.00  0.00     0.049 A 
ATOM     42  N   UNL A   1      42.083  29.805  30.259  1.00  0.00    -0.248 NA
ATOM     43  C   UNL A   1      40.268  31.262  30.122  1.00  0.00     0.031 C 
ATOM     44  C   UNL A   1      39.734  26.692  28.077  1.00  0.00     0.029 A 
ATOM     45  N   UNL A   1      41.699  27.171  29.030  1.00  0.00    -0.354 N 
ATOM     46  C   UNL A   1      42.405  30.996  30.899  1.00  0.00     0.074 A 
ATOM     47  C   UNL A   1      41.257  31.867  30.768  1.00  0.00     0.031 C 
ATOM     48  C   UNL A   1      40.492  25.589  28.004  1.00  0.00     0.029 A 
ATOM     49  C   UNL A   1      41.795  25.872  28.591  1.00  0.00     0.049 A 
ATOM     50  H   UNL A   1      42.434  27.643  29.485  1.00  0.00     0.167 HD
ATOM     51  C   UNL A   1      43.552  31.330  31.538  1.00  0.00     0.031 A 
ATOM     52  C   UNL A   1      42.823  25.008  28.637  1.00  0.00     0.031 A 
ATOM     53  C   UNL A   1      44.711  30.480  31.629  1.00  0.00     0.049 A 
ATOM     54  C   UNL A   1      44.113  25.441  29.265  1.00  0.00     0.074 A 
ATOM     55  C   UNL A   1      45.928  30.742  32.235  1.00  0.00     0.029 A 
ATOM     56  N   UNL A   1      44.801  29.206  31.090  1.00  0.00    -0.354 N 
ATOM     57  N   UNL A   1      44.396  26.574  29.862  1.00  0.00    -0.248 NA
ATOM     58  C   UNL A   1      45.224  24.484  29.215  1.00  0.00     0.031 C 
ATOM     59  C   UNL A   1      46.769  29.641  32.025  1.00  0.00     0.029 A 
ATOM     60  C   UNL A   1      46.061  28.680  31.324  1.00  0.00     0.049 A 
ATOM     61  H   UNL A   1      44.076  28.744  30.610  1.00  0.00     0.167 HD
ATOM     62  C   UNL A   1      45.722  26.466  30.258  1.00  0.00     0.074 A 
ATOM     63  C   UNL A   1      46.174  25.148  29.858  1.00  0.00     0.031 C 
ATOM     64  C   UNL A   1      46.499  27.379  30.893  1.00  0.00     0.031 A 
BRANCH  51  65
ATOM     65  C   UNL A   1      43.620  32.688  32.180  1.00  0.00    -0.014 A 
ATOM     66  C   UNL A   1      44.017  33.813  31.437  1.00  0.00     0.010 A 
ATOM     67  C   UNL A   1      43.225  32.854  33.520  1.00  0.00     0.010 A 
ATOM     68  C   UNL A   1      44.037  35.080  32.027  1.00  0.00     0.020 A 
ATOM     69  C   UNL A   1      43.231  34.121  34.111  1.00  0.00     0.020 A 
ATOM     70  C   UNL A   1      43.648  35.225  33.362  1.00  0.00     0.054 A 
BRANCH  70  71
ATOM     71  S   UNL A   1      43.654  36.885  34.095  1.00  0.00     0.124 S 
ATOM     72  O   UNL A   1      42.275  37.007  34.565  1.00  0.00    -0.237 OA
ATOM     73  O   UNL A   1      44.665  36.769  35.144  1.00  0.00    -0.237 OA
ATOM     74  O   UNL A   1      44.012  37.756  32.980  1.00  0.00    -0.744 OA
ENDBRANCH  70  71
ENDBRANCH  51  65
BRANCH  52  75
ATOM     75  C   UNL A   1      42.680  23.663  28.023  1.00  0.00    -0.014 A 
ATOM     76  C   UNL A   1      41.934  22.657  28.658  1.00  0.00     0.010 A 
ATOM     77  C   UNL A   1      43.279  23.398  26.777  1.00  0.00     0.010 A 
ATOM     78  C   UNL A   1      41.799  21.400  28.061  1.00  0.00     0.020 A 
ATOM     79  C   UNL A   1      43.125  22.153  26.168  1.00  0.00     0.020 A 
ATOM     80  C   UNL A   1      42.396  21.156  26.820  1.00  0.00     0.054 A 
BRANCH  80  81
ATOM     81  S   UNL A   1      42.169  19.542  26.023  1.00  0.00     0.124 S 
ATOM     82  O   UNL A   1      42.636  18.627  27.059  1.00  0.00    -0.237 OA
ATOM     83  O   UNL A   1      40.733  19.513  25.752  1.00  0.00    -0.237 OA
ATOM     84  O   UNL A   1      43.015  19.634  24.836  1.00  0.00    -0.744 OA
ENDBRANCH  80  81
ENDBRANCH  52  75
BRANCH  64  85
ATOM     85  C   UNL A   1      47.913  26.964  31.182  1.00  0.00    -0.014 A 
ATOM     86  C   UNL A   1      48.241  26.333  32.396  1.00  0.00     0.010 A 
ATOM     87  C   UNL A   1      48.926  27.225  30.243  1.00  0.00     0.010 A 
ATOM     88  C   UNL A   1      49.568  26.016  32.688  1.00  0.00     0.020 A 
ATOM     89  C   UNL A   1      50.252  26.890  30.525  1.00  0.00     0.020 A 
ATOM     90  C   UNL A   1      50.568  26.309  31.755  1.00  0.00     0.054 A 
BRANCH  90  91
ATOM     91  S   UNL A   1      52.290  25.898  32.147  1.00  0.00     0.124 S 
ATOM     92  O   UNL A   1      53.004  26.471  31.010  1.00  0.00    -0.237 OA
ATOM     93  O   UNL A   1      52.506  26.570  33.427  1.00  0.00    -0.237 OA
ATOM     94  O   UNL A   1      52.286  24.439  32.212  1.00  0.00    -0.744 OA
ENDBRANCH  90  91
ENDBRANCH  64  85
ENDBRANCH  38  39
ENDBRANCH  31  33
ENDBRANCH  30  31
ENDBRANCH  29  30
ENDBRANCH   1  29
TORSDOF 18
ENDMDL
MODEL 2
REMARK VINA RESULT:     -11.2      1.488      2.344
REMARK SMILES Cc1ccnc(C(=O)c2[nH]c3ccc(C(C)(C)C)cc3c2CC(=O)OCCOC(=O)c2ccc(-c3c4nc(c(-c5ccc(S(=O)(=O)[O-])cc5)c5ccc([nH]5)c(-c5ccc(S(=O)(=O)[O-])cc5)c5nc(c(-c6ccc(S(=O)(=O)[O-])cc6)c6ccc3[nH]6)C=C5)C=C4)cc2)c1
REMARK SMILES IDX 26 1 25 2 23 3 24 4 22 5 21 6 9 7 10 8 11 9 20 11 12 12
REMARK SMILES IDX 19 13 13 14 14 15 7 16 8 17 6 18 1 19 2 20 3 21 91 22 4 23
REMARK SMILES IDX 5 24 15 25 16 26 17 27 18 28 27 29 28 30 29 31 30 32 31 33
REMARK SMILES IDX 32 34 90 35 33 36 89 37 34 38 35 39 36 40 83 41 37 42 88 43
REMARK SMILES IDX 82 44 84 45 38 46 87 47 81 48 80 49 39 51 69 52 50 53 68 54
REMARK SMILES IDX 51 55 54 56 67 57 85 58 52 59 53 60 66 62 86 63 55 64 40 65
REMARK SMILES IDX 41 66 49 67 42 68 48 69 43 70 44 71 45 72 46 73 47 74 70 75
REMARK SMILES IDX 71 76 79 77 72 78 78 79 73 80 74 81 75 82 76 83 77 84 56 85
REMARK SMILES IDX 57 86 65 87 58 88 64 89 59 90 60 91 61 92 62 93 63 94
REMARK H PARENT 10 10 84 50 54 61
REMARK Flexibility Score: inf
ROOT
ATOM      1  C   UNL A   1      31.707  29.686  26.197  1.00  0.00     0.274 C 
ENDROOT
BRANCH   1   2
ATOM      2  O   UNL A   1      31.402  28.578  27.073  1.00  0.00    -0.462 OA
BRANCH   2   3
ATOM      3  C   UNL A   1      31.472  27.341  26.523  1.00  0.00     0.310 C 
ATOM      4  O   UNL A   1      30.929  26.347  27.001  1.00  0.00    -0.252 OA
BRANCH   3   5
ATOM      5  C   UNL A   1      32.139  27.288  25.166  1.00  0.00     0.161 C 
BRANCH   5   6
ATOM      6  C   UNL A   1      31.776  26.188  24.222  1.00  0.00     0.000 A 
ATOM      7  C   UNL A   1      30.568  25.999  23.551  1.00  0.00     0.093 A 
ATOM      8  N   UNL A   1      30.681  24.831  22.839  1.00  0.00    -0.352 N 
ATOM      9  C   UNL A   1      31.840  24.176  23.151  1.00  0.00     0.046 A 
ATOM     10  H   UNL A   1      30.015  24.506  22.189  1.00  0.00     0.167 HD
ATOM     11  C   UNL A   1      32.587  25.028  23.954  1.00  0.00     0.004 A 
ATOM     12  C   UNL A   1      32.273  22.908  22.776  1.00  0.00     0.027 A 
ATOM     13  C   UNL A   1      33.874  24.599  24.357  1.00  0.00     0.015 A 
ATOM     14  C   UNL A   1      33.537  22.499  23.213  1.00  0.00     0.006 A 
ATOM     15  C   UNL A   1      34.369  23.325  23.984  1.00  0.00    -0.042 A 
BRANCH   7  16
ATOM     16  C   UNL A   1      29.336  26.768  23.451  1.00  0.00     0.227 C 
ATOM     17  O   UNL A   1      28.286  26.301  23.888  1.00  0.00    -0.285 OA
BRANCH  16  18
ATOM     18  C   UNL A   1      29.406  28.238  23.095  1.00  0.00     0.113 A 
ATOM     19  C   UNL A   1      27.448  31.453  23.614  1.00  0.00     0.044 C 
ATOM     20  C   UNL A   1      28.450  30.450  23.122  1.00  0.00    -0.047 A 
ATOM     21  C   UNL A   1      29.272  30.773  22.041  1.00  0.00     0.023 A 
ATOM     22  C   UNL A   1      28.532  29.164  23.670  1.00  0.00     0.036 A 
ATOM     23  C   UNL A   1      30.131  29.805  21.551  1.00  0.00     0.112 A 
ATOM     24  N   UNL A   1      30.213  28.553  22.045  1.00  0.00    -0.253 NA
ENDBRANCH  16  18
ENDBRANCH   7  16
BRANCH  15  25
ATOM     25  C   UNL A   1      35.783  22.888  24.409  1.00  0.00    -0.013 C 
ATOM     26  C   UNL A   1      36.294  23.833  25.517  1.00  0.00     0.016 C 
ATOM     27  C   UNL A   1      35.760  21.440  24.944  1.00  0.00     0.016 C 
ATOM     28  C   UNL A   1      36.819  22.929  23.260  1.00  0.00     0.016 C 
ENDBRANCH  15  25
ENDBRANCH   5   6
ENDBRANCH   3   5
ENDBRANCH   2   3
ENDBRANCH   1   2
BRANCH   1  29
ATOM     29  C   UNL A   1      32.803  30.585  26.786  1.00  0.00     0.275 C 
BRANCH  29  30
ATOM     30  O   UNL A   1      33.884  29.825  27.371  1.00  0.00    -0.458 OA
BRANCH  30  31
ATOM     31  C   UNL A   1      34.744  30.585  28.080  1.00  0.00     0.338 C 
ATOM     32  O   UNL A   1      34.497  31.652  28.621  1.00  0.00    -0.246 OA
BRANCH  31  33
ATOM     33  C   UNL A   1      36.050  29.955  28.263  1.00  0.00     0.060 A 
ATOM     34  C   UNL A   1      36.376  29.511  29.544  1.00  0.00     0.016 A 
ATOM     35  C   UNL A   1      37.029  30.059  27.273  1.00  0.00     0.016 A 
ATOM     36  C   UNL A   1      37.701  29.257  29.866  1.00  0.00     0.010 A 
ATOM     37  C   UNL A   1      38.351  29.718  27.579  1.00  0.00     0.010 A 
ATOM     38  C   UNL A   1      38.703  29.350  28.887  1.00  0.00    -0.014 A 
BRANCH  38  39
ATOM     39  C   UNL A   1      40.097  29.010  29.266  1.00  0.00     0.031 A 
ATOM     40  C   UNL A   1      40.929  29.933  30.113  1.00  0.00     0.074 A 
ATOM     41  C   UNL A   1      40.577  27.805  28.906  1.00  0.00     0.049 A 
ATOM     42  N   UNL A   1      42.127  29.739  30.603  1.00  0.00    -0.248 NA
ATOM     43  C   UNL A   1      40.343  31.233  30.467  1.00  0.00     0.031 C 
ATOM     44  C   UNL A   1      39.852  26.813  28.106  1.00  0.00     0.029 A 
ATOM     45  N   UNL A   1      41.771  27.195  29.188  1.00  0.00    -0.354 N 
ATOM     46  C   UNL A   1      42.432  30.881  31.335  1.00  0.00     0.074 A 
ATOM     47  C   UNL A   1      41.305  31.779  31.202  1.00  0.00     0.031 C 
ATOM     48  C   UNL A   1      40.597  25.704  28.001  1.00  0.00     0.029 A 
ATOM     49  C   UNL A   1      41.871  25.926  28.672  1.00  0.00     0.049 A 
ATOM     50  H   UNL A   1      42.487  27.625  29.710  1.00  0.00     0.167 HD
ATOM     51  C   UNL A   1      43.548  31.153  32.053  1.00  0.00     0.031 A 
ATOM     52  C   UNL A   1      42.884  25.043  28.715  1.00  0.00     0.031 A 
ATOM     53  C   UNL A   1      44.688  30.278  32.149  1.00  0.00     0.049 A 
ATOM     54  C   UNL A   1      44.145  25.413  29.436  1.00  0.00     0.074 A 
ATOM     55  C   UNL A   1      45.876  30.480  32.834  1.00  0.00     0.029 A 
ATOM     56  N   UNL A   1      44.789  29.040  31.534  1.00  0.00    -0.354 N 
ATOM     57  N   UNL A   1      44.412  26.500  30.120  1.00  0.00    -0.248 NA
ATOM     58  C   UNL A   1      45.243  24.441  29.382  1.00  0.00     0.031 C 
ATOM     59  C   UNL A   1      46.711  29.380  32.596  1.00  0.00     0.029 A 
ATOM     60  C   UNL A   1      46.026  28.478  31.799  1.00  0.00     0.049 A 
ATOM     61  H   UNL A   1      44.084  28.623  30.988  1.00  0.00     0.167 HD
ATOM     62  C   UNL A   1      45.713  26.344  30.576  1.00  0.00     0.074 A 
ATOM     63  C   UNL A   1      46.167  25.046  30.115  1.00  0.00     0.031 C 
ATOM     64  C   UNL A   1      46.469  27.200  31.308  1.00  0.00     0.031 A 
BRANCH  51  65
ATOM     65  C   UNL A   1      43.601  32.466  32.785  1.00  0.00    -0.014 A 
ATOM     66  C   UNL A   1      44.118  33.614  32.159  1.00  0.00     0.010 A 
ATOM     67  C   UNL A   1      43.075  32.570  34.085  1.00  0.00     0.010 A 
ATOM     68  C   UNL A   1      44.125  34.841  32.828  1.00  0.00     0.020 A 
ATOM     69  C   UNL A   1      43.069  33.798  34.753  1.00  0.00     0.020 A 
ATOM     70  C   UNL A   1      43.604  34.924  34.123  1.00  0.00     0.054 A 
BRANCH  70  71
ATOM     71  S   UNL A   1      43.598  36.535  34.958  1.00  0.00     0.124 S 
ATOM     72  O   UNL A   1      44.225  36.210  36.237  1.00  0.00    -0.237 OA
ATOM     73  O   UNL A   1      44.398  37.365  34.060  1.00  0.00    -0.237 OA
ATOM     74  O   UNL A   1      42.182  36.884  35.028  1.00  0.00    -0.744 OA
ENDBRANCH  70  71
ENDBRANCH  51  65
BRANCH  52  75
ATOM     75  C   UNL A   1      42.754  23.743  28.009  1.00  0.00    -0.014 A 
ATOM     76  C   UNL A   1      43.308  23.559  26.732  1.00  0.00     0.010 A 
ATOM     77  C   UNL A   1      42.090  22.672  28.635  1.00  0.00     0.010 A 
ATOM     78  C   UNL A   1      43.188  22.326  26.085  1.00  0.00     0.020 A 
ATOM     79  C   UNL A   1      41.991  21.432  28.003  1.00  0.00     0.020 A 
ATOM     80  C   UNL A   1      42.529  21.270  26.725  1.00  0.00     0.054 A 
BRANCH  80  81
ATOM     81  S   UNL A   1      42.428  19.655  25.905  1.00  0.00     0.124 S 
ATOM     82  O   UNL A   1      43.401  19.803  24.829  1.00  0.00    -0.237 OA
ATOM     83  O   UNL A   1      42.797  18.726  26.970  1.00  0.00    -0.237 OA
ATOM     84  O   UNL A   1      41.030  19.582  25.484  1.00  0.00    -0.744 OA
ENDBRANCH  80  81
ENDBRANCH  52  75
BRANCH  64  85
ATOM     85  C   UNL A   1      47.859  26.743  31.642  1.00  0.00    -0.014 A 
ATOM     86  C   UNL A   1      48.101  25.966  32.791  1.00  0.00     0.010 A 
ATOM     87  C   UNL A   1      48.935  27.109  30.816  1.00  0.00     0.010 A 
ATOM     88  C   UNL A   1      49.405  25.605  33.134  1.00  0.00     0.020 A 
ATOM     89  C   UNL A   1      50.239  26.732  31.146  1.00  0.00     0.020 A 
ATOM     90  C   UNL A   1      50.468  26.003  32.316  1.00  0.00     0.054 A 
BRANCH  90  91
ATOM     91  S   UNL A   1      52.159  25.535  32.775  1.00  0.00     0.124 S 
ATOM     92  O   UNL A   1      52.726  25.153  31.485  1.00  0.00    -0.237 OA
ATOM     93  O   UNL A   1      52.694  26.764  33.357  1.00  0.00    -0.237 OA
ATOM     94  O   UNL A   1      51.964  24.440  33.722  1.00  0.00    -0.744 OA
ENDBRANCH  90  91
ENDBRANCH  64  85
ENDBRANCH  38  39
ENDBRANCH  31  33
ENDBRANCH  30  31
ENDBRANCH  29  30
ENDBRANCH   1  29
TORSDOF 18
ENDMDL
MODEL 3
REMARK VINA RESULT:     -11.1      3.539      7.429
REMARK SMILES Cc1ccnc(C(=O)c2[nH]c3ccc(C(C)(C)C)cc3c2CC(=O)OCCOC(=O)c2ccc(-c3c4nc(c(-c5ccc(S(=O)(=O)[O-])cc5)c5ccc([nH]5)c(-c5ccc(S(=O)(=O)[O-])cc5)c5nc(c(-c6ccc(S(=O)(=O)[O-])cc6)c6ccc3[nH]6)C=C5)C=C4)cc2)c1
REMARK SMILES IDX 26 1 25 2 23 3 24 4 22 5 21 6 9 7 10 8 11 9 20 11 12 12
REMARK SMILES IDX 19 13 13 14 14 15 7 16 8 17 6 18 1 19 2 20 3 21 91 22 4 23
REMARK SMILES IDX 5 24 15 25 16 26 17 27 18 28 27 29 28 30 29 31 30 32 31 33
REMARK SMILES IDX 32 34 90 35 33 36 89 37 34 38 35 39 36 40 83 41 37 42 88 43
REMARK SMILES IDX 82 44 84 45 38 46 87 47 81 48 80 49 39 51 69 52 50 53 68 54
REMARK SMILES IDX 51 55 54 56 67 57 85 58 52 59 53 60 66 62 86 63 55 64 40 65
REMARK SMILES IDX 41 66 49 67 42 68 48 69 43 70 44 71 45 72 46 73 47 74 70 75
REMARK SMILES IDX 71 76 79 77 72 78 78 79 73 80 74 81 75 82 76 83 77 84 56 85
REMARK SMILES IDX 57 86 65 87 58 88 64 89 59 90 60 91 61 92 62 93 63 94
REMARK H PARENT 10 10 84 50 54 61
REMARK Flexibility Score: inf
ROOT
ATOM      1  C   UNL A   1      38.691  21.701  25.890  1.00  0.00     0.274 C 
ENDROOT
BRANCH   1   2
ATOM      2  O   UNL A   1      37.269  21.724  25.634  1.00  0.00    -0.462 OA
BRANCH   2   3
ATOM      3  C   UNL A   1      36.763  22.890  25.162  1.00  0.00     0.310 C 
ATOM      4  O   UNL A   1      37.383  23.660  24.431  1.00  0.00    -0.252 OA
BRANCH   3   5
ATOM      5  C   UNL A   1      35.298  23.113  25.465  1.00  0.00     0.161 C 
BRANCH   5   6
ATOM      6  C   UNL A   1      34.288  22.846  24.396  1.00  0.00     0.000 A 
ATOM      7  C   UNL A   1      33.565  23.777  23.649  1.00  0.00     0.093 A 
ATOM      8  N   UNL A   1      32.724  23.069  22.828  1.00  0.00    -0.352 N 
ATOM      9  C   UNL A   1      32.751  21.736  23.130  1.00  0.00     0.046 A 
ATOM     10  H   UNL A   1      32.172  23.468  22.116  1.00  0.00     0.167 HD
ATOM     11  C   UNL A   1      33.771  21.546  24.053  1.00  0.00     0.004 A 
ATOM     12  C   UNL A   1      31.955  20.700  22.650  1.00  0.00     0.027 A 
ATOM     13  C   UNL A   1      34.046  20.223  24.474  1.00  0.00     0.015 A 
ATOM     14  C   UNL A   1      32.231  19.406  23.106  1.00  0.00     0.006 A 
ATOM     15  C   UNL A   1      33.279  19.131  23.998  1.00  0.00    -0.042 A 
BRANCH   7  16
ATOM     16  C   UNL A   1      33.572  25.230  23.567  1.00  0.00     0.227 C 
ATOM     17  O   UNL A   1      34.056  25.784  22.582  1.00  0.00    -0.285 OA
BRANCH  16  18
ATOM     18  C   UNL A   1      32.723  26.032  24.531  1.00  0.00     0.113 A 
ATOM     19  C   UNL A   1      33.100  28.701  27.210  1.00  0.00     0.044 C 
ATOM     20  C   UNL A   1      32.530  27.636  26.319  1.00  0.00    -0.047 A 
ATOM     21  C   UNL A   1      31.268  27.108  26.600  1.00  0.00     0.023 A 
ATOM     22  C   UNL A   1      33.263  27.100  25.253  1.00  0.00     0.036 A 
ATOM     23  C   UNL A   1      30.797  26.070  25.816  1.00  0.00     0.112 A 
ATOM     24  N   UNL A   1      31.492  25.520  24.799  1.00  0.00    -0.253 NA
ENDBRANCH  16  18
ENDBRANCH   7  16
BRANCH  15  25
ATOM     25  C   UNL A   1      33.611  17.696  24.447  1.00  0.00    -0.013 C 
ATOM     26  C   UNL A   1      35.129  17.585  24.706  1.00  0.00     0.016 C 
ATOM     27  C   UNL A   1      32.847  17.347  25.741  1.00  0.00     0.016 C 
ATOM     28  C   UNL A   1      33.246  16.616  23.401  1.00  0.00     0.016 C 
ENDBRANCH  15  25
ENDBRANCH   5   6
ENDBRANCH   3   5
ENDBRANCH   2   3
ENDBRANCH   1   2
BRANCH   1  29
ATOM     29  C   UNL A   1      39.267  20.286  25.746  1.00  0.00     0.275 C 
BRANCH  29  30
ATOM     30  O   UNL A   1      40.218  19.969  26.786  1.00  0.00    -0.458 OA
BRANCH  30  31
ATOM     31  C   UNL A   1      41.472  19.789  26.322  1.00  0.00     0.338 C 
ATOM     32  O   UNL A   1      41.906  18.792  25.767  1.00  0.00    -0.246 OA
BRANCH  31  33
ATOM     33  C   UNL A   1      42.304  20.985  26.437  1.00  0.00     0.060 A 
ATOM     34  C   UNL A   1      42.544  21.482  27.716  1.00  0.00     0.016 A 
ATOM     35  C   UNL A   1      42.595  21.752  25.307  1.00  0.00     0.016 A 
ATOM     36  C   UNL A   1      42.990  22.787  27.874  1.00  0.00     0.010 A 
ATOM     37  C   UNL A   1      43.128  23.036  25.469  1.00  0.00     0.010 A 
ATOM     38  C   UNL A   1      43.296  23.575  26.754  1.00  0.00    -0.014 A 
BRANCH  38  39
ATOM     39  C   UNL A   1      43.828  24.943  26.975  1.00  0.00     0.031 A 
ATOM     40  C   UNL A   1      42.958  26.050  27.503  1.00  0.00     0.074 A 
ATOM     41  C   UNL A   1      45.142  25.153  26.774  1.00  0.00     0.049 A 
ATOM     42  N   UNL A   1      43.295  27.271  27.835  1.00  0.00    -0.248 NA
ATOM     43  C   UNL A   1      41.532  25.751  27.697  1.00  0.00     0.031 C 
ATOM     44  C   UNL A   1      46.092  24.148  26.288  1.00  0.00     0.029 A 
ATOM     45  N   UNL A   1      45.914  26.266  26.981  1.00  0.00    -0.354 N 
ATOM     46  C   UNL A   1      42.131  27.880  28.290  1.00  0.00     0.074 A 
ATOM     47  C   UNL A   1      41.069  26.904  28.165  1.00  0.00     0.031 C 
ATOM     48  C   UNL A   1      47.324  24.676  26.277  1.00  0.00     0.029 A 
ATOM     49  C   UNL A   1      47.244  26.069  26.697  1.00  0.00     0.049 A 
ATOM     50  H   UNL A   1      45.551  27.124  27.302  1.00  0.00     0.167 HD
ATOM     51  C   UNL A   1      41.965  29.135  28.770  1.00  0.00     0.031 A 
ATOM     52  C   UNL A   1      48.283  26.919  26.749  1.00  0.00     0.031 A 
ATOM     53  C   UNL A   1      43.012  30.121  28.853  1.00  0.00     0.049 A 
ATOM     54  C   UNL A   1      48.049  28.332  27.192  1.00  0.00     0.074 A 
ATOM     55  C   UNL A   1      42.933  31.429  29.302  1.00  0.00     0.029 A 
ATOM     56  N   UNL A   1      44.327  29.911  28.467  1.00  0.00    -0.354 N 
ATOM     57  N   UNL A   1      46.939  28.887  27.616  1.00  0.00    -0.248 NA
ATOM     58  C   UNL A   1      49.206  29.234  27.153  1.00  0.00     0.031 C 
ATOM     59  C   UNL A   1      44.193  32.022  29.148  1.00  0.00     0.029 A 
ATOM     60  C   UNL A   1      45.063  31.071  28.642  1.00  0.00     0.049 A 
ATOM     61  H   UNL A   1      44.684  29.062  28.120  1.00  0.00     0.167 HD
ATOM     62  C   UNL A   1      47.264  30.208  27.893  1.00  0.00     0.074 A 
ATOM     63  C   UNL A   1      48.679  30.359  27.615  1.00  0.00     0.031 C 
ATOM     64  C   UNL A   1      46.462  31.209  28.333  1.00  0.00     0.031 A 
BRANCH  51  65
ATOM     65  C   UNL A   1      40.588  29.527  29.232  1.00  0.00    -0.014 A 
ATOM     66  C   UNL A   1      40.302  29.656  30.603  1.00  0.00     0.010 A 
ATOM     67  C   UNL A   1      39.588  29.828  28.290  1.00  0.00     0.010 A 
ATOM     68  C   UNL A   1      39.033  30.062  31.024  1.00  0.00     0.020 A 
ATOM     69  C   UNL A   1      38.322  30.248  28.707  1.00  0.00     0.020 A 
ATOM     70  C   UNL A   1      38.049  30.351  30.074  1.00  0.00     0.054 A 
BRANCH  70  71
ATOM     71  S   UNL A   1      36.420  30.906  30.647  1.00  0.00     0.124 S 
ATOM     72  O   UNL A   1      35.595  30.683  29.462  1.00  0.00    -0.237 OA
ATOM     73  O   UNL A   1      36.154  30.012  31.773  1.00  0.00    -0.237 OA
ATOM     74  O   UNL A   1      36.634  32.305  31.004  1.00  0.00    -0.744 OA
ENDBRANCH  70  71
ENDBRANCH  51  65
BRANCH  52  75
ATOM     75  C   UNL A   1      49.629  26.460  26.321  1.00  0.00    -0.014 A 
ATOM     76  C   UNL A   1      50.054  26.614  24.992  1.00  0.00     0.010 A 
ATOM     77  C   UNL A   1      50.502  25.885  27.263  1.00  0.00     0.010 A 
ATOM     78  C   UNL A   1      51.328  26.188  24.607  1.00  0.00     0.020 A 
ATOM     79  C   UNL A   1      51.784  25.482  26.888  1.00  0.00     0.020 A 
ATOM     80  C   UNL A   1      52.185  25.624  25.558  1.00  0.00     0.054 A 
BRANCH  80  81
ATOM     81  S   UNL A   1      53.858  25.125  25.066  1.00  0.00     0.124 S 
ATOM     82  O   UNL A   1      54.028  25.844  23.808  1.00  0.00    -0.237 OA
ATOM     83  O   UNL A   1      54.678  25.595  26.180  1.00  0.00    -0.237 OA
ATOM     84  O   UNL A   1      53.754  23.672  24.952  1.00  0.00    -0.744 OA
ENDBRANCH  80  81
ENDBRANCH  52  75
BRANCH  64  85
ATOM     85  C   UNL A   1      47.114  32.547  28.533  1.00  0.00    -0.014 A 
ATOM     86  C   UNL A   1      47.052  33.532  27.530  1.00  0.00     0.010 A 
ATOM     87  C   UNL A   1      47.811  32.815  29.723  1.00  0.00     0.010 A 
ATOM     88  C   UNL A   1      47.720  34.746  27.693  1.00  0.00     0.020 A 
ATOM     89  C   UNL A   1      48.464  34.037  29.897  1.00  0.00     0.020 A 
ATOM     90  C   UNL A   1      48.435  34.985  28.872  1.00  0.00     0.054 A 
BRANCH  90  91
ATOM     91  S   UNL A   1      49.305  36.563  29.072  1.00  0.00     0.124 S 
ATOM     92  O   UNL A   1      50.675  36.198  28.726  1.00  0.00    -0.237 OA
ATOM     93  O   UNL A   1      48.628  37.436  28.115  1.00  0.00    -0.237 OA
ATOM     94  O   UNL A   1      49.082  36.900  30.476  1.00  0.00    -0.744 OA
ENDBRANCH  90  91
ENDBRANCH  64  85
ENDBRANCH  38  39
ENDBRANCH  31  33
ENDBRANCH  30  31
ENDBRANCH  29  30
ENDBRANCH   1  29
TORSDOF 18
ENDMDL
