MODEL 1
REMARK VINA RESULT:      -9.8      0.000      0.000
REMARK SMILES C#Cc1cc(Cl)c2c(c1)C=C(C(=O)OCCOC(=O)c1ccc(-c3c4nc(c(-c5ccc(S(=O)(=O)[O-])cc5)c5ccc([nH]5)c(-c5ccc(S(=O)(=O)[O-])cc5)c5nc(c(-c6ccc(S(=O)(=O)[O-])cc6)c6ccc3[nH]6)C=C5)C=C4)cc1)[C@@H](C(F)(F)F)O2
REMARK SMILES IDX 16 1 15 2 14 3 12 4 13 5 11 6 3 7 4 8 9 9 5 10 8 11 6 12
REMARK SMILES IDX 7 13 10 14 85 15 80 16 2 17 1 18 81 19 82 20 83 21 84 22
REMARK SMILES IDX 17 23 18 24 19 25 20 26 21 27 79 28 22 29 78 30 23 31 24 32
REMARK SMILES IDX 25 33 72 34 26 35 77 36 71 37 73 38 27 39 76 40 70 41 69 42
REMARK SMILES IDX 28 44 58 45 39 46 57 47 40 48 43 49 56 50 74 51 41 52 42 53
REMARK SMILES IDX 55 55 75 56 44 57 29 58 30 59 38 60 31 61 37 62 32 63 33 64
REMARK SMILES IDX 34 65 35 66 36 67 59 68 60 69 68 70 61 71 67 72 62 73 63 74
REMARK SMILES IDX 64 75 65 76 66 77 45 78 46 79 54 80 47 81 53 82 48 83 49 84
REMARK SMILES IDX 50 85 51 86 52 87
REMARK H PARENT 73 43 43 54
REMARK Flexibility Score: inf
ROOT
ATOM      1  C   UNL A   1      33.516  33.814  28.063  1.00  0.00     0.275 C 
ENDROOT
BRANCH   1   2
ATOM      2  C   UNL A   1      34.175  34.921  28.889  1.00  0.00     0.275 C 
BRANCH   2   3
ATOM      3  O   UNL A   1      33.949  34.734  30.304  1.00  0.00    -0.459 OA
BRANCH   3   4
ATOM      4  C   UNL A   1      34.599  33.685  30.862  1.00  0.00     0.338 C 
ATOM      5  O   UNL A   1      34.239  32.518  30.843  1.00  0.00    -0.246 OA
BRANCH   4   6
ATOM      6  C   UNL A   1      35.844  34.123  31.523  1.00  0.00     0.087 C 
ATOM      7  C   UNL A   1      40.657  33.939  31.682  1.00  0.00     0.027 A 
ATOM      8  C   UNL A   1      40.644  34.456  32.977  1.00  0.00     0.041 A 
ATOM      9  C   UNL A   1      39.457  33.787  30.990  1.00  0.00     0.029 A 
ATOM     10  C   UNL A   1      39.430  34.819  33.573  1.00  0.00     0.084 A 
ATOM     11  C   UNL A   1      38.243  34.132  31.600  1.00  0.00     0.020 A 
ATOM     12  Cl  UNL A   1      39.466  35.447  35.183  1.00  0.00    -0.080 Cl
ATOM     13  C   UNL A   1      38.216  34.654  32.893  1.00  0.00     0.146 A 
ATOM     14  C   UNL A   1      37.001  33.894  30.896  1.00  0.00     0.027 C 
ATOM     15  O   UNL A   1      37.050  35.020  33.513  1.00  0.00    -0.474 OA
ATOM     16  C   UNL A   1      35.771  34.643  32.925  1.00  0.00     0.316 C 
BRANCH   7  17
ATOM     17  C   UNL A   1      41.883  33.540  31.063  1.00  0.00    -0.070 C 
ATOM     18  C   UNL A   1      42.931  33.236  30.560  1.00  0.00     0.010 C 
ENDBRANCH   7  17
BRANCH  16  19
ATOM     19  C   UNL A   1      35.070  33.636  33.851  1.00  0.00     0.430 C 
ATOM     20  F   UNL A   1      35.508  32.373  33.631  1.00  0.00    -0.167 F 
ATOM     21  F   UNL A   1      35.317  33.903  35.157  1.00  0.00    -0.167 F 
ATOM     22  F   UNL A   1      33.728  33.636  33.685  1.00  0.00    -0.167 F 
ENDBRANCH  16  19
ENDBRANCH   4   6
ENDBRANCH   3   4
ENDBRANCH   2   3
ENDBRANCH   1   2
BRANCH   1  23
ATOM     23  O   UNL A   1      34.506  32.992  27.419  1.00  0.00    -0.458 OA
BRANCH  23  24
ATOM     24  C   UNL A   1      34.347  31.665  27.620  1.00  0.00     0.338 C 
ATOM     25  O   UNL A   1      33.342  31.002  27.419  1.00  0.00    -0.246 OA
BRANCH  24  26
ATOM     26  C   UNL A   1      35.617  31.045  28.017  1.00  0.00     0.060 A 
ATOM     27  C   UNL A   1      35.564  29.788  28.601  1.00  0.00     0.016 A 
ATOM     28  C   UNL A   1      36.794  31.783  28.058  1.00  0.00     0.016 A 
ATOM     29  C   UNL A   1      36.604  29.356  29.412  1.00  0.00     0.010 A 
ATOM     30  C   UNL A   1      37.911  31.252  28.715  1.00  0.00     0.010 A 
ATOM     31  C   UNL A   1      37.812  30.059  29.455  1.00  0.00    -0.014 A 
BRANCH  31  32
ATOM     32  C   UNL A   1      38.947  29.543  30.274  1.00  0.00     0.031 A 
ATOM     33  C   UNL A   1      39.130  29.999  31.702  1.00  0.00     0.074 A 
ATOM     34  C   UNL A   1      39.807  28.645  29.745  1.00  0.00     0.049 A 
ATOM     35  N   UNL A   1      40.144  29.799  32.506  1.00  0.00    -0.248 NA
ATOM     36  C   UNL A   1      38.043  30.791  32.305  1.00  0.00     0.031 C 
ATOM     37  C   UNL A   1      39.717  28.066  28.398  1.00  0.00     0.029 A 
ATOM     38  N   UNL A   1      40.923  28.044  30.275  1.00  0.00    -0.354 N 
ATOM     39  C   UNL A   1      39.841  30.480  33.682  1.00  0.00     0.074 A 
ATOM     40  C   UNL A   1      38.558  31.115  33.484  1.00  0.00     0.031 C 
ATOM     41  C   UNL A   1      40.687  27.158  28.235  1.00  0.00     0.029 A 
ATOM     42  C   UNL A   1      41.549  27.178  29.406  1.00  0.00     0.049 A 
ATOM     43  H   UNL A   1      41.244  28.216  31.189  1.00  0.00     0.167 HD
ATOM     44  C   UNL A   1      40.567  30.562  34.821  1.00  0.00     0.031 A 
ATOM     45  C   UNL A   1      42.716  26.514  29.504  1.00  0.00     0.031 A 
ATOM     46  C   UNL A   1      41.827  29.893  35.020  1.00  0.00     0.049 A 
ATOM     47  C   UNL A   1      43.543  26.695  30.744  1.00  0.00     0.074 A 
ATOM     48  C   UNL A   1      42.639  29.909  36.141  1.00  0.00     0.029 A 
ATOM     49  N   UNL A   1      42.449  29.078  34.087  1.00  0.00    -0.354 N 
ATOM     50  N   UNL A   1      43.261  27.381  31.827  1.00  0.00    -0.248 NA
ATOM     51  C   UNL A   1      44.851  26.029  30.772  1.00  0.00     0.031 C 
ATOM     52  C   UNL A   1      43.782  29.157  35.862  1.00  0.00     0.029 A 
ATOM     53  C   UNL A   1      43.648  28.609  34.596  1.00  0.00     0.049 A 
ATOM     54  H   UNL A   1      42.092  28.864  33.195  1.00  0.00     0.167 HD
ATOM     55  C   UNL A   1      44.348  27.208  32.674  1.00  0.00     0.074 A 
ATOM     56  C   UNL A   1      45.278  26.334  31.989  1.00  0.00     0.031 C 
ATOM     57  C   UNL A   1      44.558  27.732  33.905  1.00  0.00     0.031 A 
BRANCH  44  58
ATOM     58  C   UNL A   1      40.043  31.417  35.948  1.00  0.00    -0.014 A 
ATOM     59  C   UNL A   1      38.757  31.217  36.481  1.00  0.00     0.010 A 
ATOM     60  C   UNL A   1      40.890  32.367  36.550  1.00  0.00     0.010 A 
ATOM     61  C   UNL A   1      38.326  31.960  37.584  1.00  0.00     0.020 A 
ATOM     62  C   UNL A   1      40.473  33.090  37.671  1.00  0.00     0.020 A 
ATOM     63  C   UNL A   1      39.190  32.885  38.178  1.00  0.00     0.054 A 
BRANCH  63  64
ATOM     64  S   UNL A   1      38.622  33.782  39.649  1.00  0.00     0.124 S 
ATOM     65  O   UNL A   1      38.856  35.171  39.265  1.00  0.00    -0.237 OA
ATOM     66  O   UNL A   1      37.221  33.383  39.741  1.00  0.00    -0.237 OA
ATOM     67  O   UNL A   1      39.483  33.281  40.718  1.00  0.00    -0.744 OA
ENDBRANCH  63  64
ENDBRANCH  44  58
BRANCH  45  68
ATOM     68  C   UNL A   1      43.195  25.665  28.376  1.00  0.00    -0.014 A 
ATOM     69  C   UNL A   1      42.852  24.304  28.310  1.00  0.00     0.010 A 
ATOM     70  C   UNL A   1      43.991  26.215  27.353  1.00  0.00     0.010 A 
ATOM     71  C   UNL A   1      43.314  23.506  27.259  1.00  0.00     0.020 A 
ATOM     72  C   UNL A   1      44.422  25.432  26.279  1.00  0.00     0.020 A 
ATOM     73  C   UNL A   1      44.093  24.077  26.248  1.00  0.00     0.054 A 
BRANCH  73  74
ATOM     74  S   UNL A   1      44.659  23.025  24.883  1.00  0.00     0.124 S 
ATOM     75  O   UNL A   1      45.566  23.917  24.168  1.00  0.00    -0.237 OA
ATOM     76  O   UNL A   1      45.289  21.912  25.589  1.00  0.00    -0.237 OA
ATOM     77  O   UNL A   1      43.426  22.688  24.175  1.00  0.00    -0.744 OA
ENDBRANCH  73  74
ENDBRANCH  45  68
BRANCH  57  78
ATOM     78  C   UNL A   1      45.830  27.350  34.613  1.00  0.00    -0.014 A 
ATOM     79  C   UNL A   1      46.989  28.136  34.503  1.00  0.00     0.010 A 
ATOM     80  C   UNL A   1      45.838  26.226  35.461  1.00  0.00     0.010 A 
ATOM     81  C   UNL A   1      48.143  27.791  35.209  1.00  0.00     0.020 A 
ATOM     82  C   UNL A   1      46.978  25.898  36.197  1.00  0.00     0.020 A 
ATOM     83  C   UNL A   1      48.128  26.679  36.057  1.00  0.00     0.054 A 
BRANCH  83  84
ATOM     84  S   UNL A   1      49.625  26.290  37.002  1.00  0.00     0.124 S 
ATOM     85  O   UNL A   1      50.661  26.371  35.978  1.00  0.00    -0.237 OA
ATOM     86  O   UNL A   1      49.648  27.351  38.006  1.00  0.00    -0.237 OA
ATOM     87  O   UNL A   1      49.369  24.949  37.524  1.00  0.00    -0.744 OA
ENDBRANCH  83  84
ENDBRANCH  57  78
ENDBRANCH  31  32
ENDBRANCH  24  26
ENDBRANCH  23  24
ENDBRANCH   1  23
TORSDOF 16
ENDMDL
MODEL 2
REMARK VINA RESULT:      -9.4      5.191     10.687
REMARK SMILES C#Cc1cc(Cl)c2c(c1)C=C(C(=O)OCCOC(=O)c1ccc(-c3c4nc(c(-c5ccc(S(=O)(=O)[O-])cc5)c5ccc([nH]5)c(-c5ccc(S(=O)(=O)[O-])cc5)c5nc(c(-c6ccc(S(=O)(=O)[O-])cc6)c6ccc3[nH]6)C=C5)C=C4)cc1)[C@@H](C(F)(F)F)O2
REMARK SMILES IDX 16 1 15 2 14 3 12 4 13 5 11 6 3 7 4 8 9 9 5 10 8 11 6 12
REMARK SMILES IDX 7 13 10 14 85 15 80 16 2 17 1 18 81 19 82 20 83 21 84 22
REMARK SMILES IDX 17 23 18 24 19 25 20 26 21 27 79 28 22 29 78 30 23 31 24 32
REMARK SMILES IDX 25 33 72 34 26 35 77 36 71 37 73 38 27 39 76 40 70 41 69 42
REMARK SMILES IDX 28 44 58 45 39 46 57 47 40 48 43 49 56 50 74 51 41 52 42 53
REMARK SMILES IDX 55 55 75 56 44 57 29 58 30 59 38 60 31 61 37 62 32 63 33 64
REMARK SMILES IDX 34 65 35 66 36 67 59 68 60 69 68 70 61 71 67 72 62 73 63 74
REMARK SMILES IDX 64 75 65 76 66 77 45 78 46 79 54 80 47 81 53 82 48 83 49 84
REMARK SMILES IDX 50 85 51 86 52 87
REMARK H PARENT 73 43 43 54
REMARK Flexibility Score: inf
ROOT
ATOM      1  C   UNL A   1      35.968  23.440  26.104  1.00  0.00     0.275 C 
ENDROOT
BRANCH   1   2
ATOM      2  C   UNL A   1      35.225  22.676  25.005  1.00  0.00     0.275 C 
BRANCH   2   3
ATOM      3  O   UNL A   1      33.935  23.266  24.727  1.00  0.00    -0.459 OA
BRANCH   3   4
ATOM      4  C   UNL A   1      33.817  23.856  23.514  1.00  0.00     0.338 C 
ATOM      5  O   UNL A   1      34.099  23.356  22.436  1.00  0.00    -0.246 OA
BRANCH   4   6
ATOM      6  C   UNL A   1      33.286  25.227  23.640  1.00  0.00     0.087 C 
ATOM      7  C   UNL A   1      33.340  29.419  26.018  1.00  0.00     0.027 A 
ATOM      8  C   UNL A   1      32.130  29.781  25.427  1.00  0.00     0.041 A 
ATOM      9  C   UNL A   1      33.944  28.214  25.664  1.00  0.00     0.029 A 
ATOM     10  C   UNL A   1      31.532  28.936  24.484  1.00  0.00     0.084 A 
ATOM     11  C   UNL A   1      33.329  27.362  24.736  1.00  0.00     0.020 A 
ATOM     12  Cl  UNL A   1      30.028  29.427  23.787  1.00  0.00    -0.080 Cl
ATOM     13  C   UNL A   1      32.121  27.714  24.135  1.00  0.00     0.146 A 
ATOM     14  C   UNL A   1      33.931  26.079  24.441  1.00  0.00     0.027 C 
ATOM     15  O   UNL A   1      31.501  26.916  23.210  1.00  0.00    -0.474 OA
ATOM     16  C   UNL A   1      31.967  25.550  23.007  1.00  0.00     0.316 C 
BRANCH   7  17
ATOM     17  C   UNL A   1      33.958  30.255  27.000  1.00  0.00    -0.070 C 
ATOM     18  C   UNL A   1      34.501  30.928  27.834  1.00  0.00     0.010 C 
ENDBRANCH   7  17
BRANCH  16  19
ATOM     19  C   UNL A   1      30.876  24.573  23.476  1.00  0.00     0.430 C 
ATOM     20  F   UNL A   1      29.640  25.106  23.333  1.00  0.00    -0.167 F 
ATOM     21  F   UNL A   1      30.885  23.430  22.747  1.00  0.00    -0.167 F 
ATOM     22  F   UNL A   1      31.023  24.226  24.774  1.00  0.00    -0.167 F 
ENDBRANCH  16  19
ENDBRANCH   4   6
ENDBRANCH   3   4
ENDBRANCH   2   3
ENDBRANCH   1   2
BRANCH   1  23
ATOM     23  O   UNL A   1      37.190  24.009  25.600  1.00  0.00    -0.458 OA
BRANCH  23  24
ATOM     24  C   UNL A   1      38.314  23.405  26.046  1.00  0.00     0.338 C 
ATOM     25  O   UNL A   1      38.681  22.263  25.814  1.00  0.00    -0.246 OA
BRANCH  24  26
ATOM     26  C   UNL A   1      39.155  24.354  26.783  1.00  0.00     0.060 A 
ATOM     27  C   UNL A   1      38.958  24.459  28.152  1.00  0.00     0.016 A 
ATOM     28  C   UNL A   1      39.926  25.299  26.116  1.00  0.00     0.016 A 
ATOM     29  C   UNL A   1      39.338  25.614  28.821  1.00  0.00     0.010 A 
ATOM     30  C   UNL A   1      40.475  26.366  26.838  1.00  0.00     0.010 A 
ATOM     31  C   UNL A   1      40.137  26.572  28.188  1.00  0.00    -0.014 A 
BRANCH  31  32
ATOM     32  C   UNL A   1      40.599  27.774  28.943  1.00  0.00     0.031 A 
ATOM     33  C   UNL A   1      41.980  27.810  29.553  1.00  0.00     0.074 A 
ATOM     34  C   UNL A   1      39.787  28.847  29.063  1.00  0.00     0.049 A 
ATOM     35  N   UNL A   1      42.489  28.685  30.384  1.00  0.00    -0.248 NA
ATOM     36  C   UNL A   1      42.906  26.720  29.199  1.00  0.00     0.031 C 
ATOM     37  C   UNL A   1      38.450  28.979  28.471  1.00  0.00     0.029 A 
ATOM     38  N   UNL A   1      39.966  30.045  29.712  1.00  0.00    -0.354 N 
ATOM     39  C   UNL A   1      43.767  28.225  30.689  1.00  0.00     0.074 A 
ATOM     40  C   UNL A   1      43.952  26.985  29.971  1.00  0.00     0.031 C 
ATOM     41  C   UNL A   1      37.964  30.199  28.728  1.00  0.00     0.029 A 
ATOM     42  C   UNL A   1      38.887  30.894  29.611  1.00  0.00     0.049 A 
ATOM     43  H   UNL A   1      40.788  30.274  30.202  1.00  0.00     0.167 HD
ATOM     44  C   UNL A   1      44.699  28.791  31.492  1.00  0.00     0.031 A 
ATOM     45  C   UNL A   1      38.630  32.075  30.204  1.00  0.00     0.031 A 
ATOM     46  C   UNL A   1      44.516  30.047  32.172  1.00  0.00     0.049 A 
ATOM     47  C   UNL A   1      39.644  32.634  31.159  1.00  0.00     0.074 A 
ATOM     48  C   UNL A   1      45.403  30.708  33.005  1.00  0.00     0.029 A 
ATOM     49  N   UNL A   1      43.381  30.838  32.087  1.00  0.00    -0.354 N 
ATOM     50  N   UNL A   1      40.828  32.161  31.470  1.00  0.00    -0.248 NA
ATOM     51  C   UNL A   1      39.286  33.876  31.855  1.00  0.00     0.031 C 
ATOM     52  C   UNL A   1      44.779  31.865  33.475  1.00  0.00     0.029 A 
ATOM     53  C   UNL A   1      43.533  31.966  32.875  1.00  0.00     0.049 A 
ATOM     54  H   UNL A   1      42.584  30.629  31.548  1.00  0.00     0.167 HD
ATOM     55  C   UNL A   1      41.364  33.062  32.381  1.00  0.00     0.074 A 
ATOM     56  C   UNL A   1      40.388  34.118  32.551  1.00  0.00     0.031 C 
ATOM     57  C   UNL A   1      42.555  33.013  33.025  1.00  0.00     0.031 A 
BRANCH  44  58
ATOM     58  C   UNL A   1      46.001  28.061  31.706  1.00  0.00    -0.014 A 
ATOM     59  C   UNL A   1      46.092  26.968  32.586  1.00  0.00     0.010 A 
ATOM     60  C   UNL A   1      47.127  28.412  30.937  1.00  0.00     0.010 A 
ATOM     61  C   UNL A   1      47.286  26.249  32.701  1.00  0.00     0.020 A 
ATOM     62  C   UNL A   1      48.314  27.678  31.028  1.00  0.00     0.020 A 
ATOM     63  C   UNL A   1      48.386  26.603  31.914  1.00  0.00     0.054 A 
BRANCH  63  64
ATOM     64  S   UNL A   1      49.898  25.608  32.039  1.00  0.00     0.124 S 
ATOM     65  O   UNL A   1      50.078  25.158  30.661  1.00  0.00    -0.237 OA
ATOM     66  O   UNL A   1      50.878  26.579  32.516  1.00  0.00    -0.237 OA
ATOM     67  O   UNL A   1      49.547  24.558  32.993  1.00  0.00    -0.744 OA
ENDBRANCH  63  64
ENDBRANCH  44  58
BRANCH  45  68
ATOM     68  C   UNL A   1      37.337  32.776  29.955  1.00  0.00    -0.014 A 
ATOM     69  C   UNL A   1      36.284  32.683  30.880  1.00  0.00     0.010 A 
ATOM     70  C   UNL A   1      37.154  33.549  28.792  1.00  0.00     0.010 A 
ATOM     71  C   UNL A   1      35.068  33.328  30.638  1.00  0.00     0.020 A 
ATOM     72  C   UNL A   1      35.955  34.229  28.564  1.00  0.00     0.020 A 
ATOM     73  C   UNL A   1      34.913  34.100  29.483  1.00  0.00     0.054 A 
BRANCH  73  74
ATOM     74  S   UNL A   1      33.334  34.947  29.205  1.00  0.00     0.124 S 
ATOM     75  O   UNL A   1      32.735  34.916  30.536  1.00  0.00    -0.237 OA
ATOM     76  O   UNL A   1      33.763  36.262  28.734  1.00  0.00    -0.237 OA
ATOM     77  O   UNL A   1      32.670  34.118  28.201  1.00  0.00    -0.744 OA
ENDBRANCH  73  74
ENDBRANCH  45  68
BRANCH  57  78
ATOM     78  C   UNL A   1      42.891  34.152  33.949  1.00  0.00    -0.014 A 
ATOM     79  C   UNL A   1      42.641  34.068  35.329  1.00  0.00     0.010 A 
ATOM     80  C   UNL A   1      43.535  35.294  33.435  1.00  0.00     0.010 A 
ATOM     81  C   UNL A   1      43.006  35.116  36.176  1.00  0.00     0.020 A 
ATOM     82  C   UNL A   1      43.935  36.327  34.284  1.00  0.00     0.020 A 
ATOM     83  C   UNL A   1      43.658  36.235  35.649  1.00  0.00     0.054 A 
BRANCH  83  84
ATOM     84  S   UNL A   1      44.170  37.553  36.783  1.00  0.00     0.124 S 
ATOM     85  O   UNL A   1      45.454  37.056  37.267  1.00  0.00    -0.237 OA
ATOM     86  O   UNL A   1      44.237  38.718  35.904  1.00  0.00    -0.237 OA
ATOM     87  O   UNL A   1      43.102  37.591  37.779  1.00  0.00    -0.744 OA
ENDBRANCH  83  84
ENDBRANCH  57  78
ENDBRANCH  31  32
ENDBRANCH  24  26
ENDBRANCH  23  24
ENDBRANCH   1  23
TORSDOF 16
ENDMDL
MODEL 3
REMARK VINA RESULT:      -9.3      5.596      8.349
REMARK SMILES C#Cc1cc(Cl)c2c(c1)C=C(C(=O)OCCOC(=O)c1ccc(-c3c4nc(c(-c5ccc(S(=O)(=O)[O-])cc5)c5ccc([nH]5)c(-c5ccc(S(=O)(=O)[O-])cc5)c5nc(c(-c6ccc(S(=O)(=O)[O-])cc6)c6ccc3[nH]6)C=C5)C=C4)cc1)[C@@H](C(F)(F)F)O2
REMARK SMILES IDX 16 1 15 2 14 3 12 4 13 5 11 6 3 7 4 8 9 9 5 10 8 11 6 12
REMARK SMILES IDX 7 13 10 14 85 15 80 16 2 17 1 18 81 19 82 20 83 21 84 22
REMARK SMILES IDX 17 23 18 24 19 25 20 26 21 27 79 28 22 29 78 30 23 31 24 32
REMARK SMILES IDX 25 33 72 34 26 35 77 36 71 37 73 38 27 39 76 40 70 41 69 42
REMARK SMILES IDX 28 44 58 45 39 46 57 47 40 48 43 49 56 50 74 51 41 52 42 53
REMARK SMILES IDX 55 55 75 56 44 57 29 58 30 59 38 60 31 61 37 62 32 63 33 64
REMARK SMILES IDX 34 65 35 66 36 67 59 68 60 69 68 70 61 71 67 72 62 73 63 74
REMARK SMILES IDX 64 75 65 76 66 77 45 78 46 79 54 80 47 81 53 82 48 83 49 84
REMARK SMILES IDX 50 85 51 86 52 87
REMARK H PARENT 73 43 43 54
REMARK Flexibility Score: inf
ROOT
ATOM      1  C   UNL A   1      33.692  28.634  25.873  1.00  0.00     0.275 C 
ENDROOT
BRANCH   1   2
ATOM      2  C   UNL A   1      33.899  27.266  25.220  1.00  0.00     0.275 C 
BRANCH   2   3
ATOM      3  O   UNL A   1      33.467  27.265  23.840  1.00  0.00    -0.459 OA
BRANCH   3   4
ATOM      4  C   UNL A   1      32.646  26.247  23.490  1.00  0.00     0.338 C 
ATOM      5  O   UNL A   1      32.968  25.079  23.335  1.00  0.00    -0.246 OA
BRANCH   4   6
ATOM      6  C   UNL A   1      31.261  26.721  23.308  1.00  0.00     0.087 C 
ATOM      7  C   UNL A   1      28.316  30.313  22.018  1.00  0.00     0.027 A 
ATOM      8  C   UNL A   1      27.247  29.674  22.644  1.00  0.00     0.041 A 
ATOM      9  C   UNL A   1      29.565  29.694  21.988  1.00  0.00     0.029 A 
ATOM     10  C   UNL A   1      27.431  28.419  23.236  1.00  0.00     0.084 A 
ATOM     11  C   UNL A   1      29.748  28.446  22.602  1.00  0.00     0.020 A 
ATOM     12  Cl  UNL A   1      26.076  27.673  24.007  1.00  0.00    -0.080 Cl
ATOM     13  C   UNL A   1      28.686  27.796  23.227  1.00  0.00     0.146 A 
ATOM     14  C   UNL A   1      31.069  27.856  22.629  1.00  0.00     0.027 C 
ATOM     15  O   UNL A   1      28.824  26.568  23.820  1.00  0.00    -0.474 OA
ATOM     16  C   UNL A   1      30.155  26.013  24.029  1.00  0.00     0.316 C 
BRANCH   7  17
ATOM     17  C   UNL A   1      28.157  31.605  21.426  1.00  0.00    -0.070 C 
ATOM     18  C   UNL A   1      28.047  32.706  20.957  1.00  0.00     0.010 C 
ENDBRANCH   7  17
BRANCH  16  19
ATOM     19  C   UNL A   1      30.439  25.941  25.538  1.00  0.00     0.430 C 
ATOM     20  F   UNL A   1      31.420  25.049  25.815  1.00  0.00    -0.167 F 
ATOM     21  F   UNL A   1      30.859  27.134  26.024  1.00  0.00    -0.167 F 
ATOM     22  F   UNL A   1      29.346  25.577  26.247  1.00  0.00    -0.167 F 
ENDBRANCH  16  19
ENDBRANCH   4   6
ENDBRANCH   3   4
ENDBRANCH   2   3
ENDBRANCH   1   2
BRANCH   1  23
ATOM     23  O   UNL A   1      34.171  28.636  27.230  1.00  0.00    -0.458 OA
BRANCH  23  24
ATOM     24  C   UNL A   1      34.451  29.863  27.722  1.00  0.00     0.338 C 
ATOM     25  O   UNL A   1      33.675  30.793  27.875  1.00  0.00    -0.246 OA
BRANCH  24  26
ATOM     26  C   UNL A   1      35.840  29.928  28.191  1.00  0.00     0.060 A 
ATOM     27  C   UNL A   1      36.826  30.181  27.248  1.00  0.00     0.016 A 
ATOM     28  C   UNL A   1      36.189  29.494  29.464  1.00  0.00     0.016 A 
ATOM     29  C   UNL A   1      38.136  29.794  27.494  1.00  0.00     0.010 A 
ATOM     30  C   UNL A   1      37.542  29.292  29.771  1.00  0.00     0.010 A 
ATOM     31  C   UNL A   1      38.527  29.379  28.771  1.00  0.00    -0.014 A 
BRANCH  31  32
ATOM     32  C   UNL A   1      39.955  29.037  29.039  1.00  0.00     0.031 A 
ATOM     33  C   UNL A   1      40.882  30.053  29.661  1.00  0.00     0.074 A 
ATOM     34  C   UNL A   1      40.419  27.802  28.743  1.00  0.00     0.049 A 
ATOM     35  N   UNL A   1      42.182  30.000  29.807  1.00  0.00    -0.248 NA
ATOM     36  C   UNL A   1      40.278  31.295  30.176  1.00  0.00     0.031 C 
ATOM     37  C   UNL A   1      39.621  26.697  28.197  1.00  0.00     0.029 A 
ATOM     38  N   UNL A   1      41.672  27.255  28.872  1.00  0.00    -0.354 N 
ATOM     39  C   UNL A   1      42.554  31.213  30.378  1.00  0.00     0.074 A 
ATOM     40  C   UNL A   1      41.347  31.993  30.537  1.00  0.00     0.031 C 
ATOM     41  C   UNL A   1      40.382  25.600  28.100  1.00  0.00     0.029 A 
ATOM     42  C   UNL A   1      41.751  25.948  28.448  1.00  0.00     0.049 A 
ATOM     43  H   UNL A   1      42.441  27.751  29.235  1.00  0.00     0.167 HD
ATOM     44  C   UNL A   1      43.789  31.634  30.739  1.00  0.00     0.031 A 
ATOM     45  C   UNL A   1      42.807  25.127  28.295  1.00  0.00     0.031 A 
ATOM     46  C   UNL A   1      44.979  30.833  30.610  1.00  0.00     0.049 A 
ATOM     47  C   UNL A   1      44.176  25.652  28.619  1.00  0.00     0.074 A 
ATOM     48  C   UNL A   1      46.279  31.167  30.952  1.00  0.00     0.029 A 
ATOM     49  N   UNL A   1      45.015  29.538  30.116  1.00  0.00    -0.354 N 
ATOM     50  N   UNL A   1      44.512  26.819  29.115  1.00  0.00    -0.248 NA
ATOM     51  C   UNL A   1      45.309  24.758  28.350  1.00  0.00     0.031 C 
ATOM     52  C   UNL A   1      47.108  30.099  30.605  1.00  0.00     0.029 A 
ATOM     53  C   UNL A   1      46.317  29.070  30.118  1.00  0.00     0.049 A 
ATOM     54  H   UNL A   1      44.231  29.027  29.809  1.00  0.00     0.167 HD
ATOM     55  C   UNL A   1      45.895  26.790  29.239  1.00  0.00     0.074 A 
ATOM     56  C   UNL A   1      46.329  25.482  28.790  1.00  0.00     0.031 C 
ATOM     57  C   UNL A   1      46.731  27.762  29.677  1.00  0.00     0.031 A 
BRANCH  44  58
ATOM     58  C   UNL A   1      43.940  33.029  31.293  1.00  0.00    -0.014 A 
ATOM     59  C   UNL A   1      43.924  33.273  32.678  1.00  0.00     0.010 A 
ATOM     60  C   UNL A   1      44.204  34.098  30.416  1.00  0.00     0.010 A 
ATOM     61  C   UNL A   1      44.156  34.559  33.172  1.00  0.00     0.020 A 
ATOM     62  C   UNL A   1      44.467  35.380  30.908  1.00  0.00     0.020 A 
ATOM     63  C   UNL A   1      44.436  35.603  32.285  1.00  0.00     0.054 A 
BRANCH  63  64
ATOM     64  S   UNL A   1      44.800  37.245  32.964  1.00  0.00     0.124 S 
ATOM     65  O   UNL A   1      44.560  37.041  34.391  1.00  0.00    -0.237 OA
ATOM     66  O   UNL A   1      46.196  37.443  32.585  1.00  0.00    -0.237 OA
ATOM     67  O   UNL A   1      43.842  38.121  32.294  1.00  0.00    -0.744 OA
ENDBRANCH  63  64
ENDBRANCH  44  58
BRANCH  45  68
ATOM     68  C   UNL A   1      42.617  23.749  27.759  1.00  0.00    -0.014 A 
ATOM     69  C   UNL A   1      42.701  23.500  26.379  1.00  0.00     0.010 A 
ATOM     70  C   UNL A   1      42.357  22.672  28.629  1.00  0.00     0.010 A 
ATOM     71  C   UNL A   1      42.508  22.210  25.878  1.00  0.00     0.020 A 
ATOM     72  C   UNL A   1      42.203  21.373  28.136  1.00  0.00     0.020 A 
ATOM     73  C   UNL A   1      42.264  21.154  26.760  1.00  0.00     0.054 A 
BRANCH  73  74
ATOM     74  S   UNL A   1      42.041  19.486  26.085  1.00  0.00     0.124 S 
ATOM     75  O   UNL A   1      42.979  19.483  24.967  1.00  0.00    -0.237 OA
ATOM     76  O   UNL A   1      42.405  18.639  27.219  1.00  0.00    -0.237 OA
ATOM     77  O   UNL A   1      40.628  19.450  25.716  1.00  0.00    -0.744 OA
ENDBRANCH  73  74
ENDBRANCH  45  68
BRANCH  57  78
ATOM     78  C   UNL A   1      48.200  27.442  29.729  1.00  0.00    -0.014 A 
ATOM     79  C   UNL A   1      49.053  27.758  28.658  1.00  0.00     0.010 A 
ATOM     80  C   UNL A   1      48.745  26.883  30.901  1.00  0.00     0.010 A 
ATOM     81  C   UNL A   1      50.421  27.498  28.748  1.00  0.00     0.020 A 
ATOM     82  C   UNL A   1      50.118  26.655  31.008  1.00  0.00     0.020 A 
ATOM     83  C   UNL A   1      50.946  26.956  29.925  1.00  0.00     0.054 A 
BRANCH  83  84
ATOM     84  S   UNL A   1      52.735  26.683  30.030  1.00  0.00     0.124 S 
ATOM     85  O   UNL A   1      52.821  25.602  31.007  1.00  0.00    -0.237 OA
ATOM     86  O   UNL A   1      53.081  26.320  28.659  1.00  0.00    -0.237 OA
ATOM     87  O   UNL A   1      53.259  27.971  30.480  1.00  0.00    -0.744 OA
ENDBRANCH  83  84
ENDBRANCH  57  78
ENDBRANCH  31  32
ENDBRANCH  24  26
ENDBRANCH  23  24
ENDBRANCH   1  23
TORSDOF 16
ENDMDL
