MODEL 1
REMARK VINA RESULT:     -10.0      0.000      0.000
REMARK SMILES O=C(CSc1ccnc(C(=O)OCCOC(=O)c2ccc(-c3c4nc(c(-c5ccc(S(=O)(=O)[O-])cc5)c5ccc([nH]5)c(-c5ccc(S(=O)(=O)[O-])cc5)c5nc(c(-c6ccc(S(=O)(=O)[O-])cc6)c6ccc3[nH]6)C=C5)C=C4)cc2)c1)NCC(F)(F)F
REMARK SMILES IDX 13 1 12 2 10 3 11 4 9 5 5 6 6 7 78 8 7 9 8 10 4 11 3 12 2 13
REMARK SMILES IDX 1 14 79 15 80 17 81 18 82 19 83 20 84 21 14 22 15 23 16 24
REMARK SMILES IDX 17 25 18 26 19 27 77 28 20 29 76 30 21 31 22 32 23 33 70 34
REMARK SMILES IDX 24 35 75 36 69 37 71 38 25 39 74 40 68 41 67 42 26 44 56 45
REMARK SMILES IDX 37 46 55 47 38 48 41 49 54 50 72 51 39 52 40 53 53 55 73 56
REMARK SMILES IDX 42 57 27 58 28 59 36 60 29 61 35 62 30 63 31 64 32 65 33 66
REMARK SMILES IDX 34 67 57 68 58 69 66 70 59 71 65 72 60 73 61 74 62 75 63 76
REMARK SMILES IDX 64 77 43 78 44 79 52 80 45 81 51 82 46 83 47 84 48 85 49 86
REMARK SMILES IDX 50 87
REMARK H PARENT 79 16 71 43 41 54
REMARK Flexibility Score: inf
ROOT
ATOM      1  C   UNL A   1      42.688  21.501  26.222  1.00  0.00     0.275 C 
ENDROOT
BRANCH   1   2
ATOM      2  O   UNL A   1      41.493  21.492  27.030  1.00  0.00    -0.457 OA
BRANCH   2   3
ATOM      3  C   UNL A   1      40.413  20.882  26.468  1.00  0.00     0.357 C 
ATOM      4  O   UNL A   1      40.310  19.683  26.262  1.00  0.00    -0.244 OA
BRANCH   3   5
ATOM      5  C   UNL A   1      39.323  21.871  26.199  1.00  0.00     0.149 A 
ATOM      6  C   UNL A   1      37.253  22.557  25.241  1.00  0.00     0.012 A 
ATOM      7  C   UNL A   1      37.460  23.832  25.766  1.00  0.00     0.035 A 
ATOM      8  C   UNL A   1      38.220  21.566  25.417  1.00  0.00     0.051 A 
ATOM      9  C   UNL A   1      38.581  24.043  26.538  1.00  0.00     0.113 A 
ATOM     10  N   UNL A   1      39.486  23.082  26.796  1.00  0.00    -0.249 NA
BRANCH   6  11
ATOM     11  S   UNL A   1      35.728  22.152  24.404  1.00  0.00    -0.116 SA
BRANCH  11  12
ATOM     12  C   UNL A   1      34.738  21.580  25.838  1.00  0.00     0.174 C 
BRANCH  12  13
ATOM     13  C   UNL A   1      33.766  20.465  25.476  1.00  0.00     0.230 C 
ATOM     14  O   UNL A   1      32.565  20.549  25.713  1.00  0.00    -0.274 OA
ATOM     15  N   UNL A   1      34.309  19.400  24.792  1.00  0.00    -0.346 N 
ATOM     16  H   UNL A   1      35.277  19.397  24.610  1.00  0.00     0.163 HD
BRANCH  15  17
ATOM     17  C   UNL A   1      33.498  18.275  24.327  1.00  0.00     0.231 C 
BRANCH  17  18
ATOM     18  C   UNL A   1      34.301  17.017  24.000  1.00  0.00     0.405 C 
ATOM     19  F   UNL A   1      34.624  16.993  22.683  1.00  0.00    -0.169 F 
ATOM     20  F   UNL A   1      35.459  16.982  24.696  1.00  0.00    -0.169 F 
ATOM     21  F   UNL A   1      33.619  15.885  24.270  1.00  0.00    -0.169 F 
ENDBRANCH  17  18
ENDBRANCH  15  17
ENDBRANCH  12  13
ENDBRANCH  11  12
ENDBRANCH   6  11
ENDBRANCH   3   5
ENDBRANCH   2   3
ENDBRANCH   1   2
BRANCH   1  22
ATOM     22  C   UNL A   1      42.952  22.879  25.604  1.00  0.00     0.275 C 
BRANCH  22  23
ATOM     23  O   UNL A   1      42.994  23.926  26.591  1.00  0.00    -0.458 OA
BRANCH  23  24
ATOM     24  C   UNL A   1      42.735  25.168  26.117  1.00  0.00     0.338 C 
ATOM     25  O   UNL A   1      42.776  25.528  24.950  1.00  0.00    -0.246 OA
BRANCH  24  26
ATOM     26  C   UNL A   1      42.256  26.039  27.204  1.00  0.00     0.060 A 
ATOM     27  C   UNL A   1      42.888  27.272  27.356  1.00  0.00     0.016 A 
ATOM     28  C   UNL A   1      41.287  25.633  28.120  1.00  0.00     0.016 A 
ATOM     29  C   UNL A   1      42.581  28.100  28.429  1.00  0.00     0.010 A 
ATOM     30  C   UNL A   1      40.963  26.475  29.195  1.00  0.00     0.010 A 
ATOM     31  C   UNL A   1      41.620  27.709  29.365  1.00  0.00    -0.014 A 
BRANCH  31  32
ATOM     32  C   UNL A   1      41.353  28.586  30.532  1.00  0.00     0.031 A 
ATOM     33  C   UNL A   1      42.229  28.508  31.752  1.00  0.00     0.074 A 
ATOM     34  C   UNL A   1      40.361  29.496  30.474  1.00  0.00     0.049 A 
ATOM     35  N   UNL A   1      42.135  29.165  32.880  1.00  0.00    -0.248 NA
ATOM     36  C   UNL A   1      43.359  27.568  31.695  1.00  0.00     0.031 C 
ATOM     37  C   UNL A   1      39.479  29.711  29.326  1.00  0.00     0.029 A 
ATOM     38  N   UNL A   1      39.938  30.420  31.398  1.00  0.00    -0.354 N 
ATOM     39  C   UNL A   1      43.170  28.697  33.680  1.00  0.00     0.074 A 
ATOM     40  C   UNL A   1      43.875  27.693  32.911  1.00  0.00     0.031 C 
ATOM     41  C   UNL A   1      38.631  30.714  29.607  1.00  0.00     0.029 A 
ATOM     42  C   UNL A   1      38.871  31.175  30.970  1.00  0.00     0.049 A 
ATOM     43  H   UNL A   1      40.357  30.530  32.281  1.00  0.00     0.167 HD
ATOM     44  C   UNL A   1      43.502  29.069  34.940  1.00  0.00     0.031 A 
ATOM     45  C   UNL A   1      38.150  32.116  31.610  1.00  0.00     0.031 A 
ATOM     46  C   UNL A   1      42.805  30.075  35.698  1.00  0.00     0.049 A 
ATOM     47  C   UNL A   1      38.507  32.477  33.025  1.00  0.00     0.074 A 
ATOM     48  C   UNL A   1      43.072  30.528  36.978  1.00  0.00     0.029 A 
ATOM     49  N   UNL A   1      41.703  30.785  35.245  1.00  0.00    -0.354 N 
ATOM     50  N   UNL A   1      39.481  32.014  33.772  1.00  0.00    -0.248 NA
ATOM     51  C   UNL A   1      37.667  33.486  33.685  1.00  0.00     0.031 C 
ATOM     52  C   UNL A   1      42.102  31.478  37.318  1.00  0.00     0.029 A 
ATOM     53  C   UNL A   1      41.263  31.656  36.229  1.00  0.00     0.049 A 
ATOM     54  H   UNL A   1      41.293  30.685  34.355  1.00  0.00     0.167 HD
ATOM     55  C   UNL A   1      39.378  32.683  34.986  1.00  0.00     0.074 A 
ATOM     56  C   UNL A   1      38.260  33.597  34.867  1.00  0.00     0.031 C 
ATOM     57  C   UNL A   1      40.141  32.551  36.099  1.00  0.00     0.031 A 
BRANCH  44  58
ATOM     58  C   UNL A   1      44.645  28.339  35.596  1.00  0.00    -0.014 A 
ATOM     59  C   UNL A   1      44.438  27.159  36.331  1.00  0.00     0.010 A 
ATOM     60  C   UNL A   1      45.953  28.841  35.460  1.00  0.00     0.010 A 
ATOM     61  C   UNL A   1      45.512  26.521  36.960  1.00  0.00     0.020 A 
ATOM     62  C   UNL A   1      47.032  28.193  36.066  1.00  0.00     0.020 A 
ATOM     63  C   UNL A   1      46.801  27.048  36.831  1.00  0.00     0.054 A 
BRANCH  63  64
ATOM     64  S   UNL A   1      48.178  26.207  37.661  1.00  0.00     0.124 S 
ATOM     65  O   UNL A   1      48.547  27.176  38.689  1.00  0.00    -0.237 OA
ATOM     66  O   UNL A   1      47.558  24.978  38.151  1.00  0.00    -0.237 OA
ATOM     67  O   UNL A   1      49.163  26.022  36.597  1.00  0.00    -0.744 OA
ENDBRANCH  63  64
ENDBRANCH  44  58
BRANCH  45  68
ATOM     68  C   UNL A   1      36.997  32.754  30.921  1.00  0.00    -0.014 A 
ATOM     69  C   UNL A   1      37.169  33.919  30.155  1.00  0.00     0.010 A 
ATOM     70  C   UNL A   1      35.718  32.170  31.001  1.00  0.00     0.010 A 
ATOM     71  C   UNL A   1      36.084  34.491  29.485  1.00  0.00     0.020 A 
ATOM     72  C   UNL A   1      34.637  32.724  30.311  1.00  0.00     0.020 A 
ATOM     73  C   UNL A   1      34.825  33.887  29.562  1.00  0.00     0.054 A 
BRANCH  73  74
ATOM     74  S   UNL A   1      33.446  34.602  28.625  1.00  0.00     0.124 S 
ATOM     75  O   UNL A   1      34.097  35.700  27.917  1.00  0.00    -0.237 OA
ATOM     76  O   UNL A   1      33.013  33.482  27.792  1.00  0.00    -0.237 OA
ATOM     77  O   UNL A   1      32.497  35.000  29.662  1.00  0.00    -0.744 OA
ENDBRANCH  73  74
ENDBRANCH  45  68
BRANCH  57  78
ATOM     78  C   UNL A   1      39.804  33.431  37.272  1.00  0.00    -0.014 A 
ATOM     79  C   UNL A   1      39.076  32.933  38.368  1.00  0.00     0.010 A 
ATOM     80  C   UNL A   1      40.261  34.761  37.300  1.00  0.00     0.010 A 
ATOM     81  C   UNL A   1      38.786  33.760  39.456  1.00  0.00     0.020 A 
ATOM     82  C   UNL A   1      39.993  35.583  38.397  1.00  0.00     0.020 A 
ATOM     83  C   UNL A   1      39.245  35.081  39.463  1.00  0.00     0.054 A 
BRANCH  83  84
ATOM     84  S   UNL A   1      38.890  36.124  40.904  1.00  0.00     0.124 S 
ATOM     85  O   UNL A   1      40.159  36.085  41.627  1.00  0.00    -0.237 OA
ATOM     86  O   UNL A   1      38.551  37.409  40.298  1.00  0.00    -0.237 OA
ATOM     87  O   UNL A   1      37.778  35.440  41.561  1.00  0.00    -0.744 OA
ENDBRANCH  83  84
ENDBRANCH  57  78
ENDBRANCH  31  32
ENDBRANCH  24  26
ENDBRANCH  23  24
ENDBRANCH  22  23
ENDBRANCH   1  22
TORSDOF 19
ENDMDL
MODEL 2
REMARK VINA RESULT:     -10.0      0.460      8.309
REMARK SMILES O=C(CSc1ccnc(C(=O)OCCOC(=O)c2ccc(-c3c4nc(c(-c5ccc(S(=O)(=O)[O-])cc5)c5ccc([nH]5)c(-c5ccc(S(=O)(=O)[O-])cc5)c5nc(c(-c6ccc(S(=O)(=O)[O-])cc6)c6ccc3[nH]6)C=C5)C=C4)cc2)c1)NCC(F)(F)F
REMARK SMILES IDX 13 1 12 2 10 3 11 4 9 5 5 6 6 7 78 8 7 9 8 10 4 11 3 12 2 13
REMARK SMILES IDX 1 14 79 15 80 17 81 18 82 19 83 20 84 21 14 22 15 23 16 24
REMARK SMILES IDX 17 25 18 26 19 27 77 28 20 29 76 30 21 31 22 32 23 33 70 34
REMARK SMILES IDX 24 35 75 36 69 37 71 38 25 39 74 40 68 41 67 42 26 44 56 45
REMARK SMILES IDX 37 46 55 47 38 48 41 49 54 50 72 51 39 52 40 53 53 55 73 56
REMARK SMILES IDX 42 57 27 58 28 59 36 60 29 61 35 62 30 63 31 64 32 65 33 66
REMARK SMILES IDX 34 67 57 68 58 69 66 70 59 71 65 72 60 73 61 74 62 75 63 76
REMARK SMILES IDX 64 77 43 78 44 79 52 80 45 81 51 82 46 83 47 84 48 85 49 86
REMARK SMILES IDX 50 87
REMARK H PARENT 79 16 71 43 41 54
REMARK Flexibility Score: inf
ROOT
ATOM      1  C   UNL A   1      42.831  21.980  26.407  1.00  0.00     0.275 C 
ENDROOT
BRANCH   1   2
ATOM      2  O   UNL A   1      41.614  21.870  27.173  1.00  0.00    -0.457 OA
BRANCH   2   3
ATOM      3  C   UNL A   1      40.623  21.140  26.590  1.00  0.00     0.357 C 
ATOM      4  O   UNL A   1      40.668  19.939  26.371  1.00  0.00    -0.244 OA
BRANCH   3   5
ATOM      5  C   UNL A   1      39.424  21.993  26.316  1.00  0.00     0.149 A 
ATOM      6  C   UNL A   1      37.320  22.452  25.299  1.00  0.00     0.012 A 
ATOM      7  C   UNL A   1      37.340  23.716  25.886  1.00  0.00     0.035 A 
ATOM      8  C   UNL A   1      38.400  21.586  25.475  1.00  0.00     0.051 A 
ATOM      9  C   UNL A   1      38.394  24.033  26.714  1.00  0.00     0.113 A 
ATOM     10  N   UNL A   1      39.406  23.185  26.970  1.00  0.00    -0.249 NA
BRANCH   6  11
ATOM     11  S   UNL A   1      35.893  21.894  24.381  1.00  0.00    -0.116 SA
BRANCH  11  12
ATOM     12  C   UNL A   1      34.767  21.508  25.776  1.00  0.00     0.174 C 
BRANCH  12  13
ATOM     13  C   UNL A   1      33.726  20.454  25.418  1.00  0.00     0.230 C 
ATOM     14  O   UNL A   1      32.523  20.692  25.460  1.00  0.00    -0.274 OA
ATOM     15  N   UNL A   1      34.225  19.253  24.967  1.00  0.00    -0.346 N 
ATOM     16  H   UNL A   1      35.201  19.126  24.934  1.00  0.00     0.163 HD
BRANCH  15  17
ATOM     17  C   UNL A   1      33.355  18.159  24.534  1.00  0.00     0.231 C 
BRANCH  17  18
ATOM     18  C   UNL A   1      34.103  16.924  24.034  1.00  0.00     0.405 C 
ATOM     19  F   UNL A   1      34.379  17.044  22.711  1.00  0.00    -0.169 F 
ATOM     20  F   UNL A   1      35.283  16.775  24.676  1.00  0.00    -0.169 F 
ATOM     21  F   UNL A   1      33.393  15.789  24.199  1.00  0.00    -0.169 F 
ENDBRANCH  17  18
ENDBRANCH  15  17
ENDBRANCH  12  13
ENDBRANCH  11  12
ENDBRANCH   6  11
ENDBRANCH   3   5
ENDBRANCH   2   3
ENDBRANCH   1   2
BRANCH   1  22
ATOM     22  C   UNL A   1      42.947  23.340  25.707  1.00  0.00     0.275 C 
BRANCH  22  23
ATOM     23  O   UNL A   1      43.034  24.434  26.640  1.00  0.00    -0.458 OA
BRANCH  23  24
ATOM     24  C   UNL A   1      42.568  25.618  26.176  1.00  0.00     0.338 C 
ATOM     25  O   UNL A   1      42.445  25.947  25.007  1.00  0.00    -0.246 OA
BRANCH  24  26
ATOM     26  C   UNL A   1      42.089  26.450  27.294  1.00  0.00     0.060 A 
ATOM     27  C   UNL A   1      42.726  27.672  27.496  1.00  0.00     0.016 A 
ATOM     28  C   UNL A   1      41.114  26.014  28.189  1.00  0.00     0.016 A 
ATOM     29  C   UNL A   1      42.419  28.461  28.598  1.00  0.00     0.010 A 
ATOM     30  C   UNL A   1      40.789  26.816  29.294  1.00  0.00     0.010 A 
ATOM     31  C   UNL A   1      41.451  28.039  29.514  1.00  0.00    -0.014 A 
BRANCH  31  32
ATOM     32  C   UNL A   1      41.183  28.873  30.713  1.00  0.00     0.031 A 
ATOM     33  C   UNL A   1      40.036  29.846  30.714  1.00  0.00     0.074 A 
ATOM     34  C   UNL A   1      41.931  28.714  31.821  1.00  0.00     0.049 A 
ATOM     35  N   UNL A   1      39.665  30.683  31.649  1.00  0.00    -0.248 NA
ATOM     36  C   UNL A   1      39.197  29.882  29.506  1.00  0.00     0.031 C 
ATOM     37  C   UNL A   1      43.034  27.762  31.966  1.00  0.00     0.029 A 
ATOM     38  N   UNL A   1      41.868  29.339  33.042  1.00  0.00    -0.354 N 
ATOM     39  C   UNL A   1      38.571  31.369  31.134  1.00  0.00     0.074 A 
ATOM     40  C   UNL A   1      38.345  30.855  29.799  1.00  0.00     0.031 C 
ATOM     41  C   UNL A   1      43.532  27.855  33.209  1.00  0.00     0.029 A 
ATOM     42  C   UNL A   1      42.824  28.907  33.931  1.00  0.00     0.049 A 
ATOM     43  H   UNL A   1      41.203  30.031  33.259  1.00  0.00     0.167 HD
ATOM     44  C   UNL A   1      37.826  32.337  31.718  1.00  0.00     0.031 A 
ATOM     45  C   UNL A   1      43.115  29.326  35.177  1.00  0.00     0.031 A 
ATOM     46  C   UNL A   1      38.047  32.837  33.050  1.00  0.00     0.049 A 
ATOM     47  C   UNL A   1      42.305  30.435  35.787  1.00  0.00     0.074 A 
ATOM     48  C   UNL A   1      37.340  33.811  33.733  1.00  0.00     0.029 A 
ATOM     49  N   UNL A   1      39.053  32.404  33.901  1.00  0.00    -0.354 N 
ATOM     50  N   UNL A   1      41.283  31.083  35.279  1.00  0.00    -0.248 NA
ATOM     51  C   UNL A   1      42.688  30.874  37.136  1.00  0.00     0.031 C 
ATOM     52  C   UNL A   1      37.946  33.999  34.980  1.00  0.00     0.029 A 
ATOM     53  C   UNL A   1      39.000  33.106  35.094  1.00  0.00     0.049 A 
ATOM     54  H   UNL A   1      39.709  31.701  33.689  1.00  0.00     0.167 HD
ATOM     55  C   UNL A   1      40.893  31.996  36.251  1.00  0.00     0.074 A 
ATOM     56  C   UNL A   1      41.776  31.806  37.384  1.00  0.00     0.031 C 
ATOM     57  C   UNL A   1      39.894  32.913  36.208  1.00  0.00     0.031 A 
BRANCH  44  58
ATOM     58  C   UNL A   1      36.729  32.956  30.892  1.00  0.00    -0.014 A 
ATOM     59  C   UNL A   1      37.006  33.904  29.893  1.00  0.00     0.010 A 
ATOM     60  C   UNL A   1      35.394  32.568  31.116  1.00  0.00     0.010 A 
ATOM     61  C   UNL A   1      35.965  34.490  29.165  1.00  0.00     0.020 A 
ATOM     62  C   UNL A   1      34.354  33.132  30.374  1.00  0.00     0.020 A 
ATOM     63  C   UNL A   1      34.645  34.106  29.417  1.00  0.00     0.054 A 
BRANCH  63  64
ATOM     64  S   UNL A   1      33.310  34.883  28.464  1.00  0.00     0.124 S 
ATOM     65  O   UNL A   1      34.054  35.773  27.575  1.00  0.00    -0.237 OA
ATOM     66  O   UNL A   1      32.669  33.743  27.817  1.00  0.00    -0.237 OA
ATOM     67  O   UNL A   1      32.503  35.553  29.482  1.00  0.00    -0.744 OA
ENDBRANCH  63  64
ENDBRANCH  44  58
BRANCH  45  68
ATOM     68  C   UNL A   1      44.252  28.709  35.913  1.00  0.00    -0.014 A 
ATOM     69  C   UNL A   1      44.063  27.558  36.696  1.00  0.00     0.010 A 
ATOM     70  C   UNL A   1      45.543  29.258  35.802  1.00  0.00     0.010 A 
ATOM     71  C   UNL A   1      45.146  26.968  37.356  1.00  0.00     0.020 A 
ATOM     72  C   UNL A   1      46.631  28.656  36.440  1.00  0.00     0.020 A 
ATOM     73  C   UNL A   1      46.424  27.518  37.220  1.00  0.00     0.054 A 
BRANCH  73  74
ATOM     74  S   UNL A   1      47.827  26.695  38.024  1.00  0.00     0.124 S 
ATOM     75  O   UNL A   1      48.762  26.536  36.914  1.00  0.00    -0.237 OA
ATOM     76  O   UNL A   1      48.219  27.662  39.047  1.00  0.00    -0.237 OA
ATOM     77  O   UNL A   1      47.248  25.456  38.539  1.00  0.00    -0.744 OA
ENDBRANCH  73  74
ENDBRANCH  45  68
BRANCH  57  78
ATOM     78  C   UNL A   1      39.690  33.766  37.430  1.00  0.00    -0.014 A 
ATOM     79  C   UNL A   1      38.904  33.317  38.506  1.00  0.00     0.010 A 
ATOM     80  C   UNL A   1      40.331  35.014  37.524  1.00  0.00     0.010 A 
ATOM     81  C   UNL A   1      38.739  34.115  39.641  1.00  0.00     0.020 A 
ATOM     82  C   UNL A   1      40.188  35.805  38.667  1.00  0.00     0.020 A 
ATOM     83  C   UNL A   1      39.381  35.356  39.713  1.00  0.00     0.054 A 
BRANCH  83  84
ATOM     84  S   UNL A   1      39.184  36.358  41.212  1.00  0.00     0.124 S 
ATOM     85  O   UNL A   1      38.921  37.684  40.659  1.00  0.00    -0.237 OA
ATOM     86  O   UNL A   1      38.054  35.721  41.882  1.00  0.00    -0.237 OA
ATOM     87  O   UNL A   1      40.467  36.213  41.896  1.00  0.00    -0.744 OA
ENDBRANCH  83  84
ENDBRANCH  57  78
ENDBRANCH  31  32
ENDBRANCH  24  26
ENDBRANCH  23  24
ENDBRANCH  22  23
ENDBRANCH   1  22
TORSDOF 19
ENDMDL
MODEL 3
REMARK VINA RESULT:      -9.6      1.903      8.541
REMARK SMILES O=C(CSc1ccnc(C(=O)OCCOC(=O)c2ccc(-c3c4nc(c(-c5ccc(S(=O)(=O)[O-])cc5)c5ccc([nH]5)c(-c5ccc(S(=O)(=O)[O-])cc5)c5nc(c(-c6ccc(S(=O)(=O)[O-])cc6)c6ccc3[nH]6)C=C5)C=C4)cc2)c1)NCC(F)(F)F
REMARK SMILES IDX 13 1 12 2 10 3 11 4 9 5 5 6 6 7 78 8 7 9 8 10 4 11 3 12 2 13
REMARK SMILES IDX 1 14 79 15 80 17 81 18 82 19 83 20 84 21 14 22 15 23 16 24
REMARK SMILES IDX 17 25 18 26 19 27 77 28 20 29 76 30 21 31 22 32 23 33 70 34
REMARK SMILES IDX 24 35 75 36 69 37 71 38 25 39 74 40 68 41 67 42 26 44 56 45
REMARK SMILES IDX 37 46 55 47 38 48 41 49 54 50 72 51 39 52 40 53 53 55 73 56
REMARK SMILES IDX 42 57 27 58 28 59 36 60 29 61 35 62 30 63 31 64 32 65 33 66
REMARK SMILES IDX 34 67 57 68 58 69 66 70 59 71 65 72 60 73 61 74 62 75 63 76
REMARK SMILES IDX 64 77 43 78 44 79 52 80 45 81 51 82 46 83 47 84 48 85 49 86
REMARK SMILES IDX 50 87
REMARK H PARENT 79 16 71 43 41 54
REMARK Flexibility Score: inf
ROOT
ATOM      1  C   UNL A   1      42.414  22.053  26.591  1.00  0.00     0.275 C 
ENDROOT
BRANCH   1   2
ATOM      2  O   UNL A   1      41.113  21.859  27.182  1.00  0.00    -0.457 OA
BRANCH   2   3
ATOM      3  C   UNL A   1      40.207  21.212  26.399  1.00  0.00     0.357 C 
ATOM      4  O   UNL A   1      40.302  20.054  26.022  1.00  0.00    -0.244 OA
BRANCH   3   5
ATOM      5  C   UNL A   1      39.026  22.087  26.114  1.00  0.00     0.149 A 
ATOM      6  C   UNL A   1      36.919  22.569  25.113  1.00  0.00     0.012 A 
ATOM      7  C   UNL A   1      36.980  23.850  25.660  1.00  0.00     0.035 A 
ATOM      8  C   UNL A   1      37.980  21.681  25.301  1.00  0.00     0.051 A 
ATOM      9  C   UNL A   1      38.054  24.164  26.463  1.00  0.00     0.113 A 
ATOM     10  N   UNL A   1      39.048  23.298  26.731  1.00  0.00    -0.249 NA
BRANCH   6  11
ATOM     11  S   UNL A   1      35.465  22.021  24.233  1.00  0.00    -0.116 SA
BRANCH  11  12
ATOM     12  C   UNL A   1      34.781  20.855  25.473  1.00  0.00     0.174 C 
BRANCH  12  13
ATOM     13  C   UNL A   1      33.938  21.552  26.533  1.00  0.00     0.230 C 
ATOM     14  O   UNL A   1      34.202  21.467  27.729  1.00  0.00    -0.274 OA
ATOM     15  N   UNL A   1      32.919  22.345  26.058  1.00  0.00    -0.346 N 
ATOM     16  H   UNL A   1      32.768  22.392  25.085  1.00  0.00     0.163 HD
BRANCH  15  17
ATOM     17  C   UNL A   1      32.054  23.122  26.946  1.00  0.00     0.231 C 
BRANCH  17  18
ATOM     18  C   UNL A   1      30.577  23.102  26.557  1.00  0.00     0.405 C 
ATOM     19  F   UNL A   1      30.358  22.184  25.582  1.00  0.00    -0.169 F 
ATOM     20  F   UNL A   1      29.800  22.761  27.608  1.00  0.00    -0.169 F 
ATOM     21  F   UNL A   1      30.149  24.295  26.093  1.00  0.00    -0.169 F 
ENDBRANCH  17  18
ENDBRANCH  15  17
ENDBRANCH  12  13
ENDBRANCH  11  12
ENDBRANCH   6  11
ENDBRANCH   3   5
ENDBRANCH   2   3
ENDBRANCH   1   2
BRANCH   1  22
ATOM     22  C   UNL A   1      42.508  23.382  25.832  1.00  0.00     0.275 C 
BRANCH  22  23
ATOM     23  O   UNL A   1      42.553  24.518  26.715  1.00  0.00    -0.458 OA
BRANCH  23  24
ATOM     24  C   UNL A   1      41.916  25.623  26.257  1.00  0.00     0.338 C 
ATOM     25  O   UNL A   1      41.598  25.856  25.102  1.00  0.00    -0.246 OA
BRANCH  24  26
ATOM     26  C   UNL A   1      41.522  26.487  27.383  1.00  0.00     0.060 A 
ATOM     27  C   UNL A   1      42.232  27.674  27.552  1.00  0.00     0.016 A 
ATOM     28  C   UNL A   1      40.556  26.112  28.315  1.00  0.00     0.016 A 
ATOM     29  C   UNL A   1      42.008  28.486  28.657  1.00  0.00     0.010 A 
ATOM     30  C   UNL A   1      40.314  26.939  29.424  1.00  0.00     0.010 A 
ATOM     31  C   UNL A   1      41.050  28.124  29.610  1.00  0.00    -0.014 A 
BRANCH  31  32
ATOM     32  C   UNL A   1      40.870  28.980  30.810  1.00  0.00     0.031 A 
ATOM     33  C   UNL A   1      39.770  30.005  30.848  1.00  0.00     0.074 A 
ATOM     34  C   UNL A   1      41.656  28.796  31.888  1.00  0.00     0.049 A 
ATOM     35  N   UNL A   1      39.477  30.866  31.788  1.00  0.00    -0.248 NA
ATOM     36  C   UNL A   1      38.884  30.069  29.675  1.00  0.00     0.031 C 
ATOM     37  C   UNL A   1      42.719  27.796  31.997  1.00  0.00     0.029 A 
ATOM     38  N   UNL A   1      41.672  29.435  33.103  1.00  0.00    -0.354 N 
ATOM     39  C   UNL A   1      38.395  31.597  31.311  1.00  0.00     0.074 A 
ATOM     40  C   UNL A   1      38.091  31.083  29.992  1.00  0.00     0.031 C 
ATOM     41  C   UNL A   1      43.272  27.877  33.218  1.00  0.00     0.029 A 
ATOM     42  C   UNL A   1      42.643  28.966  33.957  1.00  0.00     0.049 A 
ATOM     43  H   UNL A   1      41.049  30.158  33.340  1.00  0.00     0.167 HD
ATOM     44  C   UNL A   1      37.720  32.603  31.915  1.00  0.00     0.031 A 
ATOM     45  C   UNL A   1      43.005  29.382  35.186  1.00  0.00     0.031 A 
ATOM     46  C   UNL A   1      38.019  33.105  33.231  1.00  0.00     0.049 A 
ATOM     47  C   UNL A   1      42.272  30.533  35.817  1.00  0.00     0.074 A 
ATOM     48  C   UNL A   1      37.385  34.115  33.933  1.00  0.00     0.029 A 
ATOM     49  N   UNL A   1      39.038  32.633  34.045  1.00  0.00    -0.354 N 
ATOM     50  N   UNL A   1      41.260  31.222  35.345  1.00  0.00    -0.248 NA
ATOM     51  C   UNL A   1      42.730  30.965  37.145  1.00  0.00     0.031 C 
ATOM     52  C   UNL A   1      38.051  34.287  35.152  1.00  0.00     0.029 A 
ATOM     53  C   UNL A   1      39.066  33.347  35.232  1.00  0.00     0.049 A 
ATOM     54  H   UNL A   1      39.652  31.899  33.814  1.00  0.00     0.167 HD
ATOM     55  C   UNL A   1      40.953  32.161  36.322  1.00  0.00     0.074 A 
ATOM     56  C   UNL A   1      41.873  31.940  37.419  1.00  0.00     0.031 C 
ATOM     57  C   UNL A   1      39.996  33.122  36.310  1.00  0.00     0.031 A 
BRANCH  44  58
ATOM     58  C   UNL A   1      36.619  33.265  31.129  1.00  0.00    -0.014 A 
ATOM     59  C   UNL A   1      36.875  33.919  29.911  1.00  0.00     0.010 A 
ATOM     60  C   UNL A   1      35.299  33.218  31.615  1.00  0.00     0.010 A 
ATOM     61  C   UNL A   1      35.840  34.556  29.219  1.00  0.00     0.020 A 
ATOM     62  C   UNL A   1      34.258  33.832  30.914  1.00  0.00     0.020 A 
ATOM     63  C   UNL A   1      34.539  34.516  29.730  1.00  0.00     0.054 A 
BRANCH  63  64
ATOM     64  S   UNL A   1      33.214  35.355  28.818  1.00  0.00     0.124 S 
ATOM     65  O   UNL A   1      32.424  35.935  29.901  1.00  0.00    -0.237 OA
ATOM     66  O   UNL A   1      33.945  36.312  27.993  1.00  0.00    -0.237 OA
ATOM     67  O   UNL A   1      32.562  34.273  28.082  1.00  0.00    -0.744 OA
ENDBRANCH  63  64
ENDBRANCH  44  58
BRANCH  45  68
ATOM     68  C   UNL A   1      44.142  28.720  35.881  1.00  0.00    -0.014 A 
ATOM     69  C   UNL A   1      45.448  29.223  35.765  1.00  0.00     0.010 A 
ATOM     70  C   UNL A   1      43.910  27.595  36.696  1.00  0.00     0.010 A 
ATOM     71  C   UNL A   1      46.504  28.612  36.450  1.00  0.00     0.020 A 
ATOM     72  C   UNL A   1      44.957  26.999  37.401  1.00  0.00     0.020 A 
ATOM     73  C   UNL A   1      46.251  27.506  37.268  1.00  0.00     0.054 A 
BRANCH  73  74
ATOM     74  S   UNL A   1      47.620  26.773  38.206  1.00  0.00     0.124 S 
ATOM     75  O   UNL A   1      46.914  25.916  39.154  1.00  0.00    -0.237 OA
ATOM     76  O   UNL A   1      48.379  26.077  37.169  1.00  0.00    -0.237 OA
ATOM     77  O   UNL A   1      48.294  27.931  38.788  1.00  0.00    -0.744 OA
ENDBRANCH  73  74
ENDBRANCH  45  68
BRANCH  57  78
ATOM     78  C   UNL A   1      39.882  33.994  37.531  1.00  0.00    -0.014 A 
ATOM     79  C   UNL A   1      39.113  33.596  38.639  1.00  0.00     0.010 A 
ATOM     80  C   UNL A   1      40.591  35.208  37.589  1.00  0.00     0.010 A 
ATOM     81  C   UNL A   1      39.032  34.411  39.771  1.00  0.00     0.020 A 
ATOM     82  C   UNL A   1      40.531  36.014  38.729  1.00  0.00     0.020 A 
ATOM     83  C   UNL A   1      39.741  35.616  39.808  1.00  0.00     0.054 A 
BRANCH  83  84
ATOM     84  S   UNL A   1      39.652  36.639  41.303  1.00  0.00     0.124 S 
ATOM     85  O   UNL A   1      39.415  37.969  40.748  1.00  0.00    -0.237 OA
ATOM     86  O   UNL A   1      38.530  36.052  42.031  1.00  0.00    -0.237 OA
ATOM     87  O   UNL A   1      40.959  36.450  41.929  1.00  0.00    -0.744 OA
ENDBRANCH  83  84
ENDBRANCH  57  78
ENDBRANCH  31  32
ENDBRANCH  24  26
ENDBRANCH  23  24
ENDBRANCH  22  23
ENDBRANCH   1  22
TORSDOF 19
ENDMDL
