MODEL 1
REMARK VINA RESULT:     -11.7      0.000      0.000
REMARK SMILES Cc1ncccc1NC(=O)Nc1ccc(C(=O)OCCOC(=O)c2ccc(-c3c4nc(c(-c5ccc(S(=O)(=O)[O-])cc5)c5ccc([nH]5)c(-c5ccc(S(=O)(=O)[O-])cc5)c5nc(c(-c6ccc(S(=O)(=O)[O-])cc6)c6ccc3[nH]6)C=C5)C=C4)cc2)c(O)c1
REMARK SMILES IDX 20 1 19 2 18 3 16 4 17 5 15 6 12 7 13 8 86 9 14 10 84 11
REMARK SMILES IDX 11 12 8 13 9 14 10 16 7 18 1 19 2 20 3 21 4 22 6 23 5 24
REMARK SMILES IDX 85 25 21 27 22 28 23 29 24 30 25 31 83 32 26 33 82 34 27 35
REMARK SMILES IDX 28 36 29 37 76 38 30 39 81 40 75 41 77 42 31 43 80 44 74 45
REMARK SMILES IDX 73 46 32 48 62 49 43 50 61 51 44 52 47 53 60 54 78 55 45 56
REMARK SMILES IDX 46 57 59 59 79 60 48 61 33 62 34 63 42 64 35 65 41 66 36 67
REMARK SMILES IDX 37 68 38 69 39 70 40 71 63 72 64 73 72 74 65 75 71 76 66 77
REMARK SMILES IDX 67 78 68 79 69 80 70 81 49 82 50 83 58 84 51 85 57 86 52 87
REMARK SMILES IDX 53 88 54 89 55 90 56 91
REMARK H PARENT 8 15 11 17 85 26 77 47 47 58
REMARK Flexibility Score: inf
ROOT
ATOM      1  C   UNL A   1      39.657  22.044  26.777  1.00  0.00     0.275 C 
ENDROOT
BRANCH   1   2
ATOM      2  C   UNL A   1      38.774  21.813  25.549  1.00  0.00     0.275 C 
BRANCH   2   3
ATOM      3  O   UNL A   1      37.377  22.037  25.842  1.00  0.00    -0.458 OA
BRANCH   3   4
ATOM      4  C   UNL A   1      36.522  21.072  25.396  1.00  0.00     0.342 C 
ATOM      5  O   UNL A   1      36.832  19.970  24.990  1.00  0.00    -0.246 OA
BRANCH   4   6
ATOM      6  C   UNL A   1      35.112  21.512  25.573  1.00  0.00     0.101 A 
ATOM      7  C   UNL A   1      32.386  22.000  25.985  1.00  0.00     0.046 A 
ATOM      8  C   UNL A   1      32.787  21.124  24.978  1.00  0.00     0.027 A 
ATOM      9  C   UNL A   1      33.344  22.734  26.692  1.00  0.00     0.073 A 
ATOM     10  C   UNL A   1      34.148  20.926  24.737  1.00  0.00     0.022 A 
ATOM     11  C   UNL A   1      34.698  22.435  26.538  1.00  0.00     0.132 A 
BRANCH   7  12
ATOM     12  N   UNL A   1      31.046  22.137  26.376  1.00  0.00    -0.308 N 
ATOM     13  N   UNL A   1      30.596  24.481  26.304  1.00  0.00    -0.306 N 
ATOM     14  C   UNL A   1      30.362  23.232  26.785  1.00  0.00     0.323 C 
ATOM     15  H   UNL A   1      30.308  25.193  26.920  1.00  0.00     0.171 HD
ATOM     16  O   UNL A   1      29.443  23.080  27.597  1.00  0.00    -0.248 OA
ATOM     17  H   UNL A   1      30.520  21.306  26.349  1.00  0.00     0.171 HD
BRANCH  13  18
ATOM     18  C   UNL A   1      31.169  24.977  25.105  1.00  0.00     0.064 A 
ATOM     19  C   UNL A   1      32.656  26.645  26.371  1.00  0.00     0.069 C 
ATOM     20  C   UNL A   1      32.195  25.941  25.128  1.00  0.00     0.061 A 
ATOM     21  N   UNL A   1      32.860  26.340  24.005  1.00  0.00    -0.259 NA
ATOM     22  C   UNL A   1      32.464  25.841  22.820  1.00  0.00     0.111 A 
ATOM     23  C   UNL A   1      30.718  24.598  23.839  1.00  0.00     0.030 A 
ATOM     24  C   UNL A   1      31.389  24.992  22.685  1.00  0.00     0.022 A 
ENDBRANCH  13  18
ENDBRANCH   7  12
BRANCH  11  25
ATOM     25  O   UNL A   1      35.550  23.059  27.409  1.00  0.00    -0.507 OA
ATOM     26  H   UNL A   1      35.244  23.776  27.929  1.00  0.00     0.293 HD
ENDBRANCH  11  25
ENDBRANCH   4   6
ENDBRANCH   3   4
ENDBRANCH   2   3
ENDBRANCH   1   2
BRANCH   1  27
ATOM     27  O   UNL A   1      39.489  23.384  27.274  1.00  0.00    -0.458 OA
BRANCH  27  28
ATOM     28  C   UNL A   1      40.537  24.217  27.073  1.00  0.00     0.338 C 
ATOM     29  O   UNL A   1      41.448  24.084  26.274  1.00  0.00    -0.246 OA
BRANCH  28  30
ATOM     30  C   UNL A   1      40.400  25.402  27.935  1.00  0.00     0.060 A 
ATOM     31  C   UNL A   1      41.493  26.254  28.060  1.00  0.00     0.016 A 
ATOM     32  C   UNL A   1      39.272  25.588  28.730  1.00  0.00     0.016 A 
ATOM     33  C   UNL A   1      41.489  27.272  29.012  1.00  0.00     0.010 A 
ATOM     34  C   UNL A   1      39.242  26.652  29.643  1.00  0.00     0.010 A 
ATOM     35  C   UNL A   1      40.359  27.492  29.810  1.00  0.00    -0.014 A 
BRANCH  35  36
ATOM     36  C   UNL A   1      40.355  28.587  30.823  1.00  0.00     0.031 A 
ATOM     37  C   UNL A   1      41.321  28.568  31.980  1.00  0.00     0.074 A 
ATOM     38  C   UNL A   1      39.487  29.613  30.705  1.00  0.00     0.049 A 
ATOM     39  N   UNL A   1      41.374  29.359  33.023  1.00  0.00    -0.248 NA
ATOM     40  C   UNL A   1      42.354  27.522  31.968  1.00  0.00     0.031 C 
ATOM     41  C   UNL A   1      38.525  29.790  29.614  1.00  0.00     0.029 A 
ATOM     42  N   UNL A   1      39.271  30.704  31.514  1.00  0.00    -0.354 N 
ATOM     43  C   UNL A   1      42.415  28.881  33.813  1.00  0.00     0.074 A 
ATOM     44  C   UNL A   1      42.961  27.727  33.130  1.00  0.00     0.031 C 
ATOM     45  C   UNL A   1      37.845  30.930  29.807  1.00  0.00     0.029 A 
ATOM     46  C   UNL A   1      38.260  31.525  31.073  1.00  0.00     0.049 A 
ATOM     47  H   UNL A   1      39.790  30.880  32.331  1.00  0.00     0.167 HD
ATOM     48  C   UNL A   1      42.872  29.359  34.996  1.00  0.00     0.031 A 
ATOM     49  C   UNL A   1      37.693  32.611  31.636  1.00  0.00     0.031 A 
ATOM     50  C   UNL A   1      42.346  30.524  35.664  1.00  0.00     0.049 A 
ATOM     51  C   UNL A   1      38.180  33.089  32.974  1.00  0.00     0.074 A 
ATOM     52  C   UNL A   1      42.763  31.092  36.855  1.00  0.00     0.029 A 
ATOM     53  N   UNL A   1      41.295  31.300  35.200  1.00  0.00    -0.354 N 
ATOM     54  N   UNL A   1      39.148  32.609  33.718  1.00  0.00    -0.248 NA
ATOM     55  C   UNL A   1      37.493  34.252  33.554  1.00  0.00     0.031 C 
ATOM     56  C   UNL A   1      41.932  32.182  37.138  1.00  0.00     0.029 A 
ATOM     57  C   UNL A   1      41.036  32.329  36.092  1.00  0.00     0.049 A 
ATOM     58  H   UNL A   1      40.806  31.144  34.360  1.00  0.00     0.167 HD
ATOM     59  C   UNL A   1      39.195  33.420  34.846  1.00  0.00     0.074 A 
ATOM     60  C   UNL A   1      38.173  34.433  34.678  1.00  0.00     0.031 C 
ATOM     61  C   UNL A   1      40.013  33.331  35.923  1.00  0.00     0.031 A 
BRANCH  48  62
ATOM     62  C   UNL A   1      43.981  28.597  35.679  1.00  0.00    -0.014 A 
ATOM     63  C   UNL A   1      43.711  27.529  36.552  1.00  0.00     0.010 A 
ATOM     64  C   UNL A   1      45.320  28.927  35.397  1.00  0.00     0.010 A 
ATOM     65  C   UNL A   1      44.759  26.828  37.158  1.00  0.00     0.020 A 
ATOM     66  C   UNL A   1      46.371  28.212  35.978  1.00  0.00     0.020 A 
ATOM     67  C   UNL A   1      46.083  27.177  36.870  1.00  0.00     0.054 A 
BRANCH  67  68
ATOM     68  S   UNL A   1      47.424  26.238  37.653  1.00  0.00     0.124 S 
ATOM     69  O   UNL A   1      47.129  24.874  37.222  1.00  0.00    -0.237 OA
ATOM     70  O   UNL A   1      48.621  26.836  37.068  1.00  0.00    -0.237 OA
ATOM     71  O   UNL A   1      47.240  26.493  39.080  1.00  0.00    -0.744 OA
ENDBRANCH  67  68
ENDBRANCH  48  62
BRANCH  49  72
ATOM     72  C   UNL A   1      36.563  33.293  30.947  1.00  0.00    -0.014 A 
ATOM     73  C   UNL A   1      35.275  33.293  31.510  1.00  0.00     0.010 A 
ATOM     74  C   UNL A   1      36.778  33.966  29.729  1.00  0.00     0.010 A 
ATOM     75  C   UNL A   1      34.223  33.951  30.865  1.00  0.00     0.020 A 
ATOM     76  C   UNL A   1      35.738  34.650  29.099  1.00  0.00     0.020 A 
ATOM     77  C   UNL A   1      34.462  34.631  29.666  1.00  0.00     0.054 A 
BRANCH  77  78
ATOM     78  S   UNL A   1      33.100  35.537  28.883  1.00  0.00     0.124 S 
ATOM     79  O   UNL A   1      32.458  34.493  28.089  1.00  0.00    -0.237 OA
ATOM     80  O   UNL A   1      32.338  36.019  30.032  1.00  0.00    -0.237 OA
ATOM     81  O   UNL A   1      33.779  36.579  28.117  1.00  0.00    -0.744 OA
ENDBRANCH  77  78
ENDBRANCH  49  72
BRANCH  61  82
ATOM     82  C   UNL A   1      39.861  34.377  36.996  1.00  0.00    -0.014 A 
ATOM     83  C   UNL A   1      39.039  34.161  38.116  1.00  0.00     0.010 A 
ATOM     84  C   UNL A   1      40.581  35.581  36.898  1.00  0.00     0.010 A 
ATOM     85  C   UNL A   1      38.915  35.144  39.103  1.00  0.00     0.020 A 
ATOM     86  C   UNL A   1      40.482  36.555  37.896  1.00  0.00     0.020 A 
ATOM     87  C   UNL A   1      39.637  36.336  38.985  1.00  0.00     0.054 A 
BRANCH  87  88
ATOM     88  S   UNL A   1      39.490  37.582  40.296  1.00  0.00     0.124 S 
ATOM     89  O   UNL A   1      38.599  38.564  39.683  1.00  0.00    -0.237 OA
ATOM     90  O   UNL A   1      38.916  36.819  41.402  1.00  0.00    -0.237 OA
ATOM     91  O   UNL A   1      40.863  38.031  40.504  1.00  0.00    -0.744 OA
ENDBRANCH  87  88
ENDBRANCH  61  82
ENDBRANCH  35  36
ENDBRANCH  28  30
ENDBRANCH  27  28
ENDBRANCH   1  27
TORSDOF 17
ENDMDL
MODEL 2
REMARK VINA RESULT:     -11.6      4.676     10.408
REMARK SMILES Cc1ncccc1NC(=O)Nc1ccc(C(=O)OCCOC(=O)c2ccc(-c3c4nc(c(-c5ccc(S(=O)(=O)[O-])cc5)c5ccc([nH]5)c(-c5ccc(S(=O)(=O)[O-])cc5)c5nc(c(-c6ccc(S(=O)(=O)[O-])cc6)c6ccc3[nH]6)C=C5)C=C4)cc2)c(O)c1
REMARK SMILES IDX 20 1 19 2 18 3 16 4 17 5 15 6 12 7 13 8 86 9 14 10 84 11
REMARK SMILES IDX 11 12 8 13 9 14 10 16 7 18 1 19 2 20 3 21 4 22 6 23 5 24
REMARK SMILES IDX 85 25 21 27 22 28 23 29 24 30 25 31 83 32 26 33 82 34 27 35
REMARK SMILES IDX 28 36 29 37 76 38 30 39 81 40 75 41 77 42 31 43 80 44 74 45
REMARK SMILES IDX 73 46 32 48 62 49 43 50 61 51 44 52 47 53 60 54 78 55 45 56
REMARK SMILES IDX 46 57 59 59 79 60 48 61 33 62 34 63 42 64 35 65 41 66 36 67
REMARK SMILES IDX 37 68 38 69 39 70 40 71 63 72 64 73 72 74 65 75 71 76 66 77
REMARK SMILES IDX 67 78 68 79 69 80 70 81 49 82 50 83 58 84 51 85 57 86 52 87
REMARK SMILES IDX 53 88 54 89 55 90 56 91
REMARK H PARENT 8 15 11 17 85 26 77 47 47 58
REMARK Flexibility Score: inf
ROOT
ATOM      1  C   UNL A   1      33.298  29.432  26.254  1.00  0.00     0.275 C 
ENDROOT
BRANCH   1   2
ATOM      2  C   UNL A   1      31.800  29.161  26.107  1.00  0.00     0.275 C 
BRANCH   2   3
ATOM      3  O   UNL A   1      31.484  27.765  26.310  1.00  0.00    -0.458 OA
BRANCH   3   4
ATOM      4  C   UNL A   1      30.913  27.132  25.246  1.00  0.00     0.342 C 
ATOM      5  O   UNL A   1      30.278  27.658  24.353  1.00  0.00    -0.246 OA
BRANCH   4   6
ATOM      6  C   UNL A   1      31.264  25.687  25.258  1.00  0.00     0.101 A 
ATOM      7  C   UNL A   1      31.813  22.965  25.619  1.00  0.00     0.046 A 
ATOM      8  C   UNL A   1      32.469  23.912  26.402  1.00  0.00     0.027 A 
ATOM      9  C   UNL A   1      30.989  23.380  24.568  1.00  0.00     0.073 A 
ATOM     10  C   UNL A   1      32.237  25.271  26.182  1.00  0.00     0.022 A 
ATOM     11  C   UNL A   1      30.659  24.730  24.439  1.00  0.00     0.132 A 
BRANCH   7  12
ATOM     12  N   UNL A   1      31.888  21.589  25.879  1.00  0.00    -0.308 N 
ATOM     13  N   UNL A   1      33.701  20.785  24.549  1.00  0.00    -0.306 N 
ATOM     14  C   UNL A   1      32.522  20.603  25.200  1.00  0.00     0.323 C 
ATOM     15  H   UNL A   1      33.851  20.131  23.829  1.00  0.00     0.171 HD
ATOM     16  O   UNL A   1      32.031  19.470  25.216  1.00  0.00    -0.248 OA
ATOM     17  H   UNL A   1      31.402  21.292  26.682  1.00  0.00     0.171 HD
BRANCH  13  18
ATOM     18  C   UNL A   1      34.761  21.718  24.686  1.00  0.00     0.064 A 
ATOM     19  C   UNL A   1      34.012  23.045  22.618  1.00  0.00     0.069 C 
ATOM     20  C   UNL A   1      34.873  22.830  23.830  1.00  0.00     0.061 A 
ATOM     21  N   UNL A   1      35.797  23.817  24.016  1.00  0.00    -0.259 NA
ATOM     22  C   UNL A   1      36.683  23.677  25.018  1.00  0.00     0.111 A 
ATOM     23  C   UNL A   1      35.785  21.565  25.622  1.00  0.00     0.030 A 
ATOM     24  C   UNL A   1      36.731  22.565  25.827  1.00  0.00     0.022 A 
ENDBRANCH  13  18
ENDBRANCH   7  12
BRANCH  11  25
ATOM     25  O   UNL A   1      29.695  25.022  23.511  1.00  0.00    -0.507 OA
ATOM     26  H   UNL A   1      29.893  25.591  22.794  1.00  0.00     0.293 HD
ENDBRANCH  11  25
ENDBRANCH   4   6
ENDBRANCH   3   4
ENDBRANCH   2   3
ENDBRANCH   1   2
BRANCH   1  27
ATOM     27  O   UNL A   1      33.668  29.477  27.643  1.00  0.00    -0.458 OA
BRANCH  27  28
ATOM     28  C   UNL A   1      34.496  30.487  27.996  1.00  0.00     0.338 C 
ATOM     29  O   UNL A   1      34.202  31.656  28.187  1.00  0.00    -0.246 OA
BRANCH  28  30
ATOM     30  C   UNL A   1      35.857  29.966  28.201  1.00  0.00     0.060 A 
ATOM     31  C   UNL A   1      36.200  29.502  29.467  1.00  0.00     0.016 A 
ATOM     32  C   UNL A   1      36.828  30.076  27.209  1.00  0.00     0.016 A 
ATOM     33  C   UNL A   1      37.524  29.186  29.769  1.00  0.00     0.010 A 
ATOM     34  C   UNL A   1      38.148  29.699  27.493  1.00  0.00     0.010 A 
ATOM     35  C   UNL A   1      38.516  29.271  28.783  1.00  0.00    -0.014 A 
BRANCH  35  36
ATOM     36  C   UNL A   1      39.930  28.926  29.107  1.00  0.00     0.031 A 
ATOM     37  C   UNL A   1      40.832  29.932  29.774  1.00  0.00     0.074 A 
ATOM     38  C   UNL A   1      40.413  27.702  28.809  1.00  0.00     0.049 A 
ATOM     39  N   UNL A   1      42.119  29.856  30.011  1.00  0.00    -0.248 NA
ATOM     40  C   UNL A   1      40.213  31.186  30.229  1.00  0.00     0.031 C 
ATOM     41  C   UNL A   1      39.643  26.611  28.204  1.00  0.00     0.029 A 
ATOM     42  N   UNL A   1      41.668  27.167  28.974  1.00  0.00    -0.354 N 
ATOM     43  C   UNL A   1      42.472  31.066  30.599  1.00  0.00     0.074 A 
ATOM     44  C   UNL A   1      41.263  31.860  30.678  1.00  0.00     0.031 C 
ATOM     45  C   UNL A   1      40.433  25.535  28.074  1.00  0.00     0.029 A 
ATOM     46  C   UNL A   1      41.783  25.878  28.510  1.00  0.00     0.049 A 
ATOM     47  H   UNL A   1      42.414  27.660  29.386  1.00  0.00     0.167 HD
ATOM     48  C   UNL A   1      43.688  31.478  31.032  1.00  0.00     0.031 A 
ATOM     49  C   UNL A   1      42.856  25.070  28.401  1.00  0.00     0.031 A 
ATOM     50  C   UNL A   1      44.888  30.678  30.978  1.00  0.00     0.049 A 
ATOM     51  C   UNL A   1      44.205  25.567  28.837  1.00  0.00     0.074 A 
ATOM     52  C   UNL A   1      46.160  31.007  31.415  1.00  0.00     0.029 A 
ATOM     53  N   UNL A   1      44.964  29.394  30.462  1.00  0.00    -0.354 N 
ATOM     54  N   UNL A   1      44.523  26.725  29.367  1.00  0.00    -0.248 NA
ATOM     55  C   UNL A   1      45.341  24.654  28.653  1.00  0.00     0.031 C 
ATOM     56  C   UNL A   1      47.016  29.942  31.116  1.00  0.00     0.029 A 
ATOM     57  C   UNL A   1      46.267  28.925  30.549  1.00  0.00     0.049 A 
ATOM     58  H   UNL A   1      44.206  28.889  30.089  1.00  0.00     0.167 HD
ATOM     59  C   UNL A   1      45.894  26.671  29.594  1.00  0.00     0.074 A 
ATOM     60  C   UNL A   1      46.340  25.362  29.163  1.00  0.00     0.031 C 
ATOM     61  C   UNL A   1      46.707  27.624  30.112  1.00  0.00     0.031 A 
BRANCH  48  62
ATOM     62  C   UNL A   1      43.803  32.882  31.572  1.00  0.00    -0.014 A 
ATOM     63  C   UNL A   1      43.804  33.143  32.953  1.00  0.00     0.010 A 
ATOM     64  C   UNL A   1      43.967  33.955  30.675  1.00  0.00     0.010 A 
ATOM     65  C   UNL A   1      43.930  34.453  33.426  1.00  0.00     0.020 A 
ATOM     66  C   UNL A   1      44.121  35.262  31.143  1.00  0.00     0.020 A 
ATOM     67  C   UNL A   1      44.083  35.506  32.517  1.00  0.00     0.054 A 
BRANCH  67  68
ATOM     68  S   UNL A   1      44.266  37.193  33.158  1.00  0.00     0.124 S 
ATOM     69  O   UNL A   1      45.298  37.019  34.178  1.00  0.00    -0.237 OA
ATOM     70  O   UNL A   1      44.675  37.945  31.975  1.00  0.00    -0.237 OA
ATOM     71  O   UNL A   1      42.936  37.518  33.668  1.00  0.00    -0.744 OA
ENDBRANCH  67  68
ENDBRANCH  48  62
BRANCH  49  72
ATOM     72  C   UNL A   1      42.699  23.713  27.808  1.00  0.00    -0.014 A 
ATOM     73  C   UNL A   1      43.073  23.465  26.476  1.00  0.00     0.010 A 
ATOM     74  C   UNL A   1      42.192  22.654  28.585  1.00  0.00     0.010 A 
ATOM     75  C   UNL A   1      42.939  22.183  25.932  1.00  0.00     0.020 A 
ATOM     76  C   UNL A   1      42.086  21.367  28.055  1.00  0.00     0.020 A 
ATOM     77  C   UNL A   1      42.452  21.141  26.727  1.00  0.00     0.054 A 
BRANCH  77  78
ATOM     78  S   UNL A   1      42.353  19.472  26.023  1.00  0.00     0.124 S 
ATOM     79  O   UNL A   1      40.925  19.343  25.747  1.00  0.00    -0.237 OA
ATOM     80  O   UNL A   1      43.219  19.570  24.851  1.00  0.00    -0.237 OA
ATOM     81  O   UNL A   1      42.864  18.619  27.094  1.00  0.00    -0.744 OA
ENDBRANCH  77  78
ENDBRANCH  49  72
BRANCH  61  82
ATOM     82  C   UNL A   1      48.164  27.277  30.275  1.00  0.00    -0.014 A 
ATOM     83  C   UNL A   1      49.129  27.730  29.358  1.00  0.00     0.010 A 
ATOM     84  C   UNL A   1      48.576  26.515  31.383  1.00  0.00     0.010 A 
ATOM     85  C   UNL A   1      50.477  27.400  29.530  1.00  0.00     0.020 A 
ATOM     86  C   UNL A   1      49.926  26.206  31.573  1.00  0.00     0.020 A 
ATOM     87  C   UNL A   1      50.866  26.639  30.636  1.00  0.00     0.054 A 
BRANCH  87  88
ATOM     88  S   UNL A   1      52.625  26.253  30.858  1.00  0.00     0.124 S 
ATOM     89  O   UNL A   1      53.124  27.466  31.502  1.00  0.00    -0.237 OA
ATOM     90  O   UNL A   1      52.590  25.063  31.704  1.00  0.00    -0.237 OA
ATOM     91  O   UNL A   1      53.106  26.028  29.497  1.00  0.00    -0.744 OA
ENDBRANCH  87  88
ENDBRANCH  61  82
ENDBRANCH  35  36
ENDBRANCH  28  30
ENDBRANCH  27  28
ENDBRANCH   1  27
TORSDOF 17
ENDMDL
MODEL 3
REMARK VINA RESULT:     -11.6      4.588     10.447
REMARK SMILES Cc1ncccc1NC(=O)Nc1ccc(C(=O)OCCOC(=O)c2ccc(-c3c4nc(c(-c5ccc(S(=O)(=O)[O-])cc5)c5ccc([nH]5)c(-c5ccc(S(=O)(=O)[O-])cc5)c5nc(c(-c6ccc(S(=O)(=O)[O-])cc6)c6ccc3[nH]6)C=C5)C=C4)cc2)c(O)c1
REMARK SMILES IDX 20 1 19 2 18 3 16 4 17 5 15 6 12 7 13 8 86 9 14 10 84 11
REMARK SMILES IDX 11 12 8 13 9 14 10 16 7 18 1 19 2 20 3 21 4 22 6 23 5 24
REMARK SMILES IDX 85 25 21 27 22 28 23 29 24 30 25 31 83 32 26 33 82 34 27 35
REMARK SMILES IDX 28 36 29 37 76 38 30 39 81 40 75 41 77 42 31 43 80 44 74 45
REMARK SMILES IDX 73 46 32 48 62 49 43 50 61 51 44 52 47 53 60 54 78 55 45 56
REMARK SMILES IDX 46 57 59 59 79 60 48 61 33 62 34 63 42 64 35 65 41 66 36 67
REMARK SMILES IDX 37 68 38 69 39 70 40 71 63 72 64 73 72 74 65 75 71 76 66 77
REMARK SMILES IDX 67 78 68 79 69 80 70 81 49 82 50 83 58 84 51 85 57 86 52 87
REMARK SMILES IDX 53 88 54 89 55 90 56 91
REMARK H PARENT 8 15 11 17 85 26 77 47 47 58
REMARK Flexibility Score: inf
ROOT
ATOM      1  C   UNL A   1      33.180  29.574  26.209  1.00  0.00     0.275 C 
ENDROOT
BRANCH   1   2
ATOM      2  C   UNL A   1      31.662  29.680  26.050  1.00  0.00     0.275 C 
BRANCH   2   3
ATOM      3  O   UNL A   1      31.295  30.339  24.818  1.00  0.00    -0.458 OA
BRANCH   3   4
ATOM      4  C   UNL A   1      30.386  29.678  24.046  1.00  0.00     0.342 C 
ATOM      5  O   UNL A   1      29.294  30.091  23.709  1.00  0.00    -0.246 OA
BRANCH   4   6
ATOM      6  C   UNL A   1      30.957  28.391  23.568  1.00  0.00     0.101 A 
ATOM      7  C   UNL A   1      31.748  25.947  22.453  1.00  0.00     0.046 A 
ATOM      8  C   UNL A   1      30.547  26.030  23.155  1.00  0.00     0.027 A 
ATOM      9  C   UNL A   1      32.615  27.044  22.424  1.00  0.00     0.073 A 
ATOM     10  C   UNL A   1      30.182  27.235  23.758  1.00  0.00     0.022 A 
ATOM     11  C   UNL A   1      32.187  28.278  22.914  1.00  0.00     0.132 A 
BRANCH   7  12
ATOM     12  N   UNL A   1      32.107  24.817  21.704  1.00  0.00    -0.308 N 
ATOM     13  N   UNL A   1      33.342  23.426  23.201  1.00  0.00    -0.306 N 
ATOM     14  C   UNL A   1      33.037  23.863  21.952  1.00  0.00     0.323 C 
ATOM     15  H   UNL A   1      34.241  23.029  23.264  1.00  0.00     0.171 HD
ATOM     16  O   UNL A   1      33.597  23.326  20.990  1.00  0.00    -0.248 OA
ATOM     17  H   UNL A   1      31.605  24.698  20.867  1.00  0.00     0.171 HD
BRANCH  13  18
ATOM     18  C   UNL A   1      32.643  23.419  24.435  1.00  0.00     0.064 A 
ATOM     19  C   UNL A   1      34.126  25.273  25.416  1.00  0.00     0.069 C 
ATOM     20  C   UNL A   1      32.952  24.337  25.456  1.00  0.00     0.061 A 
ATOM     21  N   UNL A   1      32.214  24.450  26.599  1.00  0.00    -0.259 NA
ATOM     22  C   UNL A   1      31.192  23.594  26.783  1.00  0.00     0.111 A 
ATOM     23  C   UNL A   1      31.659  22.477  24.741  1.00  0.00     0.030 A 
ATOM     24  C   UNL A   1      30.894  22.582  25.899  1.00  0.00     0.022 A 
ENDBRANCH  13  18
ENDBRANCH   7  12
BRANCH  11  25
ATOM     25  O   UNL A   1      33.018  29.338  22.668  1.00  0.00    -0.507 OA
ATOM     26  H   UNL A   1      33.508  29.373  21.870  1.00  0.00     0.293 HD
ENDBRANCH  11  25
ENDBRANCH   4   6
ENDBRANCH   3   4
ENDBRANCH   2   3
ENDBRANCH   1   2
BRANCH   1  27
ATOM     27  O   UNL A   1      33.543  29.590  27.601  1.00  0.00    -0.458 OA
BRANCH  27  28
ATOM     28  C   UNL A   1      34.372  30.591  27.978  1.00  0.00     0.338 C 
ATOM     29  O   UNL A   1      34.085  31.762  28.161  1.00  0.00    -0.246 OA
BRANCH  28  30
ATOM     30  C   UNL A   1      35.720  30.054  28.223  1.00  0.00     0.060 A 
ATOM     31  C   UNL A   1      36.037  29.634  29.511  1.00  0.00     0.016 A 
ATOM     32  C   UNL A   1      36.706  30.109  27.241  1.00  0.00     0.016 A 
ATOM     33  C   UNL A   1      37.351  29.308  29.844  1.00  0.00     0.010 A 
ATOM     34  C   UNL A   1      38.015  29.720  27.558  1.00  0.00     0.010 A 
ATOM     35  C   UNL A   1      38.357  29.337  28.869  1.00  0.00    -0.014 A 
BRANCH  35  36
ATOM     36  C   UNL A   1      39.761  28.981  29.226  1.00  0.00     0.031 A 
ATOM     37  C   UNL A   1      40.648  29.971  29.936  1.00  0.00     0.074 A 
ATOM     38  C   UNL A   1      40.247  27.760  28.920  1.00  0.00     0.049 A 
ATOM     39  N   UNL A   1      41.927  29.886  30.207  1.00  0.00    -0.248 NA
ATOM     40  C   UNL A   1      40.021  31.219  30.395  1.00  0.00     0.031 C 
ATOM     41  C   UNL A   1      39.491  26.683  28.275  1.00  0.00     0.029 A 
ATOM     42  N   UNL A   1      41.495  27.217  29.112  1.00  0.00    -0.354 N 
ATOM     43  C   UNL A   1      42.268  31.083  30.826  1.00  0.00     0.074 A 
ATOM     44  C   UNL A   1      41.060  31.881  30.885  1.00  0.00     0.031 C 
ATOM     45  C   UNL A   1      40.280  25.606  28.149  1.00  0.00     0.029 A 
ATOM     46  C   UNL A   1      41.619  25.936  28.628  1.00  0.00     0.049 A 
ATOM     47  H   UNL A   1      42.231  27.699  29.553  1.00  0.00     0.167 HD
ATOM     48  C   UNL A   1      43.473  31.483  31.301  1.00  0.00     0.031 A 
ATOM     49  C   UNL A   1      42.691  25.125  28.535  1.00  0.00     0.031 A 
ATOM     50  C   UNL A   1      44.670  30.679  31.266  1.00  0.00     0.049 A 
ATOM     51  C   UNL A   1      44.029  25.609  29.018  1.00  0.00     0.074 A 
ATOM     52  C   UNL A   1      45.931  30.995  31.744  1.00  0.00     0.029 A 
ATOM     53  N   UNL A   1      44.757  29.404  30.730  1.00  0.00    -0.354 N 
ATOM     54  N   UNL A   1      44.337  26.756  29.576  1.00  0.00    -0.248 NA
ATOM     55  C   UNL A   1      45.167  24.695  28.849  1.00  0.00     0.031 C 
ATOM     56  C   UNL A   1      46.792  29.931  31.451  1.00  0.00     0.029 A 
ATOM     57  C   UNL A   1      46.054  28.928  30.845  1.00  0.00     0.049 A 
ATOM     58  H   UNL A   1      44.008  28.908  30.327  1.00  0.00     0.167 HD
ATOM     59  C   UNL A   1      45.700  26.693  29.840  1.00  0.00     0.074 A 
ATOM     60  C   UNL A   1      46.154  25.390  29.399  1.00  0.00     0.031 C 
ATOM     61  C   UNL A   1      46.502  27.633  30.398  1.00  0.00     0.031 A 
BRANCH  48  62
ATOM     62  C   UNL A   1      43.578  32.877  31.868  1.00  0.00    -0.014 A 
ATOM     63  C   UNL A   1      43.343  33.137  33.229  1.00  0.00     0.010 A 
ATOM     64  C   UNL A   1      43.972  33.936  31.028  1.00  0.00     0.010 A 
ATOM     65  C   UNL A   1      43.465  34.437  33.732  1.00  0.00     0.020 A 
ATOM     66  C   UNL A   1      44.122  35.230  31.532  1.00  0.00     0.020 A 
ATOM     67  C   UNL A   1      43.849  35.477  32.879  1.00  0.00     0.054 A 
BRANCH  67  68
ATOM     68  S   UNL A   1      44.021  37.149  33.561  1.00  0.00     0.124 S 
ATOM     69  O   UNL A   1      44.285  37.940  32.361  1.00  0.00    -0.237 OA
ATOM     70  O   UNL A   1      42.721  37.376  34.188  1.00  0.00    -0.237 OA
ATOM     71  O   UNL A   1      45.143  37.032  34.489  1.00  0.00    -0.744 OA
ENDBRANCH  67  68
ENDBRANCH  48  62
BRANCH  49  72
ATOM     72  C   UNL A   1      42.546  23.779  27.914  1.00  0.00    -0.014 A 
ATOM     73  C   UNL A   1      42.831  23.584  26.551  1.00  0.00     0.010 A 
ATOM     74  C   UNL A   1      42.142  22.679  28.693  1.00  0.00     0.010 A 
ATOM     75  C   UNL A   1      42.709  22.313  25.979  1.00  0.00     0.020 A 
ATOM     76  C   UNL A   1      42.050  21.404  28.133  1.00  0.00     0.020 A 
ATOM     77  C   UNL A   1      42.325  21.230  26.776  1.00  0.00     0.054 A 
BRANCH  77  78
ATOM     78  S   UNL A   1      42.242  19.578  26.030  1.00  0.00     0.124 S 
ATOM     79  O   UNL A   1      40.824  19.464  25.702  1.00  0.00    -0.237 OA
ATOM     80  O   UNL A   1      43.149  19.698  24.892  1.00  0.00    -0.237 OA
ATOM     81  O   UNL A   1      42.710  18.698  27.099  1.00  0.00    -0.744 OA
ENDBRANCH  77  78
ENDBRANCH  49  72
BRANCH  61  82
ATOM     82  C   UNL A   1      47.952  27.277  30.595  1.00  0.00    -0.014 A 
ATOM     83  C   UNL A   1      48.398  26.656  31.775  1.00  0.00     0.010 A 
ATOM     84  C   UNL A   1      48.876  27.535  29.566  1.00  0.00     0.010 A 
ATOM     85  C   UNL A   1      49.748  26.329  31.936  1.00  0.00     0.020 A 
ATOM     86  C   UNL A   1      50.222  27.185  29.712  1.00  0.00     0.020 A 
ATOM     87  C   UNL A   1      50.651  26.597  30.903  1.00  0.00     0.054 A 
BRANCH  87  88
ATOM     88  S   UNL A   1      52.392  26.131  31.120  1.00  0.00     0.124 S 
ATOM     89  O   UNL A   1      52.880  27.184  32.007  1.00  0.00    -0.237 OA
ATOM     90  O   UNL A   1      52.297  24.801  31.716  1.00  0.00    -0.237 OA
ATOM     91  O   UNL A   1      52.931  26.162  29.763  1.00  0.00    -0.744 OA
ENDBRANCH  87  88
ENDBRANCH  61  82
ENDBRANCH  35  36
ENDBRANCH  28  30
ENDBRANCH  27  28
ENDBRANCH   1  27
TORSDOF 17
ENDMDL
