MODEL 1
REMARK VINA RESULT:     -10.8      0.000      0.000
REMARK SMILES Cc1cscc1C(=O)N1C[C@@H](C(=O)OCCOC(=O)c2ccc(-c3c4nc(c(-c5ccc(S(=O)(=O)[O-])cc5)c5ccc([nH]5)c(-c5ccc(S(=O)(=O)[O-])cc5)c5nc(c(-c6ccc(S(=O)(=O)[O-])cc6)c6ccc3[nH]6)C=C5)C=C4)cc2)Oc2ccccc21
REMARK SMILES IDX 16 1 15 2 14 3 12 4 13 5 11 6 9 7 10 8 86 9 81 10 85 11
REMARK SMILES IDX 80 12 82 13 84 14 83 15 7 16 8 17 6 18 1 19 2 20 3 21 4 22
REMARK SMILES IDX 5 23 17 24 18 25 19 26 20 27 21 28 79 29 22 30 78 31 23 32
REMARK SMILES IDX 24 33 25 34 72 35 26 36 77 37 71 38 73 39 27 40 76 41 70 42
REMARK SMILES IDX 69 43 28 45 58 46 39 47 57 48 40 49 43 50 56 51 74 52 41 53
REMARK SMILES IDX 42 54 55 56 75 57 44 58 29 59 30 60 38 61 31 62 37 63 32 64
REMARK SMILES IDX 33 65 34 66 35 67 36 68 59 69 60 70 68 71 61 72 67 73 62 74
REMARK SMILES IDX 63 75 64 76 65 77 66 78 45 79 46 80 54 81 47 82 53 83 48 84
REMARK SMILES IDX 49 85 50 86 51 87 52 88
REMARK H PARENT 73 44 43 55
REMARK Flexibility Score: inf
ROOT
ATOM      1  C   UNL A   1      32.535  29.052  26.825  1.00  0.00     0.275 C 
ENDROOT
BRANCH   1   2
ATOM      2  C   UNL A   1      32.244  27.551  26.981  1.00  0.00     0.274 C 
BRANCH   2   3
ATOM      3  O   UNL A   1      33.111  26.733  26.174  1.00  0.00    -0.459 OA
BRANCH   3   4
ATOM      4  C   UNL A   1      32.747  25.426  26.111  1.00  0.00     0.349 C 
ATOM      5  O   UNL A   1      31.581  25.037  26.116  1.00  0.00    -0.248 OA
BRANCH   4   6
ATOM      6  C   UNL A   1      33.933  24.473  25.931  1.00  0.00     0.302 C 
ATOM      7  N   UNL A   1      33.780  24.490  23.497  1.00  0.00    -0.300 N 
ATOM      8  C   UNL A   1      34.636  24.865  24.628  1.00  0.00     0.183 C 
ATOM      9  C   UNL A   1      33.208  23.187  23.616  1.00  0.00     0.086 A 
ATOM     10  C   UNL A   1      33.288  22.501  24.836  1.00  0.00     0.144 A 
ATOM     11  C   UNL A   1      32.616  22.549  22.522  1.00  0.00     0.030 A 
ATOM     12  O   UNL A   1      33.727  23.067  26.003  1.00  0.00    -0.475 OA
ATOM     13  C   UNL A   1      32.874  21.173  24.935  1.00  0.00     0.049 A 
ATOM     14  C   UNL A   1      32.167  21.231  22.631  1.00  0.00     0.002 A 
ATOM     15  C   UNL A   1      32.318  20.535  23.829  1.00  0.00     0.004 A 
BRANCH   7  16
ATOM     16  C   UNL A   1      33.239  25.425  22.611  1.00  0.00     0.259 C 
ATOM     17  O   UNL A   1      33.672  25.522  21.459  1.00  0.00    -0.269 OA
BRANCH  16  18
ATOM     18  C   UNL A   1      32.170  26.334  23.063  1.00  0.00     0.053 A 
ATOM     19  C   UNL A   1      33.311  28.714  23.223  1.00  0.00     0.046 C 
ATOM     20  C   UNL A   1      32.158  27.770  23.293  1.00  0.00    -0.028 A 
ATOM     21  C   UNL A   1      30.876  28.223  23.565  1.00  0.00     0.069 A 
ATOM     22  S   UNL A   1      29.707  26.988  23.571  1.00  0.00    -0.151 S 
ATOM     23  C   UNL A   1      30.885  25.820  23.203  1.00  0.00     0.079 A 
ENDBRANCH  16  18
ENDBRANCH   7  16
ENDBRANCH   4   6
ENDBRANCH   3   4
ENDBRANCH   2   3
ENDBRANCH   1   2
BRANCH   1  24
ATOM     24  O   UNL A   1      33.941  29.363  26.736  1.00  0.00    -0.458 OA
BRANCH  24  25
ATOM     25  C   UNL A   1      34.371  30.339  27.574  1.00  0.00     0.338 C 
ATOM     26  O   UNL A   1      33.707  31.265  28.010  1.00  0.00    -0.246 OA
BRANCH  25  27
ATOM     27  C   UNL A   1      35.734  30.051  28.067  1.00  0.00     0.060 A 
ATOM     28  C   UNL A   1      36.777  30.098  27.135  1.00  0.00     0.016 A 
ATOM     29  C   UNL A   1      35.997  29.680  29.386  1.00  0.00     0.016 A 
ATOM     30  C   UNL A   1      38.082  29.808  27.509  1.00  0.00     0.010 A 
ATOM     31  C   UNL A   1      37.311  29.368  29.761  1.00  0.00     0.010 A 
ATOM     32  C   UNL A   1      38.359  29.436  28.825  1.00  0.00    -0.014 A 
BRANCH  32  33
ATOM     33  C   UNL A   1      39.752  29.087  29.184  1.00  0.00     0.031 A 
ATOM     34  C   UNL A   1      40.610  30.085  29.903  1.00  0.00     0.074 A 
ATOM     35  C   UNL A   1      40.213  27.850  28.921  1.00  0.00     0.049 A 
ATOM     36  N   UNL A   1      41.861  29.983  30.267  1.00  0.00    -0.248 NA
ATOM     37  C   UNL A   1      39.974  31.360  30.273  1.00  0.00     0.031 C 
ATOM     38  C   UNL A   1      39.435  26.773  28.304  1.00  0.00     0.029 A 
ATOM     39  N   UNL A   1      41.445  27.289  29.144  1.00  0.00    -0.354 N 
ATOM     40  C   UNL A   1      42.172  31.185  30.891  1.00  0.00     0.074 A 
ATOM     41  C   UNL A   1      40.980  32.005  30.847  1.00  0.00     0.031 C 
ATOM     42  C   UNL A   1      40.212  25.682  28.197  1.00  0.00     0.029 A 
ATOM     43  C   UNL A   1      41.551  26.000  28.682  1.00  0.00     0.049 A 
ATOM     44  H   UNL A   1      42.181  27.765  29.593  1.00  0.00     0.167 HD
ATOM     45  C   UNL A   1      43.348  31.568  31.444  1.00  0.00     0.031 A 
ATOM     46  C   UNL A   1      42.619  25.181  28.621  1.00  0.00     0.031 A 
ATOM     47  C   UNL A   1      44.531  30.747  31.465  1.00  0.00     0.049 A 
ATOM     48  C   UNL A   1      43.944  25.673  29.140  1.00  0.00     0.074 A 
ATOM     49  C   UNL A   1      45.774  31.043  31.997  1.00  0.00     0.029 A 
ATOM     50  N   UNL A   1      44.624  29.475  30.920  1.00  0.00    -0.354 N 
ATOM     51  N   UNL A   1      44.226  26.814  29.725  1.00  0.00    -0.248 NA
ATOM     52  C   UNL A   1      45.093  24.772  28.987  1.00  0.00     0.031 C 
ATOM     53  C   UNL A   1      46.635  29.978  31.716  1.00  0.00     0.029 A 
ATOM     54  C   UNL A   1      45.912  28.988  31.068  1.00  0.00     0.049 A 
ATOM     55  H   UNL A   1      43.882  28.990  30.492  1.00  0.00     0.167 HD
ATOM     56  C   UNL A   1      45.584  26.761  30.022  1.00  0.00     0.074 A 
ATOM     57  C   UNL A   1      46.058  25.466  29.576  1.00  0.00     0.031 C 
ATOM     58  C   UNL A   1      46.368  27.699  30.609  1.00  0.00     0.031 A 
BRANCH  45  59
ATOM     59  C   UNL A   1      43.428  32.957  32.020  1.00  0.00    -0.014 A 
ATOM     60  C   UNL A   1      43.100  33.217  33.363  1.00  0.00     0.010 A 
ATOM     61  C   UNL A   1      43.874  34.017  31.208  1.00  0.00     0.010 A 
ATOM     62  C   UNL A   1      43.181  34.517  33.872  1.00  0.00     0.020 A 
ATOM     63  C   UNL A   1      43.982  35.313  31.720  1.00  0.00     0.020 A 
ATOM     64  C   UNL A   1      43.620  35.557  33.046  1.00  0.00     0.054 A 
BRANCH  64  65
ATOM     65  S   UNL A   1      43.731  37.230  33.738  1.00  0.00     0.124 S 
ATOM     66  O   UNL A   1      45.046  37.206  34.375  1.00  0.00    -0.237 OA
ATOM     67  O   UNL A   1      43.624  38.074  32.551  1.00  0.00    -0.237 OA
ATOM     68  O   UNL A   1      42.596  37.304  34.656  1.00  0.00    -0.744 OA
ENDBRANCH  64  65
ENDBRANCH  45  59
BRANCH  46  69
ATOM     69  C   UNL A   1      42.491  23.835  27.997  1.00  0.00    -0.014 A 
ATOM     70  C   UNL A   1      42.832  23.629  26.649  1.00  0.00     0.010 A 
ATOM     71  C   UNL A   1      42.027  22.745  28.759  1.00  0.00     0.010 A 
ATOM     72  C   UNL A   1      42.696  22.363  26.072  1.00  0.00     0.020 A 
ATOM     73  C   UNL A   1      41.920  21.471  28.194  1.00  0.00     0.020 A 
ATOM     74  C   UNL A   1      42.244  21.292  26.849  1.00  0.00     0.054 A 
BRANCH  74  75
ATOM     75  S   UNL A   1      42.121  19.650  26.086  1.00  0.00     0.124 S 
ATOM     76  O   UNL A   1      43.038  19.771  24.957  1.00  0.00    -0.237 OA
ATOM     77  O   UNL A   1      42.561  18.769  27.166  1.00  0.00    -0.237 OA
ATOM     78  O   UNL A   1      40.707  19.539  25.737  1.00  0.00    -0.744 OA
ENDBRANCH  74  75
ENDBRANCH  46  69
BRANCH  58  79
ATOM     79  C   UNL A   1      47.820  27.355  30.815  1.00  0.00    -0.014 A 
ATOM     80  C   UNL A   1      48.270  26.791  32.022  1.00  0.00     0.010 A 
ATOM     81  C   UNL A   1      48.737  27.548  29.766  1.00  0.00     0.010 A 
ATOM     82  C   UNL A   1      49.615  26.454  32.187  1.00  0.00     0.020 A 
ATOM     83  C   UNL A   1      50.078  27.184  29.916  1.00  0.00     0.020 A 
ATOM     84  C   UNL A   1      50.511  26.651  31.131  1.00  0.00     0.054 A 
BRANCH  84  85
ATOM     85  S   UNL A   1      52.243  26.160  31.355  1.00  0.00     0.124 S 
ATOM     86  O   UNL A   1      52.115  24.756  31.736  1.00  0.00    -0.237 OA
ATOM     87  O   UNL A   1      52.817  26.404  30.034  1.00  0.00    -0.237 OA
ATOM     88  O   UNL A   1      52.722  27.051  32.409  1.00  0.00    -0.744 OA
ENDBRANCH  84  85
ENDBRANCH  58  79
ENDBRANCH  32  33
ENDBRANCH  25  27
ENDBRANCH  24  25
ENDBRANCH   1  24
TORSDOF 16
ENDMDL
MODEL 2
REMARK VINA RESULT:     -10.6      1.309      2.546
REMARK SMILES Cc1cscc1C(=O)N1C[C@@H](C(=O)OCCOC(=O)c2ccc(-c3c4nc(c(-c5ccc(S(=O)(=O)[O-])cc5)c5ccc([nH]5)c(-c5ccc(S(=O)(=O)[O-])cc5)c5nc(c(-c6ccc(S(=O)(=O)[O-])cc6)c6ccc3[nH]6)C=C5)C=C4)cc2)Oc2ccccc21
REMARK SMILES IDX 16 1 15 2 14 3 12 4 13 5 11 6 9 7 10 8 86 9 81 10 85 11
REMARK SMILES IDX 80 12 82 13 84 14 83 15 7 16 8 17 6 18 1 19 2 20 3 21 4 22
REMARK SMILES IDX 5 23 17 24 18 25 19 26 20 27 21 28 79 29 22 30 78 31 23 32
REMARK SMILES IDX 24 33 25 34 72 35 26 36 77 37 71 38 73 39 27 40 76 41 70 42
REMARK SMILES IDX 69 43 28 45 58 46 39 47 57 48 40 49 43 50 56 51 74 52 41 53
REMARK SMILES IDX 42 54 55 56 75 57 44 58 29 59 30 60 38 61 31 62 37 63 32 64
REMARK SMILES IDX 33 65 34 66 35 67 36 68 59 69 60 70 68 71 61 72 67 73 62 74
REMARK SMILES IDX 63 75 64 76 65 77 66 78 45 79 46 80 54 81 47 82 53 83 48 84
REMARK SMILES IDX 49 85 50 86 51 87 52 88
REMARK H PARENT 73 44 43 55
REMARK Flexibility Score: inf
ROOT
ATOM      1  C   UNL A   1      32.455  29.546  26.466  1.00  0.00     0.275 C 
ENDROOT
BRANCH   1   2
ATOM      2  C   UNL A   1      32.169  28.718  25.203  1.00  0.00     0.274 C 
BRANCH   2   3
ATOM      3  O   UNL A   1      32.463  27.320  25.379  1.00  0.00    -0.459 OA
BRANCH   3   4
ATOM      4  C   UNL A   1      31.483  26.618  26.006  1.00  0.00     0.349 C 
ATOM      5  O   UNL A   1      31.370  26.537  27.227  1.00  0.00    -0.248 OA
BRANCH   4   6
ATOM      6  C   UNL A   1      30.459  26.010  25.041  1.00  0.00     0.302 C 
ATOM      7  N   UNL A   1      31.804  24.021  24.617  1.00  0.00    -0.300 N 
ATOM      8  C   UNL A   1      30.540  24.488  25.194  1.00  0.00     0.183 C 
ATOM      9  C   UNL A   1      32.114  24.613  23.354  1.00  0.00     0.086 A 
ATOM     10  C   UNL A   1      31.371  25.713  22.901  1.00  0.00     0.144 A 
ATOM     11  C   UNL A   1      33.107  24.084  22.525  1.00  0.00     0.030 A 
ATOM     12  O   UNL A   1      30.466  26.393  23.671  1.00  0.00    -0.475 OA
ATOM     13  C   UNL A   1      31.552  26.211  21.611  1.00  0.00     0.049 A 
ATOM     14  C   UNL A   1      33.314  24.607  21.247  1.00  0.00     0.002 A 
ATOM     15  C   UNL A   1      32.520  25.654  20.781  1.00  0.00     0.004 A 
BRANCH   7  16
ATOM     16  C   UNL A   1      32.802  23.401  25.372  1.00  0.00     0.259 C 
ATOM     17  O   UNL A   1      33.418  24.031  26.238  1.00  0.00    -0.269 OA
BRANCH  16  18
ATOM     18  C   UNL A   1      33.155  21.993  25.111  1.00  0.00     0.053 A 
ATOM     19  C   UNL A   1      35.724  22.034  24.482  1.00  0.00     0.046 C 
ATOM     20  C   UNL A   1      34.422  21.365  24.767  1.00  0.00    -0.028 A 
ATOM     21  C   UNL A   1      34.311  19.982  24.770  1.00  0.00     0.069 A 
ATOM     22  S   UNL A   1      32.749  19.428  25.147  1.00  0.00    -0.151 S 
ATOM     23  C   UNL A   1      32.184  21.020  25.323  1.00  0.00     0.079 A 
ENDBRANCH  16  18
ENDBRANCH   7  16
ENDBRANCH   4   6
ENDBRANCH   3   4
ENDBRANCH   2   3
ENDBRANCH   1   2
BRANCH   1  24
ATOM     24  O   UNL A   1      33.777  29.336  27.007  1.00  0.00    -0.458 OA
BRANCH  24  25
ATOM     25  C   UNL A   1      34.298  30.391  27.682  1.00  0.00     0.338 C 
ATOM     26  O   UNL A   1      33.704  31.402  28.017  1.00  0.00    -0.246 OA
BRANCH  25  27
ATOM     27  C   UNL A   1      35.670  30.097  28.145  1.00  0.00     0.060 A 
ATOM     28  C   UNL A   1      36.710  30.278  27.227  1.00  0.00     0.016 A 
ATOM     29  C   UNL A   1      35.946  29.595  29.417  1.00  0.00     0.016 A 
ATOM     30  C   UNL A   1      38.024  29.994  27.571  1.00  0.00     0.010 A 
ATOM     31  C   UNL A   1      37.270  29.287  29.761  1.00  0.00     0.010 A 
ATOM     32  C   UNL A   1      38.314  29.491  28.840  1.00  0.00    -0.014 A 
BRANCH  32  33
ATOM     33  C   UNL A   1      39.718  29.151  29.164  1.00  0.00     0.031 A 
ATOM     34  C   UNL A   1      40.591  30.160  29.850  1.00  0.00     0.074 A 
ATOM     35  C   UNL A   1      40.178  27.915  28.899  1.00  0.00     0.049 A 
ATOM     36  N   UNL A   1      41.853  30.067  30.180  1.00  0.00    -0.248 NA
ATOM     37  C   UNL A   1      39.960  31.436  30.225  1.00  0.00     0.031 C 
ATOM     38  C   UNL A   1      39.389  26.828  28.315  1.00  0.00     0.029 A 
ATOM     39  N   UNL A   1      41.418  27.361  29.094  1.00  0.00    -0.354 N 
ATOM     40  C   UNL A   1      42.175  31.277  30.784  1.00  0.00     0.074 A 
ATOM     41  C   UNL A   1      40.978  32.090  30.765  1.00  0.00     0.031 C 
ATOM     42  C   UNL A   1      40.167  25.739  28.196  1.00  0.00     0.029 A 
ATOM     43  C   UNL A   1      41.517  26.068  28.641  1.00  0.00     0.049 A 
ATOM     44  H   UNL A   1      42.164  27.844  29.518  1.00  0.00     0.167 HD
ATOM     45  C   UNL A   1      43.364  31.670  31.300  1.00  0.00     0.031 A 
ATOM     46  C   UNL A   1      42.587  25.254  28.558  1.00  0.00     0.031 A 
ATOM     47  C   UNL A   1      44.551  30.854  31.297  1.00  0.00     0.049 A 
ATOM     48  C   UNL A   1      43.923  25.756  29.036  1.00  0.00     0.074 A 
ATOM     49  C   UNL A   1      45.807  31.161  31.792  1.00  0.00     0.029 A 
ATOM     50  N   UNL A   1      44.634  29.577  30.761  1.00  0.00    -0.354 N 
ATOM     51  N   UNL A   1      44.216  26.904  29.602  1.00  0.00    -0.248 NA
ATOM     52  C   UNL A   1      45.072  24.859  28.860  1.00  0.00     0.031 C 
ATOM     53  C   UNL A   1      46.664  30.097  31.496  1.00  0.00     0.029 A 
ATOM     54  C   UNL A   1      45.928  29.097  30.878  1.00  0.00     0.049 A 
ATOM     55  H   UNL A   1      43.883  29.085  30.358  1.00  0.00     0.167 HD
ATOM     56  C   UNL A   1      45.582  26.859  29.862  1.00  0.00     0.074 A 
ATOM     57  C   UNL A   1      46.049  25.563  29.416  1.00  0.00     0.031 C 
ATOM     58  C   UNL A   1      46.378  27.807  30.418  1.00  0.00     0.031 A 
BRANCH  45  59
ATOM     59  C   UNL A   1      43.453  33.065  31.861  1.00  0.00    -0.014 A 
ATOM     60  C   UNL A   1      43.710  34.174  31.036  1.00  0.00     0.010 A 
ATOM     61  C   UNL A   1      43.239  33.271  33.236  1.00  0.00     0.010 A 
ATOM     62  C   UNL A   1      43.790  35.459  31.582  1.00  0.00     0.020 A 
ATOM     63  C   UNL A   1      43.291  34.557  33.783  1.00  0.00     0.020 A 
ATOM     64  C   UNL A   1      43.582  35.642  32.953  1.00  0.00     0.054 A 
BRANCH  64  65
ATOM     65  S   UNL A   1      43.674  37.321  33.632  1.00  0.00     0.124 S 
ATOM     66  O   UNL A   1      44.818  37.218  34.535  1.00  0.00    -0.237 OA
ATOM     67  O   UNL A   1      43.888  38.136  32.440  1.00  0.00    -0.237 OA
ATOM     68  O   UNL A   1      42.380  37.505  34.285  1.00  0.00    -0.744 OA
ENDBRANCH  64  65
ENDBRANCH  45  59
BRANCH  46  69
ATOM     69  C   UNL A   1      42.449  23.901  27.950  1.00  0.00    -0.014 A 
ATOM     70  C   UNL A   1      42.516  23.725  26.558  1.00  0.00     0.010 A 
ATOM     71  C   UNL A   1      42.250  22.775  28.773  1.00  0.00     0.010 A 
ATOM     72  C   UNL A   1      42.372  22.451  25.999  1.00  0.00     0.020 A 
ATOM     73  C   UNL A   1      42.137  21.496  28.220  1.00  0.00     0.020 A 
ATOM     74  C   UNL A   1      42.188  21.345  26.834  1.00  0.00     0.054 A 
BRANCH  74  75
ATOM     75  S   UNL A   1      42.050  19.698  26.084  1.00  0.00     0.124 S 
ATOM     76  O   UNL A   1      42.994  19.790  24.975  1.00  0.00    -0.237 OA
ATOM     77  O   UNL A   1      42.448  18.820  27.182  1.00  0.00    -0.237 OA
ATOM     78  O   UNL A   1      40.642  19.612  25.704  1.00  0.00    -0.744 OA
ENDBRANCH  74  75
ENDBRANCH  46  69
BRANCH  58  79
ATOM     79  C   UNL A   1      47.837  27.471  30.587  1.00  0.00    -0.014 A 
ATOM     80  C   UNL A   1      48.295  26.766  31.714  1.00  0.00     0.010 A 
ATOM     81  C   UNL A   1      48.753  27.818  29.578  1.00  0.00     0.010 A 
ATOM     82  C   UNL A   1      49.647  26.440  31.843  1.00  0.00     0.020 A 
ATOM     83  C   UNL A   1      50.100  27.468  29.688  1.00  0.00     0.020 A 
ATOM     84  C   UNL A   1      50.541  26.792  30.827  1.00  0.00     0.054 A 
BRANCH  84  85
ATOM     85  S   UNL A   1      52.284  26.315  30.997  1.00  0.00     0.124 S 
ATOM     86  O   UNL A   1      52.184  25.055  31.728  1.00  0.00    -0.237 OA
ATOM     87  O   UNL A   1      52.720  26.202  29.608  1.00  0.00    -0.237 OA
ATOM     88  O   UNL A   1      52.876  27.424  31.742  1.00  0.00    -0.744 OA
ENDBRANCH  84  85
ENDBRANCH  58  79
ENDBRANCH  32  33
ENDBRANCH  25  27
ENDBRANCH  24  25
ENDBRANCH   1  24
TORSDOF 16
ENDMDL
MODEL 3
REMARK VINA RESULT:     -10.4      2.500      8.344
REMARK SMILES Cc1cscc1C(=O)N1C[C@@H](C(=O)OCCOC(=O)c2ccc(-c3c4nc(c(-c5ccc(S(=O)(=O)[O-])cc5)c5ccc([nH]5)c(-c5ccc(S(=O)(=O)[O-])cc5)c5nc(c(-c6ccc(S(=O)(=O)[O-])cc6)c6ccc3[nH]6)C=C5)C=C4)cc2)Oc2ccccc21
REMARK SMILES IDX 16 1 15 2 14 3 12 4 13 5 11 6 9 7 10 8 86 9 81 10 85 11
REMARK SMILES IDX 80 12 82 13 84 14 83 15 7 16 8 17 6 18 1 19 2 20 3 21 4 22
REMARK SMILES IDX 5 23 17 24 18 25 19 26 20 27 21 28 79 29 22 30 78 31 23 32
REMARK SMILES IDX 24 33 25 34 72 35 26 36 77 37 71 38 73 39 27 40 76 41 70 42
REMARK SMILES IDX 69 43 28 45 58 46 39 47 57 48 40 49 43 50 56 51 74 52 41 53
REMARK SMILES IDX 42 54 55 56 75 57 44 58 29 59 30 60 38 61 31 62 37 63 32 64
REMARK SMILES IDX 33 65 34 66 35 67 36 68 59 69 60 70 68 71 61 72 67 73 62 74
REMARK SMILES IDX 63 75 64 76 65 77 66 78 45 79 46 80 54 81 47 82 53 83 48 84
REMARK SMILES IDX 49 85 50 86 51 87 52 88
REMARK H PARENT 73 44 43 55
REMARK Flexibility Score: inf
ROOT
ATOM      1  C   UNL A   1      32.680  29.003  26.607  1.00  0.00     0.275 C 
ENDROOT
BRANCH   1   2
ATOM      2  C   UNL A   1      32.474  27.508  26.899  1.00  0.00     0.274 C 
BRANCH   2   3
ATOM      3  O   UNL A   1      33.272  26.663  26.051  1.00  0.00    -0.459 OA
BRANCH   3   4
ATOM      4  C   UNL A   1      32.930  25.349  26.089  1.00  0.00     0.349 C 
ATOM      5  O   UNL A   1      31.781  24.943  26.247  1.00  0.00    -0.248 OA
BRANCH   4   6
ATOM      6  C   UNL A   1      34.106  24.406  25.815  1.00  0.00     0.302 C 
ATOM      7  N   UNL A   1      33.781  24.447  23.398  1.00  0.00    -0.300 N 
ATOM      8  C   UNL A   1      34.712  24.817  24.469  1.00  0.00     0.183 C 
ATOM      9  C   UNL A   1      33.227  23.138  23.543  1.00  0.00     0.086 A 
ATOM     10  C   UNL A   1      33.398  22.441  24.748  1.00  0.00     0.144 A 
ATOM     11  C   UNL A   1      32.564  22.506  22.488  1.00  0.00     0.030 A 
ATOM     12  O   UNL A   1      33.915  22.998  25.887  1.00  0.00    -0.475 OA
ATOM     13  C   UNL A   1      33.001  21.109  24.862  1.00  0.00     0.049 A 
ATOM     14  C   UNL A   1      32.132  21.185  22.615  1.00  0.00     0.002 A 
ATOM     15  C   UNL A   1      32.372  20.478  23.792  1.00  0.00     0.004 A 
BRANCH   7  16
ATOM     16  C   UNL A   1      33.172  25.386  22.563  1.00  0.00     0.259 C 
ATOM     17  O   UNL A   1      33.602  25.584  21.422  1.00  0.00    -0.269 OA
BRANCH  16  18
ATOM     18  C   UNL A   1      32.032  26.181  23.056  1.00  0.00     0.053 A 
ATOM     19  C   UNL A   1      32.884  28.684  23.051  1.00  0.00     0.046 C 
ATOM     20  C   UNL A   1      31.862  27.614  23.236  1.00  0.00    -0.028 A 
ATOM     21  C   UNL A   1      30.554  27.923  23.581  1.00  0.00     0.069 A 
ATOM     22  S   UNL A   1      29.547  26.560  23.713  1.00  0.00    -0.151 S 
ATOM     23  C   UNL A   1      30.831  25.525  23.305  1.00  0.00     0.079 A 
ENDBRANCH  16  18
ENDBRANCH   7  16
ENDBRANCH   4   6
ENDBRANCH   3   4
ENDBRANCH   2   3
ENDBRANCH   1   2
BRANCH   1  24
ATOM     24  O   UNL A   1      34.067  29.387  26.509  1.00  0.00    -0.458 OA
BRANCH  24  25
ATOM     25  C   UNL A   1      34.452  30.380  27.349  1.00  0.00     0.338 C 
ATOM     26  O   UNL A   1      33.779  31.334  27.700  1.00  0.00    -0.246 OA
BRANCH  25  27
ATOM     27  C   UNL A   1      35.763  30.077  27.960  1.00  0.00     0.060 A 
ATOM     28  C   UNL A   1      35.763  29.594  29.273  1.00  0.00     0.016 A 
ATOM     29  C   UNL A   1      36.973  30.313  27.307  1.00  0.00     0.016 A 
ATOM     30  C   UNL A   1      36.952  29.315  29.932  1.00  0.00     0.010 A 
ATOM     31  C   UNL A   1      38.177  30.051  27.977  1.00  0.00     0.010 A 
ATOM     32  C   UNL A   1      38.170  29.547  29.291  1.00  0.00    -0.014 A 
BRANCH  32  33
ATOM     33  C   UNL A   1      39.423  29.285  30.034  1.00  0.00     0.031 A 
ATOM     34  C   UNL A   1      40.356  28.207  29.569  1.00  0.00     0.074 A 
ATOM     35  C   UNL A   1      39.746  30.066  31.081  1.00  0.00     0.049 A 
ATOM     36  N   UNL A   1      41.477  27.801  30.105  1.00  0.00    -0.248 NA
ATOM     37  C   UNL A   1      39.986  27.499  28.332  1.00  0.00     0.031 C 
ATOM     38  C   UNL A   1      38.955  31.201  31.564  1.00  0.00     0.029 A 
ATOM     39  N   UNL A   1      40.828  30.029  31.924  1.00  0.00    -0.354 N 
ATOM     40  C   UNL A   1      41.939  26.778  29.287  1.00  0.00     0.074 A 
ATOM     41  C   UNL A   1      40.971  26.619  28.222  1.00  0.00     0.031 C 
ATOM     42  C   UNL A   1      39.578  31.748  32.621  1.00  0.00     0.029 A 
ATOM     43  C   UNL A   1      40.777  30.971  32.922  1.00  0.00     0.049 A 
ATOM     44  H   UNL A   1      41.569  29.388  31.822  1.00  0.00     0.167 HD
ATOM     45  C   UNL A   1      43.066  26.038  29.417  1.00  0.00     0.031 A 
ATOM     46  C   UNL A   1      41.585  31.162  33.983  1.00  0.00     0.031 A 
ATOM     47  C   UNL A   1      44.011  26.197  30.492  1.00  0.00     0.049 A 
ATOM     48  C   UNL A   1      42.771  30.252  34.167  1.00  0.00     0.074 A 
ATOM     49  C   UNL A   1      45.183  25.495  30.717  1.00  0.00     0.029 A 
ATOM     50  N   UNL A   1      43.889  27.112  31.527  1.00  0.00    -0.354 N 
ATOM     51  N   UNL A   1      43.195  29.285  33.387  1.00  0.00    -0.248 NA
ATOM     52  C   UNL A   1      43.581  30.454  35.375  1.00  0.00     0.031 C 
ATOM     53  C   UNL A   1      45.733  25.940  31.923  1.00  0.00     0.029 A 
ATOM     54  C   UNL A   1      44.942  26.967  32.415  1.00  0.00     0.049 A 
ATOM     55  H   UNL A   1      43.160  27.768  31.617  1.00  0.00     0.167 HD
ATOM     56  C   UNL A   1      44.331  28.773  34.005  1.00  0.00     0.074 A 
ATOM     57  C   UNL A   1      44.541  29.554  35.207  1.00  0.00     0.031 C 
ATOM     58  C   UNL A   1      45.129  27.747  33.613  1.00  0.00     0.031 A 
BRANCH  45  59
ATOM     59  C   UNL A   1      43.307  24.951  28.403  1.00  0.00    -0.014 A 
ATOM     60  C   UNL A   1      42.819  23.645  28.594  1.00  0.00     0.010 A 
ATOM     61  C   UNL A   1      44.006  25.253  27.220  1.00  0.00     0.010 A 
ATOM     62  C   UNL A   1      43.058  22.654  27.637  1.00  0.00     0.020 A 
ATOM     63  C   UNL A   1      44.225  24.271  26.249  1.00  0.00     0.020 A 
ATOM     64  C   UNL A   1      43.763  22.973  26.472  1.00  0.00     0.054 A 
BRANCH  64  65
ATOM     65  S   UNL A   1      44.045  21.671  25.241  1.00  0.00     0.124 S 
ATOM     66  O   UNL A   1      43.885  22.403  23.986  1.00  0.00    -0.237 OA
ATOM     67  O   UNL A   1      45.405  21.235  25.544  1.00  0.00    -0.237 OA
ATOM     68  O   UNL A   1      43.000  20.690  25.525  1.00  0.00    -0.744 OA
ENDBRANCH  64  65
ENDBRANCH  45  59
BRANCH  46  69
ATOM     69  C   UNL A   1      41.270  32.223  34.979  1.00  0.00    -0.014 A 
ATOM     70  C   UNL A   1      40.369  31.982  36.029  1.00  0.00     0.010 A 
ATOM     71  C   UNL A   1      41.879  33.489  34.878  1.00  0.00     0.010 A 
ATOM     72  C   UNL A   1      40.071  32.990  36.951  1.00  0.00     0.020 A 
ATOM     73  C   UNL A   1      41.609  34.490  35.816  1.00  0.00     0.020 A 
ATOM     74  C   UNL A   1      40.697  34.236  36.840  1.00  0.00     0.054 A 
BRANCH  74  75
ATOM     75  S   UNL A   1      40.328  35.512  38.077  1.00  0.00     0.124 S 
ATOM     76  O   UNL A   1      41.631  35.713  38.703  1.00  0.00    -0.237 OA
ATOM     77  O   UNL A   1      39.844  36.617  37.253  1.00  0.00    -0.237 OA
ATOM     78  O   UNL A   1      39.316  34.885  38.924  1.00  0.00    -0.744 OA
ENDBRANCH  74  75
ENDBRANCH  46  69
BRANCH  58  79
ATOM     79  C   UNL A   1      46.310  27.419  34.488  1.00  0.00    -0.014 A 
ATOM     80  C   UNL A   1      46.215  26.459  35.510  1.00  0.00     0.010 A 
ATOM     81  C   UNL A   1      47.548  28.043  34.247  1.00  0.00     0.010 A 
ATOM     82  C   UNL A   1      47.327  26.148  36.295  1.00  0.00     0.020 A 
ATOM     83  C   UNL A   1      48.671  27.713  35.010  1.00  0.00     0.020 A 
ATOM     84  C   UNL A   1      48.550  26.777  36.039  1.00  0.00     0.054 A 
BRANCH  84  85
ATOM     85  S   UNL A   1      49.992  26.321  37.041  1.00  0.00     0.124 S 
ATOM     86  O   UNL A   1      50.708  25.414  36.149  1.00  0.00    -0.237 OA
ATOM     87  O   UNL A   1      50.636  27.610  37.279  1.00  0.00    -0.237 OA
ATOM     88  O   UNL A   1      49.406  25.697  38.226  1.00  0.00    -0.744 OA
ENDBRANCH  84  85
ENDBRANCH  58  79
ENDBRANCH  32  33
ENDBRANCH  25  27
ENDBRANCH  24  25
ENDBRANCH   1  24
TORSDOF 16
ENDMDL
