MODEL 1
REMARK VINA RESULT:     -10.2      0.000      0.000
REMARK SMILES Cc1[nH]c(=O)n(C)c(=O)c1CC(=O)OCCOC(=O)c1ccc(-c2c3nc(c(-c4ccc(S(=O)(=O)[O-])cc4)c4ccc([nH]4)c(-c4ccc(S(=O)(=O)[O-])cc4)c4nc(c(-c5ccc(S(=O)(=O)[O-])cc5)c5ccc2[nH]5)C=C4)C=C3)cc1
REMARK SMILES IDX 16 1 15 2 14 3 12 4 13 5 11 6 10 7 1 8 2 9 3 10 4 11 8 13
REMARK SMILES IDX 5 14 6 15 9 16 7 17 17 18 18 19 19 20 20 21 21 22 79 23
REMARK SMILES IDX 22 24 78 25 23 26 24 27 25 28 72 29 26 30 77 31 71 32 73 33
REMARK SMILES IDX 27 34 76 35 70 36 69 37 28 39 58 40 39 41 57 42 40 43 43 44
REMARK SMILES IDX 56 45 74 46 41 47 42 48 55 50 75 51 44 52 29 53 30 54 38 55
REMARK SMILES IDX 31 56 37 57 32 58 33 59 34 60 35 61 36 62 59 63 60 64 68 65
REMARK SMILES IDX 61 66 67 67 62 68 63 69 64 70 65 71 66 72 45 73 46 74 54 75
REMARK SMILES IDX 47 76 53 77 48 78 49 79 50 80 51 81 52 82
REMARK H PARENT 3 12 73 38 43 49
REMARK Flexibility Score: inf
ROOT
ATOM      1  C   UNL A   1      38.742  23.351  25.715  1.00  0.00     0.275 C 
ENDROOT
BRANCH   1   2
ATOM      2  C   UNL A   1      38.644  21.831  25.812  1.00  0.00     0.274 C 
BRANCH   2   3
ATOM      3  O   UNL A   1      39.705  21.295  26.631  1.00  0.00    -0.462 OA
BRANCH   3   4
ATOM      4  C   UNL A   1      40.198  20.089  26.240  1.00  0.00     0.310 C 
ATOM      5  O   UNL A   1      39.672  19.363  25.402  1.00  0.00    -0.252 OA
BRANCH   4   6
ATOM      6  C   UNL A   1      41.447  19.658  26.991  1.00  0.00     0.165 C 
BRANCH   6   7
ATOM      7  C   UNL A   1      42.738  20.230  26.476  1.00  0.00     0.048 A 
ATOM      8  C   UNL A   1      42.677  22.285  27.906  1.00  0.00     0.065 C 
ATOM      9  C   UNL A   1      43.288  21.390  26.868  1.00  0.00     0.026 A 
ATOM     10  N   UNL A   1      44.464  21.809  26.308  1.00  0.00    -0.311 N 
ATOM     11  C   UNL A   1      45.135  21.159  25.309  1.00  0.00     0.328 A 
ATOM     12  H   UNL A   1      44.858  22.643  26.651  1.00  0.00     0.171 HD
ATOM     13  C   UNL A   1      43.487  19.392  25.496  1.00  0.00     0.259 A 
ATOM     14  O   UNL A   1      46.174  21.647  24.864  1.00  0.00    -0.248 OA
ATOM     15  N   UNL A   1      44.582  19.970  24.885  1.00  0.00    -0.263 N 
ATOM     16  O   UNL A   1      43.125  18.235  25.307  1.00  0.00    -0.269 OA
ATOM     17  C   UNL A   1      45.264  19.241  23.832  1.00  0.00     0.158 C 
ENDBRANCH   6   7
ENDBRANCH   4   6
ENDBRANCH   3   4
ENDBRANCH   2   3
ENDBRANCH   1   2
BRANCH   1  18
ATOM     18  O   UNL A   1      39.366  23.869  26.899  1.00  0.00    -0.458 OA
BRANCH  18  19
ATOM     19  C   UNL A   1      40.375  24.752  26.696  1.00  0.00     0.338 C 
ATOM     20  O   UNL A   1      41.202  24.736  25.803  1.00  0.00    -0.246 OA
BRANCH  19  21
ATOM     21  C   UNL A   1      40.357  25.731  27.795  1.00  0.00     0.060 A 
ATOM     22  C   UNL A   1      39.420  25.614  28.823  1.00  0.00     0.016 A 
ATOM     23  C   UNL A   1      41.246  26.804  27.770  1.00  0.00     0.016 A 
ATOM     24  C   UNL A   1      39.332  26.598  29.802  1.00  0.00     0.010 A 
ATOM     25  C   UNL A   1      41.207  27.752  28.796  1.00  0.00     0.010 A 
ATOM     26  C   UNL A   1      40.236  27.668  29.809  1.00  0.00    -0.014 A 
BRANCH  26  27
ATOM     27  C   UNL A   1      40.158  28.694  30.878  1.00  0.00     0.031 A 
ATOM     28  C   UNL A   1      41.101  28.643  32.049  1.00  0.00     0.074 A 
ATOM     29  C   UNL A   1      39.250  29.684  30.784  1.00  0.00     0.049 A 
ATOM     30  N   UNL A   1      41.143  29.417  33.103  1.00  0.00    -0.248 NA
ATOM     31  C   UNL A   1      42.122  27.584  32.037  1.00  0.00     0.031 C 
ATOM     32  C   UNL A   1      38.306  29.863  29.676  1.00  0.00     0.029 A 
ATOM     33  N   UNL A   1      38.975  30.735  31.623  1.00  0.00    -0.354 N 
ATOM     34  C   UNL A   1      42.179  28.927  33.890  1.00  0.00     0.074 A 
ATOM     35  C   UNL A   1      42.722  27.775  33.205  1.00  0.00     0.031 C 
ATOM     36  C   UNL A   1      37.588  30.975  29.886  1.00  0.00     0.029 A 
ATOM     37  C   UNL A   1      37.971  31.555  31.169  1.00  0.00     0.049 A 
ATOM     38  H   UNL A   1      39.454  30.886  32.471  1.00  0.00     0.167 HD
ATOM     39  C   UNL A   1      42.639  29.400  35.074  1.00  0.00     0.031 A 
ATOM     40  C   UNL A   1      37.404  32.643  31.728  1.00  0.00     0.031 A 
ATOM     41  C   UNL A   1      42.101  30.554  35.744  1.00  0.00     0.049 A 
ATOM     42  C   UNL A   1      37.891  33.114  33.069  1.00  0.00     0.074 A 
ATOM     43  C   UNL A   1      42.504  31.117  36.942  1.00  0.00     0.029 A 
ATOM     44  N   UNL A   1      41.048  31.325  35.274  1.00  0.00    -0.354 N 
ATOM     45  N   UNL A   1      38.862  32.630  33.804  1.00  0.00    -0.248 NA
ATOM     46  C   UNL A   1      37.203  34.270  33.660  1.00  0.00     0.031 C 
ATOM     47  C   UNL A   1      41.664  32.199  37.220  1.00  0.00     0.029 A 
ATOM     48  C   UNL A   1      40.773  32.344  36.169  1.00  0.00     0.049 A 
ATOM     49  H   UNL A   1      40.566  31.170  34.429  1.00  0.00     0.167 HD
ATOM     50  C   UNL A   1      38.913  33.432  34.938  1.00  0.00     0.074 A 
ATOM     51  C   UNL A   1      37.882  34.439  34.788  1.00  0.00     0.031 C 
ATOM     52  C   UNL A   1      39.744  33.340  36.004  1.00  0.00     0.031 A 
BRANCH  39  53
ATOM     53  C   UNL A   1      43.767  28.654  35.734  1.00  0.00    -0.014 A 
ATOM     54  C   UNL A   1      43.517  27.618  36.650  1.00  0.00     0.010 A 
ATOM     55  C   UNL A   1      45.097  28.962  35.395  1.00  0.00     0.010 A 
ATOM     56  C   UNL A   1      44.577  26.928  37.244  1.00  0.00     0.020 A 
ATOM     57  C   UNL A   1      46.160  28.258  35.967  1.00  0.00     0.020 A 
ATOM     58  C   UNL A   1      45.894  27.255  36.902  1.00  0.00     0.054 A 
BRANCH  58  59
ATOM     59  S   UNL A   1      47.250  26.330  37.675  1.00  0.00     0.124 S 
ATOM     60  O   UNL A   1      48.370  26.641  36.788  1.00  0.00    -0.237 OA
ATOM     61  O   UNL A   1      47.323  26.923  39.008  1.00  0.00    -0.237 OA
ATOM     62  O   UNL A   1      46.792  24.944  37.636  1.00  0.00    -0.744 OA
ENDBRANCH  58  59
ENDBRANCH  39  53
BRANCH  40  63
ATOM     63  C   UNL A   1      36.312  33.350  31.007  1.00  0.00    -0.014 A 
ATOM     64  C   UNL A   1      35.018  33.404  31.553  1.00  0.00     0.010 A 
ATOM     65  C   UNL A   1      36.575  34.029  29.802  1.00  0.00     0.010 A 
ATOM     66  C   UNL A   1      34.010  34.128  30.911  1.00  0.00     0.020 A 
ATOM     67  C   UNL A   1      35.576  34.774  29.171  1.00  0.00     0.020 A 
ATOM     68  C   UNL A   1      34.297  34.817  29.728  1.00  0.00     0.054 A 
BRANCH  68  69
ATOM     69  S   UNL A   1      32.994  35.820  28.962  1.00  0.00     0.124 S 
ATOM     70  O   UNL A   1      33.763  36.870  28.305  1.00  0.00    -0.237 OA
ATOM     71  O   UNL A   1      32.341  34.861  28.073  1.00  0.00    -0.237 OA
ATOM     72  O   UNL A   1      32.182  36.254  30.098  1.00  0.00    -0.744 OA
ENDBRANCH  68  69
ENDBRANCH  40  63
BRANCH  52  73
ATOM     73  C   UNL A   1      39.598  34.363  37.097  1.00  0.00    -0.014 A 
ATOM     74  C   UNL A   1      38.913  34.056  38.286  1.00  0.00     0.010 A 
ATOM     75  C   UNL A   1      40.255  35.602  36.981  1.00  0.00     0.010 A 
ATOM     76  C   UNL A   1      38.891  34.971  39.342  1.00  0.00     0.020 A 
ATOM     77  C   UNL A   1      40.253  36.510  38.042  1.00  0.00     0.020 A 
ATOM     78  C   UNL A   1      39.570  36.188  39.218  1.00  0.00     0.054 A 
BRANCH  78  79
ATOM     79  S   UNL A   1      39.607  37.313  40.639  1.00  0.00     0.124 S 
ATOM     80  O   UNL A   1      39.002  38.523  40.088  1.00  0.00    -0.237 OA
ATOM     81  O   UNL A   1      38.801  36.603  41.630  1.00  0.00    -0.237 OA
ATOM     82  O   UNL A   1      41.028  37.420  40.961  1.00  0.00    -0.744 OA
ENDBRANCH  78  79
ENDBRANCH  52  73
ENDBRANCH  26  27
ENDBRANCH  19  21
ENDBRANCH  18  19
ENDBRANCH   1  18
TORSDOF 15
ENDMDL
MODEL 2
REMARK VINA RESULT:     -10.2      4.625      6.126
REMARK SMILES Cc1[nH]c(=O)n(C)c(=O)c1CC(=O)OCCOC(=O)c1ccc(-c2c3nc(c(-c4ccc(S(=O)(=O)[O-])cc4)c4ccc([nH]4)c(-c4ccc(S(=O)(=O)[O-])cc4)c4nc(c(-c5ccc(S(=O)(=O)[O-])cc5)c5ccc2[nH]5)C=C4)C=C3)cc1
REMARK SMILES IDX 16 1 15 2 14 3 12 4 13 5 11 6 10 7 1 8 2 9 3 10 4 11 8 13
REMARK SMILES IDX 5 14 6 15 9 16 7 17 17 18 18 19 19 20 20 21 21 22 79 23
REMARK SMILES IDX 22 24 78 25 23 26 24 27 25 28 72 29 26 30 77 31 71 32 73 33
REMARK SMILES IDX 27 34 76 35 70 36 69 37 28 39 58 40 39 41 57 42 40 43 43 44
REMARK SMILES IDX 56 45 74 46 41 47 42 48 55 50 75 51 44 52 29 53 30 54 38 55
REMARK SMILES IDX 31 56 37 57 32 58 33 59 34 60 35 61 36 62 59 63 60 64 68 65
REMARK SMILES IDX 61 66 67 67 62 68 63 69 64 70 65 71 66 72 45 73 46 74 54 75
REMARK SMILES IDX 47 76 53 77 48 78 49 79 50 80 51 81 52 82
REMARK H PARENT 3 12 73 38 43 49
REMARK Flexibility Score: inf
ROOT
ATOM      1  C   UNL A   1      37.175  22.028  24.862  1.00  0.00     0.275 C 
ENDROOT
BRANCH   1   2
ATOM      2  C   UNL A   1      36.453  22.544  23.620  1.00  0.00     0.274 C 
BRANCH   2   3
ATOM      3  O   UNL A   1      35.356  23.409  23.981  1.00  0.00    -0.462 OA
BRANCH   3   4
ATOM      4  C   UNL A   1      34.208  23.231  23.271  1.00  0.00     0.310 C 
ATOM      5  O   UNL A   1      34.110  23.394  22.059  1.00  0.00    -0.252 OA
BRANCH   4   6
ATOM      6  C   UNL A   1      33.002  22.875  24.126  1.00  0.00     0.165 C 
BRANCH   6   7
ATOM      7  C   UNL A   1      32.959  21.457  24.620  1.00  0.00     0.048 A 
ATOM      8  C   UNL A   1      33.666  21.997  26.962  1.00  0.00     0.065 C 
ATOM      9  C   UNL A   1      33.255  21.057  25.867  1.00  0.00     0.026 A 
ATOM     10  N   UNL A   1      33.191  19.728  26.188  1.00  0.00    -0.311 N 
ATOM     11  C   UNL A   1      32.894  18.720  25.312  1.00  0.00     0.328 A 
ATOM     12  H   UNL A   1      33.374  19.478  27.122  1.00  0.00     0.171 HD
ATOM     13  C   UNL A   1      32.483  20.432  23.647  1.00  0.00     0.259 A 
ATOM     14  O   UNL A   1      32.894  17.556  25.711  1.00  0.00    -0.248 OA
ATOM     15  N   UNL A   1      32.597  19.109  24.023  1.00  0.00    -0.263 N 
ATOM     16  O   UNL A   1      31.987  20.805  22.588  1.00  0.00    -0.269 OA
ATOM     17  C   UNL A   1      32.268  18.075  23.061  1.00  0.00     0.158 C 
ENDBRANCH   6   7
ENDBRANCH   4   6
ENDBRANCH   3   4
ENDBRANCH   2   3
ENDBRANCH   1   2
BRANCH   1  18
ATOM     18  O   UNL A   1      37.656  23.137  25.635  1.00  0.00    -0.458 OA
BRANCH  18  19
ATOM     19  C   UNL A   1      38.884  22.982  26.188  1.00  0.00     0.338 C 
ATOM     20  O   UNL A   1      39.561  21.971  26.213  1.00  0.00    -0.246 OA
BRANCH  19  21
ATOM     21  C   UNL A   1      39.262  24.251  26.832  1.00  0.00     0.060 A 
ATOM     22  C   UNL A   1      40.025  25.190  26.137  1.00  0.00     0.016 A 
ATOM     23  C   UNL A   1      38.898  24.480  28.157  1.00  0.00     0.016 A 
ATOM     24  C   UNL A   1      40.474  26.338  26.780  1.00  0.00     0.010 A 
ATOM     25  C   UNL A   1      39.286  25.670  28.780  1.00  0.00     0.010 A 
ATOM     26  C   UNL A   1      40.095  26.599  28.102  1.00  0.00    -0.014 A 
BRANCH  26  27
ATOM     27  C   UNL A   1      40.548  27.845  28.769  1.00  0.00     0.031 A 
ATOM     28  C   UNL A   1      41.962  27.968  29.267  1.00  0.00     0.074 A 
ATOM     29  C   UNL A   1      39.690  28.874  28.909  1.00  0.00     0.049 A 
ATOM     30  N   UNL A   1      42.518  28.954  29.922  1.00  0.00    -0.248 NA
ATOM     31  C   UNL A   1      42.864  26.837  29.000  1.00  0.00     0.031 C 
ATOM     32  C   UNL A   1      38.304  28.888  28.432  1.00  0.00     0.029 A 
ATOM     33  N   UNL A   1      39.855  30.111  29.480  1.00  0.00    -0.354 N 
ATOM     34  C   UNL A   1      43.828  28.555  30.165  1.00  0.00     0.074 A 
ATOM     35  C   UNL A   1      43.975  27.228  29.609  1.00  0.00     0.031 C 
ATOM     36  C   UNL A   1      37.761  30.086  28.695  1.00  0.00     0.029 A 
ATOM     37  C   UNL A   1      38.734  30.903  29.414  1.00  0.00     0.049 A 
ATOM     38  H   UNL A   1      40.698  30.403  29.898  1.00  0.00     0.167 HD
ATOM     39  C   UNL A   1      44.818  29.237  30.790  1.00  0.00     0.031 A 
ATOM     40  C   UNL A   1      38.503  32.140  29.894  1.00  0.00     0.031 A 
ATOM     41  C   UNL A   1      44.667  30.562  31.330  1.00  0.00     0.049 A 
ATOM     42  C   UNL A   1      39.598  32.854  30.635  1.00  0.00     0.074 A 
ATOM     43  C   UNL A   1      45.613  31.340  31.974  1.00  0.00     0.029 A 
ATOM     44  N   UNL A   1      43.498  31.307  31.288  1.00  0.00    -0.354 N 
ATOM     45  N   UNL A   1      40.825  32.455  30.867  1.00  0.00    -0.248 NA
ATOM     46  C   UNL A   1      39.277  34.178  31.186  1.00  0.00     0.031 C 
ATOM     47  C   UNL A   1      45.004  32.536  32.363  1.00  0.00     0.029 A 
ATOM     48  C   UNL A   1      43.693  32.527  31.914  1.00  0.00     0.049 A 
ATOM     49  H   UNL A   1      42.654  31.012  30.875  1.00  0.00     0.167 HD
ATOM     50  C   UNL A   1      41.429  33.486  31.576  1.00  0.00     0.074 A 
ATOM     51  C   UNL A   1      40.437  34.531  31.728  1.00  0.00     0.031 C 
ATOM     52  C   UNL A   1      42.695  33.557  32.055  1.00  0.00     0.031 A 
BRANCH  39  53
ATOM     53  C   UNL A   1      46.149  28.552  30.944  1.00  0.00    -0.014 A 
ATOM     54  C   UNL A   1      47.173  28.728  29.997  1.00  0.00     0.010 A 
ATOM     55  C   UNL A   1      46.395  27.759  32.080  1.00  0.00     0.010 A 
ATOM     56  C   UNL A   1      48.406  28.093  30.163  1.00  0.00     0.020 A 
ATOM     57  C   UNL A   1      47.637  27.142  32.263  1.00  0.00     0.020 A 
ATOM     58  C   UNL A   1      48.630  27.300  31.294  1.00  0.00     0.054 A 
BRANCH  58  59
ATOM     59  S   UNL A   1      50.247  26.503  31.493  1.00  0.00     0.124 S 
ATOM     60  O   UNL A   1      49.871  25.172  31.966  1.00  0.00    -0.237 OA
ATOM     61  O   UNL A   1      50.799  26.555  30.141  1.00  0.00    -0.237 OA
ATOM     62  O   UNL A   1      50.931  27.342  32.475  1.00  0.00    -0.744 OA
ENDBRANCH  58  59
ENDBRANCH  39  53
BRANCH  40  63
ATOM     63  C   UNL A   1      37.172  32.771  29.681  1.00  0.00    -0.014 A 
ATOM     64  C   UNL A   1      36.248  32.854  30.735  1.00  0.00     0.010 A 
ATOM     65  C   UNL A   1      36.848  33.349  28.439  1.00  0.00     0.010 A 
ATOM     66  C   UNL A   1      35.026  33.508  30.555  1.00  0.00     0.020 A 
ATOM     67  C   UNL A   1      35.639  34.026  28.262  1.00  0.00     0.020 A 
ATOM     68  C   UNL A   1      34.733  34.099  29.321  1.00  0.00     0.054 A 
BRANCH  68  69
ATOM     69  S   UNL A   1      33.179  35.018  29.140  1.00  0.00     0.124 S 
ATOM     70  O   UNL A   1      33.649  36.338  28.738  1.00  0.00    -0.237 OA
ATOM     71  O   UNL A   1      32.480  34.253  28.108  1.00  0.00    -0.237 OA
ATOM     72  O   UNL A   1      32.579  34.943  30.471  1.00  0.00    -0.744 OA
ENDBRANCH  68  69
ENDBRANCH  40  63
BRANCH  52  73
ATOM     73  C   UNL A   1      43.102  34.812  32.778  1.00  0.00    -0.014 A 
ATOM     74  C   UNL A   1      43.071  34.879  34.181  1.00  0.00     0.010 A 
ATOM     75  C   UNL A   1      43.633  35.891  32.047  1.00  0.00     0.010 A 
ATOM     76  C   UNL A   1      43.568  36.005  34.843  1.00  0.00     0.020 A 
ATOM     77  C   UNL A   1      44.150  37.009  32.707  1.00  0.00     0.020 A 
ATOM     78  C   UNL A   1      44.114  37.059  34.102  1.00  0.00     0.054 A 
BRANCH  78  79
ATOM     79  S   UNL A   1      44.842  38.462  34.991  1.00  0.00     0.124 S 
ATOM     80  O   UNL A   1      43.968  38.572  36.156  1.00  0.00    -0.237 OA
ATOM     81  O   UNL A   1      46.199  37.998  35.265  1.00  0.00    -0.237 OA
ATOM     82  O   UNL A   1      44.747  39.565  34.037  1.00  0.00    -0.744 OA
ENDBRANCH  78  79
ENDBRANCH  52  73
ENDBRANCH  26  27
ENDBRANCH  19  21
ENDBRANCH  18  19
ENDBRANCH   1  18
TORSDOF 15
ENDMDL
MODEL 3
REMARK VINA RESULT:     -10.2      3.166      4.605
REMARK SMILES Cc1[nH]c(=O)n(C)c(=O)c1CC(=O)OCCOC(=O)c1ccc(-c2c3nc(c(-c4ccc(S(=O)(=O)[O-])cc4)c4ccc([nH]4)c(-c4ccc(S(=O)(=O)[O-])cc4)c4nc(c(-c5ccc(S(=O)(=O)[O-])cc5)c5ccc2[nH]5)C=C4)C=C3)cc1
REMARK SMILES IDX 16 1 15 2 14 3 12 4 13 5 11 6 10 7 1 8 2 9 3 10 4 11 8 13
REMARK SMILES IDX 5 14 6 15 9 16 7 17 17 18 18 19 19 20 20 21 21 22 79 23
REMARK SMILES IDX 22 24 78 25 23 26 24 27 25 28 72 29 26 30 77 31 71 32 73 33
REMARK SMILES IDX 27 34 76 35 70 36 69 37 28 39 58 40 39 41 57 42 40 43 43 44
REMARK SMILES IDX 56 45 74 46 41 47 42 48 55 50 75 51 44 52 29 53 30 54 38 55
REMARK SMILES IDX 31 56 37 57 32 58 33 59 34 60 35 61 36 62 59 63 60 64 68 65
REMARK SMILES IDX 61 66 67 67 62 68 63 69 64 70 65 71 66 72 45 73 46 74 54 75
REMARK SMILES IDX 47 76 53 77 48 78 49 79 50 80 51 81 52 82
REMARK H PARENT 3 12 73 38 43 49
REMARK Flexibility Score: inf
ROOT
ATOM      1  C   UNL A   1      38.904  23.465  26.746  1.00  0.00     0.275 C 
ENDROOT
BRANCH   1   2
ATOM      2  C   UNL A   1      37.833  22.915  25.808  1.00  0.00     0.274 C 
BRANCH   2   3
ATOM      3  O   UNL A   1      36.876  23.938  25.459  1.00  0.00    -0.462 OA
BRANCH   3   4
ATOM      4  C   UNL A   1      36.002  23.612  24.468  1.00  0.00     0.310 C 
ATOM      5  O   UNL A   1      36.325  23.375  23.308  1.00  0.00    -0.252 OA
BRANCH   4   6
ATOM      6  C   UNL A   1      34.544  23.633  24.899  1.00  0.00     0.165 C 
BRANCH   6   7
ATOM      7  C   UNL A   1      33.911  22.285  25.098  1.00  0.00     0.048 A 
ATOM      8  C   UNL A   1      34.387  22.157  27.553  1.00  0.00     0.065 C 
ATOM      9  C   UNL A   1      33.841  21.622  26.262  1.00  0.00     0.026 A 
ATOM     10  N   UNL A   1      33.249  20.389  26.308  1.00  0.00    -0.311 N 
ATOM     11  C   UNL A   1      32.748  19.716  25.227  1.00  0.00     0.328 A 
ATOM     12  H   UNL A   1      33.178  19.952  27.187  1.00  0.00     0.171 HD
ATOM     13  C   UNL A   1      33.255  21.680  23.902  1.00  0.00     0.259 A 
ATOM     14  O   UNL A   1      32.262  18.597  25.387  1.00  0.00    -0.248 OA
ATOM     15  N   UNL A   1      32.820  20.376  24.019  1.00  0.00    -0.263 N 
ATOM     16  O   UNL A   1      33.102  22.369  22.898  1.00  0.00    -0.269 OA
ATOM     17  C   UNL A   1      32.293  19.704  22.846  1.00  0.00     0.158 C 
ENDBRANCH   6   7
ENDBRANCH   4   6
ENDBRANCH   3   4
ENDBRANCH   2   3
ENDBRANCH   1   2
BRANCH   1  18
ATOM     18  O   UNL A   1      38.620  24.840  27.047  1.00  0.00    -0.458 OA
BRANCH  18  19
ATOM     19  C   UNL A   1      39.655  25.702  26.898  1.00  0.00     0.338 C 
ATOM     20  O   UNL A   1      40.472  25.728  25.996  1.00  0.00    -0.246 OA
BRANCH  19  21
ATOM     21  C   UNL A   1      39.681  26.596  28.068  1.00  0.00     0.060 A 
ATOM     22  C   UNL A   1      40.447  27.763  28.040  1.00  0.00     0.016 A 
ATOM     23  C   UNL A   1      38.981  26.240  29.218  1.00  0.00     0.016 A 
ATOM     24  C   UNL A   1      40.559  28.551  29.181  1.00  0.00     0.010 A 
ATOM     25  C   UNL A   1      39.033  27.071  30.339  1.00  0.00     0.010 A 
ATOM     26  C   UNL A   1      39.839  28.223  30.337  1.00  0.00    -0.014 A 
BRANCH  26  27
ATOM     27  C   UNL A   1      39.936  29.090  31.538  1.00  0.00     0.031 A 
ATOM     28  C   UNL A   1      41.080  28.927  32.500  1.00  0.00     0.074 A 
ATOM     29  C   UNL A   1      39.002  30.037  31.750  1.00  0.00     0.049 A 
ATOM     30  N   UNL A   1      41.298  29.552  33.629  1.00  0.00    -0.248 NA
ATOM     31  C   UNL A   1      42.107  27.932  32.155  1.00  0.00     0.031 C 
ATOM     32  C   UNL A   1      37.866  30.316  30.867  1.00  0.00     0.029 A 
ATOM     33  N   UNL A   1      38.862  30.949  32.767  1.00  0.00    -0.354 N 
ATOM     34  C   UNL A   1      42.473  29.012  34.139  1.00  0.00     0.074 A 
ATOM     35  C   UNL A   1      42.908  27.992  33.210  1.00  0.00     0.031 C 
ATOM     36  C   UNL A   1      37.172  31.353  31.359  1.00  0.00     0.029 A 
ATOM     37  C   UNL A   1      37.771  31.772  32.622  1.00  0.00     0.049 A 
ATOM     38  H   UNL A   1      39.486  31.007  33.527  1.00  0.00     0.167 HD
ATOM     39  C   UNL A   1      43.132  29.343  35.276  1.00  0.00     0.031 A 
ATOM     40  C   UNL A   1      37.292  32.744  33.423  1.00  0.00     0.031 A 
ATOM     41  C   UNL A   1      42.699  30.366  36.190  1.00  0.00     0.049 A 
ATOM     42  C   UNL A   1      38.007  33.052  34.707  1.00  0.00     0.074 A 
ATOM     43  C   UNL A   1      43.303  30.781  37.364  1.00  0.00     0.029 A 
ATOM     44  N   UNL A   1      41.559  31.140  36.031  1.00  0.00    -0.354 N 
ATOM     45  N   UNL A   1      39.109  32.522  35.180  1.00  0.00    -0.248 NA
ATOM     46  C   UNL A   1      37.412  34.082  35.571  1.00  0.00     0.031 C 
ATOM     47  C   UNL A   1      42.504  31.772  37.940  1.00  0.00     0.029 A 
ATOM     48  C   UNL A   1      41.430  32.014  37.098  1.00  0.00     0.049 A 
ATOM     49  H   UNL A   1      40.934  31.078  35.273  1.00  0.00     0.167 HD
ATOM     50  C   UNL A   1      39.349  33.164  36.388  1.00  0.00     0.074 A 
ATOM     51  C   UNL A   1      38.284  34.130  36.571  1.00  0.00     0.031 C 
ATOM     52  C   UNL A   1      40.364  32.970  37.264  1.00  0.00     0.031 A 
BRANCH  39  53
ATOM     53  C   UNL A   1      44.381  28.571  35.610  1.00  0.00    -0.014 A 
ATOM     54  C   UNL A   1      45.644  29.007  35.172  1.00  0.00     0.010 A 
ATOM     55  C   UNL A   1      44.293  27.420  36.413  1.00  0.00     0.010 A 
ATOM     56  C   UNL A   1      46.794  28.284  35.501  1.00  0.00     0.020 A 
ATOM     57  C   UNL A   1      45.444  26.708  36.767  1.00  0.00     0.020 A 
ATOM     58  C   UNL A   1      46.686  27.136  36.295  1.00  0.00     0.054 A 
BRANCH  58  59
ATOM     59  S   UNL A   1      48.197  26.228  36.722  1.00  0.00     0.124 S 
ATOM     60  O   UNL A   1      49.021  27.278  37.318  1.00  0.00    -0.237 OA
ATOM     61  O   UNL A   1      47.709  25.212  37.651  1.00  0.00    -0.237 OA
ATOM     62  O   UNL A   1      48.672  25.718  35.438  1.00  0.00    -0.744 OA
ENDBRANCH  58  59
ENDBRANCH  39  53
BRANCH  40  63
ATOM     63  C   UNL A   1      36.068  33.488  33.018  1.00  0.00    -0.014 A 
ATOM     64  C   UNL A   1      34.801  33.056  33.445  1.00  0.00     0.010 A 
ATOM     65  C   UNL A   1      36.170  34.667  32.258  1.00  0.00     0.010 A 
ATOM     66  C   UNL A   1      33.658  33.794  33.124  1.00  0.00     0.020 A 
ATOM     67  C   UNL A   1      35.032  35.421  31.956  1.00  0.00     0.020 A 
ATOM     68  C   UNL A   1      33.782  34.977  32.389  1.00  0.00     0.054 A 
BRANCH  68  69
ATOM     69  S   UNL A   1      32.293  35.962  32.060  1.00  0.00     0.124 S 
ATOM     70  O   UNL A   1      32.383  36.180  30.621  1.00  0.00    -0.237 OA
ATOM     71  O   UNL A   1      31.223  35.069  32.500  1.00  0.00    -0.237 OA
ATOM     72  O   UNL A   1      32.479  37.152  32.888  1.00  0.00    -0.744 OA
ENDBRANCH  68  69
ENDBRANCH  40  63
BRANCH  52  73
ATOM     73  C   UNL A   1      40.398  33.827  38.500  1.00  0.00    -0.014 A 
ATOM     74  C   UNL A   1      40.977  35.107  38.474  1.00  0.00     0.010 A 
ATOM     75  C   UNL A   1      39.739  33.391  39.664  1.00  0.00     0.010 A 
ATOM     76  C   UNL A   1      40.892  35.940  39.594  1.00  0.00     0.020 A 
ATOM     77  C   UNL A   1      39.634  34.229  40.777  1.00  0.00     0.020 A 
ATOM     78  C   UNL A   1      40.212  35.500  40.735  1.00  0.00     0.054 A 
BRANCH  78  79
ATOM     79  S   UNL A   1      40.032  36.639  42.134  1.00  0.00     0.124 S 
ATOM     80  O   UNL A   1      39.753  37.907  41.463  1.00  0.00    -0.237 OA
ATOM     81  O   UNL A   1      38.915  36.061  42.876  1.00  0.00    -0.237 OA
ATOM     82  O   UNL A   1      41.326  36.566  42.810  1.00  0.00    -0.744 OA
ENDBRANCH  78  79
ENDBRANCH  52  73
ENDBRANCH  26  27
ENDBRANCH  19  21
ENDBRANCH  18  19
ENDBRANCH   1  18
TORSDOF 15
ENDMDL
