MODEL 1
REMARK VINA RESULT:     -11.5      0.000      0.000
REMARK SMILES CC1=C[C@H](C(=O)N/N=C/c2ccc(C(=O)OCCOC(=O)c3ccc(-c4c5nc(c(-c6ccc(S(=O)(=O)[O-])cc6)c6ccc([nH]6)c(-c6ccc(S(=O)(=O)[O-])cc6)c6nc(c(-c7ccc(S(=O)(=O)[O-])cc7)c7ccc4[nH]7)C=C6)C=C5)cc3)cc2)N=N1
REMARK SMILES IDX 17 1 16 2 14 3 15 4 13 5 10 6 11 7 83 8 12 9 82 10 9 11 8 12
REMARK SMILES IDX 7 13 5 14 6 15 4 17 1 18 2 19 3 20 85 21 84 22 18 23 19 24
REMARK SMILES IDX 20 25 21 26 22 27 23 28 81 29 24 30 80 31 25 32 26 33 27 34
REMARK SMILES IDX 74 35 28 36 79 37 73 38 75 39 29 40 78 41 72 42 71 43 30 45
REMARK SMILES IDX 60 46 41 47 59 48 42 49 45 50 58 51 76 52 43 53 44 54 57 56
REMARK SMILES IDX 77 57 46 58 31 59 32 60 40 61 33 62 39 63 34 64 35 65 36 66
REMARK SMILES IDX 37 67 38 68 61 69 62 70 70 71 63 72 69 73 64 74 65 75 66 76
REMARK SMILES IDX 67 77 68 78 47 79 48 80 56 81 49 82 55 83 50 84 51 85 52 86
REMARK SMILES IDX 53 87 54 88
REMARK H PARENT 7 16 75 44 45 55
REMARK Flexibility Score: inf
ROOT
ATOM      1  C   UNL A   1      42.107  19.468  26.461  1.00  0.00     0.275 C 
ENDROOT
BRANCH   1   2
ATOM      2  O   UNL A   1      40.964  20.174  25.952  1.00  0.00    -0.458 OA
BRANCH   2   3
ATOM      3  C   UNL A   1      40.422  21.068  26.825  1.00  0.00     0.338 C 
ATOM      4  O   UNL A   1      40.815  21.299  27.946  1.00  0.00    -0.246 OA
BRANCH   3   5
ATOM      5  C   UNL A   1      39.265  21.783  26.217  1.00  0.00     0.060 A 
ATOM      6  C   UNL A   1      37.061  23.230  25.297  1.00  0.00    -0.005 A 
ATOM      7  C   UNL A   1      37.993  23.841  26.140  1.00  0.00     0.010 A 
ATOM      8  C   UNL A   1      37.248  21.914  24.869  1.00  0.00     0.010 A 
ATOM      9  C   UNL A   1      39.098  23.123  26.586  1.00  0.00     0.016 A 
ATOM     10  C   UNL A   1      38.354  21.186  25.334  1.00  0.00     0.016 A 
BRANCH   6  11
ATOM     11  C   UNL A   1      35.867  24.017  24.943  1.00  0.00     0.141 C 
ATOM     12  N   UNL A   1      35.286  23.968  23.787  1.00  0.00    -0.181 NA
BRANCH  12  13
ATOM     13  N   UNL A   1      34.189  24.767  23.662  1.00  0.00    -0.245 N 
ATOM     14  C   UNL A   1      32.859  24.481  23.844  1.00  0.00     0.270 C 
ATOM     15  O   UNL A   1      32.050  25.365  23.515  1.00  0.00    -0.270 OA
ATOM     16  H   UNL A   1      34.381  25.697  23.400  1.00  0.00     0.193 HD
BRANCH  14  17
ATOM     17  C   UNL A   1      32.322  23.146  24.371  1.00  0.00     0.244 C 
ATOM     18  C   UNL A   1      33.953  19.844  24.743  1.00  0.00     0.068 C 
ATOM     19  C   UNL A   1      33.284  21.170  24.791  1.00  0.00     0.058 C 
ATOM     20  C   UNL A   1      32.907  21.926  23.758  1.00  0.00     0.037 C 
ATOM     21  N   UNL A   1      33.063  21.787  25.998  1.00  0.00    -0.160 NA
ATOM     22  N   UNL A   1      32.570  22.939  25.819  1.00  0.00    -0.171 NA
ENDBRANCH  14  17
ENDBRANCH  12  13
ENDBRANCH   6  11
ENDBRANCH   3   5
ENDBRANCH   2   3
ENDBRANCH   1   2
BRANCH   1  23
ATOM     23  C   UNL A   1      43.294  19.604  25.519  1.00  0.00     0.275 C 
BRANCH  23  24
ATOM     24  O   UNL A   1      44.106  20.736  25.832  1.00  0.00    -0.458 OA
BRANCH  24  25
ATOM     25  C   UNL A   1      43.832  21.847  25.111  1.00  0.00     0.338 C 
ATOM     26  O   UNL A   1      44.128  22.058  23.946  1.00  0.00    -0.246 OA
BRANCH  25  27
ATOM     27  C   UNL A   1      43.344  22.897  26.015  1.00  0.00     0.060 A 
ATOM     28  C   UNL A   1      42.553  23.914  25.469  1.00  0.00     0.016 A 
ATOM     29  C   UNL A   1      43.866  22.997  27.313  1.00  0.00     0.016 A 
ATOM     30  C   UNL A   1      42.376  25.081  26.190  1.00  0.00     0.010 A 
ATOM     31  C   UNL A   1      43.704  24.167  28.022  1.00  0.00     0.010 A 
ATOM     32  C   UNL A   1      43.002  25.217  27.433  1.00  0.00    -0.014 A 
BRANCH  32  33
ATOM     33  C   UNL A   1      42.792  26.441  28.184  1.00  0.00     0.031 A 
ATOM     34  C   UNL A   1      43.893  27.423  28.036  1.00  0.00     0.074 A 
ATOM     35  C   UNL A   1      41.636  26.735  28.807  1.00  0.00     0.049 A 
ATOM     36  N   UNL A   1      44.699  27.857  28.946  1.00  0.00    -0.248 NA
ATOM     37  C   UNL A   1      44.231  27.862  26.672  1.00  0.00     0.031 C 
ATOM     38  C   UNL A   1      40.376  25.987  28.755  1.00  0.00     0.029 A 
ATOM     39  N   UNL A   1      41.306  27.849  29.517  1.00  0.00    -0.354 N 
ATOM     40  C   UNL A   1      45.507  28.793  28.313  1.00  0.00     0.074 A 
ATOM     41  C   UNL A   1      45.309  28.613  26.897  1.00  0.00     0.031 C 
ATOM     42  C   UNL A   1      39.375  26.780  29.196  1.00  0.00     0.029 A 
ATOM     43  C   UNL A   1      39.937  28.035  29.672  1.00  0.00     0.049 A 
ATOM     44  H   UNL A   1      41.976  28.467  29.887  1.00  0.00     0.167 HD
ATOM     45  C   UNL A   1      46.076  29.825  28.995  1.00  0.00     0.031 A 
ATOM     46  C   UNL A   1      39.314  29.169  30.081  1.00  0.00     0.031 A 
ATOM     47  C   UNL A   1      46.063  29.601  30.417  1.00  0.00     0.049 A 
ATOM     48  C   UNL A   1      40.325  30.014  30.764  1.00  0.00     0.074 A 
ATOM     49  C   UNL A   1      46.559  28.618  31.251  1.00  0.00     0.029 A 
ATOM     50  N   UNL A   1      45.124  30.286  31.151  1.00  0.00    -0.354 N 
ATOM     51  N   UNL A   1      40.869  29.706  31.906  1.00  0.00    -0.248 NA
ATOM     52  C   UNL A   1      41.053  30.997  29.976  1.00  0.00     0.031 C 
ATOM     53  C   UNL A   1      45.575  28.466  32.269  1.00  0.00     0.029 A 
ATOM     54  C   UNL A   1      44.566  29.403  32.038  1.00  0.00     0.049 A 
ATOM     55  H   UNL A   1      44.894  31.240  31.058  1.00  0.00     0.167 HD
ATOM     56  C   UNL A   1      42.194  30.101  31.789  1.00  0.00     0.074 A 
ATOM     57  C   UNL A   1      42.220  30.987  30.627  1.00  0.00     0.031 C 
ATOM     58  C   UNL A   1      43.185  29.455  32.471  1.00  0.00     0.031 A 
BRANCH  45  59
ATOM     59  C   UNL A   1      46.243  31.205  28.401  1.00  0.00    -0.014 A 
ATOM     60  C   UNL A   1      45.092  31.971  28.132  1.00  0.00     0.010 A 
ATOM     61  C   UNL A   1      47.455  31.650  27.832  1.00  0.00     0.010 A 
ATOM     62  C   UNL A   1      45.140  33.073  27.269  1.00  0.00     0.020 A 
ATOM     63  C   UNL A   1      47.523  32.775  27.011  1.00  0.00     0.020 A 
ATOM     64  C   UNL A   1      46.356  33.456  26.702  1.00  0.00     0.054 A 
BRANCH  64  65
ATOM     65  S   UNL A   1      46.391  34.802  25.496  1.00  0.00     0.124 S 
ATOM     66  O   UNL A   1      46.120  35.964  26.338  1.00  0.00    -0.237 OA
ATOM     67  O   UNL A   1      47.746  34.704  24.963  1.00  0.00    -0.237 OA
ATOM     68  O   UNL A   1      45.330  34.446  24.557  1.00  0.00    -0.744 OA
ENDBRANCH  64  65
ENDBRANCH  45  59
BRANCH  46  69
ATOM     69  C   UNL A   1      37.991  29.694  29.660  1.00  0.00    -0.014 A 
ATOM     70  C   UNL A   1      37.056  30.146  30.611  1.00  0.00     0.010 A 
ATOM     71  C   UNL A   1      37.751  30.009  28.307  1.00  0.00     0.010 A 
ATOM     72  C   UNL A   1      35.963  30.943  30.229  1.00  0.00     0.020 A 
ATOM     73  C   UNL A   1      36.657  30.791  27.918  1.00  0.00     0.020 A 
ATOM     74  C   UNL A   1      35.783  31.279  28.885  1.00  0.00     0.054 A 
BRANCH  74  75
ATOM     75  S   UNL A   1      34.486  32.465  28.421  1.00  0.00     0.124 S 
ATOM     76  O   UNL A   1      33.514  31.613  27.742  1.00  0.00    -0.237 OA
ATOM     77  O   UNL A   1      34.066  32.999  29.713  1.00  0.00    -0.237 OA
ATOM     78  O   UNL A   1      35.184  33.417  27.559  1.00  0.00    -0.744 OA
ENDBRANCH  74  75
ENDBRANCH  46  69
BRANCH  58  79
ATOM     79  C   UNL A   1      42.800  28.542  33.612  1.00  0.00    -0.014 A 
ATOM     80  C   UNL A   1      42.363  27.212  33.448  1.00  0.00     0.010 A 
ATOM     81  C   UNL A   1      43.000  29.023  34.918  1.00  0.00     0.010 A 
ATOM     82  C   UNL A   1      42.087  26.407  34.563  1.00  0.00     0.020 A 
ATOM     83  C   UNL A   1      42.750  28.219  36.031  1.00  0.00     0.020 A 
ATOM     84  C   UNL A   1      42.277  26.919  35.849  1.00  0.00     0.054 A 
BRANCH  84  85
ATOM     85  S   UNL A   1      41.928  25.873  37.289  1.00  0.00     0.124 S 
ATOM     86  O   UNL A   1      40.524  26.164  37.559  1.00  0.00    -0.237 OA
ATOM     87  O   UNL A   1      42.208  24.529  36.789  1.00  0.00    -0.237 OA
ATOM     88  O   UNL A   1      42.865  26.353  38.304  1.00  0.00    -0.744 OA
ENDBRANCH  84  85
ENDBRANCH  58  79
ENDBRANCH  32  33
ENDBRANCH  25  27
ENDBRANCH  24  25
ENDBRANCH  23  24
ENDBRANCH   1  23
TORSDOF 17
ENDMDL
MODEL 2
REMARK VINA RESULT:     -11.2      2.425      9.495
REMARK SMILES CC1=C[C@H](C(=O)N/N=C/c2ccc(C(=O)OCCOC(=O)c3ccc(-c4c5nc(c(-c6ccc(S(=O)(=O)[O-])cc6)c6ccc([nH]6)c(-c6ccc(S(=O)(=O)[O-])cc6)c6nc(c(-c7ccc(S(=O)(=O)[O-])cc7)c7ccc4[nH]7)C=C6)C=C5)cc3)cc2)N=N1
REMARK SMILES IDX 17 1 16 2 14 3 15 4 13 5 10 6 11 7 83 8 12 9 82 10 9 11 8 12
REMARK SMILES IDX 7 13 5 14 6 15 4 17 1 18 2 19 3 20 85 21 84 22 18 23 19 24
REMARK SMILES IDX 20 25 21 26 22 27 23 28 81 29 24 30 80 31 25 32 26 33 27 34
REMARK SMILES IDX 74 35 28 36 79 37 73 38 75 39 29 40 78 41 72 42 71 43 30 45
REMARK SMILES IDX 60 46 41 47 59 48 42 49 45 50 58 51 76 52 43 53 44 54 57 56
REMARK SMILES IDX 77 57 46 58 31 59 32 60 40 61 33 62 39 63 34 64 35 65 36 66
REMARK SMILES IDX 37 67 38 68 61 69 62 70 70 71 63 72 69 73 64 74 65 75 66 76
REMARK SMILES IDX 67 77 68 78 47 79 48 80 56 81 49 82 55 83 50 84 51 85 52 86
REMARK SMILES IDX 53 87 54 88
REMARK H PARENT 7 16 75 44 45 55
REMARK Flexibility Score: inf
ROOT
ATOM      1  C   UNL A   1      31.656  29.823  25.651  1.00  0.00     0.275 C 
ENDROOT
BRANCH   1   2
ATOM      2  O   UNL A   1      32.798  29.308  24.948  1.00  0.00    -0.458 OA
BRANCH   2   3
ATOM      3  C   UNL A   1      32.497  28.634  23.804  1.00  0.00     0.338 C 
ATOM      4  O   UNL A   1      31.867  29.067  22.866  1.00  0.00    -0.246 OA
BRANCH   3   5
ATOM      5  C   UNL A   1      33.075  27.261  23.817  1.00  0.00     0.060 A 
ATOM      6  C   UNL A   1      34.345  24.779  23.978  1.00  0.00    -0.005 A 
ATOM      7  C   UNL A   1      34.284  25.604  25.103  1.00  0.00     0.010 A 
ATOM      8  C   UNL A   1      33.733  25.164  22.783  1.00  0.00     0.010 A 
ATOM      9  C   UNL A   1      33.638  26.834  25.025  1.00  0.00     0.016 A 
ATOM     10  C   UNL A   1      33.098  26.412  22.701  1.00  0.00     0.016 A 
BRANCH   6  11
ATOM     11  C   UNL A   1      35.127  23.537  24.105  1.00  0.00     0.141 C 
ATOM     12  N   UNL A   1      35.194  22.834  25.191  1.00  0.00    -0.181 NA
BRANCH  12  13
ATOM     13  N   UNL A   1      35.965  21.714  25.101  1.00  0.00    -0.245 N 
ATOM     14  C   UNL A   1      35.605  20.402  24.924  1.00  0.00     0.270 C 
ATOM     15  O   UNL A   1      36.509  19.556  25.029  1.00  0.00    -0.270 OA
ATOM     16  H   UNL A   1      36.935  21.870  25.176  1.00  0.00     0.193 HD
BRANCH  14  17
ATOM     17  C   UNL A   1      34.172  19.924  24.657  1.00  0.00     0.244 C 
ATOM     18  C   UNL A   1      32.539  16.661  25.279  1.00  0.00     0.068 C 
ATOM     19  C   UNL A   1      33.068  18.046  25.161  1.00  0.00     0.058 C 
ATOM     20  C   UNL A   1      34.021  18.482  24.336  1.00  0.00     0.037 C 
ATOM     21  N   UNL A   1      32.630  19.025  26.019  1.00  0.00    -0.160 NA
ATOM     22  N   UNL A   1      33.264  20.102  25.816  1.00  0.00    -0.171 NA
ENDBRANCH  14  17
ENDBRANCH  12  13
ENDBRANCH   6  11
ENDBRANCH   3   5
ENDBRANCH   2   3
ENDBRANCH   1   2
BRANCH   1  23
ATOM     23  C   UNL A   1      32.081  30.772  26.761  1.00  0.00     0.275 C 
BRANCH  23  24
ATOM     24  O   UNL A   1      33.347  30.417  27.320  1.00  0.00    -0.458 OA
BRANCH  24  25
ATOM     25  C   UNL A   1      34.032  31.447  27.868  1.00  0.00     0.338 C 
ATOM     26  O   UNL A   1      33.605  32.563  28.118  1.00  0.00    -0.246 OA
BRANCH  25  27
ATOM     27  C   UNL A   1      35.463  31.116  27.883  1.00  0.00     0.060 A 
ATOM     28  C   UNL A   1      35.830  29.789  27.634  1.00  0.00     0.016 A 
ATOM     29  C   UNL A   1      36.389  32.048  28.376  1.00  0.00     0.016 A 
ATOM     30  C   UNL A   1      37.102  29.371  27.982  1.00  0.00     0.010 A 
ATOM     31  C   UNL A   1      37.648  31.626  28.740  1.00  0.00     0.010 A 
ATOM     32  C   UNL A   1      37.977  30.281  28.585  1.00  0.00    -0.014 A 
BRANCH  32  33
ATOM     33  C   UNL A   1      39.314  29.832  28.929  1.00  0.00     0.031 A 
ATOM     34  C   UNL A   1      39.548  29.731  30.390  1.00  0.00     0.074 A 
ATOM     35  C   UNL A   1      40.196  29.379  28.019  1.00  0.00     0.049 A 
ATOM     36  N   UNL A   1      40.373  30.412  31.112  1.00  0.00    -0.248 NA
ATOM     37  C   UNL A   1      38.640  28.866  31.163  1.00  0.00     0.031 C 
ATOM     38  C   UNL A   1      39.965  29.135  26.593  1.00  0.00     0.029 A 
ATOM     39  N   UNL A   1      41.460  28.910  28.213  1.00  0.00    -0.354 N 
ATOM     40  C   UNL A   1      40.246  29.906  32.400  1.00  0.00     0.074 A 
ATOM     41  C   UNL A   1      39.046  29.108  32.409  1.00  0.00     0.031 C 
ATOM     42  C   UNL A   1      40.956  28.352  26.113  1.00  0.00     0.029 A 
ATOM     43  C   UNL A   1      41.945  28.145  27.160  1.00  0.00     0.049 A 
ATOM     44  H   UNL A   1      41.982  29.097  29.026  1.00  0.00     0.167 HD
ATOM     45  C   UNL A   1      41.273  29.957  33.293  1.00  0.00     0.031 A 
ATOM     46  C   UNL A   1      43.034  27.334  27.181  1.00  0.00     0.031 A 
ATOM     47  C   UNL A   1      42.287  30.897  32.891  1.00  0.00     0.049 A 
ATOM     48  C   UNL A   1      43.873  27.741  28.336  1.00  0.00     0.074 A 
ATOM     49  C   UNL A   1      42.304  32.249  32.610  1.00  0.00     0.029 A 
ATOM     50  N   UNL A   1      43.441  30.380  32.349  1.00  0.00    -0.354 N 
ATOM     51  N   UNL A   1      44.511  28.874  28.399  1.00  0.00    -0.248 NA
ATOM     52  C   UNL A   1      43.663  27.075  29.613  1.00  0.00     0.031 C 
ATOM     53  C   UNL A   1      43.217  32.390  31.526  1.00  0.00     0.029 A 
ATOM     54  C   UNL A   1      43.753  31.131  31.247  1.00  0.00     0.049 A 
ATOM     55  H   UNL A   1      43.950  29.609  32.692  1.00  0.00     0.167 HD
ATOM     56  C   UNL A   1      44.395  29.276  29.722  1.00  0.00     0.074 A 
ATOM     57  C   UNL A   1      43.962  28.080  30.442  1.00  0.00     0.031 C 
ATOM     58  C   UNL A   1      44.388  30.600  30.059  1.00  0.00     0.031 A 
BRANCH  45  59
ATOM     59  C   UNL A   1      41.550  28.852  34.285  1.00  0.00    -0.014 A 
ATOM     60  C   UNL A   1      41.801  29.194  35.628  1.00  0.00     0.010 A 
ATOM     61  C   UNL A   1      41.861  27.532  33.892  1.00  0.00     0.010 A 
ATOM     62  C   UNL A   1      42.410  28.288  36.506  1.00  0.00     0.020 A 
ATOM     63  C   UNL A   1      42.422  26.606  34.771  1.00  0.00     0.020 A 
ATOM     64  C   UNL A   1      42.731  27.004  36.063  1.00  0.00     0.054 A 
BRANCH  64  65
ATOM     65  S   UNL A   1      43.626  25.881  37.161  1.00  0.00     0.124 S 
ATOM     66  O   UNL A   1      43.292  26.421  38.475  1.00  0.00    -0.237 OA
ATOM     67  O   UNL A   1      43.031  24.589  36.833  1.00  0.00    -0.237 OA
ATOM     68  O   UNL A   1      45.019  26.043  36.751  1.00  0.00    -0.744 OA
ENDBRANCH  64  65
ENDBRANCH  45  59
BRANCH  46  69
ATOM     69  C   UNL A   1      43.243  26.055  26.457  1.00  0.00    -0.014 A 
ATOM     70  C   UNL A   1      44.283  25.916  25.519  1.00  0.00     0.010 A 
ATOM     71  C   UNL A   1      42.592  24.881  26.889  1.00  0.00     0.010 A 
ATOM     72  C   UNL A   1      44.702  24.646  25.086  1.00  0.00     0.020 A 
ATOM     73  C   UNL A   1      42.994  23.614  26.452  1.00  0.00     0.020 A 
ATOM     74  C   UNL A   1      44.067  23.500  25.573  1.00  0.00     0.054 A 
BRANCH  74  75
ATOM     75  S   UNL A   1      44.734  21.860  25.163  1.00  0.00     0.124 S 
ATOM     76  O   UNL A   1      43.785  20.965  25.817  1.00  0.00    -0.237 OA
ATOM     77  O   UNL A   1      44.702  21.860  23.703  1.00  0.00    -0.237 OA
ATOM     78  O   UNL A   1      46.074  21.879  25.749  1.00  0.00    -0.744 OA
ENDBRANCH  74  75
ENDBRANCH  46  69
BRANCH  58  79
ATOM     79  C   UNL A   1      44.855  31.607  29.034  1.00  0.00    -0.014 A 
ATOM     80  C   UNL A   1      46.206  31.939  28.809  1.00  0.00     0.010 A 
ATOM     81  C   UNL A   1      43.882  32.158  28.181  1.00  0.00     0.010 A 
ATOM     82  C   UNL A   1      46.563  32.836  27.792  1.00  0.00     0.020 A 
ATOM     83  C   UNL A   1      44.233  33.033  27.153  1.00  0.00     0.020 A 
ATOM     84  C   UNL A   1      45.571  33.382  26.973  1.00  0.00     0.054 A 
BRANCH  84  85
ATOM     85  S   UNL A   1      46.037  34.536  25.653  1.00  0.00     0.124 S 
ATOM     86  O   UNL A   1      47.460  34.261  25.480  1.00  0.00    -0.237 OA
ATOM     87  O   UNL A   1      45.177  34.126  24.545  1.00  0.00    -0.237 OA
ATOM     88  O   UNL A   1      45.725  35.850  26.213  1.00  0.00    -0.744 OA
ENDBRANCH  84  85
ENDBRANCH  58  79
ENDBRANCH  32  33
ENDBRANCH  25  27
ENDBRANCH  24  25
ENDBRANCH  23  24
ENDBRANCH   1  23
TORSDOF 17
ENDMDL
MODEL 3
REMARK VINA RESULT:     -11.1      3.290      6.110
REMARK SMILES CC1=C[C@H](C(=O)N/N=C/c2ccc(C(=O)OCCOC(=O)c3ccc(-c4c5nc(c(-c6ccc(S(=O)(=O)[O-])cc6)c6ccc([nH]6)c(-c6ccc(S(=O)(=O)[O-])cc6)c6nc(c(-c7ccc(S(=O)(=O)[O-])cc7)c7ccc4[nH]7)C=C6)C=C5)cc3)cc2)N=N1
REMARK SMILES IDX 17 1 16 2 14 3 15 4 13 5 10 6 11 7 83 8 12 9 82 10 9 11 8 12
REMARK SMILES IDX 7 13 5 14 6 15 4 17 1 18 2 19 3 20 85 21 84 22 18 23 19 24
REMARK SMILES IDX 20 25 21 26 22 27 23 28 81 29 24 30 80 31 25 32 26 33 27 34
REMARK SMILES IDX 74 35 28 36 79 37 73 38 75 39 29 40 78 41 72 42 71 43 30 45
REMARK SMILES IDX 60 46 41 47 59 48 42 49 45 50 58 51 76 52 43 53 44 54 57 56
REMARK SMILES IDX 77 57 46 58 31 59 32 60 40 61 33 62 39 63 34 64 35 65 36 66
REMARK SMILES IDX 37 67 38 68 61 69 62 70 70 71 63 72 69 73 64 74 65 75 66 76
REMARK SMILES IDX 67 77 68 78 47 79 48 80 56 81 49 82 55 83 50 84 51 85 52 86
REMARK SMILES IDX 53 87 54 88
REMARK H PARENT 7 16 75 44 45 55
REMARK Flexibility Score: inf
ROOT
ATOM      1  C   UNL A   1      41.750  18.922  26.104  1.00  0.00     0.275 C 
ENDROOT
BRANCH   1   2
ATOM      2  O   UNL A   1      42.582  19.257  24.982  1.00  0.00    -0.458 OA
BRANCH   2   3
ATOM      3  C   UNL A   1      43.916  19.089  25.201  1.00  0.00     0.338 C 
ATOM      4  O   UNL A   1      44.470  18.044  25.454  1.00  0.00    -0.246 OA
BRANCH   3   5
ATOM      5  C   UNL A   1      44.653  20.375  25.060  1.00  0.00     0.060 A 
ATOM      6  C   UNL A   1      45.827  22.884  24.703  1.00  0.00    -0.005 A 
ATOM      7  C   UNL A   1      44.521  22.789  25.190  1.00  0.00     0.010 A 
ATOM      8  C   UNL A   1      46.570  21.731  24.438  1.00  0.00     0.010 A 
ATOM      9  C   UNL A   1      43.943  21.538  25.381  1.00  0.00     0.016 A 
ATOM     10  C   UNL A   1      45.979  20.471  24.614  1.00  0.00     0.016 A 
BRANCH   6  11
ATOM     11  C   UNL A   1      46.340  24.238  24.433  1.00  0.00     0.141 C 
ATOM     12  N   UNL A   1      47.545  24.487  24.029  1.00  0.00    -0.181 NA
BRANCH  12  13
ATOM     13  N   UNL A   1      47.822  25.806  23.828  1.00  0.00    -0.245 N 
ATOM     14  C   UNL A   1      48.086  26.804  24.733  1.00  0.00     0.270 C 
ATOM     15  O   UNL A   1      48.157  27.959  24.282  1.00  0.00    -0.270 OA
ATOM     16  H   UNL A   1      47.834  26.088  22.884  1.00  0.00     0.193 HD
BRANCH  14  17
ATOM     17  C   UNL A   1      48.246  26.587  26.242  1.00  0.00     0.244 C 
ATOM     18  C   UNL A   1      46.242  24.607  28.643  1.00  0.00     0.068 C 
ATOM     19  C   UNL A   1      47.194  25.277  27.718  1.00  0.00     0.058 C 
ATOM     20  C   UNL A   1      46.988  26.384  27.003  1.00  0.00     0.037 C 
ATOM     21  N   UNL A   1      48.419  24.709  27.461  1.00  0.00    -0.160 NA
ATOM     22  N   UNL A   1      49.038  25.381  26.585  1.00  0.00    -0.171 NA
ENDBRANCH  14  17
ENDBRANCH  12  13
ENDBRANCH   6  11
ENDBRANCH   3   5
ENDBRANCH   2   3
ENDBRANCH   1   2
BRANCH   1  23
ATOM     23  C   UNL A   1      40.439  19.693  26.060  1.00  0.00     0.275 C 
BRANCH  23  24
ATOM     24  O   UNL A   1      40.559  20.995  26.635  1.00  0.00    -0.458 OA
BRANCH  24  25
ATOM     25  C   UNL A   1      39.618  21.880  26.234  1.00  0.00     0.338 C 
ATOM     26  O   UNL A   1      38.663  21.657  25.506  1.00  0.00    -0.246 OA
BRANCH  25  27
ATOM     27  C   UNL A   1      40.053  23.237  26.589  1.00  0.00     0.060 A 
ATOM     28  C   UNL A   1      41.336  23.393  27.125  1.00  0.00     0.016 A 
ATOM     29  C   UNL A   1      39.119  24.283  26.617  1.00  0.00     0.016 A 
ATOM     30  C   UNL A   1      41.644  24.568  27.788  1.00  0.00     0.010 A 
ATOM     31  C   UNL A   1      39.421  25.445  27.293  1.00  0.00     0.010 A 
ATOM     32  C   UNL A   1      40.663  25.557  27.914  1.00  0.00    -0.014 A 
BRANCH  32  33
ATOM     33  C   UNL A   1      41.008  26.790  28.597  1.00  0.00     0.031 A 
ATOM     34  C   UNL A   1      42.203  27.465  28.034  1.00  0.00     0.074 A 
ATOM     35  C   UNL A   1      40.224  27.361  29.530  1.00  0.00     0.049 A 
ATOM     36  N   UNL A   1      43.340  27.677  28.606  1.00  0.00    -0.248 NA
ATOM     37  C   UNL A   1      42.173  27.813  26.603  1.00  0.00     0.031 C 
ATOM     38  C   UNL A   1      38.876  26.954  29.936  1.00  0.00     0.029 A 
ATOM     39  N   UNL A   1      40.419  28.518  30.220  1.00  0.00    -0.354 N 
ATOM     40  C   UNL A   1      44.097  28.384  27.680  1.00  0.00     0.074 A 
ATOM     41  C   UNL A   1      43.412  28.268  26.418  1.00  0.00     0.031 C 
ATOM     42  C   UNL A   1      38.293  27.970  30.609  1.00  0.00     0.029 A 
ATOM     43  C   UNL A   1      39.263  29.040  30.786  1.00  0.00     0.049 A 
ATOM     44  H   UNL A   1      41.301  28.946  30.310  1.00  0.00     0.167 HD
ATOM     45  C   UNL A   1      45.086  29.237  28.067  1.00  0.00     0.031 A 
ATOM     46  C   UNL A   1      39.097  30.293  31.282  1.00  0.00     0.031 A 
ATOM     47  C   UNL A   1      45.484  29.014  29.432  1.00  0.00     0.049 A 
ATOM     48  C   UNL A   1      40.446  30.853  31.544  1.00  0.00     0.074 A 
ATOM     49  C   UNL A   1      45.973  27.933  30.139  1.00  0.00     0.029 A 
ATOM     50  N   UNL A   1      45.028  29.909  30.372  1.00  0.00    -0.354 N 
ATOM     51  N   UNL A   1      41.241  30.411  32.476  1.00  0.00    -0.248 NA
ATOM     52  C   UNL A   1      41.091  31.626  30.493  1.00  0.00     0.031 C 
ATOM     53  C   UNL A   1      45.367  28.027  31.424  1.00  0.00     0.029 A 
ATOM     54  C   UNL A   1      44.594  29.189  31.454  1.00  0.00     0.049 A 
ATOM     55  H   UNL A   1      45.015  30.890  30.283  1.00  0.00     0.167 HD
ATOM     56  C   UNL A   1      42.510  30.462  31.916  1.00  0.00     0.074 A 
ATOM     57  C   UNL A   1      42.368  31.320  30.741  1.00  0.00     0.031 C 
ATOM     58  C   UNL A   1      43.484  29.583  32.296  1.00  0.00     0.031 A 
BRANCH  45  59
ATOM     59  C   UNL A   1      45.376  30.533  27.347  1.00  0.00    -0.014 A 
ATOM     60  C   UNL A   1      46.688  30.782  26.900  1.00  0.00     0.010 A 
ATOM     61  C   UNL A   1      44.486  31.629  27.358  1.00  0.00     0.010 A 
ATOM     62  C   UNL A   1      47.107  32.076  26.563  1.00  0.00     0.020 A 
ATOM     63  C   UNL A   1      44.878  32.912  26.978  1.00  0.00     0.020 A 
ATOM     64  C   UNL A   1      46.199  33.135  26.622  1.00  0.00     0.054 A 
BRANCH  64  65
ATOM     65  S   UNL A   1      46.775  34.819  26.305  1.00  0.00     0.124 S 
ATOM     66  O   UNL A   1      47.862  34.589  25.359  1.00  0.00    -0.237 OA
ATOM     67  O   UNL A   1      45.580  35.455  25.758  1.00  0.00    -0.237 OA
ATOM     68  O   UNL A   1      47.180  35.294  27.626  1.00  0.00    -0.744 OA
ENDBRANCH  64  65
ENDBRANCH  45  59
BRANCH  46  69
ATOM     69  C   UNL A   1      37.875  31.136  31.263  1.00  0.00    -0.014 A 
ATOM     70  C   UNL A   1      36.678  30.689  31.855  1.00  0.00     0.010 A 
ATOM     71  C   UNL A   1      37.958  32.497  30.906  1.00  0.00     0.010 A 
ATOM     72  C   UNL A   1      35.634  31.585  32.143  1.00  0.00     0.020 A 
ATOM     73  C   UNL A   1      36.918  33.393  31.177  1.00  0.00     0.020 A 
ATOM     74  C   UNL A   1      35.771  32.938  31.821  1.00  0.00     0.054 A 
BRANCH  74  75
ATOM     75  S   UNL A   1      34.506  34.123  32.368  1.00  0.00     0.124 S 
ATOM     76  O   UNL A   1      33.657  34.240  31.185  1.00  0.00    -0.237 OA
ATOM     77  O   UNL A   1      33.906  33.443  33.512  1.00  0.00    -0.237 OA
ATOM     78  O   UNL A   1      35.277  35.320  32.698  1.00  0.00    -0.744 OA
ENDBRANCH  74  75
ENDBRANCH  46  69
BRANCH  58  79
ATOM     79  C   UNL A   1      43.284  28.789  33.566  1.00  0.00    -0.014 A 
ATOM     80  C   UNL A   1      43.684  29.227  34.844  1.00  0.00     0.010 A 
ATOM     81  C   UNL A   1      42.553  27.592  33.469  1.00  0.00     0.010 A 
ATOM     82  C   UNL A   1      43.402  28.461  35.984  1.00  0.00     0.020 A 
ATOM     83  C   UNL A   1      42.249  26.837  34.603  1.00  0.00     0.020 A 
ATOM     84  C   UNL A   1      42.690  27.265  35.855  1.00  0.00     0.054 A 
BRANCH  84  85
ATOM     85  S   UNL A   1      42.320  26.280  37.332  1.00  0.00     0.124 S 
ATOM     86  O   UNL A   1      40.933  26.638  37.612  1.00  0.00    -0.237 OA
ATOM     87  O   UNL A   1      42.538  24.911  36.872  1.00  0.00    -0.237 OA
ATOM     88  O   UNL A   1      43.291  26.754  38.318  1.00  0.00    -0.744 OA
ENDBRANCH  84  85
ENDBRANCH  58  79
ENDBRANCH  32  33
ENDBRANCH  25  27
ENDBRANCH  24  25
ENDBRANCH  23  24
ENDBRANCH   1  23
TORSDOF 17
ENDMDL
