MODEL 1
REMARK VINA RESULT:      -9.6      0.000      0.000
REMARK SMILES CC[C@H](C)CN(CC)c1nc(C(=O)OCCOC(=O)c2ccc(-c3c4nc(c(-c5ccc(S(=O)(=O)[O-])cc5)c5ccc([nH]5)c(-c5ccc(S(=O)(=O)[O-])cc5)c5nc(c(-c6ccc(S(=O)(=O)[O-])cc6)c6ccc3[nH]6)C=C5)C=C4)cc2)cc2ccccc12
REMARK SMILES IDX 15 1 14 2 12 3 13 4 11 5 9 6 10 7 86 8 81 9 85 10 80 11
REMARK SMILES IDX 82 12 84 13 83 14 6 15 5 16 3 17 4 18 2 19 1 20 7 21 8 22
REMARK SMILES IDX 16 23 17 24 18 25 19 26 20 27 21 28 79 29 22 30 78 31 23 32
REMARK SMILES IDX 24 33 25 34 72 35 26 36 77 37 71 38 73 39 27 40 76 41 70 42
REMARK SMILES IDX 69 43 28 45 58 46 39 47 57 48 40 49 43 50 56 51 74 52 41 53
REMARK SMILES IDX 42 54 55 56 75 57 44 58 29 59 30 60 38 61 31 62 37 63 32 64
REMARK SMILES IDX 33 65 34 66 35 67 36 68 59 69 60 70 68 71 61 72 67 73 62 74
REMARK SMILES IDX 63 75 64 76 65 77 66 78 45 79 46 80 54 81 47 82 53 83 48 84
REMARK SMILES IDX 49 85 50 86 51 87 52 88
REMARK H PARENT 73 44 43 55
REMARK Flexibility Score: inf
ROOT
ATOM      1  C   UNL A   1      32.805  30.761  26.303  1.00  0.00     0.275 C 
ENDROOT
BRANCH   1   2
ATOM      2  O   UNL A   1      32.619  29.449  26.871  1.00  0.00    -0.457 OA
BRANCH   2   3
ATOM      3  C   UNL A   1      33.627  28.586  26.599  1.00  0.00     0.357 C 
ATOM      4  O   UNL A   1      34.814  28.775  26.834  1.00  0.00    -0.244 OA
BRANCH   3   5
ATOM      5  C   UNL A   1      33.159  27.310  26.007  1.00  0.00     0.151 A 
ATOM      6  C   UNL A   1      33.629  25.069  25.756  1.00  0.00     0.137 A 
ATOM      7  N   UNL A   1      34.077  26.342  25.816  1.00  0.00    -0.223 NA
ATOM      8  C   UNL A   1      32.287  24.741  26.106  1.00  0.00     0.024 A 
ATOM      9  C   UNL A   1      31.344  25.780  26.097  1.00  0.00    -0.012 A 
ATOM     10  C   UNL A   1      31.813  23.457  26.467  1.00  0.00     0.012 A 
ATOM     11  C   UNL A   1      31.796  27.084  25.994  1.00  0.00     0.045 A 
ATOM     12  C   UNL A   1      29.971  25.512  26.241  1.00  0.00     0.009 A 
ATOM     13  C   UNL A   1      30.452  23.193  26.641  1.00  0.00     0.001 A 
ATOM     14  C   UNL A   1      29.526  24.218  26.492  1.00  0.00     0.001 A 
BRANCH   6  15
ATOM     15  N   UNL A   1      34.506  24.093  25.243  1.00  0.00    -0.356 N 
BRANCH  15  16
ATOM     16  C   UNL A   1      34.829  24.226  23.792  1.00  0.00     0.121 C 
BRANCH  16  17
ATOM     17  C   UNL A   1      33.842  23.501  22.848  1.00  0.00     0.005 C 
ATOM     18  C   UNL A   1      33.340  22.190  23.477  1.00  0.00     0.009 C 
BRANCH  17  19
ATOM     19  C   UNL A   1      32.645  24.365  22.408  1.00  0.00     0.002 C 
ATOM     20  C   UNL A   1      33.066  25.823  22.218  1.00  0.00     0.004 C 
ENDBRANCH  17  19
ENDBRANCH  16  17
ENDBRANCH  15  16
BRANCH  15  21
ATOM     21  C   UNL A   1      35.635  23.747  26.123  1.00  0.00     0.114 C 
ATOM     22  C   UNL A   1      36.985  23.607  25.419  1.00  0.00     0.027 C 
ENDBRANCH  15  21
ENDBRANCH   6  15
ENDBRANCH   3   5
ENDBRANCH   2   3
ENDBRANCH   1   2
BRANCH   1  23
ATOM     23  C   UNL A   1      32.559  31.869  27.329  1.00  0.00     0.275 C 
BRANCH  23  24
ATOM     24  O   UNL A   1      33.624  32.841  27.328  1.00  0.00    -0.458 OA
BRANCH  24  25
ATOM     25  C   UNL A   1      33.536  33.785  28.292  1.00  0.00     0.338 C 
ATOM     26  O   UNL A   1      32.686  34.653  28.397  1.00  0.00    -0.246 OA
BRANCH  25  27
ATOM     27  C   UNL A   1      34.604  33.627  29.296  1.00  0.00     0.060 A 
ATOM     28  C   UNL A   1      35.852  34.186  29.052  1.00  0.00     0.016 A 
ATOM     29  C   UNL A   1      34.444  32.720  30.342  1.00  0.00     0.016 A 
ATOM     30  C   UNL A   1      36.973  33.698  29.720  1.00  0.00     0.010 A 
ATOM     31  C   UNL A   1      35.550  32.364  31.127  1.00  0.00     0.010 A 
ATOM     32  C   UNL A   1      36.844  32.801  30.790  1.00  0.00    -0.014 A 
BRANCH  32  33
ATOM     33  C   UNL A   1      38.050  32.326  31.536  1.00  0.00     0.031 A 
ATOM     34  C   UNL A   1      38.943  31.247  30.961  1.00  0.00     0.074 A 
ATOM     35  C   UNL A   1      38.367  32.863  32.733  1.00  0.00     0.049 A 
ATOM     36  N   UNL A   1      39.902  30.571  31.545  1.00  0.00    -0.248 NA
ATOM     37  C   UNL A   1      38.720  30.867  29.556  1.00  0.00     0.031 C 
ATOM     38  C   UNL A   1      37.635  33.942  33.405  1.00  0.00     0.029 A 
ATOM     39  N   UNL A   1      39.397  32.586  33.600  1.00  0.00    -0.354 N 
ATOM     40  C   UNL A   1      40.341  29.639  30.609  1.00  0.00     0.074 A 
ATOM     41  C   UNL A   1      39.551  29.842  29.413  1.00  0.00     0.031 C 
ATOM     42  C   UNL A   1      38.273  34.279  34.533  1.00  0.00     0.029 A 
ATOM     43  C   UNL A   1      39.384  33.360  34.737  1.00  0.00     0.049 A 
ATOM     44  H   UNL A   1      40.080  31.899  33.424  1.00  0.00     0.167 HD
ATOM     45  C   UNL A   1      41.307  28.696  30.737  1.00  0.00     0.031 A 
ATOM     46  C   UNL A   1      40.134  33.312  35.855  1.00  0.00     0.031 A 
ATOM     47  C   UNL A   1      42.128  28.532  31.909  1.00  0.00     0.049 A 
ATOM     48  C   UNL A   1      41.177  32.244  35.987  1.00  0.00     0.074 A 
ATOM     49  C   UNL A   1      43.140  27.612  32.130  1.00  0.00     0.029 A 
ATOM     50  N   UNL A   1      42.049  29.317  33.049  1.00  0.00    -0.354 N 
ATOM     51  N   UNL A   1      41.522  31.322  35.121  1.00  0.00    -0.248 NA
ATOM     52  C   UNL A   1      41.914  32.193  37.256  1.00  0.00     0.031 C 
ATOM     53  C   UNL A   1      43.645  27.816  33.421  1.00  0.00     0.029 A 
ATOM     54  C   UNL A   1      42.983  28.895  33.982  1.00  0.00     0.049 A 
ATOM     55  H   UNL A   1      41.421  30.065  33.177  1.00  0.00     0.167 HD
ATOM     56  C   UNL A   1      42.519  30.580  35.741  1.00  0.00     0.074 A 
ATOM     57  C   UNL A   1      42.740  31.177  37.043  1.00  0.00     0.031 C 
ATOM     58  C   UNL A   1      43.186  29.495  35.275  1.00  0.00     0.031 A 
BRANCH  45  59
ATOM     59  C   UNL A   1      41.501  27.726  29.597  1.00  0.00    -0.014 A 
ATOM     60  C   UNL A   1      42.621  27.791  28.750  1.00  0.00     0.010 A 
ATOM     61  C   UNL A   1      40.559  26.698  29.403  1.00  0.00     0.010 A 
ATOM     62  C   UNL A   1      42.775  26.870  27.709  1.00  0.00     0.020 A 
ATOM     63  C   UNL A   1      40.722  25.760  28.379  1.00  0.00     0.020 A 
ATOM     64  C   UNL A   1      41.821  25.864  27.526  1.00  0.00     0.054 A 
BRANCH  64  65
ATOM     65  S   UNL A   1      42.052  24.670  26.178  1.00  0.00     0.124 S 
ATOM     66  O   UNL A   1      40.858  23.838  26.307  1.00  0.00    -0.237 OA
ATOM     67  O   UNL A   1      42.094  25.525  24.994  1.00  0.00    -0.237 OA
ATOM     68  O   UNL A   1      43.311  24.009  26.510  1.00  0.00    -0.744 OA
ENDBRANCH  64  65
ENDBRANCH  45  59
BRANCH  46  69
ATOM     69  C   UNL A   1      39.866  34.268  36.964  1.00  0.00    -0.014 A 
ATOM     70  C   UNL A   1      39.110  33.876  38.081  1.00  0.00     0.010 A 
ATOM     71  C   UNL A   1      40.404  35.568  36.924  1.00  0.00     0.010 A 
ATOM     72  C   UNL A   1      38.899  34.767  39.139  1.00  0.00     0.020 A 
ATOM     73  C   UNL A   1      40.222  36.449  37.991  1.00  0.00     0.020 A 
ATOM     74  C   UNL A   1      39.461  36.046  39.090  1.00  0.00     0.054 A 
BRANCH  74  75
ATOM     75  S   UNL A   1      39.241  37.161  40.504  1.00  0.00     0.124 S 
ATOM     76  O   UNL A   1      38.260  36.439  41.308  1.00  0.00    -0.237 OA
ATOM     77  O   UNL A   1      40.589  37.234  41.064  1.00  0.00    -0.237 OA
ATOM     78  O   UNL A   1      38.763  38.398  39.891  1.00  0.00    -0.744 OA
ENDBRANCH  74  75
ENDBRANCH  46  69
BRANCH  58  79
ATOM     79  C   UNL A   1      44.236  28.904  36.173  1.00  0.00    -0.014 A 
ATOM     80  C   UNL A   1      43.934  27.836  37.037  1.00  0.00     0.010 A 
ATOM     81  C   UNL A   1      45.550  29.404  36.127  1.00  0.00     0.010 A 
ATOM     82  C   UNL A   1      44.923  27.300  37.866  1.00  0.00     0.020 A 
ATOM     83  C   UNL A   1      46.545  28.854  36.938  1.00  0.00     0.020 A 
ATOM     84  C   UNL A   1      46.222  27.816  37.813  1.00  0.00     0.054 A 
BRANCH  84  85
ATOM     85  S   UNL A   1      47.498  27.083  38.875  1.00  0.00     0.124 S 
ATOM     86  O   UNL A   1      47.941  25.945  38.076  1.00  0.00    -0.237 OA
ATOM     87  O   UNL A   1      48.465  28.169  39.012  1.00  0.00    -0.237 OA
ATOM     88  O   UNL A   1      46.774  26.743  40.098  1.00  0.00    -0.744 OA
ENDBRANCH  84  85
ENDBRANCH  58  79
ENDBRANCH  32  33
ENDBRANCH  25  27
ENDBRANCH  24  25
ENDBRANCH  23  24
ENDBRANCH   1  23
TORSDOF 19
ENDMDL
MODEL 2
REMARK VINA RESULT:      -9.3      6.291     10.864
REMARK SMILES CC[C@H](C)CN(CC)c1nc(C(=O)OCCOC(=O)c2ccc(-c3c4nc(c(-c5ccc(S(=O)(=O)[O-])cc5)c5ccc([nH]5)c(-c5ccc(S(=O)(=O)[O-])cc5)c5nc(c(-c6ccc(S(=O)(=O)[O-])cc6)c6ccc3[nH]6)C=C5)C=C4)cc2)cc2ccccc12
REMARK SMILES IDX 15 1 14 2 12 3 13 4 11 5 9 6 10 7 86 8 81 9 85 10 80 11
REMARK SMILES IDX 82 12 84 13 83 14 6 15 5 16 3 17 4 18 2 19 1 20 7 21 8 22
REMARK SMILES IDX 16 23 17 24 18 25 19 26 20 27 21 28 79 29 22 30 78 31 23 32
REMARK SMILES IDX 24 33 25 34 72 35 26 36 77 37 71 38 73 39 27 40 76 41 70 42
REMARK SMILES IDX 69 43 28 45 58 46 39 47 57 48 40 49 43 50 56 51 74 52 41 53
REMARK SMILES IDX 42 54 55 56 75 57 44 58 29 59 30 60 38 61 31 62 37 63 32 64
REMARK SMILES IDX 33 65 34 66 35 67 36 68 59 69 60 70 68 71 61 72 67 73 62 74
REMARK SMILES IDX 63 75 64 76 65 77 66 78 45 79 46 80 54 81 47 82 53 83 48 84
REMARK SMILES IDX 49 85 50 86 51 87 52 88
REMARK H PARENT 73 44 43 55
REMARK Flexibility Score: inf
ROOT
ATOM      1  C   UNL A   1      34.182  29.587  27.446  1.00  0.00     0.275 C 
ENDROOT
BRANCH   1   2
ATOM      2  O   UNL A   1      34.182  28.226  26.969  1.00  0.00    -0.457 OA
BRANCH   2   3
ATOM      3  C   UNL A   1      33.128  27.924  26.174  1.00  0.00     0.357 C 
ATOM      4  O   UNL A   1      32.207  28.679  25.888  1.00  0.00    -0.244 OA
BRANCH   3   5
ATOM      5  C   UNL A   1      33.199  26.556  25.607  1.00  0.00     0.151 A 
ATOM      6  C   UNL A   1      32.965  25.301  23.689  1.00  0.00     0.137 A 
ATOM      7  N   UNL A   1      32.536  26.328  24.455  1.00  0.00    -0.223 NA
ATOM      8  C   UNL A   1      34.195  24.636  23.967  1.00  0.00     0.024 A 
ATOM      9  C   UNL A   1      34.726  24.770  25.259  1.00  0.00    -0.012 A 
ATOM     10  C   UNL A   1      34.937  23.849  23.055  1.00  0.00     0.012 A 
ATOM     11  C   UNL A   1      34.177  25.717  26.105  1.00  0.00     0.045 A 
ATOM     12  C   UNL A   1      35.825  23.998  25.673  1.00  0.00     0.009 A 
ATOM     13  C   UNL A   1      36.049  23.103  23.456  1.00  0.00     0.001 A 
ATOM     14  C   UNL A   1      36.471  23.151  24.778  1.00  0.00     0.001 A 
BRANCH   6  15
ATOM     15  N   UNL A   1      32.108  24.848  22.668  1.00  0.00    -0.356 N 
BRANCH  15  16
ATOM     16  C   UNL A   1      30.891  24.120  23.133  1.00  0.00     0.121 C 
BRANCH  16  17
ATOM     17  C   UNL A   1      31.138  22.644  23.521  1.00  0.00     0.005 C 
ATOM     18  C   UNL A   1      32.122  21.975  22.547  1.00  0.00     0.009 C 
BRANCH  17  19
ATOM     19  C   UNL A   1      31.619  22.448  24.971  1.00  0.00     0.002 C 
ATOM     20  C   UNL A   1      30.810  23.318  25.935  1.00  0.00     0.004 C 
ENDBRANCH  17  19
ENDBRANCH  16  17
ENDBRANCH  15  16
BRANCH  15  21
ATOM     21  C   UNL A   1      31.905  25.797  21.560  1.00  0.00     0.114 C 
ATOM     22  C   UNL A   1      32.590  25.416  20.248  1.00  0.00     0.027 C 
ENDBRANCH  15  21
ENDBRANCH   6  15
ENDBRANCH   3   5
ENDBRANCH   2   3
ENDBRANCH   1   2
BRANCH   1  23
ATOM     23  C   UNL A   1      35.595  30.170  27.515  1.00  0.00     0.275 C 
BRANCH  23  24
ATOM     24  O   UNL A   1      35.735  31.095  28.612  1.00  0.00    -0.458 OA
BRANCH  24  25
ATOM     25  C   UNL A   1      36.358  30.596  29.704  1.00  0.00     0.338 C 
ATOM     26  O   UNL A   1      35.986  30.674  30.863  1.00  0.00    -0.246 OA
BRANCH  25  27
ATOM     27  C   UNL A   1      37.579  29.859  29.334  1.00  0.00     0.060 A 
ATOM     28  C   UNL A   1      38.328  29.244  30.330  1.00  0.00     0.016 A 
ATOM     29  C   UNL A   1      38.111  29.994  28.052  1.00  0.00     0.016 A 
ATOM     30  C   UNL A   1      39.669  28.943  30.103  1.00  0.00     0.010 A 
ATOM     31  C   UNL A   1      39.406  29.527  27.785  1.00  0.00     0.010 A 
ATOM     32  C   UNL A   1      40.228  29.048  28.821  1.00  0.00    -0.014 A 
BRANCH  32  33
ATOM     33  C   UNL A   1      41.654  28.670  28.578  1.00  0.00     0.031 A 
ATOM     34  C   UNL A   1      42.760  29.697  28.693  1.00  0.00     0.074 A 
ATOM     35  C   UNL A   1      41.977  27.398  28.261  1.00  0.00     0.049 A 
ATOM     36  N   UNL A   1      44.014  29.604  28.323  1.00  0.00    -0.248 NA
ATOM     37  C   UNL A   1      42.411  31.000  29.283  1.00  0.00     0.031 C 
ATOM     38  C   UNL A   1      41.035  26.279  28.154  1.00  0.00     0.029 A 
ATOM     39  N   UNL A   1      43.193  26.821  27.981  1.00  0.00    -0.354 N 
ATOM     40  C   UNL A   1      44.580  30.854  28.563  1.00  0.00     0.074 A 
ATOM     41  C   UNL A   1      43.535  31.686  29.121  1.00  0.00     0.031 C 
ATOM     42  C   UNL A   1      41.709  25.150  27.903  1.00  0.00     0.029 A 
ATOM     43  C   UNL A   1      43.113  25.476  27.702  1.00  0.00     0.049 A 
ATOM     44  H   UNL A   1      44.041  27.323  27.980  1.00  0.00     0.167 HD
ATOM     45  C   UNL A   1      45.849  31.271  28.332  1.00  0.00     0.031 A 
ATOM     46  C   UNL A   1      44.043  24.601  27.272  1.00  0.00     0.031 A 
ATOM     47  C   UNL A   1      46.900  30.425  27.828  1.00  0.00     0.049 A 
ATOM     48  C   UNL A   1      45.432  25.089  26.997  1.00  0.00     0.074 A 
ATOM     49  C   UNL A   1      48.221  30.753  27.571  1.00  0.00     0.029 A 
ATOM     50  N   UNL A   1      46.759  29.079  27.525  1.00  0.00    -0.354 N 
ATOM     51  N   UNL A   1      45.925  26.294  27.156  1.00  0.00    -0.248 NA
ATOM     52  C   UNL A   1      46.384  24.108  26.461  1.00  0.00     0.031 C 
ATOM     53  C   UNL A   1      48.867  29.614  27.074  1.00  0.00     0.029 A 
ATOM     54  C   UNL A   1      47.962  28.566  27.070  1.00  0.00     0.049 A 
ATOM     55  H   UNL A   1      45.925  28.564  27.618  1.00  0.00     0.167 HD
ATOM     56  C   UNL A   1      47.248  26.215  26.739  1.00  0.00     0.074 A 
ATOM     57  C   UNL A   1      47.485  24.840  26.348  1.00  0.00     0.031 C 
ATOM     58  C   UNL A   1      48.180  27.198  26.679  1.00  0.00     0.031 A 
BRANCH  45  59
ATOM     59  C   UNL A   1      46.167  32.726  28.574  1.00  0.00    -0.014 A 
ATOM     60  C   UNL A   1      46.674  33.180  29.805  1.00  0.00     0.010 A 
ATOM     61  C   UNL A   1      45.998  33.649  27.525  1.00  0.00     0.010 A 
ATOM     62  C   UNL A   1      46.968  34.535  29.992  1.00  0.00     0.020 A 
ATOM     63  C   UNL A   1      46.315  35.000  27.700  1.00  0.00     0.020 A 
ATOM     64  C   UNL A   1      46.781  35.437  28.940  1.00  0.00     0.054 A 
BRANCH  64  65
ATOM     65  S   UNL A   1      47.186  37.187  29.203  1.00  0.00     0.124 S 
ATOM     66  O   UNL A   1      48.139  37.112  30.308  1.00  0.00    -0.237 OA
ATOM     67  O   UNL A   1      47.750  37.584  27.915  1.00  0.00    -0.237 OA
ATOM     68  O   UNL A   1      45.900  37.796  29.530  1.00  0.00    -0.744 OA
ENDBRANCH  64  65
ENDBRANCH  45  59
BRANCH  46  69
ATOM     69  C   UNL A   1      43.657  23.187  27.010  1.00  0.00    -0.014 A 
ATOM     70  C   UNL A   1      43.252  22.347  28.060  1.00  0.00     0.010 A 
ATOM     71  C   UNL A   1      43.653  22.687  25.693  1.00  0.00     0.010 A 
ATOM     72  C   UNL A   1      42.849  21.033  27.799  1.00  0.00     0.020 A 
ATOM     73  C   UNL A   1      43.222  21.387  25.425  1.00  0.00     0.020 A 
ATOM     74  C   UNL A   1      42.831  20.563  26.483  1.00  0.00     0.054 A 
BRANCH  74  75
ATOM     75  S   UNL A   1      42.233  18.882  26.155  1.00  0.00     0.124 S 
ATOM     76  O   UNL A   1      43.133  18.442  25.094  1.00  0.00    -0.237 OA
ATOM     77  O   UNL A   1      42.408  18.224  27.448  1.00  0.00    -0.237 OA
ATOM     78  O   UNL A   1      40.843  19.088  25.754  1.00  0.00    -0.744 OA
ENDBRANCH  74  75
ENDBRANCH  46  69
BRANCH  58  79
ATOM     79  C   UNL A   1      49.550  26.809  26.195  1.00  0.00    -0.014 A 
ATOM     80  C   UNL A   1      50.529  26.343  27.091  1.00  0.00     0.010 A 
ATOM     81  C   UNL A   1      49.849  26.882  24.823  1.00  0.00     0.010 A 
ATOM     82  C   UNL A   1      51.797  25.987  26.624  1.00  0.00     0.020 A 
ATOM     83  C   UNL A   1      51.107  26.506  24.352  1.00  0.00     0.020 A 
ATOM     84  C   UNL A   1      52.079  26.075  25.257  1.00  0.00     0.054 A 
BRANCH  84  85
ATOM     85  S   UNL A   1      53.722  25.578  24.669  1.00  0.00     0.124 S 
ATOM     86  O   UNL A   1      53.753  26.156  23.329  1.00  0.00    -0.237 OA
ATOM     87  O   UNL A   1      54.614  26.201  25.643  1.00  0.00    -0.237 OA
ATOM     88  O   UNL A   1      53.679  24.118  24.718  1.00  0.00    -0.744 OA
ENDBRANCH  84  85
ENDBRANCH  58  79
ENDBRANCH  32  33
ENDBRANCH  25  27
ENDBRANCH  24  25
ENDBRANCH  23  24
ENDBRANCH   1  23
TORSDOF 19
ENDMDL
MODEL 3
REMARK VINA RESULT:      -9.2      0.865      2.451
REMARK SMILES CC[C@H](C)CN(CC)c1nc(C(=O)OCCOC(=O)c2ccc(-c3c4nc(c(-c5ccc(S(=O)(=O)[O-])cc5)c5ccc([nH]5)c(-c5ccc(S(=O)(=O)[O-])cc5)c5nc(c(-c6ccc(S(=O)(=O)[O-])cc6)c6ccc3[nH]6)C=C5)C=C4)cc2)cc2ccccc12
REMARK SMILES IDX 15 1 14 2 12 3 13 4 11 5 9 6 10 7 86 8 81 9 85 10 80 11
REMARK SMILES IDX 82 12 84 13 83 14 6 15 5 16 3 17 4 18 2 19 1 20 7 21 8 22
REMARK SMILES IDX 16 23 17 24 18 25 19 26 20 27 21 28 79 29 22 30 78 31 23 32
REMARK SMILES IDX 24 33 25 34 72 35 26 36 77 37 71 38 73 39 27 40 76 41 70 42
REMARK SMILES IDX 69 43 28 45 58 46 39 47 57 48 40 49 43 50 56 51 74 52 41 53
REMARK SMILES IDX 42 54 55 56 75 57 44 58 29 59 30 60 38 61 31 62 37 63 32 64
REMARK SMILES IDX 33 65 34 66 35 67 36 68 59 69 60 70 68 71 61 72 67 73 62 74
REMARK SMILES IDX 63 75 64 76 65 77 66 78 45 79 46 80 54 81 47 82 53 83 48 84
REMARK SMILES IDX 49 85 50 86 51 87 52 88
REMARK H PARENT 73 44 43 55
REMARK Flexibility Score: inf
ROOT
ATOM      1  C   UNL A   1      32.537  30.485  26.155  1.00  0.00     0.275 C 
ENDROOT
BRANCH   1   2
ATOM      2  O   UNL A   1      32.477  29.058  26.353  1.00  0.00    -0.457 OA
BRANCH   2   3
ATOM      3  C   UNL A   1      33.629  28.414  26.048  1.00  0.00     0.357 C 
ATOM      4  O   UNL A   1      34.758  28.876  26.155  1.00  0.00    -0.244 OA
BRANCH   3   5
ATOM      5  C   UNL A   1      33.414  27.018  25.598  1.00  0.00     0.151 A 
ATOM      6  C   UNL A   1      32.828  25.688  23.810  1.00  0.00     0.137 A 
ATOM      7  N   UNL A   1      32.644  26.831  24.506  1.00  0.00    -0.223 NA
ATOM      8  C   UNL A   1      33.934  24.830  24.077  1.00  0.00     0.024 A 
ATOM      9  C   UNL A   1      34.568  24.960  25.322  1.00  0.00    -0.012 A 
ATOM     10  C   UNL A   1      34.458  23.854  23.196  1.00  0.00     0.012 A 
ATOM     11  C   UNL A   1      34.257  26.052  26.112  1.00  0.00     0.045 A 
ATOM     12  C   UNL A   1      35.536  24.031  25.741  1.00  0.00     0.009 A 
ATOM     13  C   UNL A   1      35.443  22.948  23.599  1.00  0.00     0.001 A 
ATOM     14  C   UNL A   1      35.957  23.015  24.888  1.00  0.00     0.001 A 
BRANCH   6  15
ATOM     15  N   UNL A   1      31.835  25.327  22.879  1.00  0.00    -0.356 N 
BRANCH  15  16
ATOM     16  C   UNL A   1      30.515  24.953  23.466  1.00  0.00     0.121 C 
BRANCH  16  17
ATOM     17  C   UNL A   1      29.902  26.026  24.396  1.00  0.00     0.005 C 
ATOM     18  C   UNL A   1      28.529  26.486  23.878  1.00  0.00     0.009 C 
BRANCH  17  19
ATOM     19  C   UNL A   1      29.788  25.589  25.869  1.00  0.00     0.002 C 
ATOM     20  C   UNL A   1      30.576  24.302  26.118  1.00  0.00     0.004 C 
ENDBRANCH  17  19
ENDBRANCH  16  17
ENDBRANCH  15  16
BRANCH  15  21
ATOM     21  C   UNL A   1      31.785  26.162  21.666  1.00  0.00     0.114 C 
ATOM     22  C   UNL A   1      32.519  25.586  20.454  1.00  0.00     0.027 C 
ENDBRANCH  15  21
ENDBRANCH   6  15
ENDBRANCH   3   5
ENDBRANCH   2   3
ENDBRANCH   1   2
BRANCH   1  23
ATOM     23  C   UNL A   1      32.871  31.229  27.449  1.00  0.00     0.275 C 
BRANCH  23  24
ATOM     24  O   UNL A   1      33.734  32.359  27.205  1.00  0.00    -0.458 OA
BRANCH  24  25
ATOM     25  C   UNL A   1      33.646  33.353  28.117  1.00  0.00     0.338 C 
ATOM     26  O   UNL A   1      32.795  34.224  28.176  1.00  0.00    -0.246 OA
BRANCH  25  27
ATOM     27  C   UNL A   1      34.713  33.247  29.129  1.00  0.00     0.060 A 
ATOM     28  C   UNL A   1      35.943  33.845  28.881  1.00  0.00     0.016 A 
ATOM     29  C   UNL A   1      34.580  32.353  30.190  1.00  0.00     0.016 A 
ATOM     30  C   UNL A   1      37.076  33.407  29.562  1.00  0.00     0.010 A 
ATOM     31  C   UNL A   1      35.693  32.048  30.985  1.00  0.00     0.010 A 
ATOM     32  C   UNL A   1      36.973  32.524  30.647  1.00  0.00    -0.014 A 
BRANCH  32  33
ATOM     33  C   UNL A   1      38.191  32.103  31.406  1.00  0.00     0.031 A 
ATOM     34  C   UNL A   1      39.108  31.027  30.866  1.00  0.00     0.074 A 
ATOM     35  C   UNL A   1      38.496  32.688  32.584  1.00  0.00     0.049 A 
ATOM     36  N   UNL A   1      40.083  30.393  31.471  1.00  0.00    -0.248 NA
ATOM     37  C   UNL A   1      38.893  30.593  29.475  1.00  0.00     0.031 C 
ATOM     38  C   UNL A   1      37.740  33.771  33.220  1.00  0.00     0.029 A 
ATOM     39  N   UNL A   1      39.534  32.465  33.458  1.00  0.00    -0.354 N 
ATOM     40  C   UNL A   1      40.543  29.440  30.566  1.00  0.00     0.074 A 
ATOM     41  C   UNL A   1      39.747  29.584  29.366  1.00  0.00     0.031 C 
ATOM     42  C   UNL A   1      38.371  34.161  34.334  1.00  0.00     0.029 A 
ATOM     43  C   UNL A   1      39.503  33.277  34.567  1.00  0.00     0.049 A 
ATOM     44  H   UNL A   1      40.233  31.788  33.303  1.00  0.00     0.167 HD
ATOM     45  C   UNL A   1      41.531  28.525  30.724  1.00  0.00     0.031 A 
ATOM     46  C   UNL A   1      40.256  33.284  35.685  1.00  0.00     0.031 A 
ATOM     47  C   UNL A   1      42.357  28.420  31.900  1.00  0.00     0.049 A 
ATOM     48  C   UNL A   1      41.324  32.245  35.851  1.00  0.00     0.074 A 
ATOM     49  C   UNL A   1      43.390  27.532  32.150  1.00  0.00     0.029 A 
ATOM     50  N   UNL A   1      42.261  29.242  33.012  1.00  0.00    -0.354 N 
ATOM     51  N   UNL A   1      41.689  31.303  35.016  1.00  0.00    -0.248 NA
ATOM     52  C   UNL A   1      42.063  32.255  37.119  1.00  0.00     0.031 C 
ATOM     53  C   UNL A   1      43.892  27.793  33.432  1.00  0.00     0.029 A 
ATOM     54  C   UNL A   1      43.205  28.874  33.957  1.00  0.00     0.049 A 
ATOM     55  H   UNL A   1      41.616  29.978  33.116  1.00  0.00     0.167 HD
ATOM     56  C   UNL A   1      42.704  30.606  35.659  1.00  0.00     0.074 A 
ATOM     57  C   UNL A   1      42.913  31.252  36.939  1.00  0.00     0.031 C 
ATOM     58  C   UNL A   1      43.396  29.522  35.229  1.00  0.00     0.031 A 
BRANCH  45  59
ATOM     59  C   UNL A   1      41.746  27.522  29.618  1.00  0.00    -0.014 A 
ATOM     60  C   UNL A   1      40.877  26.434  29.424  1.00  0.00     0.010 A 
ATOM     61  C   UNL A   1      42.818  27.706  28.724  1.00  0.00     0.010 A 
ATOM     62  C   UNL A   1      41.100  25.528  28.382  1.00  0.00     0.020 A 
ATOM     63  C   UNL A   1      43.030  26.817  27.665  1.00  0.00     0.020 A 
ATOM     64  C   UNL A   1      42.178  25.722  27.512  1.00  0.00     0.054 A 
BRANCH  64  65
ATOM     65  S   UNL A   1      42.437  24.542  26.158  1.00  0.00     0.124 S 
ATOM     66  O   UNL A   1      42.956  25.407  25.101  1.00  0.00    -0.237 OA
ATOM     67  O   UNL A   1      43.399  23.602  26.728  1.00  0.00    -0.237 OA
ATOM     68  O   UNL A   1      41.106  23.993  25.915  1.00  0.00    -0.744 OA
ENDBRANCH  64  65
ENDBRANCH  45  59
BRANCH  46  69
ATOM     69  C   UNL A   1      39.966  34.270  36.761  1.00  0.00    -0.014 A 
ATOM     70  C   UNL A   1      39.132  33.932  37.839  1.00  0.00     0.010 A 
ATOM     71  C   UNL A   1      40.562  35.546  36.732  1.00  0.00     0.010 A 
ATOM     72  C   UNL A   1      38.899  34.850  38.869  1.00  0.00     0.020 A 
ATOM     73  C   UNL A   1      40.358  36.453  37.773  1.00  0.00     0.020 A 
ATOM     74  C   UNL A   1      39.519  36.102  38.832  1.00  0.00     0.054 A 
BRANCH  74  75
ATOM     75  S   UNL A   1      39.267  37.251  40.214  1.00  0.00     0.124 S 
ATOM     76  O   UNL A   1      40.639  37.583  40.584  1.00  0.00    -0.237 OA
ATOM     77  O   UNL A   1      38.498  38.329  39.596  1.00  0.00    -0.237 OA
ATOM     78  O   UNL A   1      38.529  36.452  41.190  1.00  0.00    -0.744 OA
ENDBRANCH  74  75
ENDBRANCH  46  69
BRANCH  58  79
ATOM     79  C   UNL A   1      44.461  28.986  36.144  1.00  0.00    -0.014 A 
ATOM     80  C   UNL A   1      45.759  29.529  36.142  1.00  0.00     0.010 A 
ATOM     81  C   UNL A   1      44.150  27.947  37.038  1.00  0.00     0.010 A 
ATOM     82  C   UNL A   1      46.737  29.017  36.999  1.00  0.00     0.020 A 
ATOM     83  C   UNL A   1      45.119  27.449  37.912  1.00  0.00     0.020 A 
ATOM     84  C   UNL A   1      46.411  27.978  37.876  1.00  0.00     0.054 A 
BRANCH  84  85
ATOM     85  S   UNL A   1      47.688  27.351  39.001  1.00  0.00     0.124 S 
ATOM     86  O   UNL A   1      48.456  28.558  39.292  1.00  0.00    -0.237 OA
ATOM     87  O   UNL A   1      46.905  26.821  40.114  1.00  0.00    -0.237 OA
ATOM     88  O   UNL A   1      48.386  26.345  38.205  1.00  0.00    -0.744 OA
ENDBRANCH  84  85
ENDBRANCH  58  79
ENDBRANCH  32  33
ENDBRANCH  25  27
ENDBRANCH  24  25
ENDBRANCH  23  24
ENDBRANCH   1  23
TORSDOF 19
ENDMDL
