MODEL 1
REMARK VINA RESULT:      -9.5      0.000      0.000
REMARK SMILES O=C(/C=C/c1ccc(S(=O)(=O)Nc2ccc3c(c2)OCCO3)cc1)OCCOC(=O)c1ccc(-c2c3nc(c(-c4ccc(S(=O)(=O)[O-])cc4)c4ccc([nH]4)c(-c4ccc(S(=O)(=O)[O-])cc4)c4nc(c(-c5ccc(S(=O)(=O)[O-])cc5)c5ccc2[nH]5)C=C4)C=C3)cc1
REMARK SMILES IDX 26 1 25 2 2 3 1 4 3 5 4 6 5 7 6 8 24 9 7 10 23 11 8 12 9 13
REMARK SMILES IDX 10 14 11 15 12 16 13 18 14 19 18 20 15 21 17 22 16 23 19 24
REMARK SMILES IDX 22 25 20 26 21 27 27 28 28 29 29 30 30 31 31 32 32 33 90 34
REMARK SMILES IDX 33 35 89 36 34 37 35 38 36 39 83 40 37 41 88 42 82 43 84 44
REMARK SMILES IDX 38 45 87 46 81 47 80 48 39 50 69 51 50 52 68 53 51 54 54 55
REMARK SMILES IDX 67 56 85 57 52 58 53 59 66 61 86 62 55 63 40 64 41 65 49 66
REMARK SMILES IDX 42 67 48 68 43 69 44 70 45 71 46 72 47 73 70 74 71 75 79 76
REMARK SMILES IDX 72 77 78 78 73 79 74 80 75 81 76 82 77 83 56 84 57 85 65 86
REMARK SMILES IDX 58 87 64 88 59 89 60 90 61 91 62 92 63 93
REMARK H PARENT 12 17 84 49 54 60
REMARK Flexibility Score: inf
ROOT
ATOM      1  C   UNL A   1      33.908  34.089  29.124  1.00  0.00     0.275 C 
ENDROOT
BRANCH   1   2
ATOM      2  O   UNL A   1      35.020  33.877  30.016  1.00  0.00    -0.459 OA
BRANCH   2   3
ATOM      3  C   UNL A   1      35.095  33.022  31.064  1.00  0.00     0.330 C 
ATOM      4  O   UNL A   1      34.103  32.780  31.745  1.00  0.00    -0.247 OA
BRANCH   3   5
ATOM      5  C   UNL A   1      36.404  32.538  31.536  1.00  0.00     0.094 C 
ATOM      6  C   UNL A   1      36.683  31.972  32.718  1.00  0.00     0.015 C 
BRANCH   6   7
ATOM      7  C   UNL A   1      37.964  31.357  33.109  1.00  0.00    -0.025 A 
ATOM      8  C   UNL A   1      38.155  30.005  32.785  1.00  0.00     0.009 A 
ATOM      9  C   UNL A   1      38.990  32.027  33.787  1.00  0.00     0.009 A 
ATOM     10  C   UNL A   1      39.290  29.318  33.218  1.00  0.00     0.023 A 
ATOM     11  C   UNL A   1      40.162  31.358  34.167  1.00  0.00     0.023 A 
ATOM     12  C   UNL A   1      40.273  29.985  33.951  1.00  0.00     0.087 A 
BRANCH  12  13
ATOM     13  S   UNL A   1      41.524  28.993  34.760  1.00  0.00     0.261 S 
ATOM     14  O   UNL A   1      42.780  29.288  34.098  1.00  0.00    -0.201 OA
ATOM     15  O   UNL A   1      41.367  29.205  36.182  1.00  0.00    -0.201 OA
BRANCH  13  16
ATOM     16  N   UNL A   1      41.169  27.362  34.461  1.00  0.00    -0.279 N 
ATOM     17  H   UNL A   1      40.382  27.118  33.922  1.00  0.00     0.180 HD
BRANCH  16  18
ATOM     18  C   UNL A   1      42.017  26.346  34.993  1.00  0.00     0.053 A 
ATOM     19  C   UNL A   1      41.396  25.216  35.531  1.00  0.00     0.031 A 
ATOM     20  C   UNL A   1      43.399  26.364  34.809  1.00  0.00     0.077 A 
ATOM     21  C   UNL A   1      42.130  24.051  35.730  1.00  0.00     0.052 A 
ATOM     22  C   UNL A   1      44.105  25.168  34.906  1.00  0.00     0.163 A 
ATOM     23  C   UNL A   1      43.449  24.002  35.313  1.00  0.00     0.161 A 
ATOM     24  O   UNL A   1      45.402  25.180  34.456  1.00  0.00    -0.486 OA
ATOM     25  O   UNL A   1      44.017  22.756  35.212  1.00  0.00    -0.486 OA
ATOM     26  C   UNL A   1      45.997  23.873  34.438  1.00  0.00     0.271 C 
ATOM     27  C   UNL A   1      44.977  22.784  34.153  1.00  0.00     0.271 C 
ENDBRANCH  16  18
ENDBRANCH  13  16
ENDBRANCH  12  13
ENDBRANCH   6   7
ENDBRANCH   3   5
ENDBRANCH   2   3
ENDBRANCH   1   2
BRANCH   1  28
ATOM     28  C   UNL A   1      33.555  32.907  28.215  1.00  0.00     0.275 C 
BRANCH  28  29
ATOM     29  O   UNL A   1      34.701  32.199  27.721  1.00  0.00    -0.458 OA
BRANCH  29  30
ATOM     30  C   UNL A   1      34.629  30.844  27.835  1.00  0.00     0.338 C 
ATOM     31  O   UNL A   1      33.655  30.157  27.615  1.00  0.00    -0.246 OA
BRANCH  30  32
ATOM     32  C   UNL A   1      35.975  30.283  28.119  1.00  0.00     0.060 A 
ATOM     33  C   UNL A   1      36.198  29.730  29.388  1.00  0.00     0.016 A 
ATOM     34  C   UNL A   1      37.000  30.273  27.171  1.00  0.00     0.016 A 
ATOM     35  C   UNL A   1      37.439  29.170  29.714  1.00  0.00     0.010 A 
ATOM     36  C   UNL A   1      38.244  29.713  27.501  1.00  0.00     0.010 A 
ATOM     37  C   UNL A   1      38.481  29.165  28.778  1.00  0.00    -0.014 A 
BRANCH  37  38
ATOM     38  C   UNL A   1      39.854  28.720  29.153  1.00  0.00     0.031 A 
ATOM     39  C   UNL A   1      40.800  29.723  29.760  1.00  0.00     0.074 A 
ATOM     40  C   UNL A   1      40.279  27.451  28.987  1.00  0.00     0.049 A 
ATOM     41  N   UNL A   1      42.057  29.575  30.091  1.00  0.00    -0.248 NA
ATOM     42  C   UNL A   1      40.250  31.057  30.047  1.00  0.00     0.031 C 
ATOM     43  C   UNL A   1      39.469  26.326  28.525  1.00  0.00     0.029 A 
ATOM     44  N   UNL A   1      41.528  26.901  29.181  1.00  0.00    -0.354 N 
ATOM     45  C   UNL A   1      42.442  30.787  30.651  1.00  0.00     0.074 A 
ATOM     46  C   UNL A   1      41.307  31.678  30.549  1.00  0.00     0.031 C 
ATOM     47  C   UNL A   1      40.252  25.236  28.434  1.00  0.00     0.029 A 
ATOM     48  C   UNL A   1      41.627  25.595  28.759  1.00  0.00     0.049 A 
ATOM     49  H   UNL A   1      42.278  27.396  29.585  1.00  0.00     0.167 HD
ATOM     50  C   UNL A   1      43.618  31.123  31.232  1.00  0.00     0.031 A 
ATOM     51  C   UNL A   1      42.701  24.793  28.601  1.00  0.00     0.031 A 
ATOM     52  C   UNL A   1      44.761  30.256  31.328  1.00  0.00     0.049 A 
ATOM     53  C   UNL A   1      44.059  25.256  29.039  1.00  0.00     0.074 A 
ATOM     54  C   UNL A   1      45.973  30.500  31.951  1.00  0.00     0.029 A 
ATOM     55  N   UNL A   1      44.846  28.993  30.769  1.00  0.00    -0.354 N 
ATOM     56  N   UNL A   1      44.398  26.400  29.578  1.00  0.00    -0.248 NA
ATOM     57  C   UNL A   1      45.169  24.304  28.882  1.00  0.00     0.031 C 
ATOM     58  C   UNL A   1      46.816  29.410  31.708  1.00  0.00     0.029 A 
ATOM     59  C   UNL A   1      46.105  28.462  30.990  1.00  0.00     0.049 A 
ATOM     60  H   UNL A   1      44.119  28.538  30.285  1.00  0.00     0.167 HD
ATOM     61  C   UNL A   1      45.749  26.282  29.885  1.00  0.00     0.074 A 
ATOM     62  C   UNL A   1      46.174  24.974  29.431  1.00  0.00     0.031 C 
ATOM     63  C   UNL A   1      46.545  27.170  30.527  1.00  0.00     0.031 A 
BRANCH  50  64
ATOM     64  C   UNL A   1      43.725  32.510  31.799  1.00  0.00    -0.014 A 
ATOM     65  C   UNL A   1      44.224  33.573  31.025  1.00  0.00     0.010 A 
ATOM     66  C   UNL A   1      43.310  32.755  33.119  1.00  0.00     0.010 A 
ATOM     67  C   UNL A   1      44.359  34.847  31.580  1.00  0.00     0.020 A 
ATOM     68  C   UNL A   1      43.418  34.035  33.670  1.00  0.00     0.020 A 
ATOM     69  C   UNL A   1      43.963  35.067  32.903  1.00  0.00     0.054 A 
BRANCH  69  70
ATOM     70  S   UNL A   1      44.159  36.726  33.605  1.00  0.00     0.124 S 
ATOM     71  O   UNL A   1      43.240  36.681  34.740  1.00  0.00    -0.237 OA
ATOM     72  O   UNL A   1      45.579  36.764  33.949  1.00  0.00    -0.237 OA
ATOM     73  O   UNL A   1      43.761  37.614  32.516  1.00  0.00    -0.744 OA
ENDBRANCH  69  70
ENDBRANCH  50  64
BRANCH  51  74
ATOM     74  C   UNL A   1      42.562  23.490  27.899  1.00  0.00    -0.014 A 
ATOM     75  C   UNL A   1      42.935  23.324  26.557  1.00  0.00     0.010 A 
ATOM     76  C   UNL A   1      42.019  22.398  28.599  1.00  0.00     0.010 A 
ATOM     77  C   UNL A   1      42.792  22.075  25.938  1.00  0.00     0.020 A 
ATOM     78  C   UNL A   1      41.902  21.144  27.996  1.00  0.00     0.020 A 
ATOM     79  C   UNL A   1      42.286  20.992  26.664  1.00  0.00     0.054 A 
BRANCH  79  80
ATOM     80  S   UNL A   1      42.185  19.358  25.879  1.00  0.00     0.124 S 
ATOM     81  O   UNL A   1      42.717  18.489  26.923  1.00  0.00    -0.237 OA
ATOM     82  O   UNL A   1      40.757  19.220  25.606  1.00  0.00    -0.237 OA
ATOM     83  O   UNL A   1      43.026  19.504  24.692  1.00  0.00    -0.744 OA
ENDBRANCH  79  80
ENDBRANCH  51  74
BRANCH  63  84
ATOM     84  C   UNL A   1      47.954  26.750  30.843  1.00  0.00    -0.014 A 
ATOM     85  C   UNL A   1      49.026  27.054  29.986  1.00  0.00     0.010 A 
ATOM     86  C   UNL A   1      48.216  26.103  32.066  1.00  0.00     0.010 A 
ATOM     87  C   UNL A   1      50.333  26.711  30.344  1.00  0.00     0.020 A 
ATOM     88  C   UNL A   1      49.522  25.781  32.439  1.00  0.00     0.020 A 
ATOM     89  C   UNL A   1      50.573  26.082  31.571  1.00  0.00     0.054 A 
BRANCH  89  90
ATOM     90  S   UNL A   1      52.286  25.719  32.049  1.00  0.00     0.124 S 
ATOM     91  O   UNL A   1      52.477  26.607  33.192  1.00  0.00    -0.237 OA
ATOM     92  O   UNL A   1      52.235  24.292  32.362  1.00  0.00    -0.237 OA
ATOM     93  O   UNL A   1      53.059  26.061  30.857  1.00  0.00    -0.744 OA
ENDBRANCH  89  90
ENDBRANCH  63  84
ENDBRANCH  37  38
ENDBRANCH  30  32
ENDBRANCH  29  30
ENDBRANCH  28  29
ENDBRANCH   1  28
TORSDOF 18
ENDMDL
MODEL 2
REMARK VINA RESULT:      -9.4      5.417     12.114
REMARK SMILES O=C(/C=C/c1ccc(S(=O)(=O)Nc2ccc3c(c2)OCCO3)cc1)OCCOC(=O)c1ccc(-c2c3nc(c(-c4ccc(S(=O)(=O)[O-])cc4)c4ccc([nH]4)c(-c4ccc(S(=O)(=O)[O-])cc4)c4nc(c(-c5ccc(S(=O)(=O)[O-])cc5)c5ccc2[nH]5)C=C4)C=C3)cc1
REMARK SMILES IDX 26 1 25 2 2 3 1 4 3 5 4 6 5 7 6 8 24 9 7 10 23 11 8 12 9 13
REMARK SMILES IDX 10 14 11 15 12 16 13 18 14 19 18 20 15 21 17 22 16 23 19 24
REMARK SMILES IDX 22 25 20 26 21 27 27 28 28 29 29 30 30 31 31 32 32 33 90 34
REMARK SMILES IDX 33 35 89 36 34 37 35 38 36 39 83 40 37 41 88 42 82 43 84 44
REMARK SMILES IDX 38 45 87 46 81 47 80 48 39 50 69 51 50 52 68 53 51 54 54 55
REMARK SMILES IDX 67 56 85 57 52 58 53 59 66 61 86 62 55 63 40 64 41 65 49 66
REMARK SMILES IDX 42 67 48 68 43 69 44 70 45 71 46 72 47 73 70 74 71 75 79 76
REMARK SMILES IDX 72 77 78 78 73 79 74 80 75 81 76 82 77 83 56 84 57 85 65 86
REMARK SMILES IDX 58 87 64 88 59 89 60 90 61 91 62 92 63 93
REMARK H PARENT 12 17 84 49 54 60
REMARK Flexibility Score: inf
ROOT
ATOM      1  C   UNL A   1      43.054  21.885  26.162  1.00  0.00     0.275 C 
ENDROOT
BRANCH   1   2
ATOM      2  O   UNL A   1      41.669  21.495  26.070  1.00  0.00    -0.459 OA
BRANCH   2   3
ATOM      3  C   UNL A   1      40.684  21.706  26.975  1.00  0.00     0.330 C 
ATOM      4  O   UNL A   1      40.734  21.186  28.086  1.00  0.00    -0.247 OA
BRANCH   3   5
ATOM      5  C   UNL A   1      39.437  22.381  26.574  1.00  0.00     0.094 C 
ATOM      6  C   UNL A   1      38.685  22.124  25.495  1.00  0.00     0.015 C 
BRANCH   6   7
ATOM      7  C   UNL A   1      37.365  22.706  25.196  1.00  0.00    -0.025 A 
ATOM      8  C   UNL A   1      36.665  22.186  24.097  1.00  0.00     0.009 A 
ATOM      9  C   UNL A   1      36.774  23.745  25.926  1.00  0.00     0.009 A 
ATOM     10  C   UNL A   1      35.462  22.757  23.677  1.00  0.00     0.023 A 
ATOM     11  C   UNL A   1      35.533  24.280  25.548  1.00  0.00     0.023 A 
ATOM     12  C   UNL A   1      34.920  23.836  24.377  1.00  0.00     0.087 A 
BRANCH  12  13
ATOM     13  S   UNL A   1      33.575  24.733  23.611  1.00  0.00     0.261 S 
ATOM     14  O   UNL A   1      33.612  26.078  24.151  1.00  0.00    -0.201 OA
ATOM     15  O   UNL A   1      33.678  24.502  22.186  1.00  0.00    -0.201 OA
BRANCH  13  16
ATOM     16  N   UNL A   1      32.120  24.026  24.121  1.00  0.00    -0.279 N 
ATOM     17  H   UNL A   1      31.426  24.577  24.550  1.00  0.00     0.180 HD
BRANCH  16  18
ATOM     18  C   UNL A   1      31.907  22.628  23.924  1.00  0.00     0.053 A 
ATOM     19  C   UNL A   1      31.912  22.164  22.606  1.00  0.00     0.031 A 
ATOM     20  C   UNL A   1      31.899  21.724  24.985  1.00  0.00     0.077 A 
ATOM     21  C   UNL A   1      32.075  20.806  22.351  1.00  0.00     0.052 A 
ATOM     22  C   UNL A   1      32.170  20.383  24.726  1.00  0.00     0.163 A 
ATOM     23  C   UNL A   1      32.314  19.943  23.407  1.00  0.00     0.161 A 
ATOM     24  O   UNL A   1      32.420  19.584  25.814  1.00  0.00    -0.486 OA
ATOM     25  O   UNL A   1      32.803  18.701  23.087  1.00  0.00    -0.486 OA
ATOM     26  C   UNL A   1      32.852  18.265  25.449  1.00  0.00     0.271 C 
ATOM     27  C   UNL A   1      33.647  18.261  24.154  1.00  0.00     0.271 C 
ENDBRANCH  16  18
ENDBRANCH  13  16
ENDBRANCH  12  13
ENDBRANCH   6   7
ENDBRANCH   3   5
ENDBRANCH   2   3
ENDBRANCH   1   2
BRANCH   1  28
ATOM     28  C   UNL A   1      43.385  23.280  25.621  1.00  0.00     0.275 C 
BRANCH  28  29
ATOM     29  O   UNL A   1      43.232  24.325  26.593  1.00  0.00    -0.458 OA
BRANCH  29  30
ATOM     30  C   UNL A   1      42.412  25.343  26.212  1.00  0.00     0.338 C 
ATOM     31  O   UNL A   1      41.926  25.500  25.112  1.00  0.00    -0.246 OA
BRANCH  30  32
ATOM     32  C   UNL A   1      42.050  26.176  27.388  1.00  0.00     0.060 A 
ATOM     33  C   UNL A   1      42.839  27.303  27.658  1.00  0.00     0.016 A 
ATOM     34  C   UNL A   1      40.957  25.886  28.206  1.00  0.00     0.016 A 
ATOM     35  C   UNL A   1      42.543  28.138  28.742  1.00  0.00     0.010 A 
ATOM     36  C   UNL A   1      40.663  26.723  29.293  1.00  0.00     0.010 A 
ATOM     37  C   UNL A   1      41.457  27.852  29.580  1.00  0.00    -0.014 A 
BRANCH  37  38
ATOM     38  C   UNL A   1      41.218  28.632  30.827  1.00  0.00     0.031 A 
ATOM     39  C   UNL A   1      40.167  29.712  30.815  1.00  0.00     0.074 A 
ATOM     40  C   UNL A   1      41.891  28.401  31.972  1.00  0.00     0.049 A 
ATOM     41  N   UNL A   1      39.845  30.560  31.758  1.00  0.00    -0.248 NA
ATOM     42  C   UNL A   1      39.365  29.837  29.588  1.00  0.00     0.031 C 
ATOM     43  C   UNL A   1      42.855  27.327  32.201  1.00  0.00     0.029 A 
ATOM     44  N   UNL A   1      41.869  29.085  33.169  1.00  0.00    -0.354 N 
ATOM     45  C   UNL A   1      38.785  31.300  31.250  1.00  0.00     0.074 A 
ATOM     46  C   UNL A   1      38.567  30.849  29.893  1.00  0.00     0.031 C 
ATOM     47  C   UNL A   1      43.358  27.453  33.442  1.00  0.00     0.029 A 
ATOM     48  C   UNL A   1      42.811  28.649  34.072  1.00  0.00     0.049 A 
ATOM     49  H   UNL A   1      41.236  29.816  33.360  1.00  0.00     0.167 HD
ATOM     50  C   UNL A   1      38.033  32.245  31.864  1.00  0.00     0.031 A 
ATOM     51  C   UNL A   1      43.227  29.174  35.242  1.00  0.00     0.031 A 
ATOM     52  C   UNL A   1      38.244  32.716  33.205  1.00  0.00     0.049 A 
ATOM     53  C   UNL A   1      42.534  30.373  35.820  1.00  0.00     0.074 A 
ATOM     54  C   UNL A   1      37.492  33.631  33.922  1.00  0.00     0.029 A 
ATOM     55  N   UNL A   1      39.292  32.331  34.023  1.00  0.00    -0.354 N 
ATOM     56  N   UNL A   1      41.526  31.049  35.330  1.00  0.00    -0.248 NA
ATOM     57  C   UNL A   1      43.012  30.853  37.126  1.00  0.00     0.031 C 
ATOM     58  C   UNL A   1      38.127  33.851  35.149  1.00  0.00     0.029 A 
ATOM     59  C   UNL A   1      39.236  33.025  35.221  1.00  0.00     0.049 A 
ATOM     60  H   UNL A   1      39.977  31.664  33.789  1.00  0.00     0.167 HD
ATOM     61  C   UNL A   1      41.206  31.996  36.297  1.00  0.00     0.074 A 
ATOM     62  C   UNL A   1      42.154  31.834  37.379  1.00  0.00     0.031 C 
ATOM     63  C   UNL A   1      40.185  32.886  36.296  1.00  0.00     0.031 A 
BRANCH  50  64
ATOM     64  C   UNL A   1      36.910  32.844  31.065  1.00  0.00    -0.014 A 
ATOM     65  C   UNL A   1      37.167  33.744  30.014  1.00  0.00     0.010 A 
ATOM     66  C   UNL A   1      35.582  32.495  31.362  1.00  0.00     0.010 A 
ATOM     67  C   UNL A   1      36.111  34.327  29.311  1.00  0.00     0.020 A 
ATOM     68  C   UNL A   1      34.523  33.055  30.643  1.00  0.00     0.020 A 
ATOM     69  C   UNL A   1      34.795  33.985  29.637  1.00  0.00     0.054 A 
BRANCH  69  70
ATOM     70  S   UNL A   1      33.441  34.764  28.718  1.00  0.00     0.124 S 
ATOM     71  O   UNL A   1      34.098  35.944  28.161  1.00  0.00    -0.237 OA
ATOM     72  O   UNL A   1      33.075  33.734  27.749  1.00  0.00    -0.237 OA
ATOM     73  O   UNL A   1      32.438  35.036  29.743  1.00  0.00    -0.744 OA
ENDBRANCH  69  70
ENDBRANCH  50  64
BRANCH  51  74
ATOM     74  C   UNL A   1      44.436  28.632  35.916  1.00  0.00    -0.014 A 
ATOM     75  C   UNL A   1      45.726  29.091  35.613  1.00  0.00     0.010 A 
ATOM     76  C   UNL A   1      44.279  27.610  36.870  1.00  0.00     0.010 A 
ATOM     77  C   UNL A   1      46.837  28.555  36.278  1.00  0.00     0.020 A 
ATOM     78  C   UNL A   1      45.380  27.093  37.557  1.00  0.00     0.020 A 
ATOM     79  C   UNL A   1      46.655  27.567  37.252  1.00  0.00     0.054 A 
BRANCH  79  80
ATOM     80  S   UNL A   1      48.092  26.940  38.168  1.00  0.00     0.124 S 
ATOM     81  O   UNL A   1      48.863  28.159  38.388  1.00  0.00    -0.237 OA
ATOM     82  O   UNL A   1      47.483  26.352  39.358  1.00  0.00    -0.237 OA
ATOM     83  O   UNL A   1      48.686  25.978  37.242  1.00  0.00    -0.744 OA
ENDBRANCH  79  80
ENDBRANCH  51  74
BRANCH  63  84
ATOM     84  C   UNL A   1      39.984  33.727  37.526  1.00  0.00    -0.014 A 
ATOM     85  C   UNL A   1      40.597  34.983  37.670  1.00  0.00     0.010 A 
ATOM     86  C   UNL A   1      39.099  33.276  38.525  1.00  0.00     0.010 A 
ATOM     87  C   UNL A   1      40.333  35.770  38.795  1.00  0.00     0.020 A 
ATOM     88  C   UNL A   1      38.814  34.070  39.637  1.00  0.00     0.020 A 
ATOM     89  C   UNL A   1      39.439  35.311  39.769  1.00  0.00     0.054 A 
BRANCH  89  90
ATOM     90  S   UNL A   1      39.051  36.385  41.180  1.00  0.00     0.124 S 
ATOM     91  O   UNL A   1      38.669  37.629  40.518  1.00  0.00    -0.237 OA
ATOM     92  O   UNL A   1      37.966  35.664  41.841  1.00  0.00    -0.237 OA
ATOM     93  O   UNL A   1      40.304  36.437  41.930  1.00  0.00    -0.744 OA
ENDBRANCH  89  90
ENDBRANCH  63  84
ENDBRANCH  37  38
ENDBRANCH  30  32
ENDBRANCH  29  30
ENDBRANCH  28  29
ENDBRANCH   1  28
TORSDOF 18
ENDMDL
MODEL 3
REMARK VINA RESULT:      -9.3      4.702     10.615
REMARK SMILES O=C(/C=C/c1ccc(S(=O)(=O)Nc2ccc3c(c2)OCCO3)cc1)OCCOC(=O)c1ccc(-c2c3nc(c(-c4ccc(S(=O)(=O)[O-])cc4)c4ccc([nH]4)c(-c4ccc(S(=O)(=O)[O-])cc4)c4nc(c(-c5ccc(S(=O)(=O)[O-])cc5)c5ccc2[nH]5)C=C4)C=C3)cc1
REMARK SMILES IDX 26 1 25 2 2 3 1 4 3 5 4 6 5 7 6 8 24 9 7 10 23 11 8 12 9 13
REMARK SMILES IDX 10 14 11 15 12 16 13 18 14 19 18 20 15 21 17 22 16 23 19 24
REMARK SMILES IDX 22 25 20 26 21 27 27 28 28 29 29 30 30 31 31 32 32 33 90 34
REMARK SMILES IDX 33 35 89 36 34 37 35 38 36 39 83 40 37 41 88 42 82 43 84 44
REMARK SMILES IDX 38 45 87 46 81 47 80 48 39 50 69 51 50 52 68 53 51 54 54 55
REMARK SMILES IDX 67 56 85 57 52 58 53 59 66 61 86 62 55 63 40 64 41 65 49 66
REMARK SMILES IDX 42 67 48 68 43 69 44 70 45 71 46 72 47 73 70 74 71 75 79 76
REMARK SMILES IDX 72 77 78 78 73 79 74 80 75 81 76 82 77 83 56 84 57 85 65 86
REMARK SMILES IDX 58 87 64 88 59 89 60 90 61 91 62 92 63 93
REMARK H PARENT 12 17 84 49 54 60
REMARK Flexibility Score: inf
ROOT
ATOM      1  C   UNL A   1      34.866  33.268  30.557  1.00  0.00     0.275 C 
ENDROOT
BRANCH   1   2
ATOM      2  O   UNL A   1      34.307  33.143  29.234  1.00  0.00    -0.459 OA
BRANCH   2   3
ATOM      3  C   UNL A   1      34.728  32.343  28.225  1.00  0.00     0.330 C 
ATOM      4  O   UNL A   1      35.718  32.640  27.563  1.00  0.00    -0.247 OA
BRANCH   3   5
ATOM      5  C   UNL A   1      33.888  31.223  27.766  1.00  0.00     0.094 C 
ATOM      6  C   UNL A   1      34.291  29.989  27.433  1.00  0.00     0.015 C 
BRANCH   6   7
ATOM      7  C   UNL A   1      33.419  28.842  27.124  1.00  0.00    -0.025 A 
ATOM      8  C   UNL A   1      33.982  27.779  26.402  1.00  0.00     0.009 A 
ATOM      9  C   UNL A   1      32.071  28.751  27.493  1.00  0.00     0.009 A 
ATOM     10  C   UNL A   1      33.197  26.709  25.971  1.00  0.00     0.023 A 
ATOM     11  C   UNL A   1      31.291  27.647  27.119  1.00  0.00     0.023 A 
ATOM     12  C   UNL A   1      31.839  26.667  26.291  1.00  0.00     0.087 A 
BRANCH  12  13
ATOM     13  S   UNL A   1      30.821  25.466  25.440  1.00  0.00     0.261 S 
ATOM     14  O   UNL A   1      29.506  26.060  25.299  1.00  0.00    -0.201 OA
ATOM     15  O   UNL A   1      31.568  25.035  24.279  1.00  0.00    -0.201 OA
BRANCH  13  16
ATOM     16  N   UNL A   1      30.656  24.114  26.451  1.00  0.00    -0.279 N 
ATOM     17  H   UNL A   1      29.910  24.063  27.090  1.00  0.00     0.180 HD
BRANCH  16  18
ATOM     18  C   UNL A   1      31.605  23.050  26.368  1.00  0.00     0.053 A 
ATOM     19  C   UNL A   1      31.251  21.941  25.596  1.00  0.00     0.031 A 
ATOM     20  C   UNL A   1      32.906  23.179  26.853  1.00  0.00     0.077 A 
ATOM     21  C   UNL A   1      32.232  21.049  25.174  1.00  0.00     0.052 A 
ATOM     22  C   UNL A   1      33.899  22.349  26.340  1.00  0.00     0.163 A 
ATOM     23  C   UNL A   1      33.560  21.321  25.455  1.00  0.00     0.161 A 
ATOM     24  O   UNL A   1      35.196  22.685  26.637  1.00  0.00    -0.486 OA
ATOM     25  O   UNL A   1      34.496  20.619  24.738  1.00  0.00    -0.486 OA
ATOM     26  C   UNL A   1      36.155  21.880  25.934  1.00  0.00     0.271 C 
ATOM     27  C   UNL A   1      35.648  21.449  24.568  1.00  0.00     0.271 C 
ENDBRANCH  16  18
ENDBRANCH  13  16
ENDBRANCH  12  13
ENDBRANCH   6   7
ENDBRANCH   3   5
ENDBRANCH   2   3
ENDBRANCH   1   2
BRANCH   1  28
ATOM     28  C   UNL A   1      35.305  31.957  31.216  1.00  0.00     0.275 C 
BRANCH  28  29
ATOM     29  O   UNL A   1      36.712  31.697  31.099  1.00  0.00    -0.458 OA
BRANCH  29  30
ATOM     30  C   UNL A   1      37.058  30.382  31.169  1.00  0.00     0.338 C 
ATOM     31  O   UNL A   1      36.337  29.468  31.507  1.00  0.00    -0.246 OA
BRANCH  30  32
ATOM     32  C   UNL A   1      38.421  30.180  30.612  1.00  0.00     0.060 A 
ATOM     33  C   UNL A   1      38.561  30.170  29.217  1.00  0.00     0.016 A 
ATOM     34  C   UNL A   1      39.547  30.023  31.421  1.00  0.00     0.016 A 
ATOM     35  C   UNL A   1      39.820  30.000  28.629  1.00  0.00     0.010 A 
ATOM     36  C   UNL A   1      40.807  29.852  30.829  1.00  0.00     0.010 A 
ATOM     37  C   UNL A   1      40.958  29.827  29.428  1.00  0.00    -0.014 A 
BRANCH  37  38
ATOM     38  C   UNL A   1      42.279  29.488  28.827  1.00  0.00     0.031 A 
ATOM     39  C   UNL A   1      42.553  28.059  28.440  1.00  0.00     0.074 A 
ATOM     40  C   UNL A   1      43.235  30.412  28.599  1.00  0.00     0.049 A 
ATOM     41  N   UNL A   1      43.654  27.527  27.972  1.00  0.00    -0.248 NA
ATOM     42  C   UNL A   1      41.435  27.112  28.579  1.00  0.00     0.031 C 
ATOM     43  C   UNL A   1      43.103  31.853  28.803  1.00  0.00     0.029 A 
ATOM     44  N   UNL A   1      44.530  30.259  28.154  1.00  0.00    -0.354 N 
ATOM     45  C   UNL A   1      43.355  26.191  27.736  1.00  0.00     0.074 A 
ATOM     46  C   UNL A   1      41.993  25.980  28.177  1.00  0.00     0.031 C 
ATOM     47  C   UNL A   1      44.280  32.440  28.522  1.00  0.00     0.029 A 
ATOM     48  C   UNL A   1      45.267  31.419  28.190  1.00  0.00     0.049 A 
ATOM     49  H   UNL A   1      44.892  29.399  27.838  1.00  0.00     0.167 HD
ATOM     50  C   UNL A   1      44.124  25.232  27.170  1.00  0.00     0.031 A 
ATOM     51  C   UNL A   1      46.589  31.636  28.028  1.00  0.00     0.031 A 
ATOM     52  C   UNL A   1      45.483  25.420  26.740  1.00  0.00     0.049 A 
ATOM     53  C   UNL A   1      47.493  30.511  27.617  1.00  0.00     0.074 A 
ATOM     54  C   UNL A   1      46.315  24.514  26.105  1.00  0.00     0.029 A 
ATOM     55  N   UNL A   1      46.217  26.579  26.921  1.00  0.00    -0.354 N 
ATOM     56  N   UNL A   1      47.187  29.260  27.386  1.00  0.00    -0.248 NA
ATOM     57  C   UNL A   1      48.912  30.839  27.409  1.00  0.00     0.031 C 
ATOM     58  C   UNL A   1      47.576  25.104  25.964  1.00  0.00     0.029 A 
ATOM     59  C   UNL A   1      47.508  26.398  26.453  1.00  0.00     0.049 A 
ATOM     60  H   UNL A   1      45.874  27.410  27.322  1.00  0.00     0.167 HD
ATOM     61  C   UNL A   1      48.362  28.663  26.943  1.00  0.00     0.074 A 
ATOM     62  C   UNL A   1      49.393  29.679  26.980  1.00  0.00     0.031 C 
ATOM     63  C   UNL A   1      48.547  27.395  26.503  1.00  0.00     0.031 A 
BRANCH  50  64
ATOM     64  C   UNL A   1      43.503  23.874  26.999  1.00  0.00    -0.014 A 
ATOM     65  C   UNL A   1      43.321  23.017  28.100  1.00  0.00     0.010 A 
ATOM     66  C   UNL A   1      43.086  23.456  25.724  1.00  0.00     0.010 A 
ATOM     67  C   UNL A   1      42.784  21.741  27.918  1.00  0.00     0.020 A 
ATOM     68  C   UNL A   1      42.522  22.191  25.543  1.00  0.00     0.020 A 
ATOM     69  C   UNL A   1      42.396  21.333  26.638  1.00  0.00     0.054 A 
BRANCH  69  70
ATOM     70  S   UNL A   1      41.712  19.668  26.426  1.00  0.00     0.124 S 
ATOM     71  O   UNL A   1      42.365  19.232  25.194  1.00  0.00    -0.237 OA
ATOM     72  O   UNL A   1      42.147  18.985  27.642  1.00  0.00    -0.237 OA
ATOM     73  O   UNL A   1      40.274  19.894  26.322  1.00  0.00    -0.744 OA
ENDBRANCH  69  70
ENDBRANCH  50  64
BRANCH  51  74
ATOM     74  C   UNL A   1      47.174  32.964  28.353  1.00  0.00    -0.014 A 
ATOM     75  C   UNL A   1      47.646  33.275  29.637  1.00  0.00     0.010 A 
ATOM     76  C   UNL A   1      47.232  33.943  27.346  1.00  0.00     0.010 A 
ATOM     77  C   UNL A   1      48.194  34.538  29.896  1.00  0.00     0.020 A 
ATOM     78  C   UNL A   1      47.805  35.193  27.591  1.00  0.00     0.020 A 
ATOM     79  C   UNL A   1      48.279  35.484  28.869  1.00  0.00     0.054 A 
BRANCH  79  80
ATOM     80  S   UNL A   1      49.070  37.086  29.194  1.00  0.00     0.124 S 
ATOM     81  O   UNL A   1      48.891  37.224  30.635  1.00  0.00    -0.237 OA
ATOM     82  O   UNL A   1      50.442  36.865  28.744  1.00  0.00    -0.237 OA
ATOM     83  O   UNL A   1      48.296  38.014  28.372  1.00  0.00    -0.744 OA
ENDBRANCH  79  80
ENDBRANCH  51  74
BRANCH  63  84
ATOM     84  C   UNL A   1      49.901  27.030  25.962  1.00  0.00    -0.014 A 
ATOM     85  C   UNL A   1      50.291  27.370  24.655  1.00  0.00     0.010 A 
ATOM     86  C   UNL A   1      50.829  26.397  26.812  1.00  0.00     0.010 A 
ATOM     87  C   UNL A   1      51.583  27.077  24.208  1.00  0.00     0.020 A 
ATOM     88  C   UNL A   1      52.127  26.125  26.377  1.00  0.00     0.020 A 
ATOM     89  C   UNL A   1      52.495  26.462  25.074  1.00  0.00     0.054 A 
BRANCH  89  90
ATOM     90  S   UNL A   1      54.189  26.165  24.496  1.00  0.00     0.124 S 
ATOM     91  O   UNL A   1      54.414  24.784  24.913  1.00  0.00    -0.237 OA
ATOM     92  O   UNL A   1      54.078  26.378  23.055  1.00  0.00    -0.237 OA
ATOM     93  O   UNL A   1      54.979  27.167  25.208  1.00  0.00    -0.744 OA
ENDBRANCH  89  90
ENDBRANCH  63  84
ENDBRANCH  37  38
ENDBRANCH  30  32
ENDBRANCH  29  30
ENDBRANCH  28  29
ENDBRANCH   1  28
TORSDOF 18
ENDMDL
