MODEL 1
REMARK VINA RESULT:     -10.7      0.000      0.000
REMARK SMILES N#C/C(=C/c1cc(Br)ccc1OCC(=O)OCCOC(=O)c1ccc(-c2c3nc(c(-c4ccc(S(=O)(=O)[O-])cc4)c4ccc([nH]4)c(-c4ccc(S(=O)(=O)[O-])cc4)c4nc(c(-c5ccc(S(=O)(=O)[O-])cc5)c5ccc2[nH]5)C=C4)C=C3)cc1)c1ccc(F)cc1
REMARK SMILES IDX 17 1 16 2 14 3 15 4 13 5 12 6 11 7 5 8 6 9 7 10 10 11 8 12
REMARK SMILES IDX 9 13 4 14 3 15 2 16 1 17 82 18 83 19 88 20 84 21 87 22 85 23
REMARK SMILES IDX 86 24 18 25 19 26 20 27 21 28 22 29 23 30 81 31 24 32 80 33
REMARK SMILES IDX 25 34 26 35 27 36 74 37 28 38 79 39 73 40 75 41 29 42 78 43
REMARK SMILES IDX 72 44 71 45 30 47 60 48 41 49 59 50 42 51 45 52 58 53 76 54
REMARK SMILES IDX 43 55 44 56 57 58 77 59 46 60 31 61 32 62 40 63 33 64 39 65
REMARK SMILES IDX 34 66 35 67 36 68 37 69 38 70 61 71 62 72 70 73 63 74 69 75
REMARK SMILES IDX 64 76 65 77 66 78 67 79 68 80 47 81 48 82 56 83 49 84 55 85
REMARK SMILES IDX 50 86 51 87 52 88 53 89 54 90
REMARK H PARENT 75 46 45 57
REMARK Flexibility Score: inf
ROOT
ATOM      1  C   UNL A   1      37.372  21.522  24.749  1.00  0.00     0.274 C 
ENDROOT
BRANCH   1   2
ATOM      2  O   UNL A   1      35.981  21.776  24.473  1.00  0.00    -0.460 OA
BRANCH   2   3
ATOM      3  C   UNL A   1      35.766  22.952  23.837  1.00  0.00     0.344 C 
ATOM      4  O   UNL A   1      35.906  23.117  22.630  1.00  0.00    -0.248 OA
BRANCH   3   5
ATOM      5  C   UNL A   1      35.282  24.068  24.754  1.00  0.00     0.352 C 
BRANCH   5   6
ATOM      6  O   UNL A   1      34.098  24.787  24.546  1.00  0.00    -0.481 OA
BRANCH   6   7
ATOM      7  C   UNL A   1      32.884  24.474  25.078  1.00  0.00     0.127 A 
ATOM      8  C   UNL A   1      31.573  24.871  24.742  1.00  0.00     0.019 A 
ATOM      9  C   UNL A   1      30.527  24.151  25.372  1.00  0.00     0.027 A 
ATOM     10  C   UNL A   1      30.747  23.267  26.433  1.00  0.00     0.018 A 
ATOM     11  C   UNL A   1      33.087  23.567  26.150  1.00  0.00     0.048 A 
ATOM     12  Br  UNL A   1      29.282  22.479  27.328  1.00  0.00    -0.051 Br
ATOM     13  C   UNL A   1      32.033  22.994  26.852  1.00  0.00     0.019 A 
BRANCH   8  14
ATOM     14  C   UNL A   1      31.165  25.981  23.809  1.00  0.00     0.032 C 
ATOM     15  C   UNL A   1      31.406  27.325  23.902  1.00  0.00     0.060 C 
BRANCH  15  16
ATOM     16  C   UNL A   1      30.795  28.222  22.838  1.00  0.00     0.100 C 
ATOM     17  N   UNL A   1      30.287  28.967  21.956  1.00  0.00    -0.192 NA
ENDBRANCH  15  16
BRANCH  15  18
ATOM     18  C   UNL A   1      32.190  27.840  25.043  1.00  0.00    -0.008 A 
ATOM     19  C   UNL A   1      31.522  28.214  26.233  1.00  0.00     0.012 A 
ATOM     20  C   UNL A   1      33.549  28.161  24.899  1.00  0.00     0.012 A 
ATOM     21  C   UNL A   1      32.182  28.934  27.229  1.00  0.00     0.040 A 
ATOM     22  C   UNL A   1      34.206  28.884  25.903  1.00  0.00     0.040 A 
ATOM     23  C   UNL A   1      33.515  29.274  27.046  1.00  0.00     0.123 A 
ATOM     24  F   UNL A   1      34.140  29.998  27.982  1.00  0.00    -0.207 F 
ENDBRANCH  15  18
ENDBRANCH   8  14
ENDBRANCH   6   7
ENDBRANCH   5   6
ENDBRANCH   3   5
ENDBRANCH   2   3
ENDBRANCH   1   2
BRANCH   1  25
ATOM     25  C   UNL A   1      37.939  22.449  25.889  1.00  0.00     0.275 C 
BRANCH  25  26
ATOM     26  O   UNL A   1      39.433  22.330  26.286  1.00  0.00    -0.458 OA
BRANCH  26  27
ATOM     27  C   UNL A   1      40.014  23.359  27.078  1.00  0.00     0.338 C 
ATOM     28  O   UNL A   1      40.895  22.991  27.868  1.00  0.00    -0.246 OA
BRANCH  27  29
ATOM     29  C   UNL A   1      39.680  25.099  26.950  1.00  0.00     0.060 A 
ATOM     30  C   UNL A   1      40.748  26.024  26.423  1.00  0.00     0.016 A 
ATOM     31  C   UNL A   1      39.047  25.648  28.279  1.00  0.00     0.016 A 
ATOM     32  C   UNL A   1      41.375  27.198  27.380  1.00  0.00     0.010 A 
ATOM     33  C   UNL A   1      39.688  26.784  29.259  1.00  0.00     0.010 A 
ATOM     34  C   UNL A   1      40.952  27.466  28.929  1.00  0.00    -0.014 A 
BRANCH  34  35
ATOM     35  C   UNL A   1      42.127  28.050  30.081  1.00  0.00     0.031 A 
ATOM     36  C   UNL A   1      42.796  27.672  31.625  1.00  0.00     0.074 A 
ATOM     37  C   UNL A   1      42.038  29.395  29.955  1.00  0.00     0.049 A 
ATOM     38  N   UNL A   1      42.650  28.268  32.824  1.00  0.00    -0.248 NA
ATOM     39  C   UNL A   1      43.965  26.747  31.735  1.00  0.00     0.031 C 
ATOM     40  C   UNL A   1      41.505  29.961  28.720  1.00  0.00     0.029 A 
ATOM     41  N   UNL A   1      41.452  30.152  30.951  1.00  0.00    -0.354 N 
ATOM     42  C   UNL A   1      43.588  27.715  33.786  1.00  0.00     0.074 A 
ATOM     43  C   UNL A   1      44.336  26.740  33.030  1.00  0.00     0.031 C 
ATOM     44  C   UNL A   1      40.303  30.467  29.024  1.00  0.00     0.029 A 
ATOM     45  C   UNL A   1      40.276  30.670  30.457  1.00  0.00     0.049 A 
ATOM     46  H   UNL A   1      41.813  30.297  31.855  1.00  0.00     0.167 HD
ATOM     47  C   UNL A   1      43.855  28.050  35.112  1.00  0.00     0.031 A 
ATOM     48  C   UNL A   1      39.253  31.316  31.052  1.00  0.00     0.031 A 
ATOM     49  C   UNL A   1      43.263  29.240  35.717  1.00  0.00     0.049 A 
ATOM     50  C   UNL A   1      39.540  31.791  32.410  1.00  0.00     0.074 A 
ATOM     51  C   UNL A   1      43.521  29.854  36.941  1.00  0.00     0.029 A 
ATOM     52  N   UNL A   1      42.324  30.030  35.080  1.00  0.00    -0.354 N 
ATOM     53  N   UNL A   1      40.349  31.277  33.301  1.00  0.00    -0.248 NA
ATOM     54  C   UNL A   1      38.913  33.057  32.772  1.00  0.00     0.031 C 
ATOM     55  C   UNL A   1      42.710  30.994  37.044  1.00  0.00     0.029 A 
ATOM     56  C   UNL A   1      41.987  31.112  35.871  1.00  0.00     0.049 A 
ATOM     57  H   UNL A   1      41.947  29.847  34.188  1.00  0.00     0.167 HD
ATOM     58  C   UNL A   1      40.372  32.195  34.329  1.00  0.00     0.074 A 
ATOM     59  C   UNL A   1      39.497  33.287  33.941  1.00  0.00     0.031 C 
ATOM     60  C   UNL A   1      41.070  32.147  35.488  1.00  0.00     0.031 A 
BRANCH  47  61
ATOM     61  C   UNL A   1      44.824  27.276  36.100  1.00  0.00    -0.014 A 
ATOM     62  C   UNL A   1      46.216  27.490  36.178  1.00  0.00     0.010 A 
ATOM     63  C   UNL A   1      44.269  26.514  37.174  1.00  0.00     0.010 A 
ATOM     64  C   UNL A   1      47.011  26.935  37.224  1.00  0.00     0.020 A 
ATOM     65  C   UNL A   1      45.048  25.979  38.234  1.00  0.00     0.020 A 
ATOM     66  C   UNL A   1      46.426  26.175  38.242  1.00  0.00     0.054 A 
BRANCH  66  67
ATOM     67  S   UNL A   1      47.465  25.508  39.597  1.00  0.00     0.124 S 
ATOM     68  O   UNL A   1      48.808  25.604  39.033  1.00  0.00    -0.237 OA
ATOM     69  O   UNL A   1      47.190  26.421  40.705  1.00  0.00    -0.237 OA
ATOM     70  O   UNL A   1      46.971  24.146  39.787  1.00  0.00    -0.744 OA
ENDBRANCH  66  67
ENDBRANCH  47  61
BRANCH  48  71
ATOM     71  C   UNL A   1      38.204  31.816  30.142  1.00  0.00    -0.014 A 
ATOM     72  C   UNL A   1      36.925  31.226  30.214  1.00  0.00     0.010 A 
ATOM     73  C   UNL A   1      38.360  33.077  29.539  1.00  0.00     0.010 A 
ATOM     74  C   UNL A   1      35.817  31.890  29.695  1.00  0.00     0.020 A 
ATOM     75  C   UNL A   1      37.248  33.738  29.011  1.00  0.00     0.020 A 
ATOM     76  C   UNL A   1      35.988  33.137  29.088  1.00  0.00     0.054 A 
BRANCH  76  77
ATOM     77  S   UNL A   1      34.519  33.982  28.449  1.00  0.00     0.124 S 
ATOM     78  O   UNL A   1      34.249  34.946  29.513  1.00  0.00    -0.237 OA
ATOM     79  O   UNL A   1      34.998  34.548  27.191  1.00  0.00    -0.237 OA
ATOM     80  O   UNL A   1      33.536  32.910  28.310  1.00  0.00    -0.744 OA
ENDBRANCH  76  77
ENDBRANCH  48  71
BRANCH  60  81
ATOM     81  C   UNL A   1      40.836  33.288  36.417  1.00  0.00    -0.014 A 
ATOM     82  C   UNL A   1      41.690  34.403  36.372  1.00  0.00     0.010 A 
ATOM     83  C   UNL A   1      39.800  33.231  37.362  1.00  0.00     0.010 A 
ATOM     84  C   UNL A   1      41.540  35.432  37.294  1.00  0.00     0.020 A 
ATOM     85  C   UNL A   1      39.629  34.275  38.268  1.00  0.00     0.020 A 
ATOM     86  C   UNL A   1      40.511  35.360  38.236  1.00  0.00     0.054 A 
BRANCH  86  87
ATOM     87  S   UNL A   1      40.322  36.731  39.403  1.00  0.00     0.124 S 
ATOM     88  O   UNL A   1      41.574  37.460  39.216  1.00  0.00    -0.237 OA
ATOM     89  O   UNL A   1      39.122  37.404  38.911  1.00  0.00    -0.237 OA
ATOM     90  O   UNL A   1      40.174  36.066  40.695  1.00  0.00    -0.744 OA
ENDBRANCH  86  87
ENDBRANCH  60  81
ENDBRANCH  34  35
ENDBRANCH  27  29
ENDBRANCH  26  27
ENDBRANCH  25  26
ENDBRANCH   1  25
TORSDOF 19
ENDMDL
MODEL 2
REMARK VINA RESULT:     -10.4      4.847      9.843
REMARK SMILES N#C/C(=C/c1cc(Br)ccc1OCC(=O)OCCOC(=O)c1ccc(-c2c3nc(c(-c4ccc(S(=O)(=O)[O-])cc4)c4ccc([nH]4)c(-c4ccc(S(=O)(=O)[O-])cc4)c4nc(c(-c5ccc(S(=O)(=O)[O-])cc5)c5ccc2[nH]5)C=C4)C=C3)cc1)c1ccc(F)cc1
REMARK SMILES IDX 17 1 16 2 14 3 15 4 13 5 12 6 11 7 5 8 6 9 7 10 10 11 8 12
REMARK SMILES IDX 9 13 4 14 3 15 2 16 1 17 82 18 83 19 88 20 84 21 87 22 85 23
REMARK SMILES IDX 86 24 18 25 19 26 20 27 21 28 22 29 23 30 81 31 24 32 80 33
REMARK SMILES IDX 25 34 26 35 27 36 74 37 28 38 79 39 73 40 75 41 29 42 78 43
REMARK SMILES IDX 72 44 71 45 30 47 60 48 41 49 59 50 42 51 45 52 58 53 76 54
REMARK SMILES IDX 43 55 44 56 57 58 77 59 46 60 31 61 32 62 40 63 33 64 39 65
REMARK SMILES IDX 34 66 35 67 36 68 37 69 38 70 61 71 62 72 70 73 63 74 69 75
REMARK SMILES IDX 64 76 65 77 66 78 67 79 68 80 47 81 48 82 56 83 49 84 55 85
REMARK SMILES IDX 50 86 51 87 52 88 53 89 54 90
REMARK H PARENT 75 46 45 57
REMARK Flexibility Score: inf
ROOT
ATOM      1  C   UNL A   1      33.071  23.658  26.617  1.00  0.00     0.274 C 
ENDROOT
BRANCH   1   2
ATOM      2  O   UNL A   1      31.669  23.841  26.341  1.00  0.00    -0.460 OA
BRANCH   2   3
ATOM      3  C   UNL A   1      31.252  25.119  26.503  1.00  0.00     0.344 C 
ATOM      4  O   UNL A   1      31.781  25.925  27.260  1.00  0.00    -0.248 OA
BRANCH   3   5
ATOM      5  C   UNL A   1      30.074  25.499  25.614  1.00  0.00     0.352 C 
BRANCH   5   6
ATOM      6  O   UNL A   1      30.212  26.099  24.355  1.00  0.00    -0.481 OA
BRANCH   6   7
ATOM      7  C   UNL A   1      29.887  27.388  24.059  1.00  0.00     0.127 A 
ATOM      8  C   UNL A   1      30.569  28.606  24.262  1.00  0.00     0.019 A 
ATOM      9  C   UNL A   1      30.025  29.738  23.605  1.00  0.00     0.027 A 
ATOM     10  C   UNL A   1      28.770  29.725  22.987  1.00  0.00     0.018 A 
ATOM     11  C   UNL A   1      28.620  27.394  23.421  1.00  0.00     0.048 A 
ATOM     12  Br  UNL A   1      28.046  31.322  22.284  1.00  0.00    -0.051 Br
ATOM     13  C   UNL A   1      28.042  28.555  22.921  1.00  0.00     0.019 A 
BRANCH   8  14
ATOM     14  C   UNL A   1      31.792  28.838  25.110  1.00  0.00     0.032 C 
ATOM     15  C   UNL A   1      33.039  28.283  25.005  1.00  0.00     0.060 C 
BRANCH  15  16
ATOM     16  C   UNL A   1      34.063  28.653  26.066  1.00  0.00     0.100 C 
ATOM     17  N   UNL A   1      34.912  28.961  26.946  1.00  0.00    -0.192 NA
ENDBRANCH  15  16
BRANCH  15  18
ATOM     18  C   UNL A   1      33.313  27.323  23.916  1.00  0.00    -0.008 A 
ATOM     19  C   UNL A   1      32.998  27.677  22.583  1.00  0.00     0.012 A 
ATOM     20  C   UNL A   1      33.681  25.999  24.197  1.00  0.00     0.012 A 
ATOM     21  C   UNL A   1      33.001  26.719  21.569  1.00  0.00     0.040 A 
ATOM     22  C   UNL A   1      33.683  25.042  23.174  1.00  0.00     0.040 A 
ATOM     23  C   UNL A   1      33.330  25.407  21.878  1.00  0.00     0.123 A 
ATOM     24  F   UNL A   1      33.296  24.479  20.915  1.00  0.00    -0.207 F 
ENDBRANCH  15  18
ENDBRANCH   8  14
ENDBRANCH   6   7
ENDBRANCH   5   6
ENDBRANCH   3   5
ENDBRANCH   2   3
ENDBRANCH   1   2
BRANCH   1  25
ATOM     25  C   UNL A   1      33.502  22.144  26.569  1.00  0.00     0.275 C 
BRANCH  25  26
ATOM     26  O   UNL A   1      34.997  21.778  26.756  1.00  0.00    -0.458 OA
BRANCH  26  27
ATOM     27  C   UNL A   1      35.704  21.207  25.662  1.00  0.00     0.338 C 
ATOM     28  O   UNL A   1      35.044  20.452  24.936  1.00  0.00    -0.246 OA
BRANCH  27  29
ATOM     29  C   UNL A   1      37.376  21.572  25.187  1.00  0.00     0.060 A 
ATOM     30  C   UNL A   1      38.517  21.059  26.029  1.00  0.00     0.016 A 
ATOM     31  C   UNL A   1      37.546  23.099  24.859  1.00  0.00     0.016 A 
ATOM     32  C   UNL A   1      39.527  22.105  26.786  1.00  0.00     0.010 A 
ATOM     33  C   UNL A   1      38.516  24.155  25.637  1.00  0.00     0.010 A 
ATOM     34  C   UNL A   1      39.403  23.727  26.733  1.00  0.00    -0.014 A 
BRANCH  34  35
ATOM     35  C   UNL A   1      39.867  24.697  28.109  1.00  0.00     0.031 A 
ATOM     36  C   UNL A   1      39.767  26.312  28.707  1.00  0.00     0.074 A 
ATOM     37  C   UNL A   1      41.054  24.163  28.475  1.00  0.00     0.049 A 
ATOM     38  N   UNL A   1      40.709  27.263  28.850  1.00  0.00    -0.248 NA
ATOM     39  C   UNL A   1      38.576  26.753  29.495  1.00  0.00     0.031 C 
ATOM     40  C   UNL A   1      41.367  22.790  28.088  1.00  0.00     0.029 A 
ATOM     41  N   UNL A   1      42.230  24.851  28.248  1.00  0.00    -0.354 N 
ATOM     42  C   UNL A   1      40.187  28.390  29.604  1.00  0.00     0.074 A 
ATOM     43  C   UNL A   1      38.834  28.004  29.924  1.00  0.00     0.031 C 
ATOM     44  C   UNL A   1      42.322  22.870  27.153  1.00  0.00     0.029 A 
ATOM     45  C   UNL A   1      42.945  24.169  27.289  1.00  0.00     0.049 A 
ATOM     46  H   UNL A   1      42.509  25.683  28.694  1.00  0.00     0.167 HD
ATOM     47  C   UNL A   1      40.794  29.561  30.054  1.00  0.00     0.031 A 
ATOM     48  C   UNL A   1      44.051  24.491  26.587  1.00  0.00     0.031 A 
ATOM     49  C   UNL A   1      42.238  29.745  29.943  1.00  0.00     0.049 A 
ATOM     50  C   UNL A   1      44.786  25.651  27.106  1.00  0.00     0.074 A 
ATOM     51  C   UNL A   1      43.065  30.733  30.472  1.00  0.00     0.029 A 
ATOM     52  N   UNL A   1      43.071  28.855  29.290  1.00  0.00    -0.354 N 
ATOM     53  N   UNL A   1      44.320  26.692  27.748  1.00  0.00    -0.248 NA
ATOM     54  C   UNL A   1      46.236  25.580  26.973  1.00  0.00     0.031 C 
ATOM     55  C   UNL A   1      44.389  30.446  30.107  1.00  0.00     0.029 A 
ATOM     56  C   UNL A   1      44.388  29.261  29.394  1.00  0.00     0.049 A 
ATOM     57  H   UNL A   1      42.768  28.046  28.817  1.00  0.00     0.167 HD
ATOM     58  C   UNL A   1      45.439  27.390  28.148  1.00  0.00     0.074 A 
ATOM     59  C   UNL A   1      46.594  26.648  27.674  1.00  0.00     0.031 C 
ATOM     60  C   UNL A   1      45.507  28.538  28.861  1.00  0.00     0.031 A 
BRANCH  47  61
ATOM     61  C   UNL A   1      40.071  30.782  30.763  1.00  0.00    -0.014 A 
ATOM     62  C   UNL A   1      39.393  31.811  30.077  1.00  0.00     0.010 A 
ATOM     63  C   UNL A   1      39.832  30.734  32.170  1.00  0.00     0.010 A 
ATOM     64  C   UNL A   1      38.576  32.763  30.755  1.00  0.00     0.020 A 
ATOM     65  C   UNL A   1      39.000  31.661  32.851  1.00  0.00     0.020 A 
ATOM     66  C   UNL A   1      38.389  32.690  32.140  1.00  0.00     0.054 A 
BRANCH  66  67
ATOM     67  S   UNL A   1      37.301  33.902  32.980  1.00  0.00     0.124 S 
ATOM     68  O   UNL A   1      36.490  34.408  31.876  1.00  0.00    -0.237 OA
ATOM     69  O   UNL A   1      36.583  33.083  33.954  1.00  0.00    -0.237 OA
ATOM     70  O   UNL A   1      38.229  34.872  33.559  1.00  0.00    -0.744 OA
ENDBRANCH  66  67
ENDBRANCH  47  61
BRANCH  48  71
ATOM     71  C   UNL A   1      44.582  23.425  25.716  1.00  0.00    -0.014 A 
ATOM     72  C   UNL A   1      45.423  22.451  26.294  1.00  0.00     0.010 A 
ATOM     73  C   UNL A   1      43.953  23.165  24.485  1.00  0.00     0.010 A 
ATOM     74  C   UNL A   1      45.627  21.232  25.654  1.00  0.00     0.020 A 
ATOM     75  C   UNL A   1      44.166  21.944  23.839  1.00  0.00     0.020 A 
ATOM     76  C   UNL A   1      45.006  20.992  24.425  1.00  0.00     0.054 A 
BRANCH  76  77
ATOM     77  S   UNL A   1      45.274  19.384  23.636  1.00  0.00     0.124 S 
ATOM     78  O   UNL A   1      46.729  19.353  23.516  1.00  0.00    -0.237 OA
ATOM     79  O   UNL A   1      44.700  18.454  24.604  1.00  0.00    -0.237 OA
ATOM     80  O   UNL A   1      44.543  19.492  22.375  1.00  0.00    -0.744 OA
ENDBRANCH  76  77
ENDBRANCH  48  71
BRANCH  60  81
ATOM     81  C   UNL A   1      46.883  29.063  29.090  1.00  0.00    -0.014 A 
ATOM     82  C   UNL A   1      47.450  29.945  28.156  1.00  0.00     0.010 A 
ATOM     83  C   UNL A   1      47.624  28.643  30.206  1.00  0.00     0.010 A 
ATOM     84  C   UNL A   1      48.765  30.369  28.309  1.00  0.00     0.020 A 
ATOM     85  C   UNL A   1      48.933  29.089  30.376  1.00  0.00     0.020 A 
ATOM     86  C   UNL A   1      49.497  29.937  29.418  1.00  0.00     0.054 A 
BRANCH  86  87
ATOM     87  S   UNL A   1      51.196  30.532  29.605  1.00  0.00     0.124 S 
ATOM     88  O   UNL A   1      51.971  29.323  29.334  1.00  0.00    -0.237 OA
ATOM     89  O   UNL A   1      51.282  31.575  28.586  1.00  0.00    -0.237 OA
ATOM     90  O   UNL A   1      51.245  31.009  30.984  1.00  0.00    -0.744 OA
ENDBRANCH  86  87
ENDBRANCH  60  81
ENDBRANCH  34  35
ENDBRANCH  27  29
ENDBRANCH  26  27
ENDBRANCH  25  26
ENDBRANCH   1  25
TORSDOF 19
ENDMDL
MODEL 3
REMARK VINA RESULT:     -10.3      5.032      8.852
REMARK SMILES N#C/C(=C/c1cc(Br)ccc1OCC(=O)OCCOC(=O)c1ccc(-c2c3nc(c(-c4ccc(S(=O)(=O)[O-])cc4)c4ccc([nH]4)c(-c4ccc(S(=O)(=O)[O-])cc4)c4nc(c(-c5ccc(S(=O)(=O)[O-])cc5)c5ccc2[nH]5)C=C4)C=C3)cc1)c1ccc(F)cc1
REMARK SMILES IDX 17 1 16 2 14 3 15 4 13 5 12 6 11 7 5 8 6 9 7 10 10 11 8 12
REMARK SMILES IDX 9 13 4 14 3 15 2 16 1 17 82 18 83 19 88 20 84 21 87 22 85 23
REMARK SMILES IDX 86 24 18 25 19 26 20 27 21 28 22 29 23 30 81 31 24 32 80 33
REMARK SMILES IDX 25 34 26 35 27 36 74 37 28 38 79 39 73 40 75 41 29 42 78 43
REMARK SMILES IDX 72 44 71 45 30 47 60 48 41 49 59 50 42 51 45 52 58 53 76 54
REMARK SMILES IDX 43 55 44 56 57 58 77 59 46 60 31 61 32 62 40 63 33 64 39 65
REMARK SMILES IDX 34 66 35 67 36 68 37 69 38 70 61 71 62 72 70 73 63 74 69 75
REMARK SMILES IDX 64 76 65 77 66 78 67 79 68 80 47 81 48 82 56 83 49 84 55 85
REMARK SMILES IDX 50 86 51 87 52 88 53 89 54 90
REMARK H PARENT 75 46 45 57
REMARK Flexibility Score: inf
ROOT
ATOM      1  C   UNL A   1      37.682  21.397  25.216  1.00  0.00     0.274 C 
ENDROOT
BRANCH   1   2
ATOM      2  O   UNL A   1      37.665  22.720  24.647  1.00  0.00    -0.460 OA
BRANCH   2   3
ATOM      3  C   UNL A   1      37.023  23.629  25.419  1.00  0.00     0.344 C 
ATOM      4  O   UNL A   1      37.555  24.262  26.324  1.00  0.00    -0.248 OA
BRANCH   3   5
ATOM      5  C   UNL A   1      35.563  23.841  25.035  1.00  0.00     0.352 C 
BRANCH   5   6
ATOM      6  O   UNL A   1      34.726  24.780  25.652  1.00  0.00    -0.481 OA
BRANCH   6   7
ATOM      7  C   UNL A   1      33.455  24.539  26.080  1.00  0.00     0.127 A 
ATOM      8  C   UNL A   1      32.368  25.398  26.343  1.00  0.00     0.019 A 
ATOM      9  C   UNL A   1      31.115  24.766  26.547  1.00  0.00     0.027 A 
ATOM     10  C   UNL A   1      30.982  23.385  26.717  1.00  0.00     0.018 A 
ATOM     11  C   UNL A   1      33.298  23.140  26.246  1.00  0.00     0.048 A 
ATOM     12  Br  UNL A   1      29.300  22.643  27.154  1.00  0.00    -0.051 Br
ATOM     13  C   UNL A   1      32.084  22.562  26.600  1.00  0.00     0.019 A 
BRANCH   8  14
ATOM     14  C   UNL A   1      32.394  26.900  26.450  1.00  0.00     0.032 C 
ATOM     15  C   UNL A   1      32.448  27.840  25.456  1.00  0.00     0.060 C 
BRANCH  15  16
ATOM     16  C   UNL A   1      32.545  29.298  25.875  1.00  0.00     0.100 C 
ATOM     17  N   UNL A   1      32.626  30.508  26.222  1.00  0.00    -0.192 NA
ENDBRANCH  15  16
BRANCH  15  18
ATOM     18  C   UNL A   1      32.465  27.400  24.046  1.00  0.00    -0.008 A 
ATOM     19  C   UNL A   1      31.268  26.948  23.445  1.00  0.00     0.012 A 
ATOM     20  C   UNL A   1      33.677  27.224  23.360  1.00  0.00     0.012 A 
ATOM     21  C   UNL A   1      31.288  26.292  22.214  1.00  0.00     0.040 A 
ATOM     22  C   UNL A   1      33.691  26.566  22.124  1.00  0.00     0.040 A 
ATOM     23  C   UNL A   1      32.503  26.095  21.573  1.00  0.00     0.123 A 
ATOM     24  F   UNL A   1      32.530  25.431  20.411  1.00  0.00    -0.207 F 
ENDBRANCH  15  18
ENDBRANCH   8  14
ENDBRANCH   6   7
ENDBRANCH   5   6
ENDBRANCH   3   5
ENDBRANCH   2   3
ENDBRANCH   1   2
BRANCH   1  25
ATOM     25  C   UNL A   1      39.070  21.039  25.867  1.00  0.00     0.275 C 
BRANCH  25  26
ATOM     26  O   UNL A   1      40.234  22.060  25.776  1.00  0.00    -0.458 OA
BRANCH  26  27
ATOM     27  C   UNL A   1      40.708  22.665  26.972  1.00  0.00     0.338 C 
ATOM     28  O   UNL A   1      39.918  22.650  27.927  1.00  0.00    -0.246 OA
BRANCH  27  29
ATOM     29  C   UNL A   1      42.338  23.314  27.247  1.00  0.00     0.060 A 
ATOM     30  C   UNL A   1      42.927  23.283  28.634  1.00  0.00     0.016 A 
ATOM     31  C   UNL A   1      42.495  24.732  26.587  1.00  0.00     0.016 A 
ATOM     32  C   UNL A   1      43.289  24.678  29.414  1.00  0.00     0.010 A 
ATOM     33  C   UNL A   1      42.811  26.131  27.364  1.00  0.00     0.010 A 
ATOM     34  C   UNL A   1      43.045  26.173  28.818  1.00  0.00    -0.014 A 
BRANCH  34  35
ATOM     35  C   UNL A   1      42.632  27.495  29.880  1.00  0.00     0.031 A 
ATOM     36  C   UNL A   1      41.347  28.597  30.215  1.00  0.00     0.074 A 
ATOM     37  C   UNL A   1      43.814  28.128  30.058  1.00  0.00     0.049 A 
ATOM     38  N   UNL A   1      41.235  29.920  29.990  1.00  0.00    -0.248 NA
ATOM     39  C   UNL A   1      40.256  28.219  31.164  1.00  0.00     0.031 C 
ATOM     40  C   UNL A   1      45.056  27.391  29.841  1.00  0.00     0.029 A 
ATOM     41  N   UNL A   1      44.046  29.356  29.469  1.00  0.00    -0.354 N 
ATOM     42  C   UNL A   1      40.052  30.450  30.647  1.00  0.00     0.074 A 
ATOM     43  C   UNL A   1      39.478  29.308  31.316  1.00  0.00     0.031 C 
ATOM     44  C   UNL A   1      45.594  27.883  28.718  1.00  0.00     0.029 A 
ATOM     45  C   UNL A   1      45.010  29.189  28.500  1.00  0.00     0.049 A 
ATOM     46  H   UNL A   1      43.600  30.202  29.701  1.00  0.00     0.167 HD
ATOM     47  C   UNL A   1      39.560  31.750  30.756  1.00  0.00     0.031 A 
ATOM     48  C   UNL A   1      45.466  30.006  27.529  1.00  0.00     0.031 A 
ATOM     49  C   UNL A   1      40.352  32.889  30.302  1.00  0.00     0.049 A 
ATOM     50  C   UNL A   1      45.068  31.411  27.678  1.00  0.00     0.074 A 
ATOM     51  C   UNL A   1      40.144  34.257  30.468  1.00  0.00     0.029 A 
ATOM     52  N   UNL A   1      41.557  32.762  29.635  1.00  0.00    -0.354 N 
ATOM     53  N   UNL A   1      43.984  31.898  28.228  1.00  0.00    -0.248 NA
ATOM     54  C   UNL A   1      46.057  32.388  27.242  1.00  0.00     0.031 C 
ATOM     55  C   UNL A   1      41.212  34.944  29.872  1.00  0.00     0.029 A 
ATOM     56  C   UNL A   1      42.101  34.006  29.379  1.00  0.00     0.049 A 
ATOM     57  H   UNL A   1      41.969  31.904  29.378  1.00  0.00     0.167 HD
ATOM     58  C   UNL A   1      44.183  33.262  28.253  1.00  0.00     0.074 A 
ATOM     59  C   UNL A   1      45.487  33.510  27.664  1.00  0.00     0.031 C 
ATOM     60  C   UNL A   1      43.365  34.225  28.738  1.00  0.00     0.031 A 
BRANCH  47  61
ATOM     61  C   UNL A   1      38.176  32.180  31.398  1.00  0.00    -0.014 A 
ATOM     62  C   UNL A   1      38.038  32.744  32.684  1.00  0.00     0.010 A 
ATOM     63  C   UNL A   1      37.017  32.275  30.569  1.00  0.00     0.010 A 
ATOM     64  C   UNL A   1      36.811  33.316  33.132  1.00  0.00     0.020 A 
ATOM     65  C   UNL A   1      35.798  32.865  30.997  1.00  0.00     0.020 A 
ATOM     66  C   UNL A   1      35.693  33.366  32.292  1.00  0.00     0.054 A 
BRANCH  66  67
ATOM     67  S   UNL A   1      34.140  34.142  32.880  1.00  0.00     0.124 S 
ATOM     68  O   UNL A   1      33.343  32.984  33.271  1.00  0.00    -0.237 OA
ATOM     69  O   UNL A   1      34.591  34.988  33.983  1.00  0.00    -0.237 OA
ATOM     70  O   UNL A   1      33.643  34.869  31.713  1.00  0.00    -0.744 OA
ENDBRANCH  66  67
ENDBRANCH  47  61
BRANCH  48  71
ATOM     71  C   UNL A   1      46.605  29.488  26.748  1.00  0.00    -0.014 A 
ATOM     72  C   UNL A   1      47.867  29.423  27.375  1.00  0.00     0.010 A 
ATOM     73  C   UNL A   1      46.358  28.724  25.594  1.00  0.00     0.010 A 
ATOM     74  C   UNL A   1      48.865  28.601  26.860  1.00  0.00     0.020 A 
ATOM     75  C   UNL A   1      47.364  27.905  25.072  1.00  0.00     0.020 A 
ATOM     76  C   UNL A   1      48.610  27.856  25.705  1.00  0.00     0.054 A 
BRANCH  76  77
ATOM     77  S   UNL A   1      49.923  26.777  25.080  1.00  0.00     0.124 S 
ATOM     78  O   UNL A   1      49.377  26.366  23.789  1.00  0.00    -0.237 OA
ATOM     79  O   UNL A   1      51.073  27.675  25.022  1.00  0.00    -0.237 OA
ATOM     80  O   UNL A   1      50.013  25.722  26.087  1.00  0.00    -0.744 OA
ENDBRANCH  76  77
ENDBRANCH  48  71
BRANCH  60  81
ATOM     81  C   UNL A   1      43.860  35.620  28.569  1.00  0.00    -0.014 A 
ATOM     82  C   UNL A   1      43.595  36.308  27.373  1.00  0.00     0.010 A 
ATOM     83  C   UNL A   1      44.624  36.227  29.578  1.00  0.00     0.010 A 
ATOM     84  C   UNL A   1      44.129  37.574  27.166  1.00  0.00     0.020 A 
ATOM     85  C   UNL A   1      45.135  37.509  29.385  1.00  0.00     0.020 A 
ATOM     86  C   UNL A   1      44.896  38.166  28.174  1.00  0.00     0.054 A 
BRANCH  86  87
ATOM     87  S   UNL A   1      45.550  39.828  27.886  1.00  0.00     0.124 S 
ATOM     88  O   UNL A   1      45.101  40.097  26.522  1.00  0.00    -0.237 OA
ATOM     89  O   UNL A   1      44.894  40.613  28.930  1.00  0.00    -0.237 OA
ATOM     90  O   UNL A   1      46.992  39.665  28.048  1.00  0.00    -0.744 OA
ENDBRANCH  86  87
ENDBRANCH  60  81
ENDBRANCH  34  35
ENDBRANCH  27  29
ENDBRANCH  26  27
ENDBRANCH  25  26
ENDBRANCH   1  25
TORSDOF 19
ENDMDL
