MODEL 1
REMARK VINA RESULT:     -10.7      0.000      0.000
REMARK SMILES CCc1cc(OC(F)(F)F)cc2c1O[C@H](C(F)(F)F)C(C(=O)OCCOC(=O)c1ccc(-c3c4nc(c(-c5ccc(S(=O)(=O)[O-])cc5)c5ccc([nH]5)c(-c5ccc(S(=O)(=O)[O-])cc5)c5nc(c(-c6ccc(S(=O)(=O)[O-])cc6)c6ccc3[nH]6)C=C5)C=C4)cc1)=C2
REMARK SMILES IDX 25 1 24 2 23 3 21 4 22 5 20 6 3 7 4 8 13 9 5 10 12 11 14 12
REMARK SMILES IDX 11 13 89 14 15 15 2 16 1 17 6 18 7 19 8 20 9 21 10 22 16 23
REMARK SMILES IDX 17 24 18 25 19 26 26 27 27 28 28 29 29 30 30 31 88 32 31 33
REMARK SMILES IDX 87 34 32 35 33 36 34 37 81 38 35 39 86 40 80 41 82 42 36 43
REMARK SMILES IDX 85 44 79 45 78 46 37 48 67 49 48 50 66 51 49 52 52 53 65 54
REMARK SMILES IDX 83 55 50 56 51 57 64 59 84 60 53 61 38 62 39 63 47 64 40 65
REMARK SMILES IDX 46 66 41 67 42 68 43 69 44 70 45 71 68 72 69 73 77 74 70 75
REMARK SMILES IDX 76 76 71 77 72 78 73 79 74 80 75 81 54 82 55 83 63 84 56 85
REMARK SMILES IDX 62 86 57 87 58 88 59 89 60 90 61 91
REMARK H PARENT 82 47 52 58
REMARK Flexibility Score: inf
ROOT
ATOM      1  C   UNL A   1      37.549  21.411  25.188  1.00  0.00     0.275 C 
ENDROOT
BRANCH   1   2
ATOM      2  C   UNL A   1      36.137  21.393  25.768  1.00  0.00     0.275 C 
BRANCH   2   3
ATOM      3  O   UNL A   1      35.515  22.695  25.708  1.00  0.00    -0.459 OA
BRANCH   3   4
ATOM      4  C   UNL A   1      34.450  22.779  24.874  1.00  0.00     0.338 C 
ATOM      5  O   UNL A   1      34.130  21.956  24.035  1.00  0.00    -0.246 OA
BRANCH   4   6
ATOM      6  C   UNL A   1      33.666  24.008  25.085  1.00  0.00     0.087 C 
ATOM      7  C   UNL A   1      31.321  27.377  24.415  1.00  0.00    -0.002 A 
ATOM      8  C   UNL A   1      31.749  28.604  24.938  1.00  0.00     0.054 A 
ATOM      9  C   UNL A   1      32.172  26.275  24.568  1.00  0.00     0.131 A 
ATOM     10  C   UNL A   1      32.997  28.728  25.566  1.00  0.00     0.130 A 
ATOM     11  C   UNL A   1      33.419  26.372  25.210  1.00  0.00     0.021 A 
ATOM     12  O   UNL A   1      31.737  25.080  24.050  1.00  0.00    -0.475 OA
ATOM     13  C   UNL A   1      33.827  27.608  25.702  1.00  0.00     0.058 A 
ATOM     14  C   UNL A   1      34.271  25.184  25.302  1.00  0.00     0.027 C 
ATOM     15  C   UNL A   1      32.185  23.934  24.807  1.00  0.00     0.316 C 
BRANCH   7  16
ATOM     16  C   UNL A   1      29.959  27.164  23.784  1.00  0.00     0.036 C 
ATOM     17  C   UNL A   1      29.357  28.331  23.015  1.00  0.00     0.009 C 
ENDBRANCH   7  16
BRANCH  10  18
ATOM     18  O   UNL A   1      33.521  29.872  26.100  1.00  0.00    -0.406 OA
BRANCH  18  19
ATOM     19  C   UNL A   1      32.841  30.453  27.199  1.00  0.00     0.573 C 
ATOM     20  F   UNL A   1      31.903  31.332  26.787  1.00  0.00    -0.132 F 
ATOM     21  F   UNL A   1      32.271  29.509  27.976  1.00  0.00    -0.132 F 
ATOM     22  F   UNL A   1      33.740  31.128  27.951  1.00  0.00    -0.132 F 
ENDBRANCH  18  19
ENDBRANCH  10  18
BRANCH  15  23
ATOM     23  C   UNL A   1      31.327  23.754  26.076  1.00  0.00     0.430 C 
ATOM     24  F   UNL A   1      31.988  24.072  27.213  1.00  0.00    -0.167 F 
ATOM     25  F   UNL A   1      30.219  24.531  26.024  1.00  0.00    -0.167 F 
ATOM     26  F   UNL A   1      30.913  22.475  26.213  1.00  0.00    -0.167 F 
ENDBRANCH  15  23
ENDBRANCH   4   6
ENDBRANCH   3   4
ENDBRANCH   2   3
ENDBRANCH   1   2
BRANCH   1  27
ATOM     27  O   UNL A   1      38.103  22.737  25.265  1.00  0.00    -0.458 OA
BRANCH  27  28
ATOM     28  C   UNL A   1      39.217  22.858  26.020  1.00  0.00     0.338 C 
ATOM     29  O   UNL A   1      40.113  22.032  26.141  1.00  0.00    -0.246 OA
BRANCH  28  30
ATOM     30  C   UNL A   1      39.259  24.174  26.681  1.00  0.00     0.060 A 
ATOM     31  C   UNL A   1      40.060  25.181  26.154  1.00  0.00     0.016 A 
ATOM     32  C   UNL A   1      38.678  24.341  27.936  1.00  0.00     0.016 A 
ATOM     33  C   UNL A   1      40.430  26.266  26.946  1.00  0.00     0.010 A 
ATOM     34  C   UNL A   1      38.929  25.510  28.665  1.00  0.00     0.010 A 
ATOM     35  C   UNL A   1      39.863  26.461  28.212  1.00  0.00    -0.014 A 
BRANCH  35  36
ATOM     36  C   UNL A   1      40.282  27.611  29.073  1.00  0.00     0.031 A 
ATOM     37  C   UNL A   1      41.612  27.582  29.796  1.00  0.00     0.074 A 
ATOM     38  C   UNL A   1      39.495  28.701  29.208  1.00  0.00     0.049 A 
ATOM     39  N   UNL A   1      42.061  28.375  30.739  1.00  0.00    -0.248 NA
ATOM     40  C   UNL A   1      42.551  26.509  29.429  1.00  0.00     0.031 C 
ATOM     41  C   UNL A   1      38.208  28.914  28.541  1.00  0.00     0.029 A 
ATOM     42  N   UNL A   1      39.669  29.847  29.948  1.00  0.00    -0.354 N 
ATOM     43  C   UNL A   1      43.292  27.852  31.126  1.00  0.00     0.074 A 
ATOM     44  C   UNL A   1      43.518  26.672  30.321  1.00  0.00     0.031 C 
ATOM     45  C   UNL A   1      37.742  30.133  28.851  1.00  0.00     0.029 A 
ATOM     46  C   UNL A   1      38.633  30.745  29.828  1.00  0.00     0.049 A 
ATOM     47  H   UNL A   1      40.461  30.011  30.509  1.00  0.00     0.167 HD
ATOM     48  C   UNL A   1      44.155  28.311  32.068  1.00  0.00     0.031 A 
ATOM     49  C   UNL A   1      38.388  31.908  30.462  1.00  0.00     0.031 A 
ATOM     50  C   UNL A   1      43.962  29.523  32.822  1.00  0.00     0.049 A 
ATOM     51  C   UNL A   1      39.347  32.388  31.512  1.00  0.00     0.074 A 
ATOM     52  C   UNL A   1      44.786  30.076  33.788  1.00  0.00     0.029 A 
ATOM     53  N   UNL A   1      42.884  30.383  32.680  1.00  0.00    -0.354 N 
ATOM     54  N   UNL A   1      40.465  31.837  31.921  1.00  0.00    -0.248 NA
ATOM     55  C   UNL A   1      39.004  33.642  32.197  1.00  0.00     0.031 C 
ATOM     56  C   UNL A   1      44.186  31.250  34.259  1.00  0.00     0.029 A 
ATOM     57  C   UNL A   1      43.018  31.458  33.544  1.00  0.00     0.049 A 
ATOM     58  H   UNL A   1      42.133  30.251  32.057  1.00  0.00     0.167 HD
ATOM     59  C   UNL A   1      40.969  32.690  32.896  1.00  0.00     0.074 A 
ATOM     60  C   UNL A   1      40.045  33.800  33.001  1.00  0.00     0.031 C 
ATOM     61  C   UNL A   1      42.096  32.560  33.640  1.00  0.00     0.031 A 
BRANCH  48  62
ATOM     62  C   UNL A   1      45.374  27.476  32.372  1.00  0.00    -0.014 A 
ATOM     63  C   UNL A   1      46.614  27.719  31.755  1.00  0.00     0.010 A 
ATOM     64  C   UNL A   1      45.282  26.453  33.335  1.00  0.00     0.010 A 
ATOM     65  C   UNL A   1      47.727  26.930  32.067  1.00  0.00     0.020 A 
ATOM     66  C   UNL A   1      46.399  25.681  33.672  1.00  0.00     0.020 A 
ATOM     67  C   UNL A   1      47.612  25.914  33.021  1.00  0.00     0.054 A 
BRANCH  67  68
ATOM     68  S   UNL A   1      49.076  24.919  33.423  1.00  0.00     0.124 S 
ATOM     69  O   UNL A   1      48.475  23.725  34.014  1.00  0.00    -0.237 OA
ATOM     70  O   UNL A   1      49.702  24.728  32.118  1.00  0.00    -0.237 OA
ATOM     71  O   UNL A   1      49.823  25.763  34.352  1.00  0.00    -0.744 OA
ENDBRANCH  67  68
ENDBRANCH  48  62
BRANCH  49  72
ATOM     72  C   UNL A   1      37.146  32.673  30.155  1.00  0.00    -0.014 A 
ATOM     73  C   UNL A   1      37.109  33.583  29.085  1.00  0.00     0.010 A 
ATOM     74  C   UNL A   1      35.985  32.481  30.929  1.00  0.00     0.010 A 
ATOM     75  C   UNL A   1      35.940  34.296  28.803  1.00  0.00     0.020 A 
ATOM     76  C   UNL A   1      34.806  33.166  30.629  1.00  0.00     0.020 A 
ATOM     77  C   UNL A   1      34.794  34.079  29.575  1.00  0.00     0.054 A 
BRANCH  77  78
ATOM     78  S   UNL A   1      33.269  34.970  29.155  1.00  0.00     0.124 S 
ATOM     79  O   UNL A   1      32.704  34.126  28.106  1.00  0.00    -0.237 OA
ATOM     80  O   UNL A   1      32.545  34.974  30.423  1.00  0.00    -0.237 OA
ATOM     81  O   UNL A   1      33.749  36.278  28.716  1.00  0.00    -0.744 OA
ENDBRANCH  77  78
ENDBRANCH  49  72
BRANCH  61  82
ATOM     82  C   UNL A   1      42.420  33.679  34.595  1.00  0.00    -0.014 A 
ATOM     83  C   UNL A   1      41.935  33.682  35.914  1.00  0.00     0.010 A 
ATOM     84  C   UNL A   1      43.241  34.736  34.164  1.00  0.00     0.010 A 
ATOM     85  C   UNL A   1      42.226  34.749  36.771  1.00  0.00     0.020 A 
ATOM     86  C   UNL A   1      43.558  35.788  35.025  1.00  0.00     0.020 A 
ATOM     87  C   UNL A   1      43.031  35.798  36.318  1.00  0.00     0.054 A 
BRANCH  87  88
ATOM     88  S   UNL A   1      43.406  37.165  37.449  1.00  0.00     0.124 S 
ATOM     89  O   UNL A   1      44.490  36.605  38.252  1.00  0.00    -0.237 OA
ATOM     90  O   UNL A   1      43.790  38.241  36.538  1.00  0.00    -0.237 OA
ATOM     91  O   UNL A   1      42.149  37.380  38.162  1.00  0.00    -0.744 OA
ENDBRANCH  87  88
ENDBRANCH  61  82
ENDBRANCH  35  36
ENDBRANCH  28  30
ENDBRANCH  27  28
ENDBRANCH   1  27
TORSDOF 18
ENDMDL
MODEL 2
REMARK VINA RESULT:     -10.7      2.305      2.953
REMARK SMILES CCc1cc(OC(F)(F)F)cc2c1O[C@H](C(F)(F)F)C(C(=O)OCCOC(=O)c1ccc(-c3c4nc(c(-c5ccc(S(=O)(=O)[O-])cc5)c5ccc([nH]5)c(-c5ccc(S(=O)(=O)[O-])cc5)c5nc(c(-c6ccc(S(=O)(=O)[O-])cc6)c6ccc3[nH]6)C=C5)C=C4)cc1)=C2
REMARK SMILES IDX 25 1 24 2 23 3 21 4 22 5 20 6 3 7 4 8 13 9 5 10 12 11 14 12
REMARK SMILES IDX 11 13 89 14 15 15 2 16 1 17 6 18 7 19 8 20 9 21 10 22 16 23
REMARK SMILES IDX 17 24 18 25 19 26 26 27 27 28 28 29 29 30 30 31 88 32 31 33
REMARK SMILES IDX 87 34 32 35 33 36 34 37 81 38 35 39 86 40 80 41 82 42 36 43
REMARK SMILES IDX 85 44 79 45 78 46 37 48 67 49 48 50 66 51 49 52 52 53 65 54
REMARK SMILES IDX 83 55 50 56 51 57 64 59 84 60 53 61 38 62 39 63 47 64 40 65
REMARK SMILES IDX 46 66 41 67 42 68 43 69 44 70 45 71 68 72 69 73 77 74 70 75
REMARK SMILES IDX 76 76 71 77 72 78 73 79 74 80 75 81 54 82 55 83 63 84 56 85
REMARK SMILES IDX 62 86 57 87 58 88 59 89 60 90 61 91
REMARK H PARENT 82 47 52 58
REMARK Flexibility Score: inf
ROOT
ATOM      1  C   UNL A   1      39.619  22.136  26.081  1.00  0.00     0.275 C 
ENDROOT
BRANCH   1   2
ATOM      2  C   UNL A   1      38.207  21.558  26.009  1.00  0.00     0.275 C 
BRANCH   2   3
ATOM      3  O   UNL A   1      37.476  22.067  24.871  1.00  0.00    -0.459 OA
BRANCH   3   4
ATOM      4  C   UNL A   1      36.184  21.666  24.800  1.00  0.00     0.338 C 
ATOM      5  O   UNL A   1      35.785  20.517  24.871  1.00  0.00    -0.246 OA
BRANCH   4   6
ATOM      6  C   UNL A   1      35.253  22.795  24.632  1.00  0.00     0.087 C 
ATOM      7  C   UNL A   1      33.520  26.339  23.313  1.00  0.00    -0.002 A 
ATOM      8  C   UNL A   1      33.104  27.276  24.268  1.00  0.00     0.054 A 
ATOM      9  C   UNL A   1      34.188  25.196  23.774  1.00  0.00     0.131 A 
ATOM     10  C   UNL A   1      33.376  27.088  25.632  1.00  0.00     0.130 A 
ATOM     11  C   UNL A   1      34.454  24.980  25.137  1.00  0.00     0.021 A 
ATOM     12  O   UNL A   1      34.588  24.288  22.824  1.00  0.00    -0.475 OA
ATOM     13  C   UNL A   1      34.049  25.937  26.060  1.00  0.00     0.058 A 
ATOM     14  C   UNL A   1      35.190  23.779  25.540  1.00  0.00     0.027 C 
ATOM     15  C   UNL A   1      34.564  22.923  23.296  1.00  0.00     0.316 C 
BRANCH   7  16
ATOM     16  C   UNL A   1      33.202  26.451  21.835  1.00  0.00     0.036 C 
ATOM     17  C   UNL A   1      31.799  26.061  21.393  1.00  0.00     0.009 C 
ENDBRANCH   7  16
BRANCH  10  18
ATOM     18  O   UNL A   1      33.031  27.937  26.646  1.00  0.00    -0.406 OA
BRANCH  18  19
ATOM     19  C   UNL A   1      31.663  28.280  26.778  1.00  0.00     0.573 C 
ATOM     20  F   UNL A   1      31.367  28.641  28.045  1.00  0.00    -0.132 F 
ATOM     21  F   UNL A   1      31.324  29.273  25.930  1.00  0.00    -0.132 F 
ATOM     22  F   UNL A   1      30.917  27.194  26.472  1.00  0.00    -0.132 F 
ENDBRANCH  18  19
ENDBRANCH  10  18
BRANCH  15  23
ATOM     23  C   UNL A   1      33.123  22.373  23.289  1.00  0.00     0.430 C 
ATOM     24  F   UNL A   1      32.425  22.702  24.400  1.00  0.00    -0.167 F 
ATOM     25  F   UNL A   1      32.432  22.844  22.225  1.00  0.00    -0.167 F 
ATOM     26  F   UNL A   1      33.112  21.024  23.208  1.00  0.00    -0.167 F 
ENDBRANCH  15  23
ENDBRANCH   4   6
ENDBRANCH   3   4
ENDBRANCH   2   3
ENDBRANCH   1   2
BRANCH   1  27
ATOM     27  O   UNL A   1      39.565  23.557  26.307  1.00  0.00    -0.458 OA
BRANCH  27  28
ATOM     28  C   UNL A   1      40.696  24.109  26.799  1.00  0.00     0.338 C 
ATOM     29  O   UNL A   1      41.839  23.705  26.636  1.00  0.00    -0.246 OA
BRANCH  28  30
ATOM     30  C   UNL A   1      40.390  25.335  27.557  1.00  0.00     0.060 A 
ATOM     31  C   UNL A   1      41.213  26.449  27.419  1.00  0.00     0.016 A 
ATOM     32  C   UNL A   1      39.424  25.312  28.560  1.00  0.00     0.016 A 
ATOM     33  C   UNL A   1      41.198  27.452  28.385  1.00  0.00     0.010 A 
ATOM     34  C   UNL A   1      39.309  26.399  29.436  1.00  0.00     0.010 A 
ATOM     35  C   UNL A   1      40.238  27.456  29.407  1.00  0.00    -0.014 A 
BRANCH  35  36
ATOM     36  C   UNL A   1      40.242  28.519  30.461  1.00  0.00     0.031 A 
ATOM     37  C   UNL A   1      41.239  28.466  31.599  1.00  0.00     0.074 A 
ATOM     38  C   UNL A   1      39.372  29.551  30.408  1.00  0.00     0.049 A 
ATOM     39  N   UNL A   1      41.270  29.166  32.706  1.00  0.00    -0.248 NA
ATOM     40  C   UNL A   1      42.329  27.483  31.489  1.00  0.00     0.031 C 
ATOM     41  C   UNL A   1      38.381  29.782  29.354  1.00  0.00     0.029 A 
ATOM     42  N   UNL A   1      39.188  30.613  31.263  1.00  0.00    -0.354 N 
ATOM     43  C   UNL A   1      42.330  28.657  33.453  1.00  0.00     0.074 A 
ATOM     44  C   UNL A   1      42.913  27.586  32.675  1.00  0.00     0.031 C 
ATOM     45  C   UNL A   1      37.741  30.937  29.590  1.00  0.00     0.029 A 
ATOM     46  C   UNL A   1      38.189  31.473  30.868  1.00  0.00     0.049 A 
ATOM     47  H   UNL A   1      39.722  30.746  32.078  1.00  0.00     0.167 HD
ATOM     48  C   UNL A   1      42.776  29.043  34.675  1.00  0.00     0.031 A 
ATOM     49  C   UNL A   1      37.647  32.545  31.479  1.00  0.00     0.031 A 
ATOM     50  C   UNL A   1      42.238  30.153  35.420  1.00  0.00     0.049 A 
ATOM     51  C   UNL A   1      38.144  32.944  32.838  1.00  0.00     0.074 A 
ATOM     52  C   UNL A   1      42.631  30.629  36.659  1.00  0.00     0.029 A 
ATOM     53  N   UNL A   1      41.210  30.976  34.987  1.00  0.00    -0.354 N 
ATOM     54  N   UNL A   1      39.093  32.400  33.561  1.00  0.00    -0.248 NA
ATOM     55  C   UNL A   1      37.487  34.097  33.469  1.00  0.00     0.031 C 
ATOM     56  C   UNL A   1      41.814  31.715  36.994  1.00  0.00     0.029 A 
ATOM     57  C   UNL A   1      40.952  31.951  35.936  1.00  0.00     0.049 A 
ATOM     58  H   UNL A   1      40.733  30.882  34.130  1.00  0.00     0.167 HD
ATOM     59  C   UNL A   1      39.160  33.158  34.724  1.00  0.00     0.074 A 
ATOM     60  C   UNL A   1      38.170  34.209  34.598  1.00  0.00     0.031 C 
ATOM     61  C   UNL A   1      39.968  32.995  35.802  1.00  0.00     0.031 A 
BRANCH  48  62
ATOM     62  C   UNL A   1      43.878  28.232  35.311  1.00  0.00    -0.014 A 
ATOM     63  C   UNL A   1      43.606  27.103  36.103  1.00  0.00     0.010 A 
ATOM     64  C   UNL A   1      45.218  28.586  35.068  1.00  0.00     0.010 A 
ATOM     65  C   UNL A   1      44.653  26.369  36.672  1.00  0.00     0.020 A 
ATOM     66  C   UNL A   1      46.268  27.838  35.609  1.00  0.00     0.020 A 
ATOM     67  C   UNL A   1      45.977  26.743  36.424  1.00  0.00     0.054 A 
BRANCH  67  68
ATOM     68  S   UNL A   1      47.316  25.760  37.156  1.00  0.00     0.124 S 
ATOM     69  O   UNL A   1      47.258  24.534  36.363  1.00  0.00    -0.237 OA
ATOM     70  O   UNL A   1      48.490  26.599  36.930  1.00  0.00    -0.237 OA
ATOM     71  O   UNL A   1      46.917  25.616  38.554  1.00  0.00    -0.744 OA
ENDBRANCH  67  68
ENDBRANCH  48  62
BRANCH  49  72
ATOM     72  C   UNL A   1      36.530  33.286  30.825  1.00  0.00    -0.014 A 
ATOM     73  C   UNL A   1      36.753  34.043  29.663  1.00  0.00     0.010 A 
ATOM     74  C   UNL A   1      35.230  33.222  31.361  1.00  0.00     0.010 A 
ATOM     75  C   UNL A   1      35.700  34.734  29.057  1.00  0.00     0.020 A 
ATOM     76  C   UNL A   1      34.168  33.883  30.737  1.00  0.00     0.020 A 
ATOM     77  C   UNL A   1      34.413  34.645  29.595  1.00  0.00     0.054 A 
BRANCH  77  78
ATOM     78  S   UNL A   1      33.048  35.500  28.758  1.00  0.00     0.124 S 
ATOM     79  O   UNL A   1      32.361  34.396  28.095  1.00  0.00    -0.237 OA
ATOM     80  O   UNL A   1      32.330  36.116  29.871  1.00  0.00    -0.237 OA
ATOM     81  O   UNL A   1      33.729  36.439  27.870  1.00  0.00    -0.744 OA
ENDBRANCH  77  78
ENDBRANCH  49  72
BRANCH  61  82
ATOM     82  C   UNL A   1      39.852  34.011  36.906  1.00  0.00    -0.014 A 
ATOM     83  C   UNL A   1      38.970  33.827  37.986  1.00  0.00     0.010 A 
ATOM     84  C   UNL A   1      40.657  35.164  36.869  1.00  0.00     0.010 A 
ATOM     85  C   UNL A   1      38.860  34.801  38.982  1.00  0.00     0.020 A 
ATOM     86  C   UNL A   1      40.572  36.126  37.877  1.00  0.00     0.020 A 
ATOM     87  C   UNL A   1      39.658  35.947  38.918  1.00  0.00     0.054 A 
BRANCH  87  88
ATOM     88  S   UNL A   1      39.508  37.193  40.228  1.00  0.00     0.124 S 
ATOM     89  O   UNL A   1      38.648  36.515  41.194  1.00  0.00    -0.237 OA
ATOM     90  O   UNL A   1      40.894  37.386  40.649  1.00  0.00    -0.237 OA
ATOM     91  O   UNL A   1      38.904  38.337  39.551  1.00  0.00    -0.744 OA
ENDBRANCH  87  88
ENDBRANCH  61  82
ENDBRANCH  35  36
ENDBRANCH  28  30
ENDBRANCH  27  28
ENDBRANCH   1  27
TORSDOF 18
ENDMDL
MODEL 3
REMARK VINA RESULT:     -10.6      3.038      8.120
REMARK SMILES CCc1cc(OC(F)(F)F)cc2c1O[C@H](C(F)(F)F)C(C(=O)OCCOC(=O)c1ccc(-c3c4nc(c(-c5ccc(S(=O)(=O)[O-])cc5)c5ccc([nH]5)c(-c5ccc(S(=O)(=O)[O-])cc5)c5nc(c(-c6ccc(S(=O)(=O)[O-])cc6)c6ccc3[nH]6)C=C5)C=C4)cc1)=C2
REMARK SMILES IDX 25 1 24 2 23 3 21 4 22 5 20 6 3 7 4 8 13 9 5 10 12 11 14 12
REMARK SMILES IDX 11 13 89 14 15 15 2 16 1 17 6 18 7 19 8 20 9 21 10 22 16 23
REMARK SMILES IDX 17 24 18 25 19 26 26 27 27 28 28 29 29 30 30 31 88 32 31 33
REMARK SMILES IDX 87 34 32 35 33 36 34 37 81 38 35 39 86 40 80 41 82 42 36 43
REMARK SMILES IDX 85 44 79 45 78 46 37 48 67 49 48 50 66 51 49 52 52 53 65 54
REMARK SMILES IDX 83 55 50 56 51 57 64 59 84 60 53 61 38 62 39 63 47 64 40 65
REMARK SMILES IDX 46 66 41 67 42 68 43 69 44 70 45 71 68 72 69 73 77 74 70 75
REMARK SMILES IDX 76 76 71 77 72 78 73 79 74 80 75 81 54 82 55 83 63 84 56 85
REMARK SMILES IDX 62 86 57 87 58 88 59 89 60 90 61 91
REMARK H PARENT 82 47 52 58
REMARK Flexibility Score: inf
ROOT
ATOM      1  C   UNL A   1      32.413  30.365  26.802  1.00  0.00     0.275 C 
ENDROOT
BRANCH   1   2
ATOM      2  C   UNL A   1      32.323  29.638  25.462  1.00  0.00     0.275 C 
BRANCH   2   3
ATOM      3  O   UNL A   1      31.229  28.695  25.436  1.00  0.00    -0.459 OA
BRANCH   3   4
ATOM      4  C   UNL A   1      31.481  27.514  26.053  1.00  0.00     0.338 C 
ATOM      5  O   UNL A   1      31.053  27.167  27.139  1.00  0.00    -0.246 OA
BRANCH   4   6
ATOM      6  C   UNL A   1      32.354  26.639  25.252  1.00  0.00     0.087 C 
ATOM      7  C   UNL A   1      33.878  23.335  23.235  1.00  0.00    -0.002 A 
ATOM      8  C   UNL A   1      35.195  22.938  23.502  1.00  0.00     0.054 A 
ATOM      9  C   UNL A   1      33.352  24.389  23.995  1.00  0.00     0.131 A 
ATOM     10  C   UNL A   1      35.945  23.554  24.515  1.00  0.00     0.130 A 
ATOM     11  C   UNL A   1      34.093  25.033  25.001  1.00  0.00     0.021 A 
ATOM     12  O   UNL A   1      32.061  24.767  23.719  1.00  0.00    -0.475 OA
ATOM     13  C   UNL A   1      35.390  24.603  25.259  1.00  0.00     0.058 A 
ATOM     14  C   UNL A   1      33.465  26.103  25.778  1.00  0.00     0.027 C 
ATOM     15  C   UNL A   1      31.826  26.179  23.916  1.00  0.00     0.316 C 
BRANCH   7  16
ATOM     16  C   UNL A   1      33.038  22.755  22.114  1.00  0.00     0.036 C 
ATOM     17  C   UNL A   1      32.254  21.487  22.417  1.00  0.00     0.009 C 
ENDBRANCH   7  16
BRANCH  10  18
ATOM     18  O   UNL A   1      37.228  23.241  24.870  1.00  0.00    -0.406 OA
BRANCH  18  19
ATOM     19  C   UNL A   1      37.456  21.966  25.443  1.00  0.00     0.573 C 
ATOM     20  F   UNL A   1      36.389  21.549  26.156  1.00  0.00    -0.132 F 
ATOM     21  F   UNL A   1      37.757  21.052  24.496  1.00  0.00    -0.132 F 
ATOM     22  F   UNL A   1      38.509  22.057  26.287  1.00  0.00    -0.132 F 
ENDBRANCH  18  19
ENDBRANCH  10  18
BRANCH  15  23
ATOM     23  C   UNL A   1      32.372  26.990  22.723  1.00  0.00     0.430 C 
ATOM     24  F   UNL A   1      32.586  26.235  21.622  1.00  0.00    -0.167 F 
ATOM     25  F   UNL A   1      31.510  27.974  22.375  1.00  0.00    -0.167 F 
ATOM     26  F   UNL A   1      33.550  27.579  23.027  1.00  0.00    -0.167 F 
ENDBRANCH  15  23
ENDBRANCH   4   6
ENDBRANCH   3   4
ENDBRANCH   2   3
ENDBRANCH   1   2
BRANCH   1  27
ATOM     27  O   UNL A   1      33.448  29.784  27.617  1.00  0.00    -0.458 OA
BRANCH  27  28
ATOM     28  C   UNL A   1      34.354  30.655  28.113  1.00  0.00     0.338 C 
ATOM     29  O   UNL A   1      34.145  31.810  28.459  1.00  0.00    -0.246 OA
BRANCH  28  30
ATOM     30  C   UNL A   1      35.677  30.019  28.235  1.00  0.00     0.060 A 
ATOM     31  C   UNL A   1      36.092  29.534  29.472  1.00  0.00     0.016 A 
ATOM     32  C   UNL A   1      36.587  30.096  27.185  1.00  0.00     0.016 A 
ATOM     33  C   UNL A   1      37.444  29.300  29.712  1.00  0.00     0.010 A 
ATOM     34  C   UNL A   1      37.918  29.710  27.391  1.00  0.00     0.010 A 
ATOM     35  C   UNL A   1      38.384  29.371  28.675  1.00  0.00    -0.014 A 
BRANCH  35  36
ATOM     36  C   UNL A   1      39.840  29.149  28.941  1.00  0.00     0.031 A 
ATOM     37  C   UNL A   1      40.501  27.846  28.545  1.00  0.00     0.074 A 
ATOM     38  C   UNL A   1      40.594  30.109  29.520  1.00  0.00     0.049 A 
ATOM     39  N   UNL A   1      41.684  27.385  28.870  1.00  0.00    -0.248 NA
ATOM     40  C   UNL A   1      39.724  26.932  27.692  1.00  0.00     0.031 C 
ATOM     41  C   UNL A   1      40.127  31.440  29.917  1.00  0.00     0.029 A 
ATOM     42  N   UNL A   1      41.925  30.116  29.868  1.00  0.00    -0.354 N 
ATOM     43  C   UNL A   1      41.760  26.104  28.328  1.00  0.00     0.074 A 
ATOM     44  C   UNL A   1      40.501  25.859  27.658  1.00  0.00     0.031 C 
ATOM     45  C   UNL A   1      41.161  32.150  30.393  1.00  0.00     0.029 A 
ATOM     46  C   UNL A   1      42.338  31.294  30.447  1.00  0.00     0.049 A 
ATOM     47  H   UNL A   1      42.525  29.351  29.717  1.00  0.00     0.167 HD
ATOM     48  C   UNL A   1      42.781  25.212  28.385  1.00  0.00     0.031 A 
ATOM     49  C   UNL A   1      43.512  31.644  31.008  1.00  0.00     0.031 A 
ATOM     50  C   UNL A   1      44.058  25.482  28.994  1.00  0.00     0.049 A 
ATOM     51  C   UNL A   1      44.622  30.636  31.076  1.00  0.00     0.074 A 
ATOM     52  C   UNL A   1      45.159  24.647  29.089  1.00  0.00     0.029 A 
ATOM     53  N   UNL A   1      44.418  26.682  29.587  1.00  0.00    -0.354 N 
ATOM     54  N   UNL A   1      44.645  29.403  30.629  1.00  0.00    -0.248 NA
ATOM     55  C   UNL A   1      45.864  31.063  31.735  1.00  0.00     0.031 C 
ATOM     56  C   UNL A   1      46.171  25.328  29.777  1.00  0.00     0.029 A 
ATOM     57  C   UNL A   1      45.720  26.608  30.056  1.00  0.00     0.049 A 
ATOM     58  H   UNL A   1      43.835  27.472  29.664  1.00  0.00     0.167 HD
ATOM     59  C   UNL A   1      45.910  28.915  30.935  1.00  0.00     0.074 A 
ATOM     60  C   UNL A   1      46.628  29.992  31.587  1.00  0.00     0.031 C 
ATOM     61  C   UNL A   1      46.428  27.684  30.700  1.00  0.00     0.031 A 
BRANCH  48  62
ATOM     62  C   UNL A   1      42.548  23.837  27.809  1.00  0.00    -0.014 A 
ATOM     63  C   UNL A   1      42.751  23.559  26.446  1.00  0.00     0.010 A 
ATOM     64  C   UNL A   1      42.162  22.791  28.668  1.00  0.00     0.010 A 
ATOM     65  C   UNL A   1      42.533  22.269  25.947  1.00  0.00     0.020 A 
ATOM     66  C   UNL A   1      41.972  21.494  28.179  1.00  0.00     0.020 A 
ATOM     67  C   UNL A   1      42.141  21.246  26.816  1.00  0.00     0.054 A 
BRANCH  67  68
ATOM     68  S   UNL A   1      41.887  19.578  26.147  1.00  0.00     0.124 S 
ATOM     69  O   UNL A   1      42.353  18.738  27.248  1.00  0.00    -0.237 OA
ATOM     70  O   UNL A   1      40.448  19.547  25.899  1.00  0.00    -0.237 OA
ATOM     71  O   UNL A   1      42.724  19.553  24.950  1.00  0.00    -0.744 OA
ENDBRANCH  67  68
ENDBRANCH  48  62
BRANCH  49  72
ATOM     72  C   UNL A   1      43.676  33.002  31.601  1.00  0.00    -0.014 A 
ATOM     73  C   UNL A   1      44.080  34.088  30.808  1.00  0.00     0.010 A 
ATOM     74  C   UNL A   1      43.412  33.214  32.968  1.00  0.00     0.010 A 
ATOM     75  C   UNL A   1      44.230  35.359  31.372  1.00  0.00     0.020 A 
ATOM     76  C   UNL A   1      43.527  34.489  33.527  1.00  0.00     0.020 A 
ATOM     77  C   UNL A   1      43.948  35.552  32.728  1.00  0.00     0.054 A 
BRANCH  77  78
ATOM     78  S   UNL A   1      44.091  37.220  33.427  1.00  0.00     0.124 S 
ATOM     79  O   UNL A   1      42.883  37.312  34.241  1.00  0.00    -0.237 OA
ATOM     80  O   UNL A   1      45.349  37.147  34.167  1.00  0.00    -0.237 OA
ATOM     81  O   UNL A   1      44.119  38.083  32.248  1.00  0.00    -0.744 OA
ENDBRANCH  77  78
ENDBRANCH  49  72
BRANCH  61  82
ATOM     82  C   UNL A   1      47.861  27.454  31.102  1.00  0.00    -0.014 A 
ATOM     83  C   UNL A   1      48.196  26.936  32.365  1.00  0.00     0.010 A 
ATOM     84  C   UNL A   1      48.888  27.747  30.187  1.00  0.00     0.010 A 
ATOM     85  C   UNL A   1      49.536  26.761  32.723  1.00  0.00     0.020 A 
ATOM     86  C   UNL A   1      50.226  27.546  30.529  1.00  0.00     0.020 A 
ATOM     87  C   UNL A   1      50.543  27.073  31.804  1.00  0.00     0.054 A 
BRANCH  87  88
ATOM     88  S   UNL A   1      52.274  26.827  32.285  1.00  0.00     0.124 S 
ATOM     89  O   UNL A   1      52.958  27.838  31.484  1.00  0.00    -0.237 OA
ATOM     90  O   UNL A   1      52.248  27.078  33.724  1.00  0.00    -0.237 OA
ATOM     91  O   UNL A   1      52.545  25.442  31.906  1.00  0.00    -0.744 OA
ENDBRANCH  87  88
ENDBRANCH  61  82
ENDBRANCH  35  36
ENDBRANCH  28  30
ENDBRANCH  27  28
ENDBRANCH   1  27
TORSDOF 18
ENDMDL
