MODEL 1
REMARK VINA RESULT:     -11.8      0.000      0.000
REMARK SMILES O=C(OCCOC(=O)c1ccc2c(c1)[C@@H]1C=CC[C@@H]1[C@H](c1ccncc1)N2)c1ccc(-c2c3nc(c(-c4ccc(S(=O)(=O)[O-])cc4)c4ccc([nH]4)c(-c4ccc(S(=O)(=O)[O-])cc4)c4nc(c(-c5ccc(S(=O)(=O)[O-])cc5)c5ccc2[nH]5)C=C4)C=C3)cc1
REMARK SMILES IDX 4 1 3 2 2 3 1 4 28 5 29 6 87 7 30 8 86 9 31 10 32 11 33 12
REMARK SMILES IDX 80 13 34 14 85 15 79 16 81 17 35 18 84 19 78 20 77 21 36 23
REMARK SMILES IDX 66 24 47 25 65 26 48 27 51 28 64 29 82 30 49 31 50 32 63 34
REMARK SMILES IDX 83 35 52 36 37 37 38 38 46 39 39 40 45 41 40 42 41 43 42 44
REMARK SMILES IDX 43 45 44 46 67 47 68 48 76 49 69 50 75 51 70 52 71 53 72 54
REMARK SMILES IDX 73 55 74 56 53 57 54 58 62 59 55 60 61 61 56 62 57 63 58 64
REMARK SMILES IDX 59 65 60 66 5 67 6 68 7 69 8 70 9 71 10 72 14 73 11 74 13 75
REMARK SMILES IDX 12 76 15 77 27 78 16 79 19 80 20 81 17 83 18 84 21 85 22 86
REMARK SMILES IDX 26 87 23 88 25 89 24 90
REMARK H PARENT 81 22 51 33 27 82
REMARK Flexibility Score: inf
ROOT
ATOM      1  C   UNL A   1      33.301  28.353  27.140  1.00  0.00     0.275 C 
ENDROOT
BRANCH   1   2
ATOM      2  O   UNL A   1      33.872  29.638  26.832  1.00  0.00    -0.458 OA
BRANCH   2   3
ATOM      3  C   UNL A   1      34.639  30.454  27.593  1.00  0.00     0.338 C 
ATOM      4  O   UNL A   1      34.294  31.624  27.747  1.00  0.00    -0.246 OA
BRANCH   3   5
ATOM      5  C   UNL A   1      35.958  30.034  28.155  1.00  0.00     0.060 A 
ATOM      6  C   UNL A   1      36.158  29.542  29.446  1.00  0.00     0.016 A 
ATOM      7  C   UNL A   1      37.078  30.158  27.314  1.00  0.00     0.016 A 
ATOM      8  C   UNL A   1      37.411  29.101  29.862  1.00  0.00     0.010 A 
ATOM      9  C   UNL A   1      38.340  29.711  27.723  1.00  0.00     0.010 A 
ATOM     10  C   UNL A   1      38.512  29.188  29.012  1.00  0.00    -0.014 A 
BRANCH  10  11
ATOM     11  C   UNL A   1      39.858  28.955  29.583  1.00  0.00     0.031 A 
ATOM     12  C   UNL A   1      40.380  29.972  30.557  1.00  0.00     0.074 A 
ATOM     13  C   UNL A   1      40.535  27.808  29.369  1.00  0.00     0.049 A 
ATOM     14  N   UNL A   1      41.518  29.982  31.194  1.00  0.00    -0.248 NA
ATOM     15  C   UNL A   1      39.478  31.082  30.916  1.00  0.00     0.031 C 
ATOM     16  C   UNL A   1      40.050  26.661  28.597  1.00  0.00     0.029 A 
ATOM     17  N   UNL A   1      41.809  27.438  29.733  1.00  0.00    -0.354 N 
ATOM     18  C   UNL A   1      41.424  31.032  32.097  1.00  0.00     0.074 A 
ATOM     19  C   UNL A   1      40.178  31.715  31.843  1.00  0.00     0.031 C 
ATOM     20  C   UNL A   1      41.059  25.784  28.429  1.00  0.00     0.029 A 
ATOM     21  C   UNL A   1      42.259  26.329  29.045  1.00  0.00     0.049 A 
ATOM     22  H   UNL A   1      42.342  27.913  30.411  1.00  0.00     0.167 HD
ATOM     23  C   UNL A   1      42.275  31.346  33.099  1.00  0.00     0.031 A 
ATOM     24  C   UNL A   1      43.520  25.904  28.831  1.00  0.00     0.031 A 
ATOM     25  C   UNL A   1      43.529  30.676  33.297  1.00  0.00     0.049 A 
ATOM     26  C   UNL A   1      44.607  26.532  29.649  1.00  0.00     0.074 A 
ATOM     27  C   UNL A   1      44.472  30.872  34.287  1.00  0.00     0.029 A 
ATOM     28  N   UNL A   1      44.028  29.691  32.455  1.00  0.00    -0.354 N 
ATOM     29  N   UNL A   1      44.515  27.516  30.509  1.00  0.00    -0.248 NA
ATOM     30  C   UNL A   1      45.940  25.931  29.542  1.00  0.00     0.031 C 
ATOM     31  C   UNL A   1      45.573  30.057  34.001  1.00  0.00     0.029 A 
ATOM     32  C   UNL A   1      45.285  29.300  32.875  1.00  0.00     0.049 A 
ATOM     33  H   UNL A   1      43.554  29.325  31.672  1.00  0.00     0.167 HD
ATOM     34  C   UNL A   1      45.744  27.564  31.150  1.00  0.00     0.074 A 
ATOM     35  C   UNL A   1      46.585  26.569  30.511  1.00  0.00     0.031 C 
ATOM     36  C   UNL A   1      46.104  28.306  32.227  1.00  0.00     0.031 A 
BRANCH  23  37
ATOM     37  C   UNL A   1      41.861  32.450  34.031  1.00  0.00    -0.014 A 
ATOM     38  C   UNL A   1      41.113  32.173  35.192  1.00  0.00     0.010 A 
ATOM     39  C   UNL A   1      42.212  33.779  33.743  1.00  0.00     0.010 A 
ATOM     40  C   UNL A   1      40.687  33.211  36.024  1.00  0.00     0.020 A 
ATOM     41  C   UNL A   1      41.808  34.817  34.586  1.00  0.00     0.020 A 
ATOM     42  C   UNL A   1      41.033  34.528  35.712  1.00  0.00     0.054 A 
BRANCH  42  43
ATOM     43  S   UNL A   1      40.471  35.858  36.809  1.00  0.00     0.124 S 
ATOM     44  O   UNL A   1      39.548  35.151  37.694  1.00  0.00    -0.237 OA
ATOM     45  O   UNL A   1      41.715  36.307  37.430  1.00  0.00    -0.237 OA
ATOM     46  O   UNL A   1      39.850  36.819  35.901  1.00  0.00    -0.744 OA
ENDBRANCH  42  43
ENDBRANCH  23  37
BRANCH  24  47
ATOM     47  C   UNL A   1      43.847  24.910  27.768  1.00  0.00    -0.014 A 
ATOM     48  C   UNL A   1      44.241  25.299  26.480  1.00  0.00     0.010 A 
ATOM     49  C   UNL A   1      43.703  23.535  28.040  1.00  0.00     0.010 A 
ATOM     50  C   UNL A   1      44.494  24.334  25.493  1.00  0.00     0.020 A 
ATOM     51  C   UNL A   1      43.983  22.566  27.071  1.00  0.00     0.020 A 
ATOM     52  C   UNL A   1      44.370  22.972  25.797  1.00  0.00     0.054 A 
BRANCH  52  53
ATOM     53  S   UNL A   1      44.744  21.737  24.520  1.00  0.00     0.124 S 
ATOM     54  O   UNL A   1      43.901  20.616  24.923  1.00  0.00    -0.237 OA
ATOM     55  O   UNL A   1      44.344  22.423  23.293  1.00  0.00    -0.237 OA
ATOM     56  O   UNL A   1      46.182  21.521  24.662  1.00  0.00    -0.744 OA
ENDBRANCH  52  53
ENDBRANCH  24  47
BRANCH  36  57
ATOM     57  C   UNL A   1      47.414  27.961  32.870  1.00  0.00    -0.014 A 
ATOM     58  C   UNL A   1      48.607  28.628  32.549  1.00  0.00     0.010 A 
ATOM     59  C   UNL A   1      47.430  26.943  33.843  1.00  0.00     0.010 A 
ATOM     60  C   UNL A   1      49.802  28.253  33.164  1.00  0.00     0.020 A 
ATOM     61  C   UNL A   1      48.613  26.592  34.486  1.00  0.00     0.020 A 
ATOM     62  C   UNL A   1      49.797  27.237  34.128  1.00  0.00     0.054 A 
BRANCH  62  63
ATOM     63  S   UNL A   1      51.355  26.794  34.940  1.00  0.00     0.124 S 
ATOM     64  O   UNL A   1      51.012  25.527  35.579  1.00  0.00    -0.237 OA
ATOM     65  O   UNL A   1      52.286  26.702  33.817  1.00  0.00    -0.237 OA
ATOM     66  O   UNL A   1      51.598  27.908  35.854  1.00  0.00    -0.744 OA
ENDBRANCH  62  63
ENDBRANCH  36  57
ENDBRANCH  10  11
ENDBRANCH   3   5
ENDBRANCH   2   3
ENDBRANCH   1   2
BRANCH   1  67
ATOM     67  C   UNL A   1      31.786  28.325  27.388  1.00  0.00     0.275 C 
BRANCH  67  68
ATOM     68  O   UNL A   1      31.138  27.084  27.056  1.00  0.00    -0.458 OA
BRANCH  68  69
ATOM     69  C   UNL A   1      31.029  26.846  25.724  1.00  0.00     0.338 C 
ATOM     70  O   UNL A   1      30.767  27.678  24.867  1.00  0.00    -0.246 OA
BRANCH  69  71
ATOM     71  C   UNL A   1      31.390  25.451  25.382  1.00  0.00     0.060 A 
ATOM     72  C   UNL A   1      30.787  24.887  24.255  1.00  0.00     0.018 A 
ATOM     73  C   UNL A   1      32.231  24.669  26.175  1.00  0.00     0.022 A 
ATOM     74  C   UNL A   1      31.019  23.548  23.921  1.00  0.00     0.027 A 
ATOM     75  C   UNL A   1      32.430  23.298  25.862  1.00  0.00    -0.017 A 
ATOM     76  C   UNL A   1      31.795  22.723  24.742  1.00  0.00     0.038 A 
ATOM     77  C   UNL A   1      33.292  22.435  26.759  1.00  0.00     0.049 C 
ATOM     78  N   UNL A   1      31.938  21.372  24.421  1.00  0.00    -0.378 N 
ATOM     79  C   UNL A   1      34.701  22.919  26.854  1.00  0.00    -0.023 C 
ATOM     80  C   UNL A   1      33.556  21.027  26.215  1.00  0.00     0.031 C 
ATOM     81  C   UNL A   1      32.366  20.449  25.468  1.00  0.00     0.114 C 
ATOM     82  H   UNL A   1      31.755  21.049  23.510  1.00  0.00     0.161 HD
ATOM     83  C   UNL A   1      35.520  22.230  26.050  1.00  0.00    -0.030 C 
ATOM     84  C   UNL A   1      34.827  21.125  25.358  1.00  0.00     0.034 C 
BRANCH  81  85
ATOM     85  C   UNL A   1      32.748  19.056  24.977  1.00  0.00    -0.022 A 
ATOM     86  C   UNL A   1      32.908  18.863  23.592  1.00  0.00     0.026 A 
ATOM     87  C   UNL A   1      32.778  17.922  25.793  1.00  0.00     0.026 A 
ATOM     88  C   UNL A   1      33.057  17.579  23.093  1.00  0.00     0.111 A 
ATOM     89  C   UNL A   1      32.958  16.678  25.201  1.00  0.00     0.111 A 
ATOM     90  N   UNL A   1      33.105  16.481  23.871  1.00  0.00    -0.265 NA
ENDBRANCH  81  85
ENDBRANCH  69  71
ENDBRANCH  68  69
ENDBRANCH  67  68
ENDBRANCH   1  67
TORSDOF 15
ENDMDL
MODEL 2
REMARK VINA RESULT:     -11.7      0.965      8.213
REMARK SMILES O=C(OCCOC(=O)c1ccc2c(c1)[C@@H]1C=CC[C@@H]1[C@H](c1ccncc1)N2)c1ccc(-c2c3nc(c(-c4ccc(S(=O)(=O)[O-])cc4)c4ccc([nH]4)c(-c4ccc(S(=O)(=O)[O-])cc4)c4nc(c(-c5ccc(S(=O)(=O)[O-])cc5)c5ccc2[nH]5)C=C4)C=C3)cc1
REMARK SMILES IDX 4 1 3 2 2 3 1 4 28 5 29 6 87 7 30 8 86 9 31 10 32 11 33 12
REMARK SMILES IDX 80 13 34 14 85 15 79 16 81 17 35 18 84 19 78 20 77 21 36 23
REMARK SMILES IDX 66 24 47 25 65 26 48 27 51 28 64 29 82 30 49 31 50 32 63 34
REMARK SMILES IDX 83 35 52 36 37 37 38 38 46 39 39 40 45 41 40 42 41 43 42 44
REMARK SMILES IDX 43 45 44 46 67 47 68 48 76 49 69 50 75 51 70 52 71 53 72 54
REMARK SMILES IDX 73 55 74 56 53 57 54 58 62 59 55 60 61 61 56 62 57 63 58 64
REMARK SMILES IDX 59 65 60 66 5 67 6 68 7 69 8 70 9 71 10 72 14 73 11 74 13 75
REMARK SMILES IDX 12 76 15 77 27 78 16 79 19 80 20 81 17 83 18 84 21 85 22 86
REMARK SMILES IDX 26 87 23 88 25 89 24 90
REMARK H PARENT 81 22 51 33 27 82
REMARK Flexibility Score: inf
ROOT
ATOM      1  C   UNL A   1      32.546  29.833  25.753  1.00  0.00     0.275 C 
ENDROOT
BRANCH   1   2
ATOM      2  O   UNL A   1      33.787  29.682  26.466  1.00  0.00    -0.458 OA
BRANCH   2   3
ATOM      3  C   UNL A   1      34.361  30.484  27.394  1.00  0.00     0.338 C 
ATOM      4  O   UNL A   1      33.882  31.598  27.599  1.00  0.00    -0.246 OA
BRANCH   3   5
ATOM      5  C   UNL A   1      35.631  30.128  28.098  1.00  0.00     0.060 A 
ATOM      6  C   UNL A   1      35.720  29.716  29.428  1.00  0.00     0.016 A 
ATOM      7  C   UNL A   1      36.821  30.231  27.356  1.00  0.00     0.016 A 
ATOM      8  C   UNL A   1      36.937  29.329  29.980  1.00  0.00     0.010 A 
ATOM      9  C   UNL A   1      38.048  29.838  27.903  1.00  0.00     0.010 A 
ATOM     10  C   UNL A   1      38.110  29.393  29.230  1.00  0.00    -0.014 A 
BRANCH  10  11
ATOM     11  C   UNL A   1      39.402  29.226  29.934  1.00  0.00     0.031 A 
ATOM     12  C   UNL A   1      40.221  28.014  29.594  1.00  0.00     0.074 A 
ATOM     13  C   UNL A   1      39.909  30.188  30.732  1.00  0.00     0.049 A 
ATOM     14  N   UNL A   1      41.383  27.656  30.065  1.00  0.00    -0.248 NA
ATOM     15  C   UNL A   1      39.700  27.127  28.537  1.00  0.00     0.031 C 
ATOM     16  C   UNL A   1      39.299  31.494  30.989  1.00  0.00     0.029 A 
ATOM     17  N   UNL A   1      41.032  30.192  31.527  1.00  0.00    -0.354 N 
ATOM     18  C   UNL A   1      41.775  26.570  29.294  1.00  0.00     0.074 A 
ATOM     19  C   UNL A   1      40.680  26.246  28.412  1.00  0.00     0.031 C 
ATOM     20  C   UNL A   1      39.975  32.110  31.979  1.00  0.00     0.029 A 
ATOM     21  C   UNL A   1      41.031  31.224  32.444  1.00  0.00     0.049 A 
ATOM     22  H   UNL A   1      41.758  29.531  31.450  1.00  0.00     0.167 HD
ATOM     23  C   UNL A   1      42.977  25.952  29.278  1.00  0.00     0.031 A 
ATOM     24  C   UNL A   1      41.714  31.346  33.601  1.00  0.00     0.031 A 
ATOM     25  C   UNL A   1      44.030  26.268  30.200  1.00  0.00     0.049 A 
ATOM     26  C   UNL A   1      42.839  30.387  33.842  1.00  0.00     0.074 A 
ATOM     27  C   UNL A   1      45.305  25.741  30.276  1.00  0.00     0.029 A 
ATOM     28  N   UNL A   1      43.910  27.185  31.236  1.00  0.00    -0.354 N 
ATOM     29  N   UNL A   1      43.214  29.369  33.106  1.00  0.00    -0.248 NA
ATOM     30  C   UNL A   1      43.688  30.650  35.007  1.00  0.00     0.031 C 
ATOM     31  C   UNL A   1      45.929  26.288  31.403  1.00  0.00     0.029 A 
ATOM     32  C   UNL A   1      45.070  27.208  31.986  1.00  0.00     0.049 A 
ATOM     33  H   UNL A   1      43.113  27.738  31.411  1.00  0.00     0.167 HD
ATOM     34  C   UNL A   1      44.424  28.952  33.640  1.00  0.00     0.074 A 
ATOM     35  C   UNL A   1      44.665  29.773  34.813  1.00  0.00     0.031 C 
ATOM     36  C   UNL A   1      45.292  28.034  33.147  1.00  0.00     0.031 A 
BRANCH  23  37
ATOM     37  C   UNL A   1      43.188  24.890  28.236  1.00  0.00    -0.014 A 
ATOM     38  C   UNL A   1      42.900  23.539  28.512  1.00  0.00     0.010 A 
ATOM     39  C   UNL A   1      43.687  25.239  26.970  1.00  0.00     0.010 A 
ATOM     40  C   UNL A   1      43.149  22.552  27.555  1.00  0.00     0.020 A 
ATOM     41  C   UNL A   1      43.914  24.257  26.003  1.00  0.00     0.020 A 
ATOM     42  C   UNL A   1      43.660  22.917  26.307  1.00  0.00     0.054 A 
BRANCH  42  43
ATOM     43  S   UNL A   1      43.972  21.619  25.081  1.00  0.00     0.124 S 
ATOM     44  O   UNL A   1      45.328  21.197  25.425  1.00  0.00    -0.237 OA
ATOM     45  O   UNL A   1      42.921  20.647  25.371  1.00  0.00    -0.237 OA
ATOM     46  O   UNL A   1      43.840  22.310  23.801  1.00  0.00    -0.744 OA
ENDBRANCH  42  43
ENDBRANCH  23  37
BRANCH  24  47
ATOM     47  C   UNL A   1      41.324  32.337  34.644  1.00  0.00    -0.014 A 
ATOM     48  C   UNL A   1      40.391  32.036  35.647  1.00  0.00     0.010 A 
ATOM     49  C   UNL A   1      41.861  33.640  34.596  1.00  0.00     0.010 A 
ATOM     50  C   UNL A   1      40.015  33.011  36.583  1.00  0.00     0.020 A 
ATOM     51  C   UNL A   1      41.514  34.608  35.543  1.00  0.00     0.020 A 
ATOM     52  C   UNL A   1      40.584  34.290  36.529  1.00  0.00     0.054 A 
BRANCH  52  53
ATOM     53  S   UNL A   1      40.117  35.525  37.776  1.00  0.00     0.124 S 
ATOM     54  O   UNL A   1      41.273  35.512  38.666  1.00  0.00    -0.237 OA
ATOM     55  O   UNL A   1      39.948  36.734  36.973  1.00  0.00    -0.237 OA
ATOM     56  O   UNL A   1      38.883  34.988  38.346  1.00  0.00    -0.744 OA
ENDBRANCH  52  53
ENDBRANCH  24  47
BRANCH  36  57
ATOM     57  C   UNL A   1      46.645  27.976  33.791  1.00  0.00    -0.014 A 
ATOM     58  C   UNL A   1      46.934  27.101  34.850  1.00  0.00     0.010 A 
ATOM     59  C   UNL A   1      47.655  28.821  33.293  1.00  0.00     0.010 A 
ATOM     60  C   UNL A   1      48.205  27.102  35.426  1.00  0.00     0.020 A 
ATOM     61  C   UNL A   1      48.935  28.798  33.840  1.00  0.00     0.020 A 
ATOM     62  C   UNL A   1      49.197  27.950  34.918  1.00  0.00     0.054 A 
BRANCH  62  63
ATOM     63  S   UNL A   1      50.850  27.907  35.657  1.00  0.00     0.124 S 
ATOM     64  O   UNL A   1      51.237  26.515  35.450  1.00  0.00    -0.237 OA
ATOM     65  O   UNL A   1      51.582  28.890  34.862  1.00  0.00    -0.237 OA
ATOM     66  O   UNL A   1      50.617  28.289  37.048  1.00  0.00    -0.744 OA
ENDBRANCH  62  63
ENDBRANCH  36  57
ENDBRANCH  10  11
ENDBRANCH   3   5
ENDBRANCH   2   3
ENDBRANCH   1   2
BRANCH   1  67
ATOM     67  C   UNL A   1      32.173  28.697  24.791  1.00  0.00     0.275 C 
BRANCH  67  68
ATOM     68  O   UNL A   1      31.024  27.923  25.180  1.00  0.00    -0.458 OA
BRANCH  68  69
ATOM     69  C   UNL A   1      31.265  27.013  26.158  1.00  0.00     0.338 C 
ATOM     70  O   UNL A   1      31.118  27.195  27.359  1.00  0.00    -0.246 OA
BRANCH  69  71
ATOM     71  C   UNL A   1      31.624  25.688  25.602  1.00  0.00     0.060 A 
ATOM     72  C   UNL A   1      30.779  25.145  24.631  1.00  0.00     0.018 A 
ATOM     73  C   UNL A   1      32.710  24.941  26.063  1.00  0.00     0.022 A 
ATOM     74  C   UNL A   1      31.013  23.863  24.123  1.00  0.00     0.027 A 
ATOM     75  C   UNL A   1      32.919  23.622  25.582  1.00  0.00    -0.017 A 
ATOM     76  C   UNL A   1      32.047  23.065  24.625  1.00  0.00     0.038 A 
ATOM     77  C   UNL A   1      34.059  22.790  26.130  1.00  0.00     0.049 C 
ATOM     78  N   UNL A   1      32.200  21.760  24.152  1.00  0.00    -0.378 N 
ATOM     79  C   UNL A   1      35.398  23.404  25.888  1.00  0.00    -0.023 C 
ATOM     80  C   UNL A   1      34.271  21.456  25.406  1.00  0.00     0.031 C 
ATOM     81  C   UNL A   1      32.970  20.814  24.955  1.00  0.00     0.114 C 
ATOM     82  H   UNL A   1      31.799  21.484  23.298  1.00  0.00     0.161 HD
ATOM     83  C   UNL A   1      36.015  22.858  24.833  1.00  0.00    -0.030 C 
ATOM     84  C   UNL A   1      35.245  21.739  24.253  1.00  0.00     0.034 C 
BRANCH  81  85
ATOM     85  C   UNL A   1      33.308  19.503  24.252  1.00  0.00    -0.022 A 
ATOM     86  C   UNL A   1      32.472  19.081  23.202  1.00  0.00     0.026 A 
ATOM     87  C   UNL A   1      34.287  18.610  24.694  1.00  0.00     0.026 A 
ATOM     88  C   UNL A   1      32.626  17.809  22.674  1.00  0.00     0.111 A 
ATOM     89  C   UNL A   1      34.380  17.365  24.084  1.00  0.00     0.111 A 
ATOM     90  N   UNL A   1      33.577  16.948  23.080  1.00  0.00    -0.265 NA
ENDBRANCH  81  85
ENDBRANCH  69  71
ENDBRANCH  68  69
ENDBRANCH  67  68
ENDBRANCH   1  67
TORSDOF 15
ENDMDL
MODEL 3
REMARK VINA RESULT:     -11.7      3.949      9.750
REMARK SMILES O=C(OCCOC(=O)c1ccc2c(c1)[C@@H]1C=CC[C@@H]1[C@H](c1ccncc1)N2)c1ccc(-c2c3nc(c(-c4ccc(S(=O)(=O)[O-])cc4)c4ccc([nH]4)c(-c4ccc(S(=O)(=O)[O-])cc4)c4nc(c(-c5ccc(S(=O)(=O)[O-])cc5)c5ccc2[nH]5)C=C4)C=C3)cc1
REMARK SMILES IDX 4 1 3 2 2 3 1 4 28 5 29 6 87 7 30 8 86 9 31 10 32 11 33 12
REMARK SMILES IDX 80 13 34 14 85 15 79 16 81 17 35 18 84 19 78 20 77 21 36 23
REMARK SMILES IDX 66 24 47 25 65 26 48 27 51 28 64 29 82 30 49 31 50 32 63 34
REMARK SMILES IDX 83 35 52 36 37 37 38 38 46 39 39 40 45 41 40 42 41 43 42 44
REMARK SMILES IDX 43 45 44 46 67 47 68 48 76 49 69 50 75 51 70 52 71 53 72 54
REMARK SMILES IDX 73 55 74 56 53 57 54 58 62 59 55 60 61 61 56 62 57 63 58 64
REMARK SMILES IDX 59 65 60 66 5 67 6 68 7 69 8 70 9 71 10 72 14 73 11 74 13 75
REMARK SMILES IDX 12 76 15 77 27 78 16 79 19 80 20 81 17 83 18 84 21 85 22 86
REMARK SMILES IDX 26 87 23 88 25 89 24 90
REMARK H PARENT 81 22 51 33 27 82
REMARK Flexibility Score: inf
ROOT
ATOM      1  C   UNL A   1      37.069  21.487  25.353  1.00  0.00     0.275 C 
ENDROOT
BRANCH   1   2
ATOM      2  O   UNL A   1      37.827  22.669  25.666  1.00  0.00    -0.458 OA
BRANCH   2   3
ATOM      3  C   UNL A   1      39.002  22.802  26.327  1.00  0.00     0.338 C 
ATOM      4  O   UNL A   1      39.640  21.792  26.617  1.00  0.00    -0.246 OA
BRANCH   3   5
ATOM      5  C   UNL A   1      39.503  24.115  26.833  1.00  0.00     0.060 A 
ATOM      6  C   UNL A   1      40.186  25.060  26.067  1.00  0.00     0.016 A 
ATOM      7  C   UNL A   1      39.271  24.406  28.189  1.00  0.00     0.016 A 
ATOM      8  C   UNL A   1      40.549  26.293  26.601  1.00  0.00     0.010 A 
ATOM      9  C   UNL A   1      39.627  25.646  28.732  1.00  0.00     0.010 A 
ATOM     10  C   UNL A   1      40.282  26.595  27.935  1.00  0.00    -0.014 A 
BRANCH  10  11
ATOM     11  C   UNL A   1      40.915  27.798  28.522  1.00  0.00     0.031 A 
ATOM     12  C   UNL A   1      42.394  27.747  28.775  1.00  0.00     0.074 A 
ATOM     13  C   UNL A   1      40.237  28.953  28.684  1.00  0.00     0.049 A 
ATOM     14  N   UNL A   1      43.171  28.671  29.268  1.00  0.00    -0.248 NA
ATOM     15  C   UNL A   1      43.105  26.525  28.353  1.00  0.00     0.031 C 
ATOM     16  C   UNL A   1      38.844  29.188  28.296  1.00  0.00     0.029 A 
ATOM     17  N   UNL A   1      40.613  30.137  29.276  1.00  0.00    -0.354 N 
ATOM     18  C   UNL A   1      44.462  28.185  29.120  1.00  0.00     0.074 A 
ATOM     19  C   UNL A   1      44.364  26.838  28.611  1.00  0.00     0.031 C 
ATOM     20  C   UNL A   1      38.445  30.379  28.783  1.00  0.00     0.029 A 
ATOM     21  C   UNL A   1      39.538  30.961  29.546  1.00  0.00     0.049 A 
ATOM     22  H   UNL A   1      41.546  30.371  29.485  1.00  0.00     0.167 HD
ATOM     23  C   UNL A   1      45.626  28.842  29.322  1.00  0.00     0.031 A 
ATOM     24  C   UNL A   1      39.436  31.979  30.424  1.00  0.00     0.031 A 
ATOM     25  C   UNL A   1      45.690  30.166  29.872  1.00  0.00     0.049 A 
ATOM     26  C   UNL A   1      40.704  32.501  31.025  1.00  0.00     0.074 A 
ATOM     27  C   UNL A   1      46.799  30.958  30.101  1.00  0.00     0.029 A 
ATOM     28  N   UNL A   1      44.585  30.882  30.311  1.00  0.00    -0.354 N 
ATOM     29  N   UNL A   1      41.925  32.048  30.875  1.00  0.00    -0.248 NA
ATOM     30  C   UNL A   1      40.598  33.723  31.828  1.00  0.00     0.031 C 
ATOM     31  C   UNL A   1      46.368  32.123  30.746  1.00  0.00     0.029 A 
ATOM     32  C   UNL A   1      44.986  32.088  30.852  1.00  0.00     0.049 A 
ATOM     33  H   UNL A   1      43.651  30.574  30.246  1.00  0.00     0.167 HD
ATOM     34  C   UNL A   1      42.749  33.004  31.448  1.00  0.00     0.074 A 
ATOM     35  C   UNL A   1      41.877  34.011  32.024  1.00  0.00     0.031 C 
ATOM     36  C   UNL A   1      44.103  33.079  31.417  1.00  0.00     0.031 A 
BRANCH  23  37
ATOM     37  C   UNL A   1      46.892  28.126  28.943  1.00  0.00    -0.014 A 
ATOM     38  C   UNL A   1      47.418  28.228  27.640  1.00  0.00     0.010 A 
ATOM     39  C   UNL A   1      47.561  27.336  29.892  1.00  0.00     0.010 A 
ATOM     40  C   UNL A   1      48.565  27.516  27.281  1.00  0.00     0.020 A 
ATOM     41  C   UNL A   1      48.724  26.642  29.543  1.00  0.00     0.020 A 
ATOM     42  C   UNL A   1      49.208  26.723  28.235  1.00  0.00     0.054 A 
BRANCH  42  43
ATOM     43  S   UNL A   1      50.698  25.812  27.747  1.00  0.00     0.124 S 
ATOM     44  O   UNL A   1      51.055  26.466  26.491  1.00  0.00    -0.237 OA
ATOM     45  O   UNL A   1      51.606  26.063  28.865  1.00  0.00    -0.237 OA
ATOM     46  O   UNL A   1      50.236  24.432  27.622  1.00  0.00    -0.744 OA
ENDBRANCH  42  43
ENDBRANCH  23  37
BRANCH  24  47
ATOM     47  C   UNL A   1      38.114  32.518  30.854  1.00  0.00    -0.014 A 
ATOM     48  C   UNL A   1      37.453  33.528  30.140  1.00  0.00     0.010 A 
ATOM     49  C   UNL A   1      37.528  32.046  32.046  1.00  0.00     0.010 A 
ATOM     50  C   UNL A   1      36.232  34.043  30.602  1.00  0.00     0.020 A 
ATOM     51  C   UNL A   1      36.297  32.533  32.497  1.00  0.00     0.020 A 
ATOM     52  C   UNL A   1      35.659  33.537  31.775  1.00  0.00     0.054 A 
BRANCH  52  53
ATOM     53  S   UNL A   1      34.057  34.185  32.334  1.00  0.00     0.124 S 
ATOM     54  O   UNL A   1      34.461  35.260  33.236  1.00  0.00    -0.237 OA
ATOM     55  O   UNL A   1      33.435  34.609  31.082  1.00  0.00    -0.237 OA
ATOM     56  O   UNL A   1      33.426  33.034  32.976  1.00  0.00    -0.744 OA
ENDBRANCH  52  53
ENDBRANCH  24  47
BRANCH  36  57
ATOM     57  C   UNL A   1      44.715  34.362  31.893  1.00  0.00    -0.014 A 
ATOM     58  C   UNL A   1      45.182  34.529  33.206  1.00  0.00     0.010 A 
ATOM     59  C   UNL A   1      44.837  35.422  30.973  1.00  0.00     0.010 A 
ATOM     60  C   UNL A   1      45.725  35.753  33.602  1.00  0.00     0.020 A 
ATOM     61  C   UNL A   1      45.412  36.631  31.354  1.00  0.00     0.020 A 
ATOM     62  C   UNL A   1      45.837  36.795  32.673  1.00  0.00     0.054 A 
BRANCH  62  63
ATOM     63  S   UNL A   1      46.580  38.361  33.200  1.00  0.00     0.124 S 
ATOM     64  O   UNL A   1      45.724  38.739  34.321  1.00  0.00    -0.237 OA
ATOM     65  O   UNL A   1      47.942  37.965  33.552  1.00  0.00    -0.237 OA
ATOM     66  O   UNL A   1      46.470  39.211  32.017  1.00  0.00    -0.744 OA
ENDBRANCH  62  63
ENDBRANCH  36  57
ENDBRANCH  10  11
ENDBRANCH   3   5
ENDBRANCH   2   3
ENDBRANCH   1   2
BRANCH   1  67
ATOM     67  C   UNL A   1      35.541  21.630  25.385  1.00  0.00     0.275 C 
BRANCH  67  68
ATOM     68  O   UNL A   1      34.909  21.690  24.094  1.00  0.00    -0.458 OA
BRANCH  68  69
ATOM     69  C   UNL A   1      35.150  22.833  23.403  1.00  0.00     0.338 C 
ATOM     70  O   UNL A   1      36.134  23.057  22.709  1.00  0.00    -0.246 OA
BRANCH  69  71
ATOM     71  C   UNL A   1      34.010  23.774  23.476  1.00  0.00     0.060 A 
ATOM     72  C   UNL A   1      32.799  23.366  22.909  1.00  0.00     0.018 A 
ATOM     73  C   UNL A   1      34.120  25.060  24.008  1.00  0.00     0.022 A 
ATOM     74  C   UNL A   1      31.705  24.237  22.870  1.00  0.00     0.027 A 
ATOM     75  C   UNL A   1      33.024  25.958  23.926  1.00  0.00    -0.017 A 
ATOM     76  C   UNL A   1      31.814  25.555  23.326  1.00  0.00     0.038 A 
ATOM     77  C   UNL A   1      33.166  27.373  24.447  1.00  0.00     0.049 C 
ATOM     78  N   UNL A   1      30.725  26.420  23.197  1.00  0.00    -0.378 N 
ATOM     79  C   UNL A   1      33.480  27.429  25.905  1.00  0.00    -0.023 C 
ATOM     80  C   UNL A   1      31.862  28.178  24.450  1.00  0.00     0.031 C 
ATOM     81  C   UNL A   1      30.967  27.858  23.265  1.00  0.00     0.114 C 
ATOM     82  H   UNL A   1      29.817  26.068  23.062  1.00  0.00     0.161 HD
ATOM     83  C   UNL A   1      32.391  27.678  26.641  1.00  0.00    -0.030 C 
ATOM     84  C   UNL A   1      31.195  27.917  25.808  1.00  0.00     0.034 C 
BRANCH  81  85
ATOM     85  C   UNL A   1      29.709  28.714  23.378  1.00  0.00    -0.022 A 
ATOM     86  C   UNL A   1      28.461  28.078  23.239  1.00  0.00     0.026 A 
ATOM     87  C   UNL A   1      29.717  30.110  23.435  1.00  0.00     0.026 A 
ATOM     88  C   UNL A   1      27.311  28.844  23.136  1.00  0.00     0.111 A 
ATOM     89  C   UNL A   1      28.508  30.789  23.349  1.00  0.00     0.111 A 
ATOM     90  N   UNL A   1      27.306  30.188  23.208  1.00  0.00    -0.265 NA
ENDBRANCH  81  85
ENDBRANCH  69  71
ENDBRANCH  68  69
ENDBRANCH  67  68
ENDBRANCH   1  67
TORSDOF 15
ENDMDL
