MODEL 1
REMARK VINA RESULT:     -10.8      0.000      0.000
REMARK SMILES CCN(C)S(=O)(=O)N1CC[C@H](Cc2ccc(C(=O)OCCOC(=O)c3ccc(-c4c5nc(c(-c6ccc(S(=O)(=O)[O-])cc6)c6ccc([nH]6)c(-c6ccc(S(=O)(=O)[O-])cc6)c6nc(c(-c7ccc(S(=O)(=O)[O-])cc7)c7ccc4[nH]7)C=C6)C=C5)cc3)cc2)C1
REMARK SMILES IDX 20 1 19 2 17 3 18 4 16 5 13 6 14 7 86 8 15 9 85 10 12 11
REMARK SMILES IDX 11 12 8 13 9 14 87 15 10 16 5 17 6 18 7 19 3 20 4 21 2 22
REMARK SMILES IDX 1 23 21 24 22 25 23 26 24 27 25 28 26 29 84 30 27 31 83 32
REMARK SMILES IDX 28 33 29 34 30 35 77 36 31 37 82 38 76 39 78 40 32 41 81 42
REMARK SMILES IDX 75 43 74 44 33 46 63 47 44 48 62 49 45 50 48 51 61 52 79 53
REMARK SMILES IDX 46 54 47 55 60 57 80 58 49 59 34 60 35 61 43 62 36 63 42 64
REMARK SMILES IDX 37 65 38 66 39 67 40 68 41 69 64 70 65 71 73 72 66 73 72 74
REMARK SMILES IDX 67 75 68 76 69 77 70 78 71 79 50 80 51 81 59 82 52 83 58 84
REMARK SMILES IDX 53 85 54 86 55 87 56 88 57 89
REMARK H PARENT 78 45 48 56
REMARK Flexibility Score: inf
ROOT
ATOM      1  C   UNL A   1      42.611  22.242  26.011  1.00  0.00     0.275 C 
ENDROOT
BRANCH   1   2
ATOM      2  O   UNL A   1      41.353  21.712  25.541  1.00  0.00    -0.458 OA
BRANCH   2   3
ATOM      3  C   UNL A   1      40.411  21.541  26.500  1.00  0.00     0.338 C 
ATOM      4  O   UNL A   1      40.599  21.096  27.622  1.00  0.00    -0.246 OA
BRANCH   3   5
ATOM      5  C   UNL A   1      39.084  22.019  26.052  1.00  0.00     0.060 A 
ATOM      6  C   UNL A   1      36.500  22.963  25.531  1.00  0.00    -0.048 A 
ATOM      7  C   UNL A   1      37.458  23.817  26.073  1.00  0.00     0.004 A 
ATOM      8  C   UNL A   1      36.859  21.650  25.189  1.00  0.00     0.004 A 
ATOM      9  C   UNL A   1      38.722  23.333  26.361  1.00  0.00     0.016 A 
ATOM     10  C   UNL A   1      38.154  21.178  25.440  1.00  0.00     0.016 A 
BRANCH   6  11
ATOM     11  C   UNL A   1      35.083  23.459  25.440  1.00  0.00     0.040 C 
BRANCH  11  12
ATOM     12  C   UNL A   1      34.855  24.364  24.223  1.00  0.00     0.010 C 
ATOM     13  N   UNL A   1      32.992  25.808  23.589  1.00  0.00    -0.189 NA
ATOM     14  C   UNL A   1      33.409  24.946  22.438  1.00  0.00     0.104 C 
ATOM     15  C   UNL A   1      34.061  25.616  24.617  1.00  0.00     0.107 C 
ATOM     16  C   UNL A   1      34.033  23.734  23.100  1.00  0.00     0.022 C 
BRANCH  13  17
ATOM     17  S   UNL A   1      31.391  25.484  24.090  1.00  0.00     0.281 S 
ATOM     18  O   UNL A   1      31.443  25.011  25.458  1.00  0.00    -0.195 OA
ATOM     19  O   UNL A   1      30.783  24.694  23.049  1.00  0.00    -0.195 OA
BRANCH  17  20
ATOM     20  N   UNL A   1      30.628  27.009  24.088  1.00  0.00    -0.192 NA
ATOM     21  C   UNL A   1      30.537  27.693  22.780  1.00  0.00     0.125 C 
BRANCH  20  22
ATOM     22  C   UNL A   1      31.220  27.963  25.093  1.00  0.00     0.100 C 
ATOM     23  C   UNL A   1      31.926  29.151  24.469  1.00  0.00     0.022 C 
ENDBRANCH  20  22
ENDBRANCH  17  20
ENDBRANCH  13  17
ENDBRANCH  11  12
ENDBRANCH   6  11
ENDBRANCH   3   5
ENDBRANCH   2   3
ENDBRANCH   1   2
BRANCH   1  24
ATOM     24  C   UNL A   1      42.795  23.711  25.623  1.00  0.00     0.275 C 
BRANCH  24  25
ATOM     25  O   UNL A   1      41.990  24.587  26.435  1.00  0.00    -0.458 OA
BRANCH  25  26
ATOM     26  C   UNL A   1      41.879  25.846  25.956  1.00  0.00     0.338 C 
ATOM     27  O   UNL A   1      42.205  26.240  24.847  1.00  0.00    -0.246 OA
BRANCH  26  28
ATOM     28  C   UNL A   1      41.221  26.739  26.921  1.00  0.00     0.060 A 
ATOM     29  C   UNL A   1      41.711  28.032  27.025  1.00  0.00     0.016 A 
ATOM     30  C   UNL A   1      40.374  26.240  27.903  1.00  0.00     0.016 A 
ATOM     31  C   UNL A   1      41.549  28.747  28.207  1.00  0.00     0.010 A 
ATOM     32  C   UNL A   1      40.062  27.039  29.014  1.00  0.00     0.010 A 
ATOM     33  C   UNL A   1      40.709  28.273  29.224  1.00  0.00    -0.014 A 
BRANCH  33  34
ATOM     34  C   UNL A   1      40.549  29.040  30.501  1.00  0.00     0.031 A 
ATOM     35  C   UNL A   1      39.456  30.080  30.645  1.00  0.00     0.074 A 
ATOM     36  C   UNL A   1      41.359  28.797  31.556  1.00  0.00     0.049 A 
ATOM     37  N   UNL A   1      39.263  30.955  31.602  1.00  0.00    -0.248 NA
ATOM     38  C   UNL A   1      38.462  30.163  29.562  1.00  0.00     0.031 C 
ATOM     39  C   UNL A   1      42.426  27.792  31.600  1.00  0.00     0.029 A 
ATOM     40  N   UNL A   1      41.406  29.369  32.805  1.00  0.00    -0.354 N 
ATOM     41  C   UNL A   1      38.174  31.729  31.205  1.00  0.00     0.074 A 
ATOM     42  C   UNL A   1      37.763  31.233  29.910  1.00  0.00     0.031 C 
ATOM     43  C   UNL A   1      42.970  27.771  32.824  1.00  0.00     0.029 A 
ATOM     44  C   UNL A   1      42.383  28.841  33.619  1.00  0.00     0.049 A 
ATOM     45  H   UNL A   1      40.798  30.089  33.091  1.00  0.00     0.167 HD
ATOM     46  C   UNL A   1      37.571  32.754  31.857  1.00  0.00     0.031 A 
ATOM     47  C   UNL A   1      42.804  29.197  34.848  1.00  0.00     0.031 A 
ATOM     48  C   UNL A   1      37.958  33.217  33.166  1.00  0.00     0.049 A 
ATOM     49  C   UNL A   1      42.161  30.372  35.525  1.00  0.00     0.074 A 
ATOM     50  C   UNL A   1      37.404  34.240  33.917  1.00  0.00     0.029 A 
ATOM     51  N   UNL A   1      38.986  32.679  33.927  1.00  0.00    -0.354 N 
ATOM     52  N   UNL A   1      41.172  31.124  35.108  1.00  0.00    -0.248 NA
ATOM     53  C   UNL A   1      42.699  30.751  36.838  1.00  0.00     0.031 C 
ATOM     54  C   UNL A   1      38.133  34.358  35.105  1.00  0.00     0.029 A 
ATOM     55  C   UNL A   1      39.094  33.360  35.129  1.00  0.00     0.049 A 
ATOM     56  H   UNL A   1      39.555  31.923  33.653  1.00  0.00     0.167 HD
ATOM     57  C   UNL A   1      40.948  32.048  36.122  1.00  0.00     0.074 A 
ATOM     58  C   UNL A   1      41.894  31.747  37.178  1.00  0.00     0.031 C 
ATOM     59  C   UNL A   1      40.039  33.053  36.174  1.00  0.00     0.031 A 
BRANCH  46  60
ATOM     60  C   UNL A   1      36.452  33.479  31.145  1.00  0.00    -0.014 A 
ATOM     61  C   UNL A   1      36.521  33.788  29.774  1.00  0.00     0.010 A 
ATOM     62  C   UNL A   1      35.291  33.832  31.861  1.00  0.00     0.010 A 
ATOM     63  C   UNL A   1      35.479  34.482  29.148  1.00  0.00     0.020 A 
ATOM     64  C   UNL A   1      34.233  34.495  31.232  1.00  0.00     0.020 A 
ATOM     65  C   UNL A   1      34.343  34.835  29.884  1.00  0.00     0.054 A 
BRANCH  65  66
ATOM     66  S   UNL A   1      33.007  35.732  29.046  1.00  0.00     0.124 S 
ATOM     67  O   UNL A   1      32.193  36.183  30.172  1.00  0.00    -0.237 OA
ATOM     68  O   UNL A   1      33.726  36.783  28.330  1.00  0.00    -0.237 OA
ATOM     69  O   UNL A   1      32.386  34.718  28.197  1.00  0.00    -0.744 OA
ENDBRANCH  65  66
ENDBRANCH  46  60
BRANCH  47  70
ATOM     70  C   UNL A   1      43.923  28.454  35.497  1.00  0.00    -0.014 A 
ATOM     71  C   UNL A   1      43.663  27.354  36.332  1.00  0.00     0.010 A 
ATOM     72  C   UNL A   1      45.259  28.836  35.269  1.00  0.00     0.010 A 
ATOM     73  C   UNL A   1      44.716  26.662  36.940  1.00  0.00     0.020 A 
ATOM     74  C   UNL A   1      46.315  28.124  35.844  1.00  0.00     0.020 A 
ATOM     75  C   UNL A   1      46.035  27.048  36.689  1.00  0.00     0.054 A 
BRANCH  75  76
ATOM     76  S   UNL A   1      47.384  26.106  37.450  1.00  0.00     0.124 S 
ATOM     77  O   UNL A   1      47.368  24.869  36.673  1.00  0.00    -0.237 OA
ATOM     78  O   UNL A   1      48.538  26.975  37.232  1.00  0.00    -0.237 OA
ATOM     79  O   UNL A   1      46.967  25.973  38.844  1.00  0.00    -0.744 OA
ENDBRANCH  75  76
ENDBRANCH  47  70
BRANCH  59  80
ATOM     80  C   UNL A   1      39.984  33.864  37.441  1.00  0.00    -0.014 A 
ATOM     81  C   UNL A   1      39.195  33.471  38.537  1.00  0.00     0.010 A 
ATOM     82  C   UNL A   1      40.757  35.036  37.541  1.00  0.00     0.010 A 
ATOM     83  C   UNL A   1      39.145  34.260  39.690  1.00  0.00     0.020 A 
ATOM     84  C   UNL A   1      40.737  35.809  38.704  1.00  0.00     0.020 A 
ATOM     85  C   UNL A   1      39.915  35.424  39.765  1.00  0.00     0.054 A 
BRANCH  85  86
ATOM     86  S   UNL A   1      39.850  36.419  41.280  1.00  0.00     0.124 S 
ATOM     87  O   UNL A   1      39.249  35.488  42.230  1.00  0.00    -0.237 OA
ATOM     88  O   UNL A   1      41.258  36.734  41.514  1.00  0.00    -0.237 OA
ATOM     89  O   UNL A   1      39.015  37.560  40.912  1.00  0.00    -0.744 OA
ENDBRANCH  85  86
ENDBRANCH  59  80
ENDBRANCH  33  34
ENDBRANCH  26  28
ENDBRANCH  25  26
ENDBRANCH  24  25
ENDBRANCH   1  24
TORSDOF 19
ENDMDL
MODEL 2
REMARK VINA RESULT:     -10.5      4.430     11.790
REMARK SMILES CCN(C)S(=O)(=O)N1CC[C@H](Cc2ccc(C(=O)OCCOC(=O)c3ccc(-c4c5nc(c(-c6ccc(S(=O)(=O)[O-])cc6)c6ccc([nH]6)c(-c6ccc(S(=O)(=O)[O-])cc6)c6nc(c(-c7ccc(S(=O)(=O)[O-])cc7)c7ccc4[nH]7)C=C6)C=C5)cc3)cc2)C1
REMARK SMILES IDX 20 1 19 2 17 3 18 4 16 5 13 6 14 7 86 8 15 9 85 10 12 11
REMARK SMILES IDX 11 12 8 13 9 14 87 15 10 16 5 17 6 18 7 19 3 20 4 21 2 22
REMARK SMILES IDX 1 23 21 24 22 25 23 26 24 27 25 28 26 29 84 30 27 31 83 32
REMARK SMILES IDX 28 33 29 34 30 35 77 36 31 37 82 38 76 39 78 40 32 41 81 42
REMARK SMILES IDX 75 43 74 44 33 46 63 47 44 48 62 49 45 50 48 51 61 52 79 53
REMARK SMILES IDX 46 54 47 55 60 57 80 58 49 59 34 60 35 61 43 62 36 63 42 64
REMARK SMILES IDX 37 65 38 66 39 67 40 68 41 69 64 70 65 71 73 72 66 73 72 74
REMARK SMILES IDX 67 75 68 76 69 77 70 78 71 79 50 80 51 81 59 82 52 83 58 84
REMARK SMILES IDX 53 85 54 86 55 87 56 88 57 89
REMARK H PARENT 78 45 48 56
REMARK Flexibility Score: inf
ROOT
ATOM      1  C   UNL A   1      32.579  32.814  27.101  1.00  0.00     0.275 C 
ENDROOT
BRANCH   1   2
ATOM      2  O   UNL A   1      33.097  33.543  28.234  1.00  0.00    -0.458 OA
BRANCH   2   3
ATOM      3  C   UNL A   1      34.402  33.896  28.139  1.00  0.00     0.338 C 
ATOM      4  O   UNL A   1      34.886  34.647  27.307  1.00  0.00    -0.246 OA
BRANCH   3   5
ATOM      5  C   UNL A   1      35.208  33.298  29.226  1.00  0.00     0.060 A 
ATOM      6  C   UNL A   1      36.588  32.391  31.488  1.00  0.00    -0.048 A 
ATOM      7  C   UNL A   1      35.210  32.206  31.392  1.00  0.00     0.004 A 
ATOM      8  C   UNL A   1      37.284  32.972  30.418  1.00  0.00     0.004 A 
ATOM      9  C   UNL A   1      34.531  32.689  30.287  1.00  0.00     0.016 A 
ATOM     10  C   UNL A   1      36.597  33.419  29.281  1.00  0.00     0.016 A 
BRANCH   6  11
ATOM     11  C   UNL A   1      37.255  32.055  32.793  1.00  0.00     0.040 C 
BRANCH  11  12
ATOM     12  C   UNL A   1      38.314  33.088  33.196  1.00  0.00     0.010 C 
ATOM     13  N   UNL A   1      39.593  33.401  35.250  1.00  0.00    -0.189 NA
ATOM     14  C   UNL A   1      38.997  34.696  34.797  1.00  0.00     0.104 C 
ATOM     15  C   UNL A   1      39.370  32.457  34.111  1.00  0.00     0.107 C 
ATOM     16  C   UNL A   1      37.781  34.275  33.996  1.00  0.00     0.022 C 
BRANCH  13  17
ATOM     17  S   UNL A   1      38.987  32.910  36.771  1.00  0.00     0.281 S 
ATOM     18  O   UNL A   1      38.224  31.695  36.572  1.00  0.00    -0.195 OA
ATOM     19  O   UNL A   1      38.393  34.075  37.376  1.00  0.00    -0.195 OA
BRANCH  17  20
ATOM     20  N   UNL A   1      40.379  32.517  37.676  1.00  0.00    -0.192 NA
ATOM     21  C   UNL A   1      40.538  33.217  38.968  1.00  0.00     0.125 C 
BRANCH  20  22
ATOM     22  C   UNL A   1      41.652  32.661  36.885  1.00  0.00     0.100 C 
ATOM     23  C   UNL A   1      42.286  31.340  36.496  1.00  0.00     0.022 C 
ENDBRANCH  20  22
ENDBRANCH  17  20
ENDBRANCH  13  17
ENDBRANCH  11  12
ENDBRANCH   6  11
ENDBRANCH   3   5
ENDBRANCH   2   3
ENDBRANCH   1   2
BRANCH   1  24
ATOM     24  C   UNL A   1      32.704  31.300  27.286  1.00  0.00     0.275 C 
BRANCH  24  25
ATOM     25  O   UNL A   1      33.992  30.810  26.865  1.00  0.00    -0.458 OA
BRANCH  25  26
ATOM     26  C   UNL A   1      34.391  29.681  27.491  1.00  0.00     0.338 C 
ATOM     27  O   UNL A   1      33.803  28.612  27.521  1.00  0.00    -0.246 OA
BRANCH  26  28
ATOM     28  C   UNL A   1      35.716  29.841  28.108  1.00  0.00     0.060 A 
ATOM     29  C   UNL A   1      36.763  30.209  27.277  1.00  0.00     0.016 A 
ATOM     30  C   UNL A   1      35.984  29.345  29.379  1.00  0.00     0.016 A 
ATOM     31  C   UNL A   1      38.071  29.875  27.611  1.00  0.00     0.010 A 
ATOM     32  C   UNL A   1      37.317  29.180  29.786  1.00  0.00     0.010 A 
ATOM     33  C   UNL A   1      38.380  29.365  28.880  1.00  0.00    -0.014 A 
BRANCH  33  34
ATOM     34  C   UNL A   1      39.788  28.993  29.231  1.00  0.00     0.031 A 
ATOM     35  C   UNL A   1      40.674  29.958  29.993  1.00  0.00     0.074 A 
ATOM     36  C   UNL A   1      40.284  27.780  28.897  1.00  0.00     0.049 A 
ATOM     37  N   UNL A   1      41.960  29.886  30.242  1.00  0.00    -0.248 NA
ATOM     38  C   UNL A   1      40.039  31.174  30.527  1.00  0.00     0.031 C 
ATOM     39  C   UNL A   1      39.545  26.716  28.209  1.00  0.00     0.029 A 
ATOM     40  N   UNL A   1      41.525  27.228  29.103  1.00  0.00    -0.354 N 
ATOM     41  C   UNL A   1      42.294  31.069  30.898  1.00  0.00     0.074 A 
ATOM     42  C   UNL A   1      41.080  31.850  30.989  1.00  0.00     0.031 C 
ATOM     43  C   UNL A   1      40.318  25.627  28.113  1.00  0.00     0.029 A 
ATOM     44  C   UNL A   1      41.647  25.945  28.617  1.00  0.00     0.049 A 
ATOM     45  H   UNL A   1      42.259  27.704  29.555  1.00  0.00     0.167 HD
ATOM     46  C   UNL A   1      43.496  31.468  31.382  1.00  0.00     0.031 A 
ATOM     47  C   UNL A   1      42.711  25.124  28.533  1.00  0.00     0.031 A 
ATOM     48  C   UNL A   1      44.694  30.668  31.326  1.00  0.00     0.049 A 
ATOM     49  C   UNL A   1      44.045  25.609  29.022  1.00  0.00     0.074 A 
ATOM     50  C   UNL A   1      45.959  30.977  31.798  1.00  0.00     0.029 A 
ATOM     51  N   UNL A   1      44.775  29.395  30.780  1.00  0.00    -0.354 N 
ATOM     52  N   UNL A   1      44.350  26.752  29.586  1.00  0.00    -0.248 NA
ATOM     53  C   UNL A   1      45.181  24.694  28.852  1.00  0.00     0.031 C 
ATOM     54  C   UNL A   1      46.816  29.915  31.485  1.00  0.00     0.029 A 
ATOM     55  C   UNL A   1      46.070  28.914  30.885  1.00  0.00     0.049 A 
ATOM     56  H   UNL A   1      44.021  28.906  30.376  1.00  0.00     0.167 HD
ATOM     57  C   UNL A   1      45.709  26.682  29.868  1.00  0.00     0.074 A 
ATOM     58  C   UNL A   1      46.161  25.378  29.428  1.00  0.00     0.031 C 
ATOM     59  C   UNL A   1      46.509  27.614  30.444  1.00  0.00     0.031 A 
BRANCH  46  60
ATOM     60  C   UNL A   1      43.591  32.854  31.978  1.00  0.00    -0.014 A 
ATOM     61  C   UNL A   1      43.314  33.099  33.336  1.00  0.00     0.010 A 
ATOM     62  C   UNL A   1      43.996  33.931  31.165  1.00  0.00     0.010 A 
ATOM     63  C   UNL A   1      43.386  34.397  33.853  1.00  0.00     0.020 A 
ATOM     64  C   UNL A   1      44.103  35.223  31.686  1.00  0.00     0.020 A 
ATOM     65  C   UNL A   1      43.776  35.453  33.023  1.00  0.00     0.054 A 
BRANCH  65  66
ATOM     66  S   UNL A   1      43.865  37.125  33.722  1.00  0.00     0.124 S 
ATOM     67  O   UNL A   1      42.662  37.170  34.549  1.00  0.00    -0.237 OA
ATOM     68  O   UNL A   1      45.129  37.099  34.454  1.00  0.00    -0.237 OA
ATOM     69  O   UNL A   1      43.846  37.994  32.548  1.00  0.00    -0.744 OA
ENDBRANCH  65  66
ENDBRANCH  46  60
BRANCH  47  70
ATOM     70  C   UNL A   1      42.563  23.771  27.922  1.00  0.00    -0.014 A 
ATOM     71  C   UNL A   1      42.930  23.546  26.584  1.00  0.00     0.010 A 
ATOM     72  C   UNL A   1      42.066  22.695  28.682  1.00  0.00     0.010 A 
ATOM     73  C   UNL A   1      42.788  22.277  26.013  1.00  0.00     0.020 A 
ATOM     74  C   UNL A   1      41.959  21.417  28.127  1.00  0.00     0.020 A 
ATOM     75  C   UNL A   1      42.308  21.219  26.790  1.00  0.00     0.054 A 
BRANCH  75  76
ATOM     76  S   UNL A   1      42.177  19.572  26.043  1.00  0.00     0.124 S 
ATOM     77  O   UNL A   1      42.653  18.711  27.122  1.00  0.00    -0.237 OA
ATOM     78  O   UNL A   1      40.751  19.476  25.739  1.00  0.00    -0.237 OA
ATOM     79  O   UNL A   1      43.052  19.654  24.876  1.00  0.00    -0.744 OA
ENDBRANCH  75  76
ENDBRANCH  47  70
BRANCH  59  80
ATOM     80  C   UNL A   1      47.946  27.231  30.684  1.00  0.00    -0.014 A 
ATOM     81  C   UNL A   1      48.376  26.712  31.918  1.00  0.00     0.010 A 
ATOM     82  C   UNL A   1      48.879  27.376  29.640  1.00  0.00     0.010 A 
ATOM     83  C   UNL A   1      49.722  26.391  32.118  1.00  0.00     0.020 A 
ATOM     84  C   UNL A   1      50.218  27.024  29.825  1.00  0.00     0.020 A 
ATOM     85  C   UNL A   1      50.634  26.551  31.071  1.00  0.00     0.054 A 
BRANCH  85  86
ATOM     86  S   UNL A   1      52.370  26.106  31.348  1.00  0.00     0.124 S 
ATOM     87  O   UNL A   1      52.260  24.722  31.801  1.00  0.00    -0.237 OA
ATOM     88  O   UNL A   1      52.961  26.288  30.024  1.00  0.00    -0.237 OA
ATOM     89  O   UNL A   1      52.817  27.060  32.359  1.00  0.00    -0.744 OA
ENDBRANCH  85  86
ENDBRANCH  59  80
ENDBRANCH  33  34
ENDBRANCH  26  28
ENDBRANCH  25  26
ENDBRANCH  24  25
ENDBRANCH   1  24
TORSDOF 19
ENDMDL
MODEL 3
REMARK VINA RESULT:     -10.5      1.208      1.935
REMARK SMILES CCN(C)S(=O)(=O)N1CC[C@H](Cc2ccc(C(=O)OCCOC(=O)c3ccc(-c4c5nc(c(-c6ccc(S(=O)(=O)[O-])cc6)c6ccc([nH]6)c(-c6ccc(S(=O)(=O)[O-])cc6)c6nc(c(-c7ccc(S(=O)(=O)[O-])cc7)c7ccc4[nH]7)C=C6)C=C5)cc3)cc2)C1
REMARK SMILES IDX 20 1 19 2 17 3 18 4 16 5 13 6 14 7 86 8 15 9 85 10 12 11
REMARK SMILES IDX 11 12 8 13 9 14 87 15 10 16 5 17 6 18 7 19 3 20 4 21 2 22
REMARK SMILES IDX 1 23 21 24 22 25 23 26 24 27 25 28 26 29 84 30 27 31 83 32
REMARK SMILES IDX 28 33 29 34 30 35 77 36 31 37 82 38 76 39 78 40 32 41 81 42
REMARK SMILES IDX 75 43 74 44 33 46 63 47 44 48 62 49 45 50 48 51 61 52 79 53
REMARK SMILES IDX 46 54 47 55 60 57 80 58 49 59 34 60 35 61 43 62 36 63 42 64
REMARK SMILES IDX 37 65 38 66 39 67 40 68 41 69 64 70 65 71 73 72 66 73 72 74
REMARK SMILES IDX 67 75 68 76 69 77 70 78 71 79 50 80 51 81 59 82 52 83 58 84
REMARK SMILES IDX 53 85 54 86 55 87 56 88 57 89
REMARK H PARENT 78 45 48 56
REMARK Flexibility Score: inf
ROOT
ATOM      1  C   UNL A   1      40.321  21.621  26.644  1.00  0.00     0.275 C 
ENDROOT
BRANCH   1   2
ATOM      2  O   UNL A   1      38.969  21.857  26.197  1.00  0.00    -0.458 OA
BRANCH   2   3
ATOM      3  C   UNL A   1      38.426  20.854  25.465  1.00  0.00     0.338 C 
ATOM      4  O   UNL A   1      38.905  19.743  25.299  1.00  0.00    -0.246 OA
BRANCH   3   5
ATOM      5  C   UNL A   1      37.108  21.237  24.910  1.00  0.00     0.060 A 
ATOM      6  C   UNL A   1      34.622  22.219  24.077  1.00  0.00    -0.048 A 
ATOM      7  C   UNL A   1      35.780  22.948  23.820  1.00  0.00     0.004 A 
ATOM      8  C   UNL A   1      34.718  20.962  24.694  1.00  0.00     0.004 A 
ATOM      9  C   UNL A   1      37.002  22.473  24.267  1.00  0.00     0.016 A 
ATOM     10  C   UNL A   1      35.962  20.465  25.104  1.00  0.00     0.016 A 
BRANCH   6  11
ATOM     11  C   UNL A   1      33.299  22.867  23.776  1.00  0.00     0.040 C 
BRANCH  11  12
ATOM     12  C   UNL A   1      32.326  22.796  24.960  1.00  0.00     0.010 C 
ATOM     13  N   UNL A   1      30.563  24.303  25.717  1.00  0.00    -0.189 NA
ATOM     14  C   UNL A   1      31.443  23.903  26.859  1.00  0.00     0.104 C 
ATOM     15  C   UNL A   1      30.971  23.411  24.588  1.00  0.00     0.107 C 
ATOM     16  C   UNL A   1      32.766  23.573  26.199  1.00  0.00     0.022 C 
BRANCH  13  17
ATOM     17  S   UNL A   1      30.624  25.984  25.414  1.00  0.00     0.281 S 
ATOM     18  O   UNL A   1      30.969  26.645  26.656  1.00  0.00    -0.195 OA
ATOM     19  O   UNL A   1      29.419  26.320  24.698  1.00  0.00    -0.195 OA
BRANCH  17  20
ATOM     20  N   UNL A   1      31.931  26.173  24.335  1.00  0.00    -0.192 NA
ATOM     21  C   UNL A   1      33.068  26.987  24.819  1.00  0.00     0.125 C 
BRANCH  20  22
ATOM     22  C   UNL A   1      31.507  26.688  22.985  1.00  0.00     0.100 C 
ATOM     23  C   UNL A   1      32.088  25.909  21.821  1.00  0.00     0.022 C 
ENDBRANCH  20  22
ENDBRANCH  17  20
ENDBRANCH  13  17
ENDBRANCH  11  12
ENDBRANCH   6  11
ENDBRANCH   3   5
ENDBRANCH   2   3
ENDBRANCH   1   2
BRANCH   1  24
ATOM     24  C   UNL A   1      41.194  22.872  26.518  1.00  0.00     0.275 C 
BRANCH  24  25
ATOM     25  O   UNL A   1      40.409  24.081  26.545  1.00  0.00    -0.458 OA
BRANCH  25  26
ATOM     26  C   UNL A   1      41.137  25.218  26.500  1.00  0.00     0.338 C 
ATOM     27  O   UNL A   1      42.091  25.450  25.775  1.00  0.00    -0.246 OA
BRANCH  26  28
ATOM     28  C   UNL A   1      40.599  26.244  27.404  1.00  0.00     0.060 A 
ATOM     29  C   UNL A   1      41.254  27.465  27.441  1.00  0.00     0.016 A 
ATOM     30  C   UNL A   1      39.688  25.919  28.403  1.00  0.00     0.016 A 
ATOM     31  C   UNL A   1      41.182  28.263  28.579  1.00  0.00     0.010 A 
ATOM     32  C   UNL A   1      39.479  26.815  29.463  1.00  0.00     0.010 A 
ATOM     33  C   UNL A   1      40.282  27.963  29.610  1.00  0.00    -0.014 A 
BRANCH  33  34
ATOM     34  C   UNL A   1      40.218  28.817  30.840  1.00  0.00     0.031 A 
ATOM     35  C   UNL A   1      39.183  29.918  30.962  1.00  0.00     0.074 A 
ATOM     36  C   UNL A   1      41.064  28.602  31.872  1.00  0.00     0.049 A 
ATOM     37  N   UNL A   1      39.077  30.861  31.867  1.00  0.00    -0.248 NA
ATOM     38  C   UNL A   1      38.145  29.981  29.921  1.00  0.00     0.031 C 
ATOM     39  C   UNL A   1      42.083  27.549  31.936  1.00  0.00     0.029 A 
ATOM     40  N   UNL A   1      41.196  29.249  33.078  1.00  0.00    -0.354 N 
ATOM     41  C   UNL A   1      38.009  31.661  31.467  1.00  0.00     0.074 A 
ATOM     42  C   UNL A   1      37.514  31.105  30.227  1.00  0.00     0.031 C 
ATOM     43  C   UNL A   1      42.682  27.579  33.133  1.00  0.00     0.029 A 
ATOM     44  C   UNL A   1      42.184  28.725  33.881  1.00  0.00     0.049 A 
ATOM     45  H   UNL A   1      40.637  30.015  33.341  1.00  0.00     0.167 HD
ATOM     46  C   UNL A   1      37.486  32.755  32.075  1.00  0.00     0.031 A 
ATOM     47  C   UNL A   1      42.678  29.138  35.064  1.00  0.00     0.031 A 
ATOM     48  C   UNL A   1      37.955  33.281  33.333  1.00  0.00     0.049 A 
ATOM     49  C   UNL A   1      42.124  30.384  35.690  1.00  0.00     0.074 A 
ATOM     50  C   UNL A   1      37.485  34.376  34.038  1.00  0.00     0.029 A 
ATOM     51  N   UNL A   1      38.990  32.741  34.083  1.00  0.00    -0.354 N 
ATOM     52  N   UNL A   1      41.153  31.157  35.268  1.00  0.00    -0.248 NA
ATOM     53  C   UNL A   1      42.740  30.819  36.950  1.00  0.00     0.031 C 
ATOM     54  C   UNL A   1      38.274  34.533  35.183  1.00  0.00     0.029 A 
ATOM     55  C   UNL A   1      39.187  33.492  35.231  1.00  0.00     0.049 A 
ATOM     56  H   UNL A   1      39.510  31.942  33.835  1.00  0.00     0.167 HD
ATOM     57  C   UNL A   1      41.021  32.154  36.227  1.00  0.00     0.074 A 
ATOM     58  C   UNL A   1      41.999  31.874  37.258  1.00  0.00     0.031 C 
ATOM     59  C   UNL A   1      40.163  33.205  36.252  1.00  0.00     0.031 A 
BRANCH  46  60
ATOM     60  C   UNL A   1      36.370  33.488  31.367  1.00  0.00    -0.014 A 
ATOM     61  C   UNL A   1      35.190  33.869  32.034  1.00  0.00     0.010 A 
ATOM     62  C   UNL A   1      36.520  33.831  30.009  1.00  0.00     0.010 A 
ATOM     63  C   UNL A   1      34.165  34.526  31.345  1.00  0.00     0.020 A 
ATOM     64  C   UNL A   1      35.512  34.519  29.326  1.00  0.00     0.020 A 
ATOM     65  C   UNL A   1      34.331  34.842  29.993  1.00  0.00     0.054 A 
BRANCH  65  66
ATOM     66  S   UNL A   1      32.985  35.697  29.127  1.00  0.00     0.124 S 
ATOM     67  O   UNL A   1      32.409  34.620  28.325  1.00  0.00    -0.237 OA
ATOM     68  O   UNL A   1      32.150  36.176  30.226  1.00  0.00    -0.237 OA
ATOM     69  O   UNL A   1      33.668  36.741  28.367  1.00  0.00    -0.744 OA
ENDBRANCH  65  66
ENDBRANCH  46  60
BRANCH  47  70
ATOM     70  C   UNL A   1      43.790  28.383  35.711  1.00  0.00    -0.014 A 
ATOM     71  C   UNL A   1      43.522  27.423  36.702  1.00  0.00     0.010 A 
ATOM     72  C   UNL A   1      45.126  28.611  35.328  1.00  0.00     0.010 A 
ATOM     73  C   UNL A   1      44.568  26.718  37.308  1.00  0.00     0.020 A 
ATOM     74  C   UNL A   1      46.170  27.882  35.903  1.00  0.00     0.020 A 
ATOM     75  C   UNL A   1      45.885  26.949  36.901  1.00  0.00     0.054 A 
BRANCH  75  76
ATOM     76  S   UNL A   1      47.220  25.990  37.667  1.00  0.00     0.124 S 
ATOM     77  O   UNL A   1      48.329  26.941  37.643  1.00  0.00    -0.237 OA
ATOM     78  O   UNL A   1      46.674  25.689  38.989  1.00  0.00    -0.237 OA
ATOM     79  O   UNL A   1      47.366  24.837  36.782  1.00  0.00    -0.744 OA
ENDBRANCH  75  76
ENDBRANCH  47  70
BRANCH  59  80
ATOM     80  C   UNL A   1      40.206  34.097  37.464  1.00  0.00    -0.014 A 
ATOM     81  C   UNL A   1      41.058  35.214  37.530  1.00  0.00     0.010 A 
ATOM     82  C   UNL A   1      39.358  33.819  38.552  1.00  0.00     0.010 A 
ATOM     83  C   UNL A   1      41.094  36.008  38.679  1.00  0.00     0.020 A 
ATOM     84  C   UNL A   1      39.366  34.630  39.689  1.00  0.00     0.020 A 
ATOM     85  C   UNL A   1      40.249  35.709  39.752  1.00  0.00     0.054 A 
BRANCH  85  86
ATOM     86  S   UNL A   1      40.297  36.768  41.224  1.00  0.00     0.124 S 
ATOM     87  O   UNL A   1      40.573  38.080  40.646  1.00  0.00    -0.237 OA
ATOM     88  O   UNL A   1      38.959  36.597  41.784  1.00  0.00    -0.237 OA
ATOM     89  O   UNL A   1      41.379  36.200  42.026  1.00  0.00    -0.744 OA
ENDBRANCH  85  86
ENDBRANCH  59  80
ENDBRANCH  33  34
ENDBRANCH  26  28
ENDBRANCH  25  26
ENDBRANCH  24  25
ENDBRANCH   1  24
TORSDOF 19
ENDMDL
