MODEL 1
REMARK VINA RESULT:     -10.9      0.000      0.000
REMARK SMILES CC(C)CN(C)c1cc2c(cc1Cl)C=C(C(=O)OCCOC(=O)c1ccc(-c3c4nc(c(-c5ccc(S(=O)(=O)[O-])cc5)c5ccc([nH]5)c(-c5ccc(S(=O)(=O)[O-])cc5)c5nc(c(-c6ccc(S(=O)(=O)[O-])cc6)c6ccc3[nH]6)C=C5)C=C4)cc1)[C@@H](C(F)(F)F)O2
REMARK SMILES IDX 19 1 18 2 16 3 17 4 15 5 7 6 8 7 12 8 9 9 11 10 13 11 10 12
REMARK SMILES IDX 89 13 14 14 84 15 5 16 6 17 4 18 2 19 1 20 3 21 85 22 86 23
REMARK SMILES IDX 87 24 88 25 20 26 21 27 22 28 23 29 24 30 25 31 83 32 26 33
REMARK SMILES IDX 82 34 27 35 28 36 29 37 76 38 30 39 81 40 75 41 77 42 31 43
REMARK SMILES IDX 80 44 74 45 73 46 32 48 62 49 43 50 61 51 44 52 47 53 60 54
REMARK SMILES IDX 78 55 45 56 46 57 59 59 79 60 48 61 33 62 34 63 42 64 35 65
REMARK SMILES IDX 41 66 36 67 37 68 38 69 39 70 40 71 63 72 64 73 72 74 65 75
REMARK SMILES IDX 71 76 66 77 67 78 68 79 69 80 70 81 49 82 50 83 58 84 51 85
REMARK SMILES IDX 57 86 52 87 53 88 54 89 55 90 56 91
REMARK H PARENT 77 47 47 58
REMARK Flexibility Score: inf
ROOT
ATOM      1  C   UNL A   1      36.181  20.797  25.376  1.00  0.00     0.275 C 
ENDROOT
BRANCH   1   2
ATOM      2  O   UNL A   1      35.222  20.894  24.297  1.00  0.00    -0.459 OA
BRANCH   2   3
ATOM      3  C   UNL A   1      33.939  20.667  24.672  1.00  0.00     0.338 C 
ATOM      4  O   UNL A   1      33.436  19.580  24.873  1.00  0.00    -0.246 OA
BRANCH   3   5
ATOM      5  C   UNL A   1      33.191  21.927  24.863  1.00  0.00     0.087 C 
ATOM      6  C   UNL A   1      31.843  26.776  24.535  1.00  0.00     0.059 A 
ATOM      7  C   UNL A   1      31.401  25.690  25.329  1.00  0.00     0.074 A 
ATOM      8  C   UNL A   1      32.922  26.546  23.657  1.00  0.00     0.065 A 
ATOM      9  C   UNL A   1      31.972  24.419  25.198  1.00  0.00     0.130 A 
ATOM     10  C   UNL A   1      33.403  25.263  23.440  1.00  0.00     0.034 A 
ATOM     11  Cl  UNL A   1      33.775  27.822  22.857  1.00  0.00    -0.082 Cl
ATOM     12  C   UNL A   1      32.918  24.206  24.203  1.00  0.00     0.019 A 
ATOM     13  O   UNL A   1      31.560  23.411  26.036  1.00  0.00    -0.475 OA
ATOM     14  C   UNL A   1      33.441  22.885  23.966  1.00  0.00     0.027 C 
ATOM     15  C   UNL A   1      32.411  22.214  26.113  1.00  0.00     0.316 C 
BRANCH   6  16
ATOM     16  N   UNL A   1      31.223  28.029  24.607  1.00  0.00    -0.373 N 
ATOM     17  C   UNL A   1      31.599  28.872  25.732  1.00  0.00     0.143 C 
BRANCH  16  18
ATOM     18  C   UNL A   1      29.849  28.152  24.073  1.00  0.00     0.119 C 
BRANCH  18  19
ATOM     19  C   UNL A   1      29.620  29.448  23.263  1.00  0.00     0.002 C 
ATOM     20  C   UNL A   1      30.454  29.483  21.977  1.00  0.00     0.009 C 
ATOM     21  C   UNL A   1      28.145  29.636  22.894  1.00  0.00     0.009 C 
ENDBRANCH  18  19
ENDBRANCH  16  18
ENDBRANCH   6  16
BRANCH  15  22
ATOM     22  C   UNL A   1      33.376  22.309  27.310  1.00  0.00     0.430 C 
ATOM     23  F   UNL A   1      34.431  23.113  27.040  1.00  0.00    -0.167 F 
ATOM     24  F   UNL A   1      32.756  22.837  28.397  1.00  0.00    -0.167 F 
ATOM     25  F   UNL A   1      33.868  21.103  27.677  1.00  0.00    -0.167 F 
ENDBRANCH  15  22
ENDBRANCH   3   5
ENDBRANCH   2   3
ENDBRANCH   1   2
BRANCH   1  26
ATOM     26  C   UNL A   1      37.613  21.058  24.903  1.00  0.00     0.275 C 
BRANCH  26  27
ATOM     27  O   UNL A   1      38.196  22.181  25.588  1.00  0.00    -0.458 OA
BRANCH  27  28
ATOM     28  C   UNL A   1      39.351  21.922  26.241  1.00  0.00     0.338 C 
ATOM     29  O   UNL A   1      39.990  20.879  26.226  1.00  0.00    -0.246 OA
BRANCH  28  30
ATOM     30  C   UNL A   1      39.826  23.131  26.925  1.00  0.00     0.060 A 
ATOM     31  C   UNL A   1      40.834  23.089  27.880  1.00  0.00     0.016 A 
ATOM     32  C   UNL A   1      39.360  24.357  26.467  1.00  0.00     0.016 A 
ATOM     33  C   UNL A   1      41.353  24.294  28.375  1.00  0.00     0.010 A 
ATOM     34  C   UNL A   1      39.985  25.542  26.838  1.00  0.00     0.010 A 
ATOM     35  C   UNL A   1      40.968  25.539  27.830  1.00  0.00    -0.014 A 
BRANCH  35  36
ATOM     36  C   UNL A   1      41.579  26.822  28.298  1.00  0.00     0.031 A 
ATOM     37  C   UNL A   1      43.056  27.102  28.115  1.00  0.00     0.074 A 
ATOM     38  C   UNL A   1      40.808  27.743  28.916  1.00  0.00     0.049 A 
ATOM     39  N   UNL A   1      43.731  28.184  28.415  1.00  0.00    -0.248 NA
ATOM     40  C   UNL A   1      43.894  26.022  27.566  1.00  0.00     0.031 C 
ATOM     41  C   UNL A   1      39.394  27.568  29.254  1.00  0.00     0.029 A 
ATOM     42  N   UNL A   1      41.092  29.018  29.346  1.00  0.00    -0.354 N 
ATOM     43  C   UNL A   1      45.060  27.905  28.108  1.00  0.00     0.074 A 
ATOM     44  C   UNL A   1      45.112  26.525  27.687  1.00  0.00     0.031 C 
ATOM     45  C   UNL A   1      38.910  28.720  29.741  1.00  0.00     0.029 A 
ATOM     46  C   UNL A   1      39.988  29.704  29.802  1.00  0.00     0.049 A 
ATOM     47  H   UNL A   1      41.997  29.403  29.330  1.00  0.00     0.167 HD
ATOM     48  C   UNL A   1      46.133  28.729  28.121  1.00  0.00     0.031 A 
ATOM     49  C   UNL A   1      39.840  30.986  30.196  1.00  0.00     0.031 A 
ATOM     50  C   UNL A   1      46.070  30.118  28.490  1.00  0.00     0.049 A 
ATOM     51  C   UNL A   1      41.026  31.907  30.154  1.00  0.00     0.074 A 
ATOM     52  C   UNL A   1      47.083  31.058  28.464  1.00  0.00     0.029 A 
ATOM     53  N   UNL A   1      44.929  30.768  28.937  1.00  0.00    -0.354 N 
ATOM     54  N   UNL A   1      42.256  31.642  29.780  1.00  0.00    -0.248 NA
ATOM     55  C   UNL A   1      40.809  33.299  30.570  1.00  0.00     0.031 C 
ATOM     56  C   UNL A   1      46.570  32.265  28.943  1.00  0.00     0.029 A 
ATOM     57  C   UNL A   1      45.219  32.094  29.205  1.00  0.00     0.049 A 
ATOM     58  H   UNL A   1      44.046  30.349  29.047  1.00  0.00     0.167 HD
ATOM     59  C   UNL A   1      42.957  32.834  29.909  1.00  0.00     0.074 A 
ATOM     60  C   UNL A   1      42.011  33.829  30.372  1.00  0.00     0.031 C 
ATOM     61  C   UNL A   1      44.269  33.077  29.669  1.00  0.00     0.031 A 
BRANCH  48  62
ATOM     62  C   UNL A   1      47.464  28.174  27.669  1.00  0.00    -0.014 A 
ATOM     63  C   UNL A   1      47.834  28.232  26.313  1.00  0.00     0.010 A 
ATOM     64  C   UNL A   1      48.317  27.517  28.577  1.00  0.00     0.010 A 
ATOM     65  C   UNL A   1      49.021  27.634  25.872  1.00  0.00     0.020 A 
ATOM     66  C   UNL A   1      49.520  26.952  28.148  1.00  0.00     0.020 A 
ATOM     67  C   UNL A   1      49.854  26.995  26.794  1.00  0.00     0.054 A 
BRANCH  67  68
ATOM     68  S   UNL A   1      51.394  26.230  26.211  1.00  0.00     0.124 S 
ATOM     69  O   UNL A   1      51.224  26.261  24.762  1.00  0.00    -0.237 OA
ATOM     70  O   UNL A   1      52.420  27.122  26.747  1.00  0.00    -0.237 OA
ATOM     71  O   UNL A   1      51.363  24.900  26.817  1.00  0.00    -0.744 OA
ENDBRANCH  67  68
ENDBRANCH  48  62
BRANCH  49  72
ATOM     72  C   UNL A   1      38.478  31.470  30.564  1.00  0.00    -0.014 A 
ATOM     73  C   UNL A   1      37.587  31.927  29.574  1.00  0.00     0.010 A 
ATOM     74  C   UNL A   1      38.123  31.605  31.917  1.00  0.00     0.010 A 
ATOM     75  C   UNL A   1      36.403  32.579  29.933  1.00  0.00     0.020 A 
ATOM     76  C   UNL A   1      36.924  32.231  32.279  1.00  0.00     0.020 A 
ATOM     77  C   UNL A   1      36.092  32.748  31.284  1.00  0.00     0.054 A 
BRANCH  77  78
ATOM     78  S   UNL A   1      34.607  33.692  31.726  1.00  0.00     0.124 S 
ATOM     79  O   UNL A   1      33.838  32.704  32.478  1.00  0.00    -0.237 OA
ATOM     80  O   UNL A   1      35.151  34.796  32.513  1.00  0.00    -0.237 OA
ATOM     81  O   UNL A   1      34.043  34.071  30.433  1.00  0.00    -0.744 OA
ENDBRANCH  77  78
ENDBRANCH  49  72
BRANCH  61  82
ATOM     82  C   UNL A   1      44.796  34.467  29.909  1.00  0.00    -0.014 A 
ATOM     83  C   UNL A   1      45.226  34.838  31.197  1.00  0.00     0.010 A 
ATOM     84  C   UNL A   1      44.712  35.447  28.904  1.00  0.00     0.010 A 
ATOM     85  C   UNL A   1      45.519  36.172  31.490  1.00  0.00     0.020 A 
ATOM     86  C   UNL A   1      45.032  36.779  29.187  1.00  0.00     0.020 A 
ATOM     87  C   UNL A   1      45.405  37.136  30.485  1.00  0.00     0.054 A 
BRANCH  87  88
ATOM     88  S   UNL A   1      45.734  38.872  30.898  1.00  0.00     0.124 S 
ATOM     89  O   UNL A   1      44.393  39.383  31.167  1.00  0.00    -0.237 OA
ATOM     90  O   UNL A   1      46.612  38.764  32.061  1.00  0.00    -0.237 OA
ATOM     91  O   UNL A   1      46.372  39.396  29.692  1.00  0.00    -0.744 OA
ENDBRANCH  87  88
ENDBRANCH  61  82
ENDBRANCH  35  36
ENDBRANCH  28  30
ENDBRANCH  27  28
ENDBRANCH  26  27
ENDBRANCH   1  26
TORSDOF 18
ENDMDL
MODEL 2
REMARK VINA RESULT:     -10.5      1.153      8.147
REMARK SMILES CC(C)CN(C)c1cc2c(cc1Cl)C=C(C(=O)OCCOC(=O)c1ccc(-c3c4nc(c(-c5ccc(S(=O)(=O)[O-])cc5)c5ccc([nH]5)c(-c5ccc(S(=O)(=O)[O-])cc5)c5nc(c(-c6ccc(S(=O)(=O)[O-])cc6)c6ccc3[nH]6)C=C5)C=C4)cc1)[C@@H](C(F)(F)F)O2
REMARK SMILES IDX 19 1 18 2 16 3 17 4 15 5 7 6 8 7 12 8 9 9 11 10 13 11 10 12
REMARK SMILES IDX 89 13 14 14 84 15 5 16 6 17 4 18 2 19 1 20 3 21 85 22 86 23
REMARK SMILES IDX 87 24 88 25 20 26 21 27 22 28 23 29 24 30 25 31 83 32 26 33
REMARK SMILES IDX 82 34 27 35 28 36 29 37 76 38 30 39 81 40 75 41 77 42 31 43
REMARK SMILES IDX 80 44 74 45 73 46 32 48 62 49 43 50 61 51 44 52 47 53 60 54
REMARK SMILES IDX 78 55 45 56 46 57 59 59 79 60 48 61 33 62 34 63 42 64 35 65
REMARK SMILES IDX 41 66 36 67 37 68 38 69 39 70 40 71 63 72 64 73 72 74 65 75
REMARK SMILES IDX 71 76 66 77 67 78 68 79 69 80 70 81 49 82 50 83 58 84 51 85
REMARK SMILES IDX 57 86 52 87 53 88 54 89 55 90 56 91
REMARK H PARENT 77 47 47 58
REMARK Flexibility Score: inf
ROOT
ATOM      1  C   UNL A   1      35.959  21.087  25.197  1.00  0.00     0.275 C 
ENDROOT
BRANCH   1   2
ATOM      2  O   UNL A   1      35.110  21.583  24.135  1.00  0.00    -0.459 OA
BRANCH   2   3
ATOM      3  C   UNL A   1      33.787  21.372  24.337  1.00  0.00     0.338 C 
ATOM      4  O   UNL A   1      33.262  20.302  24.571  1.00  0.00    -0.246 OA
BRANCH   3   5
ATOM      5  C   UNL A   1      33.015  22.631  24.286  1.00  0.00     0.087 C 
ATOM      6  C   UNL A   1      31.782  27.443  23.411  1.00  0.00     0.059 A 
ATOM      7  C   UNL A   1      31.167  26.392  24.134  1.00  0.00     0.074 A 
ATOM      8  C   UNL A   1      33.036  27.183  22.821  1.00  0.00     0.065 A 
ATOM      9  C   UNL A   1      31.753  25.122  24.202  1.00  0.00     0.130 A 
ATOM     10  C   UNL A   1      33.555  25.896  22.787  1.00  0.00     0.034 A 
ATOM     11  Cl  UNL A   1      34.052  28.428  22.180  1.00  0.00    -0.082 Cl
ATOM     12  C   UNL A   1      32.904  24.872  23.468  1.00  0.00     0.019 A 
ATOM     13  O   UNL A   1      31.156  24.152  24.972  1.00  0.00    -0.475 OA
ATOM     14  C   UNL A   1      33.468  23.547  23.425  1.00  0.00     0.027 C 
ATOM     15  C   UNL A   1      31.965  22.969  25.304  1.00  0.00     0.316 C 
BRANCH   6  16
ATOM     16  N   UNL A   1      31.163  28.690  23.275  1.00  0.00    -0.373 N 
ATOM     17  C   UNL A   1      31.041  29.487  24.486  1.00  0.00     0.143 C 
BRANCH  16  18
ATOM     18  C   UNL A   1      30.117  28.833  22.238  1.00  0.00     0.119 C 
BRANCH  18  19
ATOM     19  C   UNL A   1      28.798  29.433  22.777  1.00  0.00     0.002 C 
ATOM     20  C   UNL A   1      28.152  30.402  21.780  1.00  0.00     0.009 C 
ATOM     21  C   UNL A   1      27.779  28.344  23.128  1.00  0.00     0.009 C 
ENDBRANCH  18  19
ENDBRANCH  16  18
ENDBRANCH   6  16
BRANCH  15  22
ATOM     22  C   UNL A   1      32.624  23.133  26.686  1.00  0.00     0.430 C 
ATOM     23  F   UNL A   1      31.876  23.906  27.509  1.00  0.00    -0.167 F 
ATOM     24  F   UNL A   1      32.766  21.934  27.306  1.00  0.00    -0.167 F 
ATOM     25  F   UNL A   1      33.854  23.692  26.612  1.00  0.00    -0.167 F 
ENDBRANCH  15  22
ENDBRANCH   3   5
ENDBRANCH   2   3
ENDBRANCH   1   2
BRANCH   1  26
ATOM     26  C   UNL A   1      37.423  21.493  25.006  1.00  0.00     0.275 C 
BRANCH  26  27
ATOM     27  O   UNL A   1      37.911  22.243  26.134  1.00  0.00    -0.458 OA
BRANCH  27  28
ATOM     28  C   UNL A   1      39.232  22.107  26.388  1.00  0.00     0.338 C 
ATOM     29  O   UNL A   1      39.939  21.144  26.126  1.00  0.00    -0.246 OA
BRANCH  28  30
ATOM     30  C   UNL A   1      39.767  23.353  26.952  1.00  0.00     0.060 A 
ATOM     31  C   UNL A   1      40.613  23.358  28.053  1.00  0.00     0.016 A 
ATOM     32  C   UNL A   1      39.544  24.528  26.246  1.00  0.00     0.016 A 
ATOM     33  C   UNL A   1      41.217  24.563  28.441  1.00  0.00     0.010 A 
ATOM     34  C   UNL A   1      40.269  25.680  26.533  1.00  0.00     0.010 A 
ATOM     35  C   UNL A   1      41.090  25.734  27.662  1.00  0.00    -0.014 A 
BRANCH  35  36
ATOM     36  C   UNL A   1      41.799  27.000  28.025  1.00  0.00     0.031 A 
ATOM     37  C   UNL A   1      41.046  28.189  28.584  1.00  0.00     0.074 A 
ATOM     38  C   UNL A   1      43.131  27.099  27.831  1.00  0.00     0.049 A 
ATOM     39  N   UNL A   1      41.518  29.339  28.999  1.00  0.00    -0.248 NA
ATOM     40  C   UNL A   1      39.578  28.099  28.651  1.00  0.00     0.031 C 
ATOM     41  C   UNL A   1      43.970  26.074  27.205  1.00  0.00     0.029 A 
ATOM     42  N   UNL A   1      44.023  28.092  28.165  1.00  0.00    -0.354 N 
ATOM     43  C   UNL A   1      40.409  30.102  29.354  1.00  0.00     0.074 A 
ATOM     44  C   UNL A   1      39.239  29.325  29.021  1.00  0.00     0.031 C 
ATOM     45  C   UNL A   1      45.256  26.443  27.291  1.00  0.00     0.029 A 
ATOM     46  C   UNL A   1      45.337  27.754  27.930  1.00  0.00     0.049 A 
ATOM     47  H   UNL A   1      43.747  28.961  28.535  1.00  0.00     0.167 HD
ATOM     48  C   UNL A   1      40.361  31.316  29.952  1.00  0.00     0.031 A 
ATOM     49  C   UNL A   1      46.485  28.402  28.220  1.00  0.00     0.031 A 
ATOM     50  C   UNL A   1      41.527  32.067  30.332  1.00  0.00     0.049 A 
ATOM     51  C   UNL A   1      46.422  29.722  28.933  1.00  0.00     0.074 A 
ATOM     52  C   UNL A   1      41.588  33.270  31.011  1.00  0.00     0.029 A 
ATOM     53  N   UNL A   1      42.835  31.680  30.080  1.00  0.00    -0.354 N 
ATOM     54  N   UNL A   1      45.363  30.386  29.334  1.00  0.00    -0.248 NA
ATOM     55  C   UNL A   1      47.698  30.377  29.247  1.00  0.00     0.031 C 
ATOM     56  C   UNL A   1      42.930  33.638  31.124  1.00  0.00     0.029 A 
ATOM     57  C   UNL A   1      43.709  32.631  30.576  1.00  0.00     0.049 A 
ATOM     58  H   UNL A   1      43.101  30.853  29.617  1.00  0.00     0.167 HD
ATOM     59  C   UNL A   1      45.846  31.532  29.953  1.00  0.00     0.074 A 
ATOM     60  C   UNL A   1      47.292  31.461  29.897  1.00  0.00     0.031 C 
ATOM     61  C   UNL A   1      45.149  32.552  30.512  1.00  0.00     0.031 A 
BRANCH  48  62
ATOM     62  C   UNL A   1      39.004  31.891  30.290  1.00  0.00    -0.014 A 
ATOM     63  C   UNL A   1      38.373  31.556  31.502  1.00  0.00     0.010 A 
ATOM     64  C   UNL A   1      38.315  32.700  29.367  1.00  0.00     0.010 A 
ATOM     65  C   UNL A   1      37.077  32.007  31.779  1.00  0.00     0.020 A 
ATOM     66  C   UNL A   1      37.036  33.183  29.655  1.00  0.00     0.020 A 
ATOM     67  C   UNL A   1      36.416  32.816  30.850  1.00  0.00     0.054 A 
BRANCH  67  68
ATOM     68  S   UNL A   1      34.739  33.400  31.223  1.00  0.00     0.124 S 
ATOM     69  O   UNL A   1      34.111  33.395  29.906  1.00  0.00    -0.237 OA
ATOM     70  O   UNL A   1      34.248  32.393  32.161  1.00  0.00    -0.237 OA
ATOM     71  O   UNL A   1      34.960  34.722  31.805  1.00  0.00    -0.744 OA
ENDBRANCH  67  68
ENDBRANCH  48  62
BRANCH  49  72
ATOM     72  C   UNL A   1      47.782  27.733  27.911  1.00  0.00    -0.014 A 
ATOM     73  C   UNL A   1      48.446  26.969  28.889  1.00  0.00     0.010 A 
ATOM     74  C   UNL A   1      48.422  27.976  26.683  1.00  0.00     0.010 A 
ATOM     75  C   UNL A   1      49.755  26.526  28.674  1.00  0.00     0.020 A 
ATOM     76  C   UNL A   1      49.722  27.509  26.454  1.00  0.00     0.020 A 
ATOM     77  C   UNL A   1      50.392  26.821  27.466  1.00  0.00     0.054 A 
BRANCH  77  78
ATOM     78  S   UNL A   1      52.127  26.331  27.253  1.00  0.00     0.124 S 
ATOM     79  O   UNL A   1      52.647  27.425  26.437  1.00  0.00    -0.237 OA
ATOM     80  O   UNL A   1      52.618  26.284  28.628  1.00  0.00    -0.237 OA
ATOM     81  O   UNL A   1      52.039  25.037  26.582  1.00  0.00    -0.744 OA
ENDBRANCH  77  78
ENDBRANCH  49  72
BRANCH  61  82
ATOM     82  C   UNL A   1      45.917  33.702  31.107  1.00  0.00    -0.014 A 
ATOM     83  C   UNL A   1      46.220  33.703  32.482  1.00  0.00     0.010 A 
ATOM     84  C   UNL A   1      46.195  34.849  30.343  1.00  0.00     0.010 A 
ATOM     85  C   UNL A   1      46.742  34.845  33.093  1.00  0.00     0.020 A 
ATOM     86  C   UNL A   1      46.745  35.985  30.946  1.00  0.00     0.020 A 
ATOM     87  C   UNL A   1      46.987  35.985  32.322  1.00  0.00     0.054 A 
BRANCH  87  88
ATOM     88  S   UNL A   1      47.612  37.478  33.141  1.00  0.00     0.124 S 
ATOM     89  O   UNL A   1      48.150  36.941  34.387  1.00  0.00    -0.237 OA
ATOM     90  O   UNL A   1      48.603  37.975  32.189  1.00  0.00    -0.237 OA
ATOM     91  O   UNL A   1      46.423  38.314  33.283  1.00  0.00    -0.744 OA
ENDBRANCH  87  88
ENDBRANCH  61  82
ENDBRANCH  35  36
ENDBRANCH  28  30
ENDBRANCH  27  28
ENDBRANCH  26  27
ENDBRANCH   1  26
TORSDOF 18
ENDMDL
MODEL 3
REMARK VINA RESULT:     -10.3      4.645      7.865
REMARK SMILES CC(C)CN(C)c1cc2c(cc1Cl)C=C(C(=O)OCCOC(=O)c1ccc(-c3c4nc(c(-c5ccc(S(=O)(=O)[O-])cc5)c5ccc([nH]5)c(-c5ccc(S(=O)(=O)[O-])cc5)c5nc(c(-c6ccc(S(=O)(=O)[O-])cc6)c6ccc3[nH]6)C=C5)C=C4)cc1)[C@@H](C(F)(F)F)O2
REMARK SMILES IDX 19 1 18 2 16 3 17 4 15 5 7 6 8 7 12 8 9 9 11 10 13 11 10 12
REMARK SMILES IDX 89 13 14 14 84 15 5 16 6 17 4 18 2 19 1 20 3 21 85 22 86 23
REMARK SMILES IDX 87 24 88 25 20 26 21 27 22 28 23 29 24 30 25 31 83 32 26 33
REMARK SMILES IDX 82 34 27 35 28 36 29 37 76 38 30 39 81 40 75 41 77 42 31 43
REMARK SMILES IDX 80 44 74 45 73 46 32 48 62 49 43 50 61 51 44 52 47 53 60 54
REMARK SMILES IDX 78 55 45 56 46 57 59 59 79 60 48 61 33 62 34 63 42 64 35 65
REMARK SMILES IDX 41 66 36 67 37 68 38 69 39 70 40 71 63 72 64 73 72 74 65 75
REMARK SMILES IDX 71 76 66 77 67 78 68 79 69 80 70 81 49 82 50 83 58 84 51 85
REMARK SMILES IDX 57 86 52 87 53 88 54 89 55 90 56 91
REMARK H PARENT 77 47 47 58
REMARK Flexibility Score: inf
ROOT
ATOM      1  C   UNL A   1      32.088  30.119  25.953  1.00  0.00     0.275 C 
ENDROOT
BRANCH   1   2
ATOM      2  O   UNL A   1      32.459  28.960  25.171  1.00  0.00    -0.459 OA
BRANCH   2   3
ATOM      3  C   UNL A   1      31.415  28.339  24.569  1.00  0.00     0.338 C 
ATOM      4  O   UNL A   1      30.384  28.869  24.203  1.00  0.00    -0.246 OA
BRANCH   3   5
ATOM      5  C   UNL A   1      31.681  26.903  24.351  1.00  0.00     0.087 C 
ATOM      6  C   UNL A   1      33.118  22.136  25.163  1.00  0.00     0.059 A 
ATOM      7  C   UNL A   1      32.708  22.851  24.011  1.00  0.00     0.074 A 
ATOM      8  C   UNL A   1      33.221  22.852  26.373  1.00  0.00     0.065 A 
ATOM      9  C   UNL A   1      32.353  24.203  24.088  1.00  0.00     0.130 A 
ATOM     10  C   UNL A   1      32.754  24.155  26.472  1.00  0.00     0.034 A 
ATOM     11  Cl  UNL A   1      33.996  22.214  27.783  1.00  0.00    -0.082 Cl
ATOM     12  C   UNL A   1      32.313  24.819  25.332  1.00  0.00     0.019 A 
ATOM     13  O   UNL A   1      32.027  24.875  22.934  1.00  0.00    -0.475 OA
ATOM     14  C   UNL A   1      31.843  26.175  25.459  1.00  0.00     0.027 C 
ATOM     15  C   UNL A   1      32.009  26.344  22.996  1.00  0.00     0.316 C 
BRANCH   6  16
ATOM     16  N   UNL A   1      33.398  20.767  25.106  1.00  0.00    -0.373 N 
ATOM     17  C   UNL A   1      34.795  20.399  24.932  1.00  0.00     0.143 C 
BRANCH  16  18
ATOM     18  C   UNL A   1      32.367  19.873  24.535  1.00  0.00     0.119 C 
BRANCH  18  19
ATOM     19  C   UNL A   1      32.913  18.485  24.131  1.00  0.00     0.002 C 
ATOM     20  C   UNL A   1      32.494  17.387  25.115  1.00  0.00     0.009 C 
ATOM     21  C   UNL A   1      32.456  18.080  22.726  1.00  0.00     0.009 C 
ENDBRANCH  18  19
ENDBRANCH  16  18
ENDBRANCH   6  16
BRANCH  15  22
ATOM     22  C   UNL A   1      33.351  26.925  22.513  1.00  0.00     0.430 C 
ATOM     23  F   UNL A   1      34.212  27.117  23.540  1.00  0.00    -0.167 F 
ATOM     24  F   UNL A   1      33.966  26.080  21.646  1.00  0.00    -0.167 F 
ATOM     25  F   UNL A   1      33.204  28.111  21.879  1.00  0.00    -0.167 F 
ENDBRANCH  15  22
ENDBRANCH   3   5
ENDBRANCH   2   3
ENDBRANCH   1   2
BRANCH   1  26
ATOM     26  C   UNL A   1      32.748  30.121  27.334  1.00  0.00     0.275 C 
BRANCH  26  27
ATOM     27  O   UNL A   1      34.183  30.110  27.231  1.00  0.00    -0.458 OA
BRANCH  27  28
ATOM     28  C   UNL A   1      34.802  31.229  27.671  1.00  0.00     0.338 C 
ATOM     29  O   UNL A   1      34.487  32.387  27.435  1.00  0.00    -0.246 OA
BRANCH  28  30
ATOM     30  C   UNL A   1      35.889  30.875  28.592  1.00  0.00     0.060 A 
ATOM     31  C   UNL A   1      35.873  29.701  29.333  1.00  0.00     0.016 A 
ATOM     32  C   UNL A   1      37.029  31.668  28.578  1.00  0.00     0.016 A 
ATOM     33  C   UNL A   1      37.013  29.345  30.068  1.00  0.00     0.010 A 
ATOM     34  C   UNL A   1      38.208  31.232  29.173  1.00  0.00     0.010 A 
ATOM     35  C   UNL A   1      38.214  30.082  29.965  1.00  0.00    -0.014 A 
BRANCH  35  36
ATOM     36  C   UNL A   1      39.457  29.660  30.682  1.00  0.00     0.031 A 
ATOM     37  C   UNL A   1      40.347  28.564  30.134  1.00  0.00     0.074 A 
ATOM     38  C   UNL A   1      39.785  30.246  31.853  1.00  0.00     0.049 A 
ATOM     39  N   UNL A   1      41.485  28.117  30.604  1.00  0.00    -0.248 NA
ATOM     40  C   UNL A   1      39.889  27.848  28.931  1.00  0.00     0.031 C 
ATOM     41  C   UNL A   1      38.970  31.242  32.554  1.00  0.00     0.029 A 
ATOM     42  N   UNL A   1      40.899  30.117  32.649  1.00  0.00    -0.354 N 
ATOM     43  C   UNL A   1      41.860  27.068  29.769  1.00  0.00     0.074 A 
ATOM     44  C   UNL A   1      40.788  26.883  28.820  1.00  0.00     0.031 C 
ATOM     45  C   UNL A   1      39.652  31.705  33.612  1.00  0.00     0.029 A 
ATOM     46  C   UNL A   1      40.931  31.006  33.701  1.00  0.00     0.049 A 
ATOM     47  H   UNL A   1      41.606  29.453  32.483  1.00  0.00     0.167 HD
ATOM     48  C   UNL A   1      43.011  26.355  29.752  1.00  0.00     0.031 A 
ATOM     49  C   UNL A   1      41.887  31.260  34.619  1.00  0.00     0.031 A 
ATOM     50  C   UNL A   1      44.101  26.577  30.664  1.00  0.00     0.049 A 
ATOM     51  C   UNL A   1      43.182  30.502  34.557  1.00  0.00     0.074 A 
ATOM     52  C   UNL A   1      45.339  25.962  30.684  1.00  0.00     0.029 A 
ATOM     53  N   UNL A   1      44.088  27.491  31.707  1.00  0.00    -0.354 N 
ATOM     54  N   UNL A   1      43.547  29.572  33.706  1.00  0.00    -0.248 NA
ATOM     55  C   UNL A   1      44.201  30.832  35.564  1.00  0.00     0.031 C 
ATOM     56  C   UNL A   1      46.059  26.467  31.769  1.00  0.00     0.029 A 
ATOM     57  C   UNL A   1      45.293  27.445  32.386  1.00  0.00     0.049 A 
ATOM     58  H   UNL A   1      43.336  28.084  31.930  1.00  0.00     0.167 HD
ATOM     59  C   UNL A   1      44.839  29.211  34.070  1.00  0.00     0.074 A 
ATOM     60  C   UNL A   1      45.203  30.038  35.202  1.00  0.00     0.031 C 
ATOM     61  C   UNL A   1      45.645  28.272  33.515  1.00  0.00     0.031 A 
BRANCH  48  62
ATOM     62  C   UNL A   1      43.184  25.305  28.679  1.00  0.00    -0.014 A 
ATOM     63  C   UNL A   1      43.752  25.645  27.438  1.00  0.00     0.010 A 
ATOM     64  C   UNL A   1      42.706  23.994  28.871  1.00  0.00     0.010 A 
ATOM     65  C   UNL A   1      43.827  24.701  26.407  1.00  0.00     0.020 A 
ATOM     66  C   UNL A   1      42.812  23.039  27.857  1.00  0.00     0.020 A 
ATOM     67  C   UNL A   1      43.353  23.405  26.623  1.00  0.00     0.054 A 
BRANCH  67  68
ATOM     68  S   UNL A   1      43.462  22.188  25.281  1.00  0.00     0.124 S 
ATOM     69  O   UNL A   1      42.338  21.304  25.574  1.00  0.00    -0.237 OA
ATOM     70  O   UNL A   1      43.320  23.015  24.085  1.00  0.00    -0.237 OA
ATOM     71  O   UNL A   1      44.786  21.598  25.463  1.00  0.00    -0.744 OA
ENDBRANCH  67  68
ENDBRANCH  48  62
BRANCH  49  72
ATOM     72  C   UNL A   1      41.662  32.359  35.602  1.00  0.00    -0.014 A 
ATOM     73  C   UNL A   1      41.174  32.079  36.892  1.00  0.00     0.010 A 
ATOM     74  C   UNL A   1      41.802  33.699  35.201  1.00  0.00     0.010 A 
ATOM     75  C   UNL A   1      40.759  33.116  37.733  1.00  0.00     0.020 A 
ATOM     76  C   UNL A   1      41.415  34.741  36.053  1.00  0.00     0.020 A 
ATOM     77  C   UNL A   1      40.860  34.439  37.297  1.00  0.00     0.054 A 
BRANCH  77  78
ATOM     78  S   UNL A   1      40.214  35.760  38.361  1.00  0.00     0.124 S 
ATOM     79  O   UNL A   1      40.067  36.861  37.413  1.00  0.00    -0.237 OA
ATOM     80  O   UNL A   1      38.966  35.189  38.860  1.00  0.00    -0.237 OA
ATOM     81  O   UNL A   1      41.261  35.936  39.365  1.00  0.00    -0.744 OA
ENDBRANCH  77  78
ENDBRANCH  49  72
BRANCH  61  82
ATOM     82  C   UNL A   1      47.009  28.055  34.115  1.00  0.00    -0.014 A 
ATOM     83  C   UNL A   1      48.137  28.650  33.518  1.00  0.00     0.010 A 
ATOM     84  C   UNL A   1      47.191  27.138  35.164  1.00  0.00     0.010 A 
ATOM     85  C   UNL A   1      49.425  28.297  33.927  1.00  0.00     0.020 A 
ATOM     86  C   UNL A   1      48.479  26.804  35.596  1.00  0.00     0.020 A 
ATOM     87  C   UNL A   1      49.587  27.364  34.954  1.00  0.00     0.054 A 
BRANCH  87  88
ATOM     88  S   UNL A   1      51.267  26.874  35.434  1.00  0.00     0.124 S 
ATOM     89  O   UNL A   1      51.873  26.555  34.145  1.00  0.00    -0.237 OA
ATOM     90  O   UNL A   1      51.776  28.077  36.089  1.00  0.00    -0.237 OA
ATOM     91  O   UNL A   1      51.051  25.734  36.322  1.00  0.00    -0.744 OA
ENDBRANCH  87  88
ENDBRANCH  61  82
ENDBRANCH  35  36
ENDBRANCH  28  30
ENDBRANCH  27  28
ENDBRANCH  26  27
ENDBRANCH   1  26
TORSDOF 18
ENDMDL
