MODEL 1
REMARK VINA RESULT:     -12.4      0.000      0.000
REMARK SMILES Cc1cc2n(n1)[C@H](C(F)(F)F)CCN2C(=O)c1cnn([C@@H](C)C(=O)OCCOC(=O)c2ccc(-c3c4nc(c(-c5ccc(S(=O)(=O)[O-])cc5)c5ccc([nH]5)c(-c5ccc(S(=O)(=O)[O-])cc5)c5nc(c(-c6ccc(S(=O)(=O)[O-])cc6)c6ccc3[nH]6)C=C5)C=C4)cc2)c1
REMARK SMILES IDX 26 1 25 2 23 3 24 4 21 5 22 6 20 7 17 8 18 9 91 10 19 11
REMARK SMILES IDX 15 12 16 13 14 14 1 15 2 16 3 17 6 18 4 19 5 20 7 21 13 22
REMARK SMILES IDX 12 23 8 24 9 25 10 26 11 27 27 28 28 29 29 30 30 31 31 32
REMARK SMILES IDX 32 33 90 34 33 35 89 36 34 37 35 38 36 39 83 40 37 41 88 42
REMARK SMILES IDX 82 43 84 44 38 45 87 46 81 47 80 48 39 50 69 51 50 52 68 53
REMARK SMILES IDX 51 54 54 55 67 56 85 57 52 58 53 59 66 61 86 62 55 63 40 64
REMARK SMILES IDX 41 65 49 66 42 67 48 68 43 69 44 70 45 71 46 72 47 73 70 74
REMARK SMILES IDX 71 75 79 76 72 77 78 78 73 79 74 80 75 81 76 82 77 83 56 84
REMARK SMILES IDX 57 85 65 86 58 87 64 88 59 89 60 90 61 91 62 92 63 93
REMARK H PARENT 84 49 54 60
REMARK Flexibility Score: inf
ROOT
ATOM      1  C   UNL A   1      37.676  22.582  25.743  1.00  0.00     0.274 C 
ENDROOT
BRANCH   1   2
ATOM      2  O   UNL A   1      36.352  22.149  25.365  1.00  0.00    -0.460 OA
BRANCH   2   3
ATOM      3  C   UNL A   1      35.455  23.124  25.057  1.00  0.00     0.330 C 
ATOM      4  O   UNL A   1      35.692  24.327  25.162  1.00  0.00    -0.250 OA
BRANCH   3   5
ATOM      5  C   UNL A   1      34.090  22.625  24.641  1.00  0.00     0.213 C 
ATOM      6  C   UNL A   1      33.929  22.755  23.135  1.00  0.00     0.046 C 
BRANCH   5   7
ATOM      7  N   UNL A   1      32.949  23.176  25.375  1.00  0.00    -0.258 N 
ATOM      8  C   UNL A   1      31.260  24.476  25.985  1.00  0.00     0.078 A 
ATOM      9  C   UNL A   1      31.506  23.428  26.897  1.00  0.00     0.149 A 
ATOM     10  C   UNL A   1      32.203  24.267  24.993  1.00  0.00     0.123 A 
ATOM     11  N   UNL A   1      32.633  22.764  26.623  1.00  0.00    -0.180 NA
BRANCH   8  12
ATOM     12  C   UNL A   1      30.234  25.497  25.983  1.00  0.00     0.262 C 
ATOM     13  O   UNL A   1      29.207  25.423  26.630  1.00  0.00    -0.269 OA
BRANCH  12  14
ATOM     14  N   UNL A   1      30.464  26.562  25.004  1.00  0.00    -0.293 N 
ATOM     15  C   UNL A   1      33.302  30.110  27.192  1.00  0.00     0.069 C 
ATOM     16  C   UNL A   1      32.480  29.290  26.266  1.00  0.00     0.062 A 
ATOM     17  C   UNL A   1      31.951  27.988  26.492  1.00  0.00     0.072 A 
ATOM     18  N   UNL A   1      32.136  29.757  25.058  1.00  0.00    -0.176 NA
ATOM     19  C   UNL A   1      31.224  27.690  25.364  1.00  0.00     0.134 A 
ATOM     20  N   UNL A   1      31.376  28.783  24.552  1.00  0.00    -0.237 N 
ATOM     21  C   UNL A   1      30.827  28.894  23.219  1.00  0.00     0.216 C 
ATOM     22  C   UNL A   1      29.712  26.637  23.727  1.00  0.00     0.130 C 
ATOM     23  C   UNL A   1      30.434  27.506  22.694  1.00  0.00     0.059 C 
BRANCH  21  24
ATOM     24  C   UNL A   1      29.665  29.861  23.201  1.00  0.00     0.410 C 
ATOM     25  F   UNL A   1      29.708  30.642  24.313  1.00  0.00    -0.169 F 
ATOM     26  F   UNL A   1      29.726  30.700  22.142  1.00  0.00    -0.169 F 
ATOM     27  F   UNL A   1      28.459  29.263  23.200  1.00  0.00    -0.169 F 
ENDBRANCH  21  24
ENDBRANCH  12  14
ENDBRANCH   8  12
ENDBRANCH   5   7
ENDBRANCH   3   5
ENDBRANCH   2   3
ENDBRANCH   1   2
BRANCH   1  28
ATOM     28  C   UNL A   1      38.645  21.412  25.883  1.00  0.00     0.275 C 
BRANCH  28  29
ATOM     29  O   UNL A   1      40.001  21.848  25.775  1.00  0.00    -0.458 OA
BRANCH  29  30
ATOM     30  C   UNL A   1      40.569  22.172  26.956  1.00  0.00     0.338 C 
ATOM     31  O   UNL A   1      40.517  21.527  27.992  1.00  0.00    -0.246 OA
BRANCH  30  32
ATOM     32  C   UNL A   1      41.146  23.511  26.919  1.00  0.00     0.060 A 
ATOM     33  C   UNL A   1      42.279  23.715  27.719  1.00  0.00     0.016 A 
ATOM     34  C   UNL A   1      40.373  24.567  26.430  1.00  0.00     0.016 A 
ATOM     35  C   UNL A   1      42.499  24.969  28.233  1.00  0.00     0.010 A 
ATOM     36  C   UNL A   1      40.582  25.816  26.961  1.00  0.00     0.010 A 
ATOM     37  C   UNL A   1      41.581  25.971  27.925  1.00  0.00    -0.014 A 
BRANCH  37  38
ATOM     38  C   UNL A   1      41.643  27.198  28.685  1.00  0.00     0.031 A 
ATOM     39  C   UNL A   1      42.860  28.005  28.465  1.00  0.00     0.074 A 
ATOM     40  C   UNL A   1      40.580  27.613  29.397  1.00  0.00     0.049 A 
ATOM     41  N   UNL A   1      43.732  28.398  29.331  1.00  0.00    -0.248 NA
ATOM     42  C   UNL A   1      43.202  28.313  27.067  1.00  0.00     0.031 C 
ATOM     43  C   UNL A   1      39.231  27.034  29.409  1.00  0.00     0.029 A 
ATOM     44  N   UNL A   1      40.443  28.741  30.140  1.00  0.00    -0.354 N 
ATOM     45  C   UNL A   1      44.645  29.160  28.611  1.00  0.00     0.074 A 
ATOM     46  C   UNL A   1      44.371  28.929  27.216  1.00  0.00     0.031 C 
ATOM     47  C   UNL A   1      38.369  27.947  29.908  1.00  0.00     0.029 A 
ATOM     48  C   UNL A   1      39.122  29.107  30.355  1.00  0.00     0.049 A 
ATOM     49  H   UNL A   1      41.208  29.250  30.493  1.00  0.00     0.167 HD
ATOM     50  C   UNL A   1      45.420  30.116  29.188  1.00  0.00     0.031 A 
ATOM     51  C   UNL A   1      38.687  30.325  30.757  1.00  0.00     0.031 A 
ATOM     52  C   UNL A   1      45.481  29.989  30.616  1.00  0.00     0.049 A 
ATOM     53  C   UNL A   1      39.842  31.034  31.362  1.00  0.00     0.074 A 
ATOM     54  C   UNL A   1      45.961  29.029  31.483  1.00  0.00     0.029 A 
ATOM     55  N   UNL A   1      44.659  30.802  31.359  1.00  0.00    -0.354 N 
ATOM     56  N   UNL A   1      40.437  30.645  32.456  1.00  0.00    -0.248 NA
ATOM     57  C   UNL A   1      40.615  31.949  30.533  1.00  0.00     0.031 C 
ATOM     58  C   UNL A   1      45.072  29.050  32.595  1.00  0.00     0.029 A 
ATOM     59  C   UNL A   1      44.111  30.038  32.360  1.00  0.00     0.049 A 
ATOM     60  H   UNL A   1      44.492  31.760  31.202  1.00  0.00     0.167 HD
ATOM     61  C   UNL A   1      41.782  30.931  32.261  1.00  0.00     0.074 A 
ATOM     62  C   UNL A   1      41.810  31.841  31.121  1.00  0.00     0.031 C 
ATOM     63  C   UNL A   1      42.757  30.187  32.864  1.00  0.00     0.031 A 
BRANCH  50  64
ATOM     64  C   UNL A   1      45.819  31.369  28.458  1.00  0.00    -0.014 A 
ATOM     65  C   UNL A   1      44.888  32.410  28.300  1.00  0.00     0.010 A 
ATOM     66  C   UNL A   1      47.011  31.450  27.705  1.00  0.00     0.010 A 
ATOM     67  C   UNL A   1      45.128  33.461  27.404  1.00  0.00     0.020 A 
ATOM     68  C   UNL A   1      47.284  32.517  26.852  1.00  0.00     0.020 A 
ATOM     69  C   UNL A   1      46.321  33.499  26.679  1.00  0.00     0.054 A 
BRANCH  69  70
ATOM     70  S   UNL A   1      46.577  34.792  25.441  1.00  0.00     0.124 S 
ATOM     71  O   UNL A   1      45.535  34.479  24.468  1.00  0.00    -0.237 OA
ATOM     72  O   UNL A   1      46.375  36.011  26.219  1.00  0.00    -0.237 OA
ATOM     73  O   UNL A   1      47.947  34.566  24.989  1.00  0.00    -0.744 OA
ENDBRANCH  69  70
ENDBRANCH  50  64
BRANCH  51  74
ATOM     74  C   UNL A   1      37.446  31.007  30.315  1.00  0.00    -0.014 A 
ATOM     75  C   UNL A   1      36.515  31.501  31.245  1.00  0.00     0.010 A 
ATOM     76  C   UNL A   1      37.292  31.393  28.966  1.00  0.00     0.010 A 
ATOM     77  C   UNL A   1      35.498  32.384  30.846  1.00  0.00     0.020 A 
ATOM     78  C   UNL A   1      36.275  32.260  28.558  1.00  0.00     0.020 A 
ATOM     79  C   UNL A   1      35.393  32.770  29.505  1.00  0.00     0.054 A 
BRANCH  79  80
ATOM     80  S   UNL A   1      34.180  34.032  29.026  1.00  0.00     0.124 S 
ATOM     81  O   UNL A   1      33.511  34.315  30.292  1.00  0.00    -0.237 OA
ATOM     82  O   UNL A   1      35.027  35.100  28.502  1.00  0.00    -0.237 OA
ATOM     83  O   UNL A   1      33.355  33.353  28.027  1.00  0.00    -0.744 OA
ENDBRANCH  79  80
ENDBRANCH  51  74
BRANCH  63  84
ATOM     84  C   UNL A   1      42.341  29.214  33.949  1.00  0.00    -0.014 A 
ATOM     85  C   UNL A   1      41.782  27.952  33.663  1.00  0.00     0.010 A 
ATOM     86  C   UNL A   1      42.697  29.498  35.278  1.00  0.00     0.010 A 
ATOM     87  C   UNL A   1      41.586  27.003  34.675  1.00  0.00     0.020 A 
ATOM     88  C   UNL A   1      42.519  28.549  36.292  1.00  0.00     0.020 A 
ATOM     89  C   UNL A   1      41.968  27.303  35.984  1.00  0.00     0.054 A 
BRANCH  89  90
ATOM     90  S   UNL A   1      41.818  26.021  37.262  1.00  0.00     0.124 S 
ATOM     91  O   UNL A   1      42.096  24.795  36.520  1.00  0.00    -0.237 OA
ATOM     92  O   UNL A   1      42.837  26.406  38.239  1.00  0.00    -0.237 OA
ATOM     93  O   UNL A   1      40.442  26.160  37.738  1.00  0.00    -0.744 OA
ENDBRANCH  89  90
ENDBRANCH  63  84
ENDBRANCH  37  38
ENDBRANCH  30  32
ENDBRANCH  29  30
ENDBRANCH  28  29
ENDBRANCH   1  28
TORSDOF 18
ENDMDL
MODEL 2
REMARK VINA RESULT:     -12.2      2.671      7.744
REMARK SMILES Cc1cc2n(n1)[C@H](C(F)(F)F)CCN2C(=O)c1cnn([C@@H](C)C(=O)OCCOC(=O)c2ccc(-c3c4nc(c(-c5ccc(S(=O)(=O)[O-])cc5)c5ccc([nH]5)c(-c5ccc(S(=O)(=O)[O-])cc5)c5nc(c(-c6ccc(S(=O)(=O)[O-])cc6)c6ccc3[nH]6)C=C5)C=C4)cc2)c1
REMARK SMILES IDX 26 1 25 2 23 3 24 4 21 5 22 6 20 7 17 8 18 9 91 10 19 11
REMARK SMILES IDX 15 12 16 13 14 14 1 15 2 16 3 17 6 18 4 19 5 20 7 21 13 22
REMARK SMILES IDX 12 23 8 24 9 25 10 26 11 27 27 28 28 29 29 30 30 31 31 32
REMARK SMILES IDX 32 33 90 34 33 35 89 36 34 37 35 38 36 39 83 40 37 41 88 42
REMARK SMILES IDX 82 43 84 44 38 45 87 46 81 47 80 48 39 50 69 51 50 52 68 53
REMARK SMILES IDX 51 54 54 55 67 56 85 57 52 58 53 59 66 61 86 62 55 63 40 64
REMARK SMILES IDX 41 65 49 66 42 67 48 68 43 69 44 70 45 71 46 72 47 73 70 74
REMARK SMILES IDX 71 75 79 76 72 77 78 78 73 79 74 80 75 81 76 82 77 83 56 84
REMARK SMILES IDX 57 85 65 86 58 87 64 88 59 89 60 90 61 91 62 92 63 93
REMARK H PARENT 84 49 54 60
REMARK Flexibility Score: inf
ROOT
ATOM      1  C   UNL A   1      36.681  20.850  25.067  1.00  0.00     0.274 C 
ENDROOT
BRANCH   1   2
ATOM      2  O   UNL A   1      35.602  19.915  24.855  1.00  0.00    -0.460 OA
BRANCH   2   3
ATOM      3  C   UNL A   1      34.359  20.323  25.227  1.00  0.00     0.330 C 
ATOM      4  O   UNL A   1      33.328  19.714  24.944  1.00  0.00    -0.250 OA
BRANCH   3   5
ATOM      5  C   UNL A   1      34.315  21.645  25.959  1.00  0.00     0.213 C 
ATOM      6  C   UNL A   1      33.774  21.439  27.365  1.00  0.00     0.046 C 
BRANCH   5   7
ATOM      7  N   UNL A   1      33.654  22.749  25.261  1.00  0.00    -0.258 N 
ATOM      8  C   UNL A   1      32.158  24.269  24.654  1.00  0.00     0.078 A 
ATOM      9  C   UNL A   1      33.305  24.266  23.833  1.00  0.00     0.149 A 
ATOM     10  C   UNL A   1      32.430  23.285  25.589  1.00  0.00     0.123 A 
ATOM     11  N   UNL A   1      34.114  23.232  24.086  1.00  0.00    -0.180 NA
BRANCH   8  12
ATOM     12  C   UNL A   1      30.991  25.124  24.633  1.00  0.00     0.262 C 
ATOM     13  O   UNL A   1      29.976  24.866  24.015  1.00  0.00    -0.269 OA
BRANCH  12  14
ATOM     14  N   UNL A   1      31.193  26.416  25.295  1.00  0.00    -0.293 N 
ATOM     15  C   UNL A   1      29.909  30.053  22.047  1.00  0.00     0.069 C 
ATOM     16  C   UNL A   1      30.362  29.261  23.218  1.00  0.00     0.062 A 
ATOM     17  C   UNL A   1      30.352  27.846  23.369  1.00  0.00     0.072 A 
ATOM     18  N   UNL A   1      30.868  29.867  24.301  1.00  0.00    -0.176 NA
ATOM     19  C   UNL A   1      30.919  27.607  24.600  1.00  0.00     0.134 A 
ATOM     20  N   UNL A   1      31.202  28.851  25.100  1.00  0.00    -0.237 N 
ATOM     21  C   UNL A   1      31.761  29.096  26.410  1.00  0.00     0.216 C 
ATOM     22  C   UNL A   1      31.926  26.539  26.579  1.00  0.00     0.130 C 
ATOM     23  C   UNL A   1      31.599  27.852  27.294  1.00  0.00     0.059 C 
BRANCH  21  24
ATOM     24  C   UNL A   1      33.205  29.532  26.300  1.00  0.00     0.410 C 
ATOM     25  F   UNL A   1      33.910  29.031  27.348  1.00  0.00    -0.169 F 
ATOM     26  F   UNL A   1      33.791  29.049  25.181  1.00  0.00    -0.169 F 
ATOM     27  F   UNL A   1      33.375  30.866  26.326  1.00  0.00    -0.169 F 
ENDBRANCH  21  24
ENDBRANCH  12  14
ENDBRANCH   8  12
ENDBRANCH   5   7
ENDBRANCH   3   5
ENDBRANCH   2   3
ENDBRANCH   1   2
BRANCH   1  28
ATOM     28  C   UNL A   1      38.050  20.197  24.892  1.00  0.00     0.275 C 
BRANCH  28  29
ATOM     29  O   UNL A   1      39.031  20.826  25.717  1.00  0.00    -0.458 OA
BRANCH  29  30
ATOM     30  C   UNL A   1      40.156  20.098  25.884  1.00  0.00     0.338 C 
ATOM     31  O   UNL A   1      40.296  18.908  25.649  1.00  0.00    -0.246 OA
BRANCH  30  32
ATOM     32  C   UNL A   1      41.195  20.871  26.555  1.00  0.00     0.060 A 
ATOM     33  C   UNL A   1      41.110  20.932  27.953  1.00  0.00     0.016 A 
ATOM     34  C   UNL A   1      41.950  21.778  25.810  1.00  0.00     0.016 A 
ATOM     35  C   UNL A   1      41.585  22.053  28.589  1.00  0.00     0.010 A 
ATOM     36  C   UNL A   1      42.408  22.907  26.443  1.00  0.00     0.010 A 
ATOM     37  C   UNL A   1      42.132  23.066  27.803  1.00  0.00    -0.014 A 
BRANCH  37  38
ATOM     38  C   UNL A   1      42.363  24.349  28.426  1.00  0.00     0.031 A 
ATOM     39  C   UNL A   1      41.349  25.378  28.124  1.00  0.00     0.074 A 
ATOM     40  C   UNL A   1      43.347  24.500  29.331  1.00  0.00     0.049 A 
ATOM     41  N   UNL A   1      41.515  26.540  27.587  1.00  0.00    -0.248 NA
ATOM     42  C   UNL A   1      39.944  25.004  28.352  1.00  0.00     0.031 C 
ATOM     43  C   UNL A   1      44.188  23.451  29.919  1.00  0.00     0.029 A 
ATOM     44  N   UNL A   1      43.690  25.608  30.034  1.00  0.00    -0.354 N 
ATOM     45  C   UNL A   1      40.252  27.121  27.572  1.00  0.00     0.074 A 
ATOM     46  C   UNL A   1      39.310  26.077  27.887  1.00  0.00     0.031 C 
ATOM     47  C   UNL A   1      44.751  23.927  31.052  1.00  0.00     0.029 A 
ATOM     48  C   UNL A   1      44.406  25.332  31.190  1.00  0.00     0.049 A 
ATOM     49  H   UNL A   1      43.455  26.521  29.751  1.00  0.00     0.167 HD
ATOM     50  C   UNL A   1      40.064  28.466  27.535  1.00  0.00     0.031 A 
ATOM     51  C   UNL A   1      44.590  26.174  32.235  1.00  0.00     0.031 A 
ATOM     52  C   UNL A   1      41.242  29.178  27.130  1.00  0.00     0.049 A 
ATOM     53  C   UNL A   1      44.312  27.551  31.754  1.00  0.00     0.074 A 
ATOM     54  C   UNL A   1      42.001  29.218  25.978  1.00  0.00     0.029 A 
ATOM     55  N   UNL A   1      42.016  29.736  28.119  1.00  0.00    -0.354 N 
ATOM     56  N   UNL A   1      45.032  28.162  30.854  1.00  0.00    -0.248 NA
ATOM     57  C   UNL A   1      42.983  28.110  31.963  1.00  0.00     0.031 C 
ATOM     58  C   UNL A   1      43.343  29.398  26.420  1.00  0.00     0.029 A 
ATOM     59  C   UNL A   1      43.330  29.482  27.815  1.00  0.00     0.049 A 
ATOM     60  H   UNL A   1      41.686  30.229  28.906  1.00  0.00     0.167 HD
ATOM     61  C   UNL A   1      44.128  28.909  30.110  1.00  0.00     0.074 A 
ATOM     62  C   UNL A   1      42.911  28.934  30.914  1.00  0.00     0.031 C 
ATOM     63  C   UNL A   1      44.363  29.196  28.795  1.00  0.00     0.031 A 
BRANCH  50  64
ATOM     64  C   UNL A   1      38.900  29.129  28.220  1.00  0.00    -0.014 A 
ATOM     65  C   UNL A   1      37.799  29.560  27.462  1.00  0.00     0.010 A 
ATOM     66  C   UNL A   1      38.970  29.564  29.563  1.00  0.00     0.010 A 
ATOM     67  C   UNL A   1      36.834  30.415  28.014  1.00  0.00     0.020 A 
ATOM     68  C   UNL A   1      37.989  30.370  30.137  1.00  0.00     0.020 A 
ATOM     69  C   UNL A   1      36.945  30.821  29.346  1.00  0.00     0.054 A 
BRANCH  69  70
ATOM     70  S   UNL A   1      35.764  32.013  30.021  1.00  0.00     0.124 S 
ATOM     71  O   UNL A   1      35.526  31.469  31.354  1.00  0.00    -0.237 OA
ATOM     72  O   UNL A   1      36.520  33.262  29.969  1.00  0.00    -0.237 OA
ATOM     73  O   UNL A   1      34.634  31.934  29.098  1.00  0.00    -0.744 OA
ENDBRANCH  69  70
ENDBRANCH  50  64
BRANCH  51  74
ATOM     74  C   UNL A   1      44.636  25.801  33.670  1.00  0.00    -0.014 A 
ATOM     75  C   UNL A   1      45.850  25.768  34.377  1.00  0.00     0.010 A 
ATOM     76  C   UNL A   1      43.441  25.712  34.417  1.00  0.00     0.010 A 
ATOM     77  C   UNL A   1      45.866  25.694  35.780  1.00  0.00     0.020 A 
ATOM     78  C   UNL A   1      43.447  25.626  35.812  1.00  0.00     0.020 A 
ATOM     79  C   UNL A   1      44.662  25.639  36.490  1.00  0.00     0.054 A 
BRANCH  79  80
ATOM     80  S   UNL A   1      44.684  25.707  38.304  1.00  0.00     0.124 S 
ATOM     81  O   UNL A   1      43.420  26.372  38.604  1.00  0.00    -0.237 OA
ATOM     82  O   UNL A   1      44.763  24.295  38.671  1.00  0.00    -0.237 OA
ATOM     83  O   UNL A   1      45.883  26.489  38.603  1.00  0.00    -0.744 OA
ENDBRANCH  79  80
ENDBRANCH  51  74
BRANCH  63  84
ATOM     84  C   UNL A   1      45.744  28.909  28.239  1.00  0.00    -0.014 A 
ATOM     85  C   UNL A   1      46.114  27.642  27.746  1.00  0.00     0.010 A 
ATOM     86  C   UNL A   1      46.623  29.986  28.035  1.00  0.00     0.010 A 
ATOM     87  C   UNL A   1      47.327  27.457  27.067  1.00  0.00     0.020 A 
ATOM     88  C   UNL A   1      47.829  29.812  27.344  1.00  0.00     0.020 A 
ATOM     89  C   UNL A   1      48.173  28.549  26.859  1.00  0.00     0.054 A 
BRANCH  89  90
ATOM     90  S   UNL A   1      49.683  28.319  25.875  1.00  0.00     0.124 S 
ATOM     91  O   UNL A   1      49.157  27.967  24.560  1.00  0.00    -0.237 OA
ATOM     92  O   UNL A   1      50.335  29.626  25.959  1.00  0.00    -0.237 OA
ATOM     93  O   UNL A   1      50.392  27.244  26.569  1.00  0.00    -0.744 OA
ENDBRANCH  89  90
ENDBRANCH  63  84
ENDBRANCH  37  38
ENDBRANCH  30  32
ENDBRANCH  29  30
ENDBRANCH  28  29
ENDBRANCH   1  28
TORSDOF 18
ENDMDL
MODEL 3
REMARK VINA RESULT:     -12.0      1.316      2.069
REMARK SMILES Cc1cc2n(n1)[C@H](C(F)(F)F)CCN2C(=O)c1cnn([C@@H](C)C(=O)OCCOC(=O)c2ccc(-c3c4nc(c(-c5ccc(S(=O)(=O)[O-])cc5)c5ccc([nH]5)c(-c5ccc(S(=O)(=O)[O-])cc5)c5nc(c(-c6ccc(S(=O)(=O)[O-])cc6)c6ccc3[nH]6)C=C5)C=C4)cc2)c1
REMARK SMILES IDX 26 1 25 2 23 3 24 4 21 5 22 6 20 7 17 8 18 9 91 10 19 11
REMARK SMILES IDX 15 12 16 13 14 14 1 15 2 16 3 17 6 18 4 19 5 20 7 21 13 22
REMARK SMILES IDX 12 23 8 24 9 25 10 26 11 27 27 28 28 29 29 30 30 31 31 32
REMARK SMILES IDX 32 33 90 34 33 35 89 36 34 37 35 38 36 39 83 40 37 41 88 42
REMARK SMILES IDX 82 43 84 44 38 45 87 46 81 47 80 48 39 50 69 51 50 52 68 53
REMARK SMILES IDX 51 54 54 55 67 56 85 57 52 58 53 59 66 61 86 62 55 63 40 64
REMARK SMILES IDX 41 65 49 66 42 67 48 68 43 69 44 70 45 71 46 72 47 73 70 74
REMARK SMILES IDX 71 75 79 76 72 77 78 78 73 79 74 80 75 81 76 82 77 83 56 84
REMARK SMILES IDX 57 85 65 86 58 87 64 88 59 89 60 90 61 91 62 92 63 93
REMARK H PARENT 84 49 54 60
REMARK Flexibility Score: inf
ROOT
ATOM      1  C   UNL A   1      36.614  21.875  24.864  1.00  0.00     0.274 C 
ENDROOT
BRANCH   1   2
ATOM      2  O   UNL A   1      35.575  20.881  24.993  1.00  0.00    -0.460 OA
BRANCH   2   3
ATOM      3  C   UNL A   1      34.584  21.146  25.885  1.00  0.00     0.330 C 
ATOM      4  O   UNL A   1      34.787  21.539  27.034  1.00  0.00    -0.250 OA
BRANCH   3   5
ATOM      5  C   UNL A   1      33.186  20.846  25.393  1.00  0.00     0.213 C 
ATOM      6  C   UNL A   1      33.247  19.870  24.230  1.00  0.00     0.046 C 
BRANCH   5   7
ATOM      7  N   UNL A   1      32.339  22.006  25.108  1.00  0.00    -0.258 N 
ATOM      8  C   UNL A   1      31.624  23.961  24.346  1.00  0.00     0.078 A 
ATOM      9  C   UNL A   1      30.678  23.309  25.166  1.00  0.00     0.149 A 
ATOM     10  C   UNL A   1      32.684  23.072  24.310  1.00  0.00     0.123 A 
ATOM     11  N   UNL A   1      31.181  22.228  25.769  1.00  0.00    -0.180 NA
BRANCH   8  12
ATOM     12  C   UNL A   1      31.534  25.209  23.620  1.00  0.00     0.262 C 
ATOM     13  O   UNL A   1      31.596  25.292  22.408  1.00  0.00    -0.269 OA
BRANCH  12  14
ATOM     14  N   UNL A   1      31.522  26.395  24.482  1.00  0.00    -0.293 N 
ATOM     15  C   UNL A   1      29.315  30.151  21.943  1.00  0.00     0.069 C 
ATOM     16  C   UNL A   1      29.998  29.296  22.946  1.00  0.00     0.062 A 
ATOM     17  C   UNL A   1      30.280  27.904  22.857  1.00  0.00     0.072 A 
ATOM     18  N   UNL A   1      30.449  29.816  24.096  1.00  0.00    -0.176 NA
ATOM     19  C   UNL A   1      30.968  27.597  24.008  1.00  0.00     0.134 A 
ATOM     20  N   UNL A   1      31.034  28.778  24.700  1.00  0.00    -0.237 N 
ATOM     21  C   UNL A   1      31.624  28.925  26.011  1.00  0.00     0.216 C 
ATOM     22  C   UNL A   1      32.305  26.463  25.740  1.00  0.00     0.130 C 
ATOM     23  C   UNL A   1      31.775  27.551  26.678  1.00  0.00     0.059 C 
BRANCH  21  24
ATOM     24  C   UNL A   1      32.942  29.663  25.921  1.00  0.00     0.410 C 
ATOM     25  F   UNL A   1      33.315  29.765  24.618  1.00  0.00    -0.169 F 
ATOM     26  F   UNL A   1      32.842  30.927  26.390  1.00  0.00    -0.169 F 
ATOM     27  F   UNL A   1      33.953  29.050  26.563  1.00  0.00    -0.169 F 
ENDBRANCH  21  24
ENDBRANCH  12  14
ENDBRANCH   8  12
ENDBRANCH   5   7
ENDBRANCH   3   5
ENDBRANCH   2   3
ENDBRANCH   1   2
BRANCH   1  28
ATOM     28  C   UNL A   1      37.878  21.486  25.625  1.00  0.00     0.275 C 
BRANCH  28  29
ATOM     29  O   UNL A   1      38.565  22.640  26.110  1.00  0.00    -0.458 OA
BRANCH  29  30
ATOM     30  C   UNL A   1      39.759  22.370  26.680  1.00  0.00     0.338 C 
ATOM     31  O   UNL A   1      40.098  21.319  27.200  1.00  0.00    -0.246 OA
BRANCH  30  32
ATOM     32  C   UNL A   1      40.592  23.565  26.760  1.00  0.00     0.060 A 
ATOM     33  C   UNL A   1      41.505  23.608  27.824  1.00  0.00     0.016 A 
ATOM     34  C   UNL A   1      40.204  24.709  26.059  1.00  0.00     0.016 A 
ATOM     35  C   UNL A   1      41.844  24.832  28.345  1.00  0.00     0.010 A 
ATOM     36  C   UNL A   1      40.527  25.931  26.593  1.00  0.00     0.010 A 
ATOM     37  C   UNL A   1      41.262  25.966  27.781  1.00  0.00    -0.014 A 
BRANCH  37  38
ATOM     38  C   UNL A   1      41.384  27.214  28.499  1.00  0.00     0.031 A 
ATOM     39  C   UNL A   1      42.611  27.980  28.208  1.00  0.00     0.074 A 
ATOM     40  C   UNL A   1      40.360  27.678  29.237  1.00  0.00     0.049 A 
ATOM     41  N   UNL A   1      43.526  28.377  29.027  1.00  0.00    -0.248 NA
ATOM     42  C   UNL A   1      42.907  28.236  26.789  1.00  0.00     0.031 C 
ATOM     43  C   UNL A   1      38.998  27.136  29.318  1.00  0.00     0.029 A 
ATOM     44  N   UNL A   1      40.280  28.831  29.948  1.00  0.00    -0.354 N 
ATOM     45  C   UNL A   1      44.430  29.091  28.249  1.00  0.00     0.074 A 
ATOM     46  C   UNL A   1      44.096  28.825  26.873  1.00  0.00     0.031 C 
ATOM     47  C   UNL A   1      38.179  28.086  29.820  1.00  0.00     0.029 A 
ATOM     48  C   UNL A   1      38.979  29.239  30.201  1.00  0.00     0.049 A 
ATOM     49  H   UNL A   1      41.071  29.331  30.255  1.00  0.00     0.167 HD
ATOM     50  C   UNL A   1      45.250  30.044  28.766  1.00  0.00     0.031 A 
ATOM     51  C   UNL A   1      38.590  30.480  30.580  1.00  0.00     0.031 A 
ATOM     52  C   UNL A   1      45.363  29.960  30.194  1.00  0.00     0.049 A 
ATOM     53  C   UNL A   1      39.785  31.177  31.118  1.00  0.00     0.074 A 
ATOM     54  C   UNL A   1      45.851  29.015  31.073  1.00  0.00     0.029 A 
ATOM     55  N   UNL A   1      44.591  30.817  30.942  1.00  0.00    -0.354 N 
ATOM     56  N   UNL A   1      40.411  30.806  32.201  1.00  0.00    -0.248 NA
ATOM     57  C   UNL A   1      40.548  32.044  30.232  1.00  0.00     0.031 C 
ATOM     58  C   UNL A   1      45.006  29.094  32.216  1.00  0.00     0.029 A 
ATOM     59  C   UNL A   1      44.062  30.099  31.986  1.00  0.00     0.049 A 
ATOM     60  H   UNL A   1      44.443  31.773  30.760  1.00  0.00     0.167 HD
ATOM     61  C   UNL A   1      41.755  31.050  31.947  1.00  0.00     0.074 A 
ATOM     62  C   UNL A   1      41.762  31.923  30.778  1.00  0.00     0.031 C 
ATOM     63  C   UNL A   1      42.733  30.299  32.535  1.00  0.00     0.031 A 
BRANCH  50  64
ATOM     64  C   UNL A   1      45.652  31.263  27.982  1.00  0.00    -0.014 A 
ATOM     65  C   UNL A   1      47.009  31.496  27.703  1.00  0.00     0.010 A 
ATOM     66  C   UNL A   1      44.749  32.319  27.724  1.00  0.00     0.010 A 
ATOM     67  C   UNL A   1      47.442  32.740  27.222  1.00  0.00     0.020 A 
ATOM     68  C   UNL A   1      45.162  33.541  27.197  1.00  0.00     0.020 A 
ATOM     69  C   UNL A   1      46.514  33.756  26.984  1.00  0.00     0.054 A 
BRANCH  69  70
ATOM     70  S   UNL A   1      47.088  35.394  26.475  1.00  0.00     0.124 S 
ATOM     71  O   UNL A   1      47.900  35.791  27.621  1.00  0.00    -0.237 OA
ATOM     72  O   UNL A   1      47.823  35.098  25.247  1.00  0.00    -0.237 OA
ATOM     73  O   UNL A   1      45.851  36.147  26.289  1.00  0.00    -0.744 OA
ENDBRANCH  69  70
ENDBRANCH  50  64
BRANCH  51  74
ATOM     74  C   UNL A   1      37.350  31.181  30.163  1.00  0.00    -0.014 A 
ATOM     75  C   UNL A   1      36.342  31.491  31.092  1.00  0.00     0.010 A 
ATOM     76  C   UNL A   1      37.265  31.768  28.883  1.00  0.00     0.010 A 
ATOM     77  C   UNL A   1      35.314  32.391  30.764  1.00  0.00     0.020 A 
ATOM     78  C   UNL A   1      36.238  32.654  28.544  1.00  0.00     0.020 A 
ATOM     79  C   UNL A   1      35.277  32.978  29.496  1.00  0.00     0.054 A 
BRANCH  79  80
ATOM     80  S   UNL A   1      34.042  34.259  29.133  1.00  0.00     0.124 S 
ATOM     81  O   UNL A   1      33.501  34.549  30.458  1.00  0.00    -0.237 OA
ATOM     82  O   UNL A   1      34.851  35.315  28.532  1.00  0.00    -0.237 OA
ATOM     83  O   UNL A   1      33.117  33.593  28.217  1.00  0.00    -0.744 OA
ENDBRANCH  79  80
ENDBRANCH  51  74
BRANCH  63  84
ATOM     84  C   UNL A   1      42.335  29.372  33.666  1.00  0.00    -0.014 A 
ATOM     85  C   UNL A   1      41.772  28.099  33.440  1.00  0.00     0.010 A 
ATOM     86  C   UNL A   1      42.712  29.710  34.977  1.00  0.00     0.010 A 
ATOM     87  C   UNL A   1      41.592  27.192  34.494  1.00  0.00     0.020 A 
ATOM     88  C   UNL A   1      42.550  28.803  36.031  1.00  0.00     0.020 A 
ATOM     89  C   UNL A   1      41.994  27.546  35.784  1.00  0.00     0.054 A 
BRANCH  89  90
ATOM     90  S   UNL A   1      41.866  26.317  37.115  1.00  0.00     0.124 S 
ATOM     91  O   UNL A   1      40.527  26.559  37.646  1.00  0.00    -0.237 OA
ATOM     92  O   UNL A   1      42.040  25.047  36.411  1.00  0.00    -0.237 OA
ATOM     93  O   UNL A   1      42.964  26.663  38.017  1.00  0.00    -0.744 OA
ENDBRANCH  89  90
ENDBRANCH  63  84
ENDBRANCH  37  38
ENDBRANCH  30  32
ENDBRANCH  29  30
ENDBRANCH  28  29
ENDBRANCH   1  28
TORSDOF 18
ENDMDL
