MODEL 1
REMARK VINA RESULT:     -10.1      0.000      0.000
REMARK SMILES NC(=O)c1ccnc(N(CC(=O)OCCOC(=O)c2ccc(-c3c4nc(c(-c5ccc(S(=O)(=O)[O-])cc5)c5ccc([nH]5)c(-c5ccc(S(=O)(=O)[O-])cc5)c5nc(c(-c6ccc(S(=O)(=O)[O-])cc6)c6ccc3[nH]6)C=C5)C=C4)cc2)CC(F)(F)F)c1
REMARK SMILES IDX 14 1 13 2 11 3 12 4 10 5 9 6 8 7 4 8 5 9 84 10 6 11 7 12
REMARK SMILES IDX 2 13 1 14 3 17 79 18 80 19 81 20 82 21 83 22 15 23 16 24
REMARK SMILES IDX 17 25 18 26 19 27 20 28 78 29 21 30 77 31 22 32 23 33 24 34
REMARK SMILES IDX 71 35 25 36 76 37 70 38 72 39 26 40 75 41 69 42 68 43 27 45
REMARK SMILES IDX 57 46 38 47 56 48 39 49 42 50 55 51 73 52 40 53 41 54 54 56
REMARK SMILES IDX 74 57 43 58 28 59 29 60 37 61 30 62 36 63 31 64 32 65 33 66
REMARK SMILES IDX 34 67 35 68 58 69 59 70 67 71 60 72 66 73 61 74 62 75 63 76
REMARK SMILES IDX 64 77 65 78 44 79 45 80 53 81 46 82 52 83 47 84 48 85 49 86
REMARK SMILES IDX 50 87 51 88
REMARK H PARENT 1 15 1 16 72 44 42 55
REMARK Flexibility Score: inf
ROOT
ATOM      1  C   UNL A   1      33.751  29.591  27.114  1.00  0.00     0.274 C 
ENDROOT
BRANCH   1   2
ATOM      2  O   UNL A   1      33.212  29.736  25.788  1.00  0.00    -0.461 OA
BRANCH   2   3
ATOM      3  C   UNL A   1      33.037  28.590  25.081  1.00  0.00     0.325 C 
ATOM      4  O   UNL A   1      32.420  28.518  24.021  1.00  0.00    -0.250 OA
BRANCH   3   5
ATOM      5  C   UNL A   1      33.745  27.383  25.683  1.00  0.00     0.241 C 
BRANCH   5   6
ATOM      6  N   UNL A   1      33.077  26.075  25.499  1.00  0.00    -0.336 N 
BRANCH   6   7
ATOM      7  C   UNL A   1      33.810  25.083  24.877  1.00  0.00     0.130 A 
ATOM      8  C   UNL A   1      35.670  23.553  24.724  1.00  0.00     0.044 A 
ATOM      9  C   UNL A   1      35.257  23.163  23.458  1.00  0.00     0.034 A 
ATOM     10  C   UNL A   1      34.943  24.511  25.438  1.00  0.00     0.060 A 
ATOM     11  C   UNL A   1      34.121  23.761  22.967  1.00  0.00     0.114 A 
ATOM     12  N   UNL A   1      33.414  24.693  23.644  1.00  0.00    -0.239 NA
BRANCH   8  13
ATOM     13  C   UNL A   1      36.871  22.968  25.360  1.00  0.00     0.248 C 
ATOM     14  N   UNL A   1      38.033  23.677  25.262  1.00  0.00    -0.366 N 
ATOM     15  H   UNL A   1      38.859  23.328  25.670  1.00  0.00     0.159 HD
ATOM     16  H   UNL A   1      38.047  24.538  24.784  1.00  0.00     0.159 HD
ATOM     17  O   UNL A   1      36.822  21.913  25.976  1.00  0.00    -0.270 OA
ENDBRANCH   8  13
ENDBRANCH   6   7
BRANCH   6  18
ATOM     18  C   UNL A   1      31.815  25.829  26.245  1.00  0.00     0.234 C 
BRANCH  18  19
ATOM     19  C   UNL A   1      30.570  25.421  25.431  1.00  0.00     0.405 C 
ATOM     20  F   UNL A   1      30.522  24.092  25.187  1.00  0.00    -0.169 F 
ATOM     21  F   UNL A   1      29.447  25.721  26.131  1.00  0.00    -0.169 F 
ATOM     22  F   UNL A   1      30.486  26.052  24.243  1.00  0.00    -0.169 F 
ENDBRANCH  18  19
ENDBRANCH   6  18
ENDBRANCH   5   6
ENDBRANCH   3   5
ENDBRANCH   2   3
ENDBRANCH   1   2
BRANCH   1  23
ATOM     23  C   UNL A   1      34.253  30.937  27.632  1.00  0.00     0.275 C 
BRANCH  23  24
ATOM     24  O   UNL A   1      35.689  30.923  27.738  1.00  0.00    -0.458 OA
BRANCH  24  25
ATOM     25  C   UNL A   1      36.183  30.630  28.962  1.00  0.00     0.338 C 
ATOM     26  O   UNL A   1      35.642  30.782  30.042  1.00  0.00    -0.246 OA
BRANCH  25  27
ATOM     27  C   UNL A   1      37.526  30.046  28.832  1.00  0.00     0.060 A 
ATOM     28  C   UNL A   1      38.310  29.830  29.967  1.00  0.00     0.016 A 
ATOM     29  C   UNL A   1      38.049  29.830  27.556  1.00  0.00     0.016 A 
ATOM     30  C   UNL A   1      39.640  29.437  29.827  1.00  0.00     0.010 A 
ATOM     31  C   UNL A   1      39.363  29.378  27.421  1.00  0.00     0.010 A 
ATOM     32  C   UNL A   1      40.177  29.200  28.552  1.00  0.00    -0.014 A 
BRANCH  32  33
ATOM     33  C   UNL A   1      41.588  28.770  28.387  1.00  0.00     0.031 A 
ATOM     34  C   UNL A   1      42.701  29.779  28.462  1.00  0.00     0.074 A 
ATOM     35  C   UNL A   1      41.868  27.477  28.132  1.00  0.00     0.049 A 
ATOM     36  N   UNL A   1      43.972  29.627  28.186  1.00  0.00    -0.248 NA
ATOM     37  C   UNL A   1      42.338  31.139  28.895  1.00  0.00     0.031 C 
ATOM     38  C   UNL A   1      40.883  26.395  28.055  1.00  0.00     0.029 A 
ATOM     39  N   UNL A   1      43.064  26.858  27.874  1.00  0.00    -0.354 N 
ATOM     40  C   UNL A   1      44.553  30.875  28.373  1.00  0.00     0.074 A 
ATOM     41  C   UNL A   1      43.497  31.775  28.788  1.00  0.00     0.031 C 
ATOM     42  C   UNL A   1      41.516  25.246  27.771  1.00  0.00     0.029 A 
ATOM     43  C   UNL A   1      42.938  25.519  27.592  1.00  0.00     0.049 A 
ATOM     44  H   UNL A   1      43.930  27.327  27.889  1.00  0.00     0.167 HD
ATOM     45  C   UNL A   1      45.847  31.241  28.209  1.00  0.00     0.031 A 
ATOM     46  C   UNL A   1      43.856  24.616  27.195  1.00  0.00     0.031 A 
ATOM     47  C   UNL A   1      46.899  30.343  27.813  1.00  0.00     0.049 A 
ATOM     48  C   UNL A   1      45.280  25.049  27.000  1.00  0.00     0.074 A 
ATOM     49  C   UNL A   1      48.243  30.618  27.632  1.00  0.00     0.029 A 
ATOM     50  N   UNL A   1      46.727  28.994  27.543  1.00  0.00    -0.354 N 
ATOM     51  N   UNL A   1      45.806  26.238  27.162  1.00  0.00    -0.248 NA
ATOM     52  C   UNL A   1      46.231  24.018  26.560  1.00  0.00     0.031 C 
ATOM     53  C   UNL A   1      48.881  29.440  27.226  1.00  0.00     0.029 A 
ATOM     54  C   UNL A   1      47.938  28.426  27.188  1.00  0.00     0.049 A 
ATOM     55  H   UNL A   1      45.871  28.512  27.596  1.00  0.00     0.167 HD
ATOM     56  C   UNL A   1      47.154  26.099  26.851  1.00  0.00     0.074 A 
ATOM     57  C   UNL A   1      47.364  24.706  26.508  1.00  0.00     0.031 C 
ATOM     58  C   UNL A   1      48.128  27.040  26.848  1.00  0.00     0.031 A 
BRANCH  45  59
ATOM     59  C   UNL A   1      46.192  32.688  28.425  1.00  0.00    -0.014 A 
ATOM     60  C   UNL A   1      46.620  33.151  29.681  1.00  0.00     0.010 A 
ATOM     61  C   UNL A   1      46.130  33.585  27.344  1.00  0.00     0.010 A 
ATOM     62  C   UNL A   1      46.954  34.498  29.860  1.00  0.00     0.020 A 
ATOM     63  C   UNL A   1      46.479  34.928  27.515  1.00  0.00     0.020 A 
ATOM     64  C   UNL A   1      46.873  35.379  28.776  1.00  0.00     0.054 A 
BRANCH  64  65
ATOM     65  S   UNL A   1      47.334  37.117  29.022  1.00  0.00     0.124 S 
ATOM     66  O   UNL A   1      46.400  37.803  28.133  1.00  0.00    -0.237 OA
ATOM     67  O   UNL A   1      47.101  37.315  30.451  1.00  0.00    -0.237 OA
ATOM     68  O   UNL A   1      48.735  37.164  28.612  1.00  0.00    -0.744 OA
ENDBRANCH  64  65
ENDBRANCH  45  59
BRANCH  46  69
ATOM     69  C   UNL A   1      43.437  23.218  26.918  1.00  0.00    -0.014 A 
ATOM     70  C   UNL A   1      43.683  22.635  25.664  1.00  0.00     0.010 A 
ATOM     71  C   UNL A   1      42.819  22.453  27.924  1.00  0.00     0.010 A 
ATOM     72  C   UNL A   1      43.309  21.311  25.416  1.00  0.00     0.020 A 
ATOM     73  C   UNL A   1      42.463  21.123  27.686  1.00  0.00     0.020 A 
ATOM     74  C   UNL A   1      42.702  20.564  26.429  1.00  0.00     0.054 A 
BRANCH  74  75
ATOM     75  S   UNL A   1      42.288  18.824  26.119  1.00  0.00     0.124 S 
ATOM     76  O   UNL A   1      43.211  18.482  25.042  1.00  0.00    -0.237 OA
ATOM     77  O   UNL A   1      42.560  18.193  27.409  1.00  0.00    -0.237 OA
ATOM     78  O   UNL A   1      40.876  18.876  25.747  1.00  0.00    -0.744 OA
ENDBRANCH  74  75
ENDBRANCH  46  69
BRANCH  58  79
ATOM     79  C   UNL A   1      49.513  26.589  26.483  1.00  0.00    -0.014 A 
ATOM     80  C   UNL A   1      50.348  25.979  27.434  1.00  0.00     0.010 A 
ATOM     81  C   UNL A   1      49.968  26.742  25.160  1.00  0.00     0.010 A 
ATOM     82  C   UNL A   1      51.629  25.551  27.075  1.00  0.00     0.020 A 
ATOM     83  C   UNL A   1      51.241  26.301  24.795  1.00  0.00     0.020 A 
ATOM     84  C   UNL A   1      52.069  25.721  25.759  1.00  0.00     0.054 A 
BRANCH  84  85
ATOM     85  S   UNL A   1      53.720  25.126  25.300  1.00  0.00     0.124 S 
ATOM     86  O   UNL A   1      54.555  25.713  26.343  1.00  0.00    -0.237 OA
ATOM     87  O   UNL A   1      53.572  23.673  25.356  1.00  0.00    -0.237 OA
ATOM     88  O   UNL A   1      53.920  25.672  23.958  1.00  0.00    -0.744 OA
ENDBRANCH  84  85
ENDBRANCH  58  79
ENDBRANCH  32  33
ENDBRANCH  25  27
ENDBRANCH  24  25
ENDBRANCH  23  24
ENDBRANCH   1  23
TORSDOF 19
ENDMDL
MODEL 2
REMARK VINA RESULT:     -10.0      6.642     12.023
REMARK SMILES NC(=O)c1ccnc(N(CC(=O)OCCOC(=O)c2ccc(-c3c4nc(c(-c5ccc(S(=O)(=O)[O-])cc5)c5ccc([nH]5)c(-c5ccc(S(=O)(=O)[O-])cc5)c5nc(c(-c6ccc(S(=O)(=O)[O-])cc6)c6ccc3[nH]6)C=C5)C=C4)cc2)CC(F)(F)F)c1
REMARK SMILES IDX 14 1 13 2 11 3 12 4 10 5 9 6 8 7 4 8 5 9 84 10 6 11 7 12
REMARK SMILES IDX 2 13 1 14 3 17 79 18 80 19 81 20 82 21 83 22 15 23 16 24
REMARK SMILES IDX 17 25 18 26 19 27 20 28 78 29 21 30 77 31 22 32 23 33 24 34
REMARK SMILES IDX 71 35 25 36 76 37 70 38 72 39 26 40 75 41 69 42 68 43 27 45
REMARK SMILES IDX 57 46 38 47 56 48 39 49 42 50 55 51 73 52 40 53 41 54 54 56
REMARK SMILES IDX 74 57 43 58 28 59 29 60 37 61 30 62 36 63 31 64 32 65 33 66
REMARK SMILES IDX 34 67 35 68 58 69 59 70 67 71 60 72 66 73 61 74 62 75 63 76
REMARK SMILES IDX 64 77 65 78 44 79 45 80 53 81 46 82 52 83 47 84 48 85 49 86
REMARK SMILES IDX 50 87 51 88
REMARK H PARENT 1 15 1 16 72 44 42 55
REMARK Flexibility Score: inf
ROOT
ATOM      1  C   UNL A   1      37.997  22.183  25.377  1.00  0.00     0.274 C 
ENDROOT
BRANCH   1   2
ATOM      2  O   UNL A   1      36.759  21.988  26.082  1.00  0.00    -0.461 OA
BRANCH   2   3
ATOM      3  C   UNL A   1      35.826  22.965  25.941  1.00  0.00     0.325 C 
ATOM      4  O   UNL A   1      36.079  24.124  25.627  1.00  0.00    -0.250 OA
BRANCH   3   5
ATOM      5  C   UNL A   1      34.395  22.479  26.137  1.00  0.00     0.241 C 
BRANCH   5   6
ATOM      6  N   UNL A   1      33.660  22.103  24.909  1.00  0.00    -0.336 N 
BRANCH   6   7
ATOM      7  C   UNL A   1      32.892  23.086  24.316  1.00  0.00     0.130 A 
ATOM      8  C   UNL A   1      32.436  24.728  22.607  1.00  0.00     0.044 A 
ATOM      9  C   UNL A   1      31.300  25.137  23.290  1.00  0.00     0.034 A 
ATOM     10  C   UNL A   1      33.231  23.696  23.117  1.00  0.00     0.060 A 
ATOM     11  C   UNL A   1      31.016  24.484  24.465  1.00  0.00     0.114 A 
ATOM     12  N   UNL A   1      31.780  23.491  24.972  1.00  0.00    -0.239 NA
BRANCH   8  13
ATOM     13  C   UNL A   1      32.834  25.350  21.325  1.00  0.00     0.248 C 
ATOM     14  N   UNL A   1      32.785  26.712  21.254  1.00  0.00    -0.366 N 
ATOM     15  H   UNL A   1      33.041  27.172  20.421  1.00  0.00     0.159 HD
ATOM     16  H   UNL A   1      32.494  27.236  22.035  1.00  0.00     0.159 HD
ATOM     17  O   UNL A   1      33.222  24.679  20.379  1.00  0.00    -0.270 OA
ENDBRANCH   8  13
ENDBRANCH   6   7
BRANCH   6  18
ATOM     18  C   UNL A   1      34.028  20.826  24.243  1.00  0.00     0.234 C 
BRANCH  18  19
ATOM     19  C   UNL A   1      33.273  19.551  24.673  1.00  0.00     0.405 C 
ATOM     20  F   UNL A   1      33.071  19.493  26.009  1.00  0.00    -0.169 F 
ATOM     21  F   UNL A   1      32.044  19.532  24.101  1.00  0.00    -0.169 F 
ATOM     22  F   UNL A   1      33.904  18.416  24.313  1.00  0.00    -0.169 F 
ENDBRANCH  18  19
ENDBRANCH   6  18
ENDBRANCH   5   6
ENDBRANCH   3   5
ENDBRANCH   2   3
ENDBRANCH   1   2
BRANCH   1  23
ATOM     23  C   UNL A   1      39.136  22.428  26.365  1.00  0.00     0.275 C 
BRANCH  23  24
ATOM     24  O   UNL A   1      39.193  23.822  26.719  1.00  0.00    -0.458 OA
BRANCH  24  25
ATOM     25  C   UNL A   1      40.433  24.341  26.862  1.00  0.00     0.338 C 
ATOM     26  O   UNL A   1      41.469  23.951  26.355  1.00  0.00    -0.246 OA
BRANCH  25  27
ATOM     27  C   UNL A   1      40.383  25.523  27.736  1.00  0.00     0.060 A 
ATOM     28  C   UNL A   1      41.421  26.456  27.713  1.00  0.00     0.016 A 
ATOM     29  C   UNL A   1      39.353  25.629  28.672  1.00  0.00     0.016 A 
ATOM     30  C   UNL A   1      41.454  27.479  28.659  1.00  0.00     0.010 A 
ATOM     31  C   UNL A   1      39.357  26.690  29.579  1.00  0.00     0.010 A 
ATOM     32  C   UNL A   1      40.418  27.610  29.596  1.00  0.00    -0.014 A 
BRANCH  32  33
ATOM     33  C   UNL A   1      40.433  28.702  30.603  1.00  0.00     0.031 A 
ATOM     34  C   UNL A   1      41.393  28.652  31.760  1.00  0.00     0.074 A 
ATOM     35  C   UNL A   1      39.559  29.721  30.497  1.00  0.00     0.049 A 
ATOM     36  N   UNL A   1      41.447  29.419  32.819  1.00  0.00    -0.248 NA
ATOM     37  C   UNL A   1      42.418  27.596  31.729  1.00  0.00     0.031 C 
ATOM     38  C   UNL A   1      38.591  29.899  29.412  1.00  0.00     0.029 A 
ATOM     39  N   UNL A   1      39.332  30.791  31.325  1.00  0.00    -0.354 N 
ATOM     40  C   UNL A   1      42.483  28.918  33.598  1.00  0.00     0.074 A 
ATOM     41  C   UNL A   1      43.033  27.781  32.890  1.00  0.00     0.031 C 
ATOM     42  C   UNL A   1      37.877  31.013  29.640  1.00  0.00     0.029 A 
ATOM     43  C   UNL A   1      38.296  31.594  30.911  1.00  0.00     0.049 A 
ATOM     44  H   UNL A   1      39.859  30.966  32.137  1.00  0.00     0.167 HD
ATOM     45  C   UNL A   1      42.933  29.361  34.796  1.00  0.00     0.031 A 
ATOM     46  C   UNL A   1      37.720  32.658  31.504  1.00  0.00     0.031 A 
ATOM     47  C   UNL A   1      42.398  30.501  35.492  1.00  0.00     0.049 A 
ATOM     48  C   UNL A   1      38.222  33.118  32.842  1.00  0.00     0.074 A 
ATOM     49  C   UNL A   1      42.796  31.034  36.706  1.00  0.00     0.029 A 
ATOM     50  N   UNL A   1      41.354  31.288  35.034  1.00  0.00    -0.354 N 
ATOM     51  N   UNL A   1      39.191  32.619  33.571  1.00  0.00    -0.248 NA
ATOM     52  C   UNL A   1      37.548  34.280  33.438  1.00  0.00     0.031 C 
ATOM     53  C   UNL A   1      41.974  32.130  36.995  1.00  0.00     0.029 A 
ATOM     54  C   UNL A   1      41.087  32.297  35.944  1.00  0.00     0.049 A 
ATOM     55  H   UNL A   1      40.873  31.151  34.186  1.00  0.00     0.167 HD
ATOM     56  C   UNL A   1      39.248  33.411  34.712  1.00  0.00     0.074 A 
ATOM     57  C   UNL A   1      38.228  34.431  34.568  1.00  0.00     0.031 C 
ATOM     58  C   UNL A   1      40.069  33.301  35.784  1.00  0.00     0.031 A 
BRANCH  45  59
ATOM     59  C   UNL A   1      44.043  28.587  35.450  1.00  0.00    -0.014 A 
ATOM     60  C   UNL A   1      45.390  28.922  35.230  1.00  0.00     0.010 A 
ATOM     61  C   UNL A   1      43.730  27.537  36.334  1.00  0.00     0.010 A 
ATOM     62  C   UNL A   1      46.409  28.200  35.860  1.00  0.00     0.020 A 
ATOM     63  C   UNL A   1      44.746  26.825  36.978  1.00  0.00     0.020 A 
ATOM     64  C   UNL A   1      46.079  27.152  36.725  1.00  0.00     0.054 A 
BRANCH  64  65
ATOM     65  S   UNL A   1      47.415  26.244  37.553  1.00  0.00     0.124 S 
ATOM     66  O   UNL A   1      47.905  27.236  38.506  1.00  0.00    -0.237 OA
ATOM     67  O   UNL A   1      46.717  25.101  38.139  1.00  0.00    -0.237 OA
ATOM     68  O   UNL A   1      48.334  25.916  36.466  1.00  0.00    -0.744 OA
ENDBRANCH  64  65
ENDBRANCH  45  59
BRANCH  46  69
ATOM     69  C   UNL A   1      36.573  33.332  30.845  1.00  0.00    -0.014 A 
ATOM     70  C   UNL A   1      35.298  33.310  31.435  1.00  0.00     0.010 A 
ATOM     71  C   UNL A   1      36.761  34.029  29.638  1.00  0.00     0.010 A 
ATOM     72  C   UNL A   1      34.227  33.968  30.823  1.00  0.00     0.020 A 
ATOM     73  C   UNL A   1      35.698  34.705  29.035  1.00  0.00     0.020 A 
ATOM     74  C   UNL A   1      34.434  34.661  29.627  1.00  0.00     0.054 A 
BRANCH  74  75
ATOM     75  S   UNL A   1      33.053  35.572  28.881  1.00  0.00     0.124 S 
ATOM     76  O   UNL A   1      32.408  34.537  28.079  1.00  0.00    -0.237 OA
ATOM     77  O   UNL A   1      32.300  36.030  30.047  1.00  0.00    -0.237 OA
ATOM     78  O   UNL A   1      33.718  36.632  28.126  1.00  0.00    -0.744 OA
ENDBRANCH  74  75
ENDBRANCH  46  69
BRANCH  58  79
ATOM     79  C   UNL A   1      39.912  34.323  36.873  1.00  0.00    -0.014 A 
ATOM     80  C   UNL A   1      40.576  35.559  36.803  1.00  0.00     0.010 A 
ATOM     81  C   UNL A   1      39.058  34.057  37.958  1.00  0.00     0.010 A 
ATOM     82  C   UNL A   1      40.408  36.506  37.817  1.00  0.00     0.020 A 
ATOM     83  C   UNL A   1      38.876  35.007  38.965  1.00  0.00     0.020 A 
ATOM     84  C   UNL A   1      39.564  36.221  38.896  1.00  0.00     0.054 A 
BRANCH  84  85
ATOM     85  S   UNL A   1      39.327  37.475  40.184  1.00  0.00     0.124 S 
ATOM     86  O   UNL A   1      38.940  36.661  41.332  1.00  0.00    -0.237 OA
ATOM     87  O   UNL A   1      40.643  38.104  40.274  1.00  0.00    -0.237 OA
ATOM     88  O   UNL A   1      38.273  38.330  39.641  1.00  0.00    -0.744 OA
ENDBRANCH  84  85
ENDBRANCH  58  79
ENDBRANCH  32  33
ENDBRANCH  25  27
ENDBRANCH  24  25
ENDBRANCH  23  24
ENDBRANCH   1  23
TORSDOF 19
ENDMDL
MODEL 3
REMARK VINA RESULT:      -9.9      3.318      4.845
REMARK SMILES NC(=O)c1ccnc(N(CC(=O)OCCOC(=O)c2ccc(-c3c4nc(c(-c5ccc(S(=O)(=O)[O-])cc5)c5ccc([nH]5)c(-c5ccc(S(=O)(=O)[O-])cc5)c5nc(c(-c6ccc(S(=O)(=O)[O-])cc6)c6ccc3[nH]6)C=C5)C=C4)cc2)CC(F)(F)F)c1
REMARK SMILES IDX 14 1 13 2 11 3 12 4 10 5 9 6 8 7 4 8 5 9 84 10 6 11 7 12
REMARK SMILES IDX 2 13 1 14 3 17 79 18 80 19 81 20 82 21 83 22 15 23 16 24
REMARK SMILES IDX 17 25 18 26 19 27 20 28 78 29 21 30 77 31 22 32 23 33 24 34
REMARK SMILES IDX 71 35 25 36 76 37 70 38 72 39 26 40 75 41 69 42 68 43 27 45
REMARK SMILES IDX 57 46 38 47 56 48 39 49 42 50 55 51 73 52 40 53 41 54 54 56
REMARK SMILES IDX 74 57 43 58 28 59 29 60 37 61 30 62 36 63 31 64 32 65 33 66
REMARK SMILES IDX 34 67 35 68 58 69 59 70 67 71 60 72 66 73 61 74 62 75 63 76
REMARK SMILES IDX 64 77 65 78 44 79 45 80 53 81 46 82 52 83 47 84 48 85 49 86
REMARK SMILES IDX 50 87 51 88
REMARK H PARENT 1 15 1 16 72 44 42 55
REMARK Flexibility Score: inf
ROOT
ATOM      1  C   UNL A   1      31.555  28.567  27.276  1.00  0.00     0.274 C 
ENDROOT
BRANCH   1   2
ATOM      2  O   UNL A   1      31.178  28.042  25.991  1.00  0.00    -0.461 OA
BRANCH   2   3
ATOM      3  C   UNL A   1      31.088  26.690  25.896  1.00  0.00     0.325 C 
ATOM      4  O   UNL A   1      31.397  25.911  26.793  1.00  0.00    -0.250 OA
BRANCH   3   5
ATOM      5  C   UNL A   1      30.488  26.207  24.582  1.00  0.00     0.241 C 
BRANCH   5   6
ATOM      6  N   UNL A   1      30.601  27.133  23.433  1.00  0.00    -0.336 N 
BRANCH   6   7
ATOM      7  C   UNL A   1      29.549  28.006  23.231  1.00  0.00     0.130 A 
ATOM      8  C   UNL A   1      28.614  30.164  22.693  1.00  0.00     0.044 A 
ATOM      9  C   UNL A   1      27.339  29.690  22.966  1.00  0.00     0.034 A 
ATOM     10  C   UNL A   1      29.722  29.320  22.819  1.00  0.00     0.060 A 
ATOM     11  C   UNL A   1      27.239  28.377  23.359  1.00  0.00     0.114 A 
ATOM     12  N   UNL A   1      28.302  27.553  23.492  1.00  0.00    -0.239 NA
BRANCH   8  13
ATOM     13  C   UNL A   1      28.842  31.557  22.250  1.00  0.00     0.248 C 
ATOM     14  N   UNL A   1      28.943  31.773  20.906  1.00  0.00    -0.366 N 
ATOM     15  H   UNL A   1      29.096  32.684  20.563  1.00  0.00     0.159 HD
ATOM     16  H   UNL A   1      28.864  31.018  20.278  1.00  0.00     0.159 HD
ATOM     17  O   UNL A   1      28.905  32.483  23.047  1.00  0.00    -0.270 OA
ENDBRANCH   8  13
ENDBRANCH   6   7
BRANCH   6  18
ATOM     18  C   UNL A   1      31.929  27.270  22.781  1.00  0.00     0.234 C 
BRANCH  18  19
ATOM     19  C   UNL A   1      32.539  26.012  22.129  1.00  0.00     0.405 C 
ATOM     20  F   UNL A   1      31.600  25.117  21.749  1.00  0.00    -0.169 F 
ATOM     21  F   UNL A   1      33.212  26.360  21.003  1.00  0.00    -0.169 F 
ATOM     22  F   UNL A   1      33.407  25.368  22.935  1.00  0.00    -0.169 F 
ENDBRANCH  18  19
ENDBRANCH   6  18
ENDBRANCH   5   6
ENDBRANCH   3   5
ENDBRANCH   2   3
ENDBRANCH   1   2
BRANCH   1  23
ATOM     23  C   UNL A   1      32.520  29.738  27.108  1.00  0.00     0.275 C 
BRANCH  23  24
ATOM     24  O   UNL A   1      33.759  29.462  27.788  1.00  0.00    -0.458 OA
BRANCH  24  25
ATOM     25  C   UNL A   1      34.641  30.485  27.840  1.00  0.00     0.338 C 
ATOM     26  O   UNL A   1      34.422  31.669  27.660  1.00  0.00    -0.246 OA
BRANCH  25  27
ATOM     27  C   UNL A   1      35.977  29.977  28.185  1.00  0.00     0.060 A 
ATOM     28  C   UNL A   1      36.239  29.517  29.477  1.00  0.00     0.016 A 
ATOM     29  C   UNL A   1      37.003  30.079  27.245  1.00  0.00     0.016 A 
ATOM     30  C   UNL A   1      37.545  29.197  29.846  1.00  0.00     0.010 A 
ATOM     31  C   UNL A   1      38.299  29.701  27.600  1.00  0.00     0.010 A 
ATOM     32  C   UNL A   1      38.586  29.279  28.908  1.00  0.00    -0.014 A 
BRANCH  32  33
ATOM     33  C   UNL A   1      39.980  28.930  29.284  1.00  0.00     0.031 A 
ATOM     34  C   UNL A   1      40.863  29.952  29.947  1.00  0.00     0.074 A 
ATOM     35  C   UNL A   1      40.464  27.707  28.995  1.00  0.00     0.049 A 
ATOM     36  N   UNL A   1      42.145  29.890  30.202  1.00  0.00    -0.248 NA
ATOM     37  C   UNL A   1      40.225  31.208  30.371  1.00  0.00     0.031 C 
ATOM     38  C   UNL A   1      39.705  26.620  28.372  1.00  0.00     0.029 A 
ATOM     39  N   UNL A   1      41.718  27.180  29.172  1.00  0.00    -0.354 N 
ATOM     40  C   UNL A   1      42.476  31.111  30.778  1.00  0.00     0.074 A 
ATOM     41  C   UNL A   1      41.260  31.893  30.839  1.00  0.00     0.031 C 
ATOM     42  C   UNL A   1      40.508  25.555  28.222  1.00  0.00     0.029 A 
ATOM     43  C   UNL A   1      41.848  25.902  28.684  1.00  0.00     0.049 A 
ATOM     44  H   UNL A   1      42.453  27.670  29.605  1.00  0.00     0.167 HD
ATOM     45  C   UNL A   1      43.684  31.542  31.213  1.00  0.00     0.031 A 
ATOM     46  C   UNL A   1      42.932  25.108  28.583  1.00  0.00     0.031 A 
ATOM     47  C   UNL A   1      44.890  30.758  31.169  1.00  0.00     0.049 A 
ATOM     48  C   UNL A   1      44.265  25.616  29.053  1.00  0.00     0.074 A 
ATOM     49  C   UNL A   1      46.159  31.105  31.598  1.00  0.00     0.029 A 
ATOM     50  N   UNL A   1      44.975  29.467  30.673  1.00  0.00    -0.354 N 
ATOM     51  N   UNL A   1      44.561  26.780  29.577  1.00  0.00    -0.248 NA
ATOM     52  C   UNL A   1      45.409  24.704  28.910  1.00  0.00     0.031 C 
ATOM     53  C   UNL A   1      47.019  30.032  31.336  1.00  0.00     0.029 A 
ATOM     54  C   UNL A   1      46.276  29.006  30.775  1.00  0.00     0.049 A 
ATOM     55  H   UNL A   1      44.221  28.953  30.303  1.00  0.00     0.167 HD
ATOM     56  C   UNL A   1      45.927  26.740  29.834  1.00  0.00     0.074 A 
ATOM     57  C   UNL A   1      46.393  25.431  29.423  1.00  0.00     0.031 C 
ATOM     58  C   UNL A   1      46.722  27.702  30.361  1.00  0.00     0.031 A 
BRANCH  45  59
ATOM     59  C   UNL A   1      43.769  32.945  31.747  1.00  0.00    -0.014 A 
ATOM     60  C   UNL A   1      43.912  34.043  30.882  1.00  0.00     0.010 A 
ATOM     61  C   UNL A   1      43.658  33.169  33.132  1.00  0.00     0.010 A 
ATOM     62  C   UNL A   1      43.973  35.343  31.396  1.00  0.00     0.020 A 
ATOM     63  C   UNL A   1      43.702  34.467  33.647  1.00  0.00     0.020 A 
ATOM     64  C   UNL A   1      43.874  35.545  32.777  1.00  0.00     0.054 A 
BRANCH  64  65
ATOM     65  S   UNL A   1      43.930  37.240  33.421  1.00  0.00     0.124 S 
ATOM     66  O   UNL A   1      42.627  37.356  34.070  1.00  0.00    -0.237 OA
ATOM     67  O   UNL A   1      45.080  37.208  34.323  1.00  0.00    -0.237 OA
ATOM     68  O   UNL A   1      44.106  38.059  32.224  1.00  0.00    -0.744 OA
ENDBRANCH  64  65
ENDBRANCH  45  59
BRANCH  46  69
ATOM     69  C   UNL A   1      42.801  23.761  27.972  1.00  0.00    -0.014 A 
ATOM     70  C   UNL A   1      42.442  22.653  28.758  1.00  0.00     0.010 A 
ATOM     71  C   UNL A   1      43.002  23.589  26.590  1.00  0.00     0.010 A 
ATOM     72  C   UNL A   1      42.296  21.392  28.173  1.00  0.00     0.020 A 
ATOM     73  C   UNL A   1      42.836  22.334  26.000  1.00  0.00     0.020 A 
ATOM     74  C   UNL A   1      42.493  21.241  26.797  1.00  0.00     0.054 A 
BRANCH  74  75
ATOM     75  S   UNL A   1      42.228  19.614  26.039  1.00  0.00     0.124 S 
ATOM     76  O   UNL A   1      42.606  18.711  27.121  1.00  0.00    -0.237 OA
ATOM     77  O   UNL A   1      40.806  19.641  25.705  1.00  0.00    -0.237 OA
ATOM     78  O   UNL A   1      43.128  19.629  24.887  1.00  0.00    -0.744 OA
ENDBRANCH  74  75
ENDBRANCH  46  69
BRANCH  58  79
ATOM     79  C   UNL A   1      48.174  27.365  30.542  1.00  0.00    -0.014 A 
ATOM     80  C   UNL A   1      49.078  27.475  29.472  1.00  0.00     0.010 A 
ATOM     81  C   UNL A   1      48.645  26.972  31.807  1.00  0.00     0.010 A 
ATOM     82  C   UNL A   1      50.430  27.172  29.659  1.00  0.00     0.020 A 
ATOM     83  C   UNL A   1      49.997  26.684  32.001  1.00  0.00     0.020 A 
ATOM     84  C   UNL A   1      50.879  26.772  30.922  1.00  0.00     0.054 A 
BRANCH  84  85
ATOM     85  S   UNL A   1      52.643  26.420  31.158  1.00  0.00     0.124 S 
ATOM     86  O   UNL A   1      53.165  26.571  29.802  1.00  0.00    -0.237 OA
ATOM     87  O   UNL A   1      53.058  27.448  32.109  1.00  0.00    -0.237 OA
ATOM     88  O   UNL A   1      52.652  25.056  31.682  1.00  0.00    -0.744 OA
ENDBRANCH  84  85
ENDBRANCH  58  79
ENDBRANCH  32  33
ENDBRANCH  25  27
ENDBRANCH  24  25
ENDBRANCH  23  24
ENDBRANCH   1  23
TORSDOF 19
ENDMDL
