MODEL 1
REMARK VINA RESULT:     -10.4      0.000      0.000
REMARK SMILES C[C@@H]1[C@@H](C(=O)OCCOC(=O)c2ccc(-c3c4nc(c(-c5ccc(S(=O)(=O)[O-])cc5)c5ccc([nH]5)c(-c5ccc(S(=O)(=O)[O-])cc5)c5nc(c(-c6ccc(S(=O)(=O)[O-])cc6)c6ccc3[nH]6)C=C5)C=C4)cc2)CCN1C(=O)CCCC1CCCCC1
REMARK SMILES IDX 7 1 6 2 4 3 5 4 3 5 1 6 2 7 74 8 72 9 73 10 75 11 76 12
REMARK SMILES IDX 77 13 78 14 79 15 80 16 81 17 85 18 82 19 84 20 83 21 8 22
REMARK SMILES IDX 9 23 10 24 11 25 12 26 13 27 71 28 14 29 70 30 15 31 16 32
REMARK SMILES IDX 17 33 64 34 18 35 69 36 63 37 65 38 19 39 68 40 62 41 61 42
REMARK SMILES IDX 20 44 50 45 31 46 49 47 32 48 35 49 48 50 66 51 33 52 34 53
REMARK SMILES IDX 47 55 67 56 36 57 21 58 22 59 30 60 23 61 29 62 24 63 25 64
REMARK SMILES IDX 26 65 27 66 28 67 51 68 52 69 60 70 53 71 59 72 54 73 55 74
REMARK SMILES IDX 56 75 57 76 58 77 37 78 38 79 46 80 39 81 45 82 40 83 41 84
REMARK SMILES IDX 42 85 43 86 44 87
REMARK H PARENT 65 43 35 54
REMARK Flexibility Score: inf
ROOT
ATOM      1  C   UNL A   1      35.753  21.979  24.424  1.00  0.00     0.274 C 
ENDROOT
BRANCH   1   2
ATOM      2  O   UNL A   1      35.499  23.401  24.457  1.00  0.00    -0.462 OA
BRANCH   2   3
ATOM      3  C   UNL A   1      34.654  23.883  23.502  1.00  0.00     0.311 C 
ATOM      4  O   UNL A   1      34.450  23.335  22.428  1.00  0.00    -0.252 OA
BRANCH   3   5
ATOM      5  C   UNL A   1      34.037  25.207  23.951  1.00  0.00     0.123 C 
ATOM      6  C   UNL A   1      33.501  26.591  26.033  1.00  0.00     0.032 C 
ATOM      7  C   UNL A   1      33.657  25.188  25.438  1.00  0.00     0.096 C 
ATOM      8  N   UNL A   1      32.404  24.457  25.456  1.00  0.00    -0.339 N 
ATOM      9  C   UNL A   1      32.669  25.413  23.296  1.00  0.00     0.039 C 
ATOM     10  C   UNL A   1      31.714  24.612  24.186  1.00  0.00     0.121 C 
BRANCH   8  11
ATOM     11  C   UNL A   1      32.011  23.486  26.357  1.00  0.00     0.222 C 
ATOM     12  O   UNL A   1      31.344  23.788  27.350  1.00  0.00    -0.275 OA
BRANCH  11  13
ATOM     13  C   UNL A   1      32.509  22.052  26.180  1.00  0.00     0.100 C 
BRANCH  13  14
ATOM     14  C   UNL A   1      31.773  21.109  25.226  1.00  0.00     0.010 C 
BRANCH  14  15
ATOM     15  C   UNL A   1      32.513  20.343  24.115  1.00  0.00     0.004 C 
BRANCH  15  16
ATOM     16  C   UNL A   1      33.166  18.936  24.311  1.00  0.00    -0.011 C 
ATOM     17  C   UNL A   1      32.623  18.196  25.567  1.00  0.00     0.003 C 
ATOM     18  C   UNL A   1      33.158  18.011  23.098  1.00  0.00     0.003 C 
ATOM     19  C   UNL A   1      33.220  16.813  25.802  1.00  0.00     0.000 C 
ATOM     20  C   UNL A   1      33.860  16.687  23.390  1.00  0.00     0.000 C 
ATOM     21  C   UNL A   1      33.179  15.963  24.546  1.00  0.00     0.000 C 
ENDBRANCH  15  16
ENDBRANCH  14  15
ENDBRANCH  13  14
ENDBRANCH  11  13
ENDBRANCH   8  11
ENDBRANCH   3   5
ENDBRANCH   2   3
ENDBRANCH   1   2
BRANCH   1  22
ATOM     22  C   UNL A   1      37.225  21.635  24.658  1.00  0.00     0.275 C 
BRANCH  22  23
ATOM     23  O   UNL A   1      37.785  22.480  25.682  1.00  0.00    -0.458 OA
BRANCH  23  24
ATOM     24  C   UNL A   1      38.967  22.080  26.207  1.00  0.00     0.338 C 
ATOM     25  O   UNL A   1      39.489  20.984  26.101  1.00  0.00    -0.246 OA
BRANCH  24  26
ATOM     26  C   UNL A   1      39.653  23.241  26.800  1.00  0.00     0.060 A 
ATOM     27  C   UNL A   1      39.443  24.453  26.167  1.00  0.00     0.016 A 
ATOM     28  C   UNL A   1      40.578  23.160  27.846  1.00  0.00     0.016 A 
ATOM     29  C   UNL A   1      40.170  25.569  26.563  1.00  0.00     0.010 A 
ATOM     30  C   UNL A   1      41.288  24.314  28.259  1.00  0.00     0.010 A 
ATOM     31  C   UNL A   1      41.088  25.539  27.610  1.00  0.00    -0.014 A 
BRANCH  31  32
ATOM     32  C   UNL A   1      41.839  26.808  27.853  1.00  0.00     0.031 A 
ATOM     33  C   UNL A   1      41.173  27.940  28.589  1.00  0.00     0.074 A 
ATOM     34  C   UNL A   1      43.182  26.859  27.708  1.00  0.00     0.049 A 
ATOM     35  N   UNL A   1      41.641  29.127  28.883  1.00  0.00    -0.248 NA
ATOM     36  C   UNL A   1      39.821  27.682  29.109  1.00  0.00     0.031 C 
ATOM     37  C   UNL A   1      44.028  25.744  27.278  1.00  0.00     0.029 A 
ATOM     38  N   UNL A   1      44.083  27.865  27.980  1.00  0.00    -0.354 N 
ATOM     39  C   UNL A   1      40.628  29.774  29.580  1.00  0.00     0.074 A 
ATOM     40  C   UNL A   1      39.534  28.834  29.701  1.00  0.00     0.031 C 
ATOM     41  C   UNL A   1      45.318  26.111  27.361  1.00  0.00     0.029 A 
ATOM     42  C   UNL A   1      45.395  27.520  27.741  1.00  0.00     0.049 A 
ATOM     43  H   UNL A   1      43.813  28.751  28.315  1.00  0.00     0.167 HD
ATOM     44  C   UNL A   1      40.601  31.046  30.047  1.00  0.00     0.031 A 
ATOM     45  C   UNL A   1      46.524  28.263  27.768  1.00  0.00     0.031 A 
ATOM     46  C   UNL A   1      41.687  31.983  29.925  1.00  0.00     0.049 A 
ATOM     47  C   UNL A   1      46.423  29.736  28.086  1.00  0.00     0.074 A 
ATOM     48  C   UNL A   1      41.700  33.334  30.228  1.00  0.00     0.029 A 
ATOM     49  N   UNL A   1      42.958  31.665  29.474  1.00  0.00    -0.354 N 
ATOM     50  N   UNL A   1      45.400  30.411  28.550  1.00  0.00    -0.248 NA
ATOM     51  C   UNL A   1      47.620  30.555  27.840  1.00  0.00     0.031 C 
ATOM     52  C   UNL A   1      42.964  33.844  29.909  1.00  0.00     0.029 A 
ATOM     53  C   UNL A   1      43.756  32.797  29.467  1.00  0.00     0.049 A 
ATOM     54  H   UNL A   1      43.251  30.766  29.199  1.00  0.00     0.167 HD
ATOM     55  C   UNL A   1      45.834  31.730  28.660  1.00  0.00     0.074 A 
ATOM     56  C   UNL A   1      47.218  31.754  28.241  1.00  0.00     0.031 C 
ATOM     57  C   UNL A   1      45.138  32.823  29.058  1.00  0.00     0.031 A 
BRANCH  44  58
ATOM     58  C   UNL A   1      39.299  31.541  30.612  1.00  0.00    -0.014 A 
ATOM     59  C   UNL A   1      38.281  32.070  29.802  1.00  0.00     0.010 A 
ATOM     60  C   UNL A   1      39.093  31.448  32.002  1.00  0.00     0.010 A 
ATOM     61  C   UNL A   1      37.094  32.532  30.379  1.00  0.00     0.020 A 
ATOM     62  C   UNL A   1      37.901  31.886  32.579  1.00  0.00     0.020 A 
ATOM     63  C   UNL A   1      36.914  32.442  31.765  1.00  0.00     0.054 A 
BRANCH  63  64
ATOM     64  S   UNL A   1      35.366  33.048  32.491  1.00  0.00     0.124 S 
ATOM     65  O   UNL A   1      35.443  34.480  32.211  1.00  0.00    -0.237 OA
ATOM     66  O   UNL A   1      34.351  32.315  31.740  1.00  0.00    -0.237 OA
ATOM     67  O   UNL A   1      35.479  32.684  33.901  1.00  0.00    -0.744 OA
ENDBRANCH  63  64
ENDBRANCH  44  58
BRANCH  45  68
ATOM     68  C   UNL A   1      47.836  27.682  27.345  1.00  0.00    -0.014 A 
ATOM     69  C   UNL A   1      48.788  27.250  28.288  1.00  0.00     0.010 A 
ATOM     70  C   UNL A   1      48.174  27.640  25.979  1.00  0.00     0.010 A 
ATOM     71  C   UNL A   1      50.054  26.818  27.873  1.00  0.00     0.020 A 
ATOM     72  C   UNL A   1      49.421  27.172  25.558  1.00  0.00     0.020 A 
ATOM     73  C   UNL A   1      50.363  26.784  26.509  1.00  0.00     0.054 A 
BRANCH  73  74
ATOM     74  S   UNL A   1      52.005  26.218  25.985  1.00  0.00     0.124 S 
ATOM     75  O   UNL A   1      52.886  27.040  26.809  1.00  0.00    -0.237 OA
ATOM     76  O   UNL A   1      51.972  24.796  26.316  1.00  0.00    -0.237 OA
ATOM     77  O   UNL A   1      52.027  26.518  24.554  1.00  0.00    -0.744 OA
ENDBRANCH  73  74
ENDBRANCH  45  68
BRANCH  57  78
ATOM     78  C   UNL A   1      45.861  34.145  29.098  1.00  0.00    -0.014 A 
ATOM     79  C   UNL A   1      45.855  35.013  27.992  1.00  0.00     0.010 A 
ATOM     80  C   UNL A   1      46.499  34.554  30.284  1.00  0.00     0.010 A 
ATOM     81  C   UNL A   1      46.494  36.256  28.064  1.00  0.00     0.020 A 
ATOM     82  C   UNL A   1      47.114  35.807  30.368  1.00  0.00     0.020 A 
ATOM     83  C   UNL A   1      47.116  36.646  29.253  1.00  0.00     0.054 A 
BRANCH  83  84
ATOM     84  S   UNL A   1      47.886  38.287  29.340  1.00  0.00     0.124 S 
ATOM     85  O   UNL A   1      49.154  37.994  30.004  1.00  0.00    -0.237 OA
ATOM     86  O   UNL A   1      47.987  38.670  27.935  1.00  0.00    -0.237 OA
ATOM     87  O   UNL A   1      46.939  39.074  30.128  1.00  0.00    -0.744 OA
ENDBRANCH  83  84
ENDBRANCH  57  78
ENDBRANCH  31  32
ENDBRANCH  24  26
ENDBRANCH  23  24
ENDBRANCH  22  23
ENDBRANCH   1  22
TORSDOF 19
ENDMDL
MODEL 2
REMARK VINA RESULT:     -10.3      2.868      7.287
REMARK SMILES C[C@@H]1[C@@H](C(=O)OCCOC(=O)c2ccc(-c3c4nc(c(-c5ccc(S(=O)(=O)[O-])cc5)c5ccc([nH]5)c(-c5ccc(S(=O)(=O)[O-])cc5)c5nc(c(-c6ccc(S(=O)(=O)[O-])cc6)c6ccc3[nH]6)C=C5)C=C4)cc2)CCN1C(=O)CCCC1CCCCC1
REMARK SMILES IDX 7 1 6 2 4 3 5 4 3 5 1 6 2 7 74 8 72 9 73 10 75 11 76 12
REMARK SMILES IDX 77 13 78 14 79 15 80 16 81 17 85 18 82 19 84 20 83 21 8 22
REMARK SMILES IDX 9 23 10 24 11 25 12 26 13 27 71 28 14 29 70 30 15 31 16 32
REMARK SMILES IDX 17 33 64 34 18 35 69 36 63 37 65 38 19 39 68 40 62 41 61 42
REMARK SMILES IDX 20 44 50 45 31 46 49 47 32 48 35 49 48 50 66 51 33 52 34 53
REMARK SMILES IDX 47 55 67 56 36 57 21 58 22 59 30 60 23 61 29 62 24 63 25 64
REMARK SMILES IDX 26 65 27 66 28 67 51 68 52 69 60 70 53 71 59 72 54 73 55 74
REMARK SMILES IDX 56 75 57 76 58 77 37 78 38 79 46 80 39 81 45 82 40 83 41 84
REMARK SMILES IDX 42 85 43 86 44 87
REMARK H PARENT 65 43 35 54
REMARK Flexibility Score: inf
ROOT
ATOM      1  C   UNL A   1      31.803  29.510  25.786  1.00  0.00     0.274 C 
ENDROOT
BRANCH   1   2
ATOM      2  O   UNL A   1      31.605  28.417  24.862  1.00  0.00    -0.462 OA
BRANCH   2   3
ATOM      3  C   UNL A   1      32.439  28.383  23.784  1.00  0.00     0.311 C 
ATOM      4  O   UNL A   1      33.294  29.227  23.551  1.00  0.00    -0.252 OA
BRANCH   3   5
ATOM      5  C   UNL A   1      32.128  27.173  22.904  1.00  0.00     0.123 C 
ATOM      6  C   UNL A   1      30.717  25.043  22.812  1.00  0.00     0.032 C 
ATOM      7  C   UNL A   1      31.467  26.039  23.700  1.00  0.00     0.096 C 
ATOM      8  N   UNL A   1      32.584  25.411  24.382  1.00  0.00    -0.339 N 
ATOM      9  C   UNL A   1      33.421  26.497  22.441  1.00  0.00     0.039 C 
ATOM     10  C   UNL A   1      33.807  25.600  23.621  1.00  0.00     0.121 C 
BRANCH   8  11
ATOM     11  C   UNL A   1      32.630  24.975  25.692  1.00  0.00     0.222 C 
ATOM     12  O   UNL A   1      33.170  25.664  26.563  1.00  0.00    -0.275 OA
BRANCH  11  13
ATOM     13  C   UNL A   1      32.113  23.579  26.037  1.00  0.00     0.100 C 
BRANCH  13  14
ATOM     14  C   UNL A   1      32.760  22.353  25.389  1.00  0.00     0.010 C 
BRANCH  14  15
ATOM     15  C   UNL A   1      34.040  21.717  25.958  1.00  0.00     0.004 C 
BRANCH  15  16
ATOM     16  C   UNL A   1      35.486  22.110  25.508  1.00  0.00    -0.011 C 
ATOM     17  C   UNL A   1      36.024  23.363  26.257  1.00  0.00     0.003 C 
ATOM     18  C   UNL A   1      36.524  20.994  25.515  1.00  0.00     0.003 C 
ATOM     19  C   UNL A   1      37.434  23.787  25.862  1.00  0.00     0.000 C 
ATOM     20  C   UNL A   1      37.882  21.479  25.015  1.00  0.00     0.000 C 
ATOM     21  C   UNL A   1      38.399  22.616  25.888  1.00  0.00     0.000 C 
ENDBRANCH  15  16
ENDBRANCH  14  15
ENDBRANCH  13  14
ENDBRANCH  11  13
ENDBRANCH   8  11
ENDBRANCH   3   5
ENDBRANCH   2   3
ENDBRANCH   1   2
BRANCH   1  22
ATOM     22  C   UNL A   1      32.156  29.036  27.196  1.00  0.00     0.275 C 
BRANCH  22  23
ATOM     23  O   UNL A   1      33.581  29.082  27.403  1.00  0.00    -0.458 OA
BRANCH  23  24
ATOM     24  C   UNL A   1      34.082  30.258  27.847  1.00  0.00     0.338 C 
ATOM     25  O   UNL A   1      33.469  31.289  28.062  1.00  0.00    -0.246 OA
BRANCH  24  26
ATOM     26  C   UNL A   1      35.496  30.073  28.221  1.00  0.00     0.060 A 
ATOM     27  C   UNL A   1      36.421  30.340  27.228  1.00  0.00     0.016 A 
ATOM     28  C   UNL A   1      35.925  29.531  29.437  1.00  0.00     0.016 A 
ATOM     29  C   UNL A   1      37.763  30.044  27.443  1.00  0.00     0.010 A 
ATOM     30  C   UNL A   1      37.300  29.266  29.652  1.00  0.00     0.010 A 
ATOM     31  C   UNL A   1      38.237  29.520  28.643  1.00  0.00    -0.014 A 
BRANCH  31  32
ATOM     32  C   UNL A   1      39.693  29.190  28.677  1.00  0.00     0.031 A 
ATOM     33  C   UNL A   1      40.660  30.142  29.329  1.00  0.00     0.074 A 
ATOM     34  C   UNL A   1      40.127  27.935  28.419  1.00  0.00     0.049 A 
ATOM     35  N   UNL A   1      41.961  30.052  29.445  1.00  0.00    -0.248 NA
ATOM     36  C   UNL A   1      40.079  31.325  29.982  1.00  0.00     0.031 C 
ATOM     37  C   UNL A   1      39.272  26.804  28.052  1.00  0.00     0.029 A 
ATOM     38  N   UNL A   1      41.385  27.379  28.498  1.00  0.00    -0.354 N 
ATOM     39  C   UNL A   1      42.361  31.185  30.143  1.00  0.00     0.074 A 
ATOM     40  C   UNL A   1      41.159  31.929  30.459  1.00  0.00     0.031 C 
ATOM     41  C   UNL A   1      40.019  25.689  27.988  1.00  0.00     0.029 A 
ATOM     42  C   UNL A   1      41.423  26.036  28.196  1.00  0.00     0.049 A 
ATOM     43  H   UNL A   1      42.185  27.896  28.750  1.00  0.00     0.167 HD
ATOM     44  C   UNL A   1      43.616  31.585  30.460  1.00  0.00     0.031 A 
ATOM     45  C   UNL A   1      42.468  25.193  28.046  1.00  0.00     0.031 A 
ATOM     46  C   UNL A   1      44.811  30.848  30.143  1.00  0.00     0.049 A 
ATOM     47  C   UNL A   1      43.871  25.731  28.199  1.00  0.00     0.074 A 
ATOM     48  C   UNL A   1      46.132  31.241  30.287  1.00  0.00     0.029 A 
ATOM     49  N   UNL A   1      44.834  29.561  29.631  1.00  0.00    -0.354 N 
ATOM     50  N   UNL A   1      44.262  26.892  28.664  1.00  0.00    -0.248 NA
ATOM     51  C   UNL A   1      44.972  24.857  27.764  1.00  0.00     0.031 C 
ATOM     52  C   UNL A   1      46.951  30.212  29.810  1.00  0.00     0.029 A 
ATOM     53  C   UNL A   1      46.142  29.153  29.429  1.00  0.00     0.049 A 
ATOM     54  H   UNL A   1      44.037  29.016  29.439  1.00  0.00     0.167 HD
ATOM     55  C   UNL A   1      45.652  26.883  28.585  1.00  0.00     0.074 A 
ATOM     56  C   UNL A   1      46.036  25.593  28.055  1.00  0.00     0.031 C 
ATOM     57  C   UNL A   1      46.528  27.866  28.910  1.00  0.00     0.031 A 
BRANCH  44  58
ATOM     58  C   UNL A   1      43.766  32.952  31.068  1.00  0.00    -0.014 A 
ATOM     59  C   UNL A   1      43.717  33.167  32.455  1.00  0.00     0.010 A 
ATOM     60  C   UNL A   1      43.984  34.047  30.210  1.00  0.00     0.010 A 
ATOM     61  C   UNL A   1      43.847  34.462  32.969  1.00  0.00     0.020 A 
ATOM     62  C   UNL A   1      44.137  35.336  30.720  1.00  0.00     0.020 A 
ATOM     63  C   UNL A   1      44.051  35.538  32.097  1.00  0.00     0.054 A 
BRANCH  63  64
ATOM     64  S   UNL A   1      44.216  37.208  32.786  1.00  0.00     0.124 S 
ATOM     65  O   UNL A   1      43.352  37.134  33.963  1.00  0.00    -0.237 OA
ATOM     66  O   UNL A   1      45.648  37.301  33.063  1.00  0.00    -0.237 OA
ATOM     67  O   UNL A   1      43.734  38.075  31.715  1.00  0.00    -0.744 OA
ENDBRANCH  63  64
ENDBRANCH  44  58
BRANCH  45  68
ATOM     68  C   UNL A   1      42.259  23.784  27.588  1.00  0.00    -0.014 A 
ATOM     69  C   UNL A   1      42.164  22.719  28.503  1.00  0.00     0.010 A 
ATOM     70  C   UNL A   1      42.240  23.492  26.211  1.00  0.00     0.010 A 
ATOM     71  C   UNL A   1      42.083  21.396  28.049  1.00  0.00     0.020 A 
ATOM     72  C   UNL A   1      42.121  22.177  25.753  1.00  0.00     0.020 A 
ATOM     73  C   UNL A   1      42.065  21.134  26.675  1.00  0.00     0.054 A 
BRANCH  73  74
ATOM     74  S   UNL A   1      41.957  19.417  26.100  1.00  0.00     0.124 S 
ATOM     75  O   UNL A   1      42.371  18.674  27.287  1.00  0.00    -0.237 OA
ATOM     76  O   UNL A   1      40.549  19.292  25.733  1.00  0.00    -0.237 OA
ATOM     77  O   UNL A   1      42.893  19.374  24.978  1.00  0.00    -0.744 OA
ENDBRANCH  73  74
ENDBRANCH  45  68
BRANCH  57  78
ATOM     78  C   UNL A   1      47.999  27.586  28.738  1.00  0.00    -0.014 A 
ATOM     79  C   UNL A   1      48.727  26.884  29.716  1.00  0.00     0.010 A 
ATOM     80  C   UNL A   1      48.648  27.973  27.551  1.00  0.00     0.010 A 
ATOM     81  C   UNL A   1      50.082  26.594  29.517  1.00  0.00     0.020 A 
ATOM     82  C   UNL A   1      49.994  27.661  27.338  1.00  0.00     0.020 A 
ATOM     83  C   UNL A   1      50.706  26.981  28.328  1.00  0.00     0.054 A 
BRANCH  83  84
ATOM     84  S   UNL A   1      52.447  26.542  28.070  1.00  0.00     0.124 S 
ATOM     85  O   UNL A   1      52.888  26.234  29.427  1.00  0.00    -0.237 OA
ATOM     86  O   UNL A   1      52.359  25.401  27.164  1.00  0.00    -0.237 OA
ATOM     87  O   UNL A   1      53.027  27.750  27.486  1.00  0.00    -0.744 OA
ENDBRANCH  83  84
ENDBRANCH  57  78
ENDBRANCH  31  32
ENDBRANCH  24  26
ENDBRANCH  23  24
ENDBRANCH  22  23
ENDBRANCH   1  22
TORSDOF 19
ENDMDL
MODEL 3
REMARK VINA RESULT:     -10.2      2.630      7.133
REMARK SMILES C[C@@H]1[C@@H](C(=O)OCCOC(=O)c2ccc(-c3c4nc(c(-c5ccc(S(=O)(=O)[O-])cc5)c5ccc([nH]5)c(-c5ccc(S(=O)(=O)[O-])cc5)c5nc(c(-c6ccc(S(=O)(=O)[O-])cc6)c6ccc3[nH]6)C=C5)C=C4)cc2)CCN1C(=O)CCCC1CCCCC1
REMARK SMILES IDX 7 1 6 2 4 3 5 4 3 5 1 6 2 7 74 8 72 9 73 10 75 11 76 12
REMARK SMILES IDX 77 13 78 14 79 15 80 16 81 17 85 18 82 19 84 20 83 21 8 22
REMARK SMILES IDX 9 23 10 24 11 25 12 26 13 27 71 28 14 29 70 30 15 31 16 32
REMARK SMILES IDX 17 33 64 34 18 35 69 36 63 37 65 38 19 39 68 40 62 41 61 42
REMARK SMILES IDX 20 44 50 45 31 46 49 47 32 48 35 49 48 50 66 51 33 52 34 53
REMARK SMILES IDX 47 55 67 56 36 57 21 58 22 59 30 60 23 61 29 62 24 63 25 64
REMARK SMILES IDX 26 65 27 66 28 67 51 68 52 69 60 70 53 71 59 72 54 73 55 74
REMARK SMILES IDX 56 75 57 76 58 77 37 78 38 79 46 80 39 81 45 82 40 83 41 84
REMARK SMILES IDX 42 85 43 86 44 87
REMARK H PARENT 65 43 35 54
REMARK Flexibility Score: inf
ROOT
ATOM      1  C   UNL A   1      32.394  29.403  25.730  1.00  0.00     0.274 C 
ENDROOT
BRANCH   1   2
ATOM      2  O   UNL A   1      31.603  28.424  25.021  1.00  0.00    -0.462 OA
BRANCH   2   3
ATOM      3  C   UNL A   1      32.192  27.211  24.815  1.00  0.00     0.311 C 
ATOM      4  O   UNL A   1      33.313  27.064  24.350  1.00  0.00    -0.252 OA
BRANCH   3   5
ATOM      5  C   UNL A   1      31.243  26.080  25.212  1.00  0.00     0.123 C 
ATOM      6  C   UNL A   1      31.207  23.656  26.022  1.00  0.00     0.032 C 
ATOM      7  C   UNL A   1      31.940  24.713  25.192  1.00  0.00     0.096 C 
ATOM      8  N   UNL A   1      31.961  24.367  23.782  1.00  0.00    -0.339 N 
ATOM      9  C   UNL A   1      30.165  25.882  24.144  1.00  0.00     0.039 C 
ATOM     10  C   UNL A   1      30.851  25.002  23.093  1.00  0.00     0.121 C 
BRANCH   8  11
ATOM     11  C   UNL A   1      33.004  23.807  23.070  1.00  0.00     0.222 C 
ATOM     12  O   UNL A   1      33.520  24.419  22.131  1.00  0.00    -0.275 OA
BRANCH  11  13
ATOM     13  C   UNL A   1      33.438  22.374  23.376  1.00  0.00     0.100 C 
BRANCH  13  14
ATOM     14  C   UNL A   1      32.399  21.251  23.365  1.00  0.00     0.010 C 
BRANCH  14  15
ATOM     15  C   UNL A   1      32.312  20.218  24.502  1.00  0.00     0.004 C 
BRANCH  15  16
ATOM     16  C   UNL A   1      33.067  18.848  24.497  1.00  0.00    -0.011 C 
ATOM     17  C   UNL A   1      32.646  17.931  25.681  1.00  0.00     0.003 C 
ATOM     18  C   UNL A   1      33.052  18.071  23.186  1.00  0.00     0.003 C 
ATOM     19  C   UNL A   1      33.346  16.578  25.722  1.00  0.00     0.000 C 
ATOM     20  C   UNL A   1      33.856  16.777  23.284  1.00  0.00     0.000 C 
ATOM     21  C   UNL A   1      33.291  15.877  24.376  1.00  0.00     0.000 C 
ENDBRANCH  15  16
ENDBRANCH  14  15
ENDBRANCH  13  14
ENDBRANCH  11  13
ENDBRANCH   8  11
ENDBRANCH   3   5
ENDBRANCH   2   3
ENDBRANCH   1   2
BRANCH   1  22
ATOM     22  C   UNL A   1      32.563  29.066  27.212  1.00  0.00     0.275 C 
BRANCH  22  23
ATOM     23  O   UNL A   1      33.958  29.061  27.573  1.00  0.00    -0.458 OA
BRANCH  23  24
ATOM     24  C   UNL A   1      34.457  30.228  28.043  1.00  0.00     0.338 C 
ATOM     25  O   UNL A   1      33.838  31.242  28.311  1.00  0.00    -0.246 OA
BRANCH  24  26
ATOM     26  C   UNL A   1      35.883  30.049  28.369  1.00  0.00     0.060 A 
ATOM     27  C   UNL A   1      36.768  30.244  27.325  1.00  0.00     0.016 A 
ATOM     28  C   UNL A   1      36.357  29.576  29.598  1.00  0.00     0.016 A 
ATOM     29  C   UNL A   1      38.115  29.946  27.502  1.00  0.00     0.010 A 
ATOM     30  C   UNL A   1      37.737  29.308  29.772  1.00  0.00     0.010 A 
ATOM     31  C   UNL A   1      38.634  29.490  28.711  1.00  0.00    -0.014 A 
BRANCH  31  32
ATOM     32  C   UNL A   1      40.087  29.145  28.706  1.00  0.00     0.031 A 
ATOM     33  C   UNL A   1      41.080  30.084  29.338  1.00  0.00     0.074 A 
ATOM     34  C   UNL A   1      40.502  27.888  28.429  1.00  0.00     0.049 A 
ATOM     35  N   UNL A   1      42.383  29.980  29.420  1.00  0.00    -0.248 NA
ATOM     36  C   UNL A   1      40.528  31.268  30.014  1.00  0.00     0.031 C 
ATOM     37  C   UNL A   1      39.626  26.768  28.078  1.00  0.00     0.029 A 
ATOM     38  N   UNL A   1      41.756  27.319  28.473  1.00  0.00    -0.354 N 
ATOM     39  C   UNL A   1      42.812  31.105  30.114  1.00  0.00     0.074 A 
ATOM     40  C   UNL A   1      41.626  31.859  30.466  1.00  0.00     0.031 C 
ATOM     41  C   UNL A   1      40.360  25.646  27.988  1.00  0.00     0.029 A 
ATOM     42  C   UNL A   1      41.773  25.977  28.161  1.00  0.00     0.049 A 
ATOM     43  H   UNL A   1      42.567  27.826  28.707  1.00  0.00     0.167 HD
ATOM     44  C   UNL A   1      44.078  31.491  30.402  1.00  0.00     0.031 A 
ATOM     45  C   UNL A   1      42.805  25.125  27.980  1.00  0.00     0.031 A 
ATOM     46  C   UNL A   1      45.258  30.744  30.050  1.00  0.00     0.049 A 
ATOM     47  C   UNL A   1      44.216  25.648  28.100  1.00  0.00     0.074 A 
ATOM     48  C   UNL A   1      46.585  31.123  30.162  1.00  0.00     0.029 A 
ATOM     49  N   UNL A   1      45.254  29.460  29.529  1.00  0.00    -0.354 N 
ATOM     50  N   UNL A   1      44.631  26.803  28.561  1.00  0.00    -0.248 NA
ATOM     51  C   UNL A   1      45.298  24.766  27.631  1.00  0.00     0.031 C 
ATOM     52  C   UNL A   1      47.382  30.089  29.657  1.00  0.00     0.029 A 
ATOM     53  C   UNL A   1      46.553  29.041  29.291  1.00  0.00     0.049 A 
ATOM     54  H   UNL A   1      44.447  28.924  29.354  1.00  0.00     0.167 HD
ATOM     55  C   UNL A   1      46.019  26.781  28.446  1.00  0.00     0.074 A 
ATOM     56  C   UNL A   1      46.376  25.490  27.900  1.00  0.00     0.031 C 
ATOM     57  C   UNL A   1      46.913  27.753  28.754  1.00  0.00     0.031 A 
BRANCH  44  58
ATOM     58  C   UNL A   1      44.258  32.853  31.013  1.00  0.00    -0.014 A 
ATOM     59  C   UNL A   1      44.378  33.044  32.400  1.00  0.00     0.010 A 
ATOM     60  C   UNL A   1      44.328  33.968  30.157  1.00  0.00     0.010 A 
ATOM     61  C   UNL A   1      44.528  34.333  32.920  1.00  0.00     0.020 A 
ATOM     62  C   UNL A   1      44.501  35.253  30.670  1.00  0.00     0.020 A 
ATOM     63  C   UNL A   1      44.582  35.430  32.051  1.00  0.00     0.054 A 
BRANCH  63  64
ATOM     64  S   UNL A   1      44.777  37.094  32.748  1.00  0.00     0.124 S 
ATOM     65  O   UNL A   1      44.712  37.930  31.552  1.00  0.00    -0.237 OA
ATOM     66  O   UNL A   1      43.635  37.199  33.652  1.00  0.00    -0.237 OA
ATOM     67  O   UNL A   1      46.083  37.045  33.401  1.00  0.00    -0.744 OA
ENDBRANCH  63  64
ENDBRANCH  44  58
BRANCH  45  68
ATOM     68  C   UNL A   1      42.570  23.721  27.519  1.00  0.00    -0.014 A 
ATOM     69  C   UNL A   1      42.430  22.660  28.433  1.00  0.00     0.010 A 
ATOM     70  C   UNL A   1      42.571  23.427  26.142  1.00  0.00     0.010 A 
ATOM     71  C   UNL A   1      42.326  21.339  27.979  1.00  0.00     0.020 A 
ATOM     72  C   UNL A   1      42.428  22.116  25.683  1.00  0.00     0.020 A 
ATOM     73  C   UNL A   1      42.329  21.075  26.605  1.00  0.00     0.054 A 
BRANCH  73  74
ATOM     74  S   UNL A   1      42.189  19.361  26.029  1.00  0.00     0.124 S 
ATOM     75  O   UNL A   1      40.779  19.278  25.664  1.00  0.00    -0.237 OA
ATOM     76  O   UNL A   1      43.136  19.321  24.917  1.00  0.00    -0.237 OA
ATOM     77  O   UNL A   1      42.579  18.576  27.199  1.00  0.00    -0.744 OA
ENDBRANCH  73  74
ENDBRANCH  45  68
BRANCH  57  78
ATOM     78  C   UNL A   1      48.376  27.460  28.543  1.00  0.00    -0.014 A 
ATOM     79  C   UNL A   1      49.101  26.670  29.454  1.00  0.00     0.010 A 
ATOM     80  C   UNL A   1      49.019  27.925  27.381  1.00  0.00     0.010 A 
ATOM     81  C   UNL A   1      50.447  26.371  29.217  1.00  0.00     0.020 A 
ATOM     82  C   UNL A   1      50.356  27.606  27.128  1.00  0.00     0.020 A 
ATOM     83  C   UNL A   1      51.065  26.838  28.053  1.00  0.00     0.054 A 
BRANCH  83  84
ATOM     84  S   UNL A   1      52.795  26.387  27.740  1.00  0.00     0.124 S 
ATOM     85  O   UNL A   1      52.655  25.286  26.791  1.00  0.00    -0.237 OA
ATOM     86  O   UNL A   1      53.353  27.620  27.193  1.00  0.00    -0.237 OA
ATOM     87  O   UNL A   1      53.300  26.012  29.059  1.00  0.00    -0.744 OA
ENDBRANCH  83  84
ENDBRANCH  57  78
ENDBRANCH  31  32
ENDBRANCH  24  26
ENDBRANCH  23  24
ENDBRANCH  22  23
ENDBRANCH   1  22
TORSDOF 19
ENDMDL
