MODEL 1
REMARK VINA RESULT:     -10.2      0.000      0.000
REMARK SMILES O=C(Cc1ccccc1Nc1c(Cl)cccc1Cl)OCCOC(=O)c1ccc(-c2c3nc(c(-c4ccc(S(=O)(=O)[O-])cc4)c4ccc([nH]4)c(-c4ccc(S(=O)(=O)[O-])cc4)c4nc(c(-c5ccc(S(=O)(=O)[O-])cc5)c5ccc2[nH]5)C=C4)C=C3)cc1
REMARK SMILES IDX 20 1 19 2 2 3 1 4 3 5 4 6 5 7 9 8 6 9 8 10 7 11 10 12 11 14
REMARK SMILES IDX 12 15 17 16 13 17 14 18 16 19 18 20 15 21 21 22 22 23 23 24
REMARK SMILES IDX 24 25 25 26 26 27 84 28 27 29 83 30 28 31 29 32 30 33 77 34
REMARK SMILES IDX 31 35 82 36 76 37 78 38 32 39 81 40 75 41 74 42 33 44 63 45
REMARK SMILES IDX 44 46 62 47 45 48 48 49 61 50 79 51 46 52 47 53 60 55 80 56
REMARK SMILES IDX 49 57 34 58 35 59 43 60 36 61 42 62 37 63 38 64 39 65 40 66
REMARK SMILES IDX 41 67 64 68 65 69 73 70 66 71 72 72 67 73 68 74 69 75 70 76
REMARK SMILES IDX 71 77 50 78 51 79 59 80 52 81 58 82 53 83 54 84 55 85 56 86
REMARK SMILES IDX 57 87
REMARK H PARENT 10 13 78 43 48 54
REMARK Flexibility Score: inf
ROOT
ATOM      1  C   UNL A   1      43.840  26.320  25.481  1.00  0.00     0.274 C 
ENDROOT
BRANCH   1   2
ATOM      2  O   UNL A   1      44.737  25.324  26.011  1.00  0.00    -0.462 OA
BRANCH   2   3
ATOM      3  C   UNL A   1      44.630  24.749  27.227  1.00  0.00     0.310 C 
ATOM      4  O   UNL A   1      44.668  25.445  28.244  1.00  0.00    -0.252 OA
BRANCH   3   5
ATOM      5  C   UNL A   1      44.395  23.263  27.351  1.00  0.00     0.160 C 
BRANCH   5   6
ATOM      6  C   UNL A   1      42.953  22.826  27.266  1.00  0.00    -0.013 A 
ATOM      7  C   UNL A   1      42.092  23.253  28.300  1.00  0.00     0.006 A 
ATOM      8  C   UNL A   1      42.436  22.084  26.180  1.00  0.00     0.042 A 
ATOM      9  C   UNL A   1      40.746  22.913  28.297  1.00  0.00     0.000 A 
ATOM     10  C   UNL A   1      41.076  21.738  26.213  1.00  0.00     0.026 A 
ATOM     11  C   UNL A   1      40.240  22.145  27.257  1.00  0.00     0.002 A 
BRANCH   8  12
ATOM     12  N   UNL A   1      43.255  21.713  25.099  1.00  0.00    -0.353 N 
ATOM     13  H   UNL A   1      43.061  22.191  24.261  1.00  0.00     0.167 HD
BRANCH  12  14
ATOM     14  C   UNL A   1      44.306  20.774  25.002  1.00  0.00     0.076 A 
ATOM     15  C   UNL A   1      44.086  19.445  25.422  1.00  0.00     0.066 A 
ATOM     16  C   UNL A   1      45.616  21.133  24.632  1.00  0.00     0.066 A 
ATOM     17  Cl  UNL A   1      42.517  18.911  25.928  1.00  0.00    -0.082 Cl
ATOM     18  C   UNL A   1      45.122  18.506  25.442  1.00  0.00     0.023 A 
ATOM     19  C   UNL A   1      46.650  20.188  24.648  1.00  0.00     0.023 A 
ATOM     20  Cl  UNL A   1      46.042  22.758  24.220  1.00  0.00    -0.082 Cl
ATOM     21  C   UNL A   1      46.405  18.878  25.052  1.00  0.00     0.003 A 
ENDBRANCH  12  14
ENDBRANCH   8  12
ENDBRANCH   5   6
ENDBRANCH   3   5
ENDBRANCH   2   3
ENDBRANCH   1   2
BRANCH   1  22
ATOM     22  C   UNL A   1      42.466  25.711  25.199  1.00  0.00     0.275 C 
BRANCH  22  23
ATOM     23  O   UNL A   1      41.441  26.669  25.513  1.00  0.00    -0.458 OA
BRANCH  23  24
ATOM     24  C   UNL A   1      40.426  26.221  26.296  1.00  0.00     0.338 C 
ATOM     25  O   UNL A   1      39.811  25.178  26.167  1.00  0.00    -0.246 OA
BRANCH  24  26
ATOM     26  C   UNL A   1      40.336  27.103  27.484  1.00  0.00     0.060 A 
ATOM     27  C   UNL A   1      40.857  28.401  27.391  1.00  0.00     0.016 A 
ATOM     28  C   UNL A   1      39.686  26.688  28.651  1.00  0.00     0.016 A 
ATOM     29  C   UNL A   1      40.742  29.280  28.471  1.00  0.00     0.010 A 
ATOM     30  C   UNL A   1      39.580  27.564  29.731  1.00  0.00     0.010 A 
ATOM     31  C   UNL A   1      40.127  28.855  29.656  1.00  0.00    -0.014 A 
BRANCH  31  32
ATOM     32  C   UNL A   1      40.213  29.668  30.892  1.00  0.00     0.031 A 
ATOM     33  C   UNL A   1      41.309  29.354  31.869  1.00  0.00     0.074 A 
ATOM     34  C   UNL A   1      39.301  30.613  31.178  1.00  0.00     0.049 A 
ATOM     35  N   UNL A   1      41.527  29.849  33.059  1.00  0.00    -0.248 NA
ATOM     36  C   UNL A   1      42.282  28.331  31.450  1.00  0.00     0.031 C 
ATOM     37  C   UNL A   1      38.197  31.023  30.311  1.00  0.00     0.029 A 
ATOM     38  N   UNL A   1      39.148  31.382  32.306  1.00  0.00    -0.354 N 
ATOM     39  C   UNL A   1      42.654  29.193  33.536  1.00  0.00     0.074 A 
ATOM     40  C   UNL A   1      43.061  28.250  32.518  1.00  0.00     0.031 C 
ATOM     41  C   UNL A   1      37.462  31.949  30.953  1.00  0.00     0.029 A 
ATOM     42  C   UNL A   1      38.026  32.176  32.284  1.00  0.00     0.049 A 
ATOM     43  H   UNL A   1      39.782  31.367  33.059  1.00  0.00     0.167 HD
ATOM     44  C   UNL A   1      43.294  29.357  34.717  1.00  0.00     0.031 A 
ATOM     45  C   UNL A   1      37.499  32.970  33.238  1.00  0.00     0.031 A 
ATOM     46  C   UNL A   1      42.875  30.269  35.743  1.00  0.00     0.049 A 
ATOM     47  C   UNL A   1      38.192  33.097  34.571  1.00  0.00     0.074 A 
ATOM     48  C   UNL A   1      43.474  30.524  36.963  1.00  0.00     0.029 A 
ATOM     49  N   UNL A   1      41.739  31.060  35.678  1.00  0.00    -0.354 N 
ATOM     50  N   UNL A   1      39.294  32.517  34.985  1.00  0.00    -0.248 NA
ATOM     51  C   UNL A   1      37.574  33.989  35.564  1.00  0.00     0.031 C 
ATOM     52  C   UNL A   1      42.669  31.433  37.659  1.00  0.00     0.029 A 
ATOM     53  C   UNL A   1      41.599  31.782  36.850  1.00  0.00     0.049 A 
ATOM     54  H   UNL A   1      41.122  31.102  34.912  1.00  0.00     0.167 HD
ATOM     55  C   UNL A   1      39.513  32.992  36.275  1.00  0.00     0.074 A 
ATOM     56  C   UNL A   1      38.433  33.911  36.573  1.00  0.00     0.031 C 
ATOM     57  C   UNL A   1      40.523  32.698  37.132  1.00  0.00     0.031 A 
BRANCH  44  58
ATOM     58  C   UNL A   1      44.491  28.484  34.966  1.00  0.00    -0.014 A 
ATOM     59  C   UNL A   1      44.373  27.269  35.663  1.00  0.00     0.010 A 
ATOM     60  C   UNL A   1      45.757  28.897  34.511  1.00  0.00     0.010 A 
ATOM     61  C   UNL A   1      45.509  26.509  35.951  1.00  0.00     0.020 A 
ATOM     62  C   UNL A   1      46.891  28.128  34.776  1.00  0.00     0.020 A 
ATOM     63  C   UNL A   1      46.763  26.950  35.518  1.00  0.00     0.054 A 
BRANCH  63  64
ATOM     64  S   UNL A   1      48.226  25.961  35.924  1.00  0.00     0.124 S 
ATOM     65  O   UNL A   1      47.981  25.627  37.325  1.00  0.00    -0.237 OA
ATOM     66  O   UNL A   1      48.131  24.844  34.987  1.00  0.00    -0.237 OA
ATOM     67  O   UNL A   1      49.340  26.876  35.687  1.00  0.00    -0.744 OA
ENDBRANCH  63  64
ENDBRANCH  44  58
BRANCH  45  68
ATOM     68  C   UNL A   1      36.224  33.692  32.974  1.00  0.00    -0.014 A 
ATOM     69  C   UNL A   1      34.986  33.072  33.213  1.00  0.00     0.010 A 
ATOM     70  C   UNL A   1      36.247  35.014  32.494  1.00  0.00     0.010 A 
ATOM     71  C   UNL A   1      33.792  33.759  32.972  1.00  0.00     0.020 A 
ATOM     72  C   UNL A   1      35.056  35.712  32.271  1.00  0.00     0.020 A 
ATOM     73  C   UNL A   1      33.835  35.076  32.505  1.00  0.00     0.054 A 
BRANCH  73  74
ATOM     74  S   UNL A   1      32.276  35.973  32.259  1.00  0.00     0.124 S 
ATOM     75  O   UNL A   1      32.433  37.110  33.159  1.00  0.00    -0.237 OA
ATOM     76  O   UNL A   1      32.311  36.285  30.833  1.00  0.00    -0.237 OA
ATOM     77  O   UNL A   1      31.257  34.999  32.650  1.00  0.00    -0.744 OA
ENDBRANCH  73  74
ENDBRANCH  45  68
BRANCH  57  78
ATOM     78  C   UNL A   1      40.543  33.391  38.469  1.00  0.00    -0.014 A 
ATOM     79  C   UNL A   1      41.246  34.592  38.654  1.00  0.00     0.010 A 
ATOM     80  C   UNL A   1      39.752  32.888  39.519  1.00  0.00     0.010 A 
ATOM     81  C   UNL A   1      41.159  35.280  39.869  1.00  0.00     0.020 A 
ATOM     82  C   UNL A   1      39.646  33.583  40.726  1.00  0.00     0.020 A 
ATOM     83  C   UNL A   1      40.356  34.774  40.896  1.00  0.00     0.054 A 
BRANCH  83  84
ATOM     84  S   UNL A   1      40.186  35.730  42.429  1.00  0.00     0.124 S 
ATOM     85  O   UNL A   1      41.566  36.133  42.690  1.00  0.00    -0.237 OA
ATOM     86  O   UNL A   1      39.280  36.806  42.041  1.00  0.00    -0.237 OA
ATOM     87  O   UNL A   1      39.629  34.767  43.377  1.00  0.00    -0.744 OA
ENDBRANCH  83  84
ENDBRANCH  57  78
ENDBRANCH  31  32
ENDBRANCH  24  26
ENDBRANCH  23  24
ENDBRANCH  22  23
ENDBRANCH   1  22
TORSDOF 17
ENDMDL
MODEL 2
REMARK VINA RESULT:     -10.2      3.756      9.508
REMARK SMILES O=C(Cc1ccccc1Nc1c(Cl)cccc1Cl)OCCOC(=O)c1ccc(-c2c3nc(c(-c4ccc(S(=O)(=O)[O-])cc4)c4ccc([nH]4)c(-c4ccc(S(=O)(=O)[O-])cc4)c4nc(c(-c5ccc(S(=O)(=O)[O-])cc5)c5ccc2[nH]5)C=C4)C=C3)cc1
REMARK SMILES IDX 20 1 19 2 2 3 1 4 3 5 4 6 5 7 9 8 6 9 8 10 7 11 10 12 11 14
REMARK SMILES IDX 12 15 17 16 13 17 14 18 16 19 18 20 15 21 21 22 22 23 23 24
REMARK SMILES IDX 24 25 25 26 26 27 84 28 27 29 83 30 28 31 29 32 30 33 77 34
REMARK SMILES IDX 31 35 82 36 76 37 78 38 32 39 81 40 75 41 74 42 33 44 63 45
REMARK SMILES IDX 44 46 62 47 45 48 48 49 61 50 79 51 46 52 47 53 60 55 80 56
REMARK SMILES IDX 49 57 34 58 35 59 43 60 36 61 42 62 37 63 38 64 39 65 40 66
REMARK SMILES IDX 41 67 64 68 65 69 73 70 66 71 72 72 67 73 68 74 69 75 70 76
REMARK SMILES IDX 71 77 50 78 51 79 59 80 52 81 58 82 53 83 54 84 55 85 56 86
REMARK SMILES IDX 57 87
REMARK H PARENT 10 13 78 43 48 54
REMARK Flexibility Score: inf
ROOT
ATOM      1  C   UNL A   1      39.621  21.633  26.517  1.00  0.00     0.274 C 
ENDROOT
BRANCH   1   2
ATOM      2  O   UNL A   1      38.611  22.104  25.601  1.00  0.00    -0.462 OA
BRANCH   2   3
ATOM      3  C   UNL A   1      37.690  21.328  24.992  1.00  0.00     0.310 C 
ATOM      4  O   UNL A   1      37.820  20.102  24.993  1.00  0.00    -0.252 OA
BRANCH   3   5
ATOM      5  C   UNL A   1      36.463  21.946  24.367  1.00  0.00     0.160 C 
BRANCH   5   6
ATOM      6  C   UNL A   1      35.338  22.260  25.323  1.00  0.00    -0.013 A 
ATOM      7  C   UNL A   1      35.112  23.620  25.623  1.00  0.00     0.006 A 
ATOM      8  C   UNL A   1      34.482  21.270  25.856  1.00  0.00     0.042 A 
ATOM      9  C   UNL A   1      34.088  24.004  26.479  1.00  0.00     0.000 A 
ATOM     10  C   UNL A   1      33.468  21.685  26.734  1.00  0.00     0.026 A 
ATOM     11  C   UNL A   1      33.272  23.034  27.044  1.00  0.00     0.002 A 
BRANCH   8  12
ATOM     12  N   UNL A   1      34.637  19.915  25.511  1.00  0.00    -0.353 N 
ATOM     13  H   UNL A   1      35.335  19.445  26.020  1.00  0.00     0.167 HD
BRANCH  12  14
ATOM     14  C   UNL A   1      33.966  19.109  24.564  1.00  0.00     0.076 A 
ATOM     15  C   UNL A   1      34.447  17.809  24.300  1.00  0.00     0.066 A 
ATOM     16  C   UNL A   1      32.914  19.591  23.763  1.00  0.00     0.066 A 
ATOM     17  Cl  UNL A   1      35.761  17.135  25.207  1.00  0.00    -0.082 Cl
ATOM     18  C   UNL A   1      33.882  17.012  23.299  1.00  0.00     0.023 A 
ATOM     19  C   UNL A   1      32.346  18.788  22.766  1.00  0.00     0.023 A 
ATOM     20  Cl  UNL A   1      32.320  21.209  23.903  1.00  0.00    -0.082 Cl
ATOM     21  C   UNL A   1      32.828  17.501  22.533  1.00  0.00     0.003 A 
ENDBRANCH  12  14
ENDBRANCH   8  12
ENDBRANCH   5   6
ENDBRANCH   3   5
ENDBRANCH   2   3
ENDBRANCH   1   2
BRANCH   1  22
ATOM     22  C   UNL A   1      40.802  22.603  26.560  1.00  0.00     0.275 C 
BRANCH  22  23
ATOM     23  O   UNL A   1      40.312  23.954  26.621  1.00  0.00    -0.458 OA
BRANCH  23  24
ATOM     24  C   UNL A   1      41.253  24.932  26.572  1.00  0.00     0.338 C 
ATOM     25  O   UNL A   1      42.052  25.132  25.675  1.00  0.00    -0.246 OA
BRANCH  24  26
ATOM     26  C   UNL A   1      41.001  25.871  27.691  1.00  0.00     0.060 A 
ATOM     27  C   UNL A   1      41.886  26.943  27.873  1.00  0.00     0.016 A 
ATOM     28  C   UNL A   1      39.871  25.746  28.506  1.00  0.00     0.016 A 
ATOM     29  C   UNL A   1      41.651  27.881  28.882  1.00  0.00     0.010 A 
ATOM     30  C   UNL A   1      39.644  26.677  29.518  1.00  0.00     0.010 A 
ATOM     31  C   UNL A   1      40.544  27.735  29.727  1.00  0.00    -0.014 A 
BRANCH  31  32
ATOM     32  C   UNL A   1      40.407  28.559  30.951  1.00  0.00     0.031 A 
ATOM     33  C   UNL A   1      39.398  29.672  30.945  1.00  0.00     0.074 A 
ATOM     34  C   UNL A   1      41.204  28.373  32.018  1.00  0.00     0.049 A 
ATOM     35  N   UNL A   1      39.168  30.588  31.849  1.00  0.00    -0.248 NA
ATOM     36  C   UNL A   1      38.546  29.772  29.749  1.00  0.00     0.031 C 
ATOM     37  C   UNL A   1      42.211  27.323  32.156  1.00  0.00     0.029 A 
ATOM     38  N   UNL A   1      41.304  29.094  33.183  1.00  0.00    -0.354 N 
ATOM     39  C   UNL A   1      38.153  31.379  31.329  1.00  0.00     0.074 A 
ATOM     40  C   UNL A   1      37.826  30.849  30.022  1.00  0.00     0.031 C 
ATOM     41  C   UNL A   1      42.850  27.486  33.329  1.00  0.00     0.029 A 
ATOM     42  C   UNL A   1      42.316  28.666  34.009  1.00  0.00     0.049 A 
ATOM     43  H   UNL A   1      40.708  29.845  33.406  1.00  0.00     0.167 HD
ATOM     44  C   UNL A   1      37.545  32.453  31.884  1.00  0.00     0.031 A 
ATOM     45  C   UNL A   1      42.777  29.184  35.166  1.00  0.00     0.031 A 
ATOM     46  C   UNL A   1      37.888  33.001  33.166  1.00  0.00     0.049 A 
ATOM     47  C   UNL A   1      42.127  30.417  35.743  1.00  0.00     0.074 A 
ATOM     48  C   UNL A   1      37.311  34.072  33.825  1.00  0.00     0.029 A 
ATOM     49  N   UNL A   1      38.912  32.534  33.974  1.00  0.00    -0.354 N 
ATOM     50  N   UNL A   1      41.125  31.118  35.270  1.00  0.00    -0.248 NA
ATOM     51  C   UNL A   1      42.669  30.925  37.013  1.00  0.00     0.031 C 
ATOM     52  C   UNL A   1      38.023  34.285  35.011  1.00  0.00     0.029 A 
ATOM     53  C   UNL A   1      39.007  33.314  35.112  1.00  0.00     0.049 A 
ATOM     54  H   UNL A   1      39.487  31.762  33.769  1.00  0.00     0.167 HD
ATOM     55  C   UNL A   1      40.900  32.133  36.195  1.00  0.00     0.074 A 
ATOM     56  C   UNL A   1      41.867  31.955  37.258  1.00  0.00     0.031 C 
ATOM     57  C   UNL A   1      39.971  33.122  36.167  1.00  0.00     0.031 A 
BRANCH  44  58
ATOM     58  C   UNL A   1      36.478  33.126  31.068  1.00  0.00    -0.014 A 
ATOM     59  C   UNL A   1      36.807  33.945  29.974  1.00  0.00     0.010 A 
ATOM     60  C   UNL A   1      35.126  32.950  31.416  1.00  0.00     0.010 A 
ATOM     61  C   UNL A   1      35.805  34.622  29.275  1.00  0.00     0.020 A 
ATOM     62  C   UNL A   1      34.120  33.607  30.704  1.00  0.00     0.020 A 
ATOM     63  C   UNL A   1      34.469  34.459  29.653  1.00  0.00     0.054 A 
BRANCH  63  64
ATOM     64  S   UNL A   1      33.188  35.367  28.748  1.00  0.00     0.124 S 
ATOM     65  O   UNL A   1      32.498  34.288  28.045  1.00  0.00    -0.237 OA
ATOM     66  O   UNL A   1      32.426  36.006  29.819  1.00  0.00    -0.237 OA
ATOM     67  O   UNL A   1      33.946  36.280  27.896  1.00  0.00    -0.744 OA
ENDBRANCH  63  64
ENDBRANCH  44  58
BRANCH  45  68
ATOM     68  C   UNL A   1      43.940  28.550  35.845  1.00  0.00    -0.014 A 
ATOM     69  C   UNL A   1      43.749  27.535  36.798  1.00  0.00     0.010 A 
ATOM     70  C   UNL A   1      45.249  28.952  35.525  1.00  0.00     0.010 A 
ATOM     71  C   UNL A   1      44.847  26.938  37.425  1.00  0.00     0.020 A 
ATOM     72  C   UNL A   1      46.351  28.343  36.135  1.00  0.00     0.020 A 
ATOM     73  C   UNL A   1      46.142  27.343  37.087  1.00  0.00     0.054 A 
BRANCH  73  74
ATOM     74  S   UNL A   1      47.555  26.511  37.864  1.00  0.00     0.124 S 
ATOM     75  O   UNL A   1      46.970  25.240  38.276  1.00  0.00    -0.237 OA
ATOM     76  O   UNL A   1      48.522  26.438  36.771  1.00  0.00    -0.237 OA
ATOM     77  O   UNL A   1      47.925  27.414  38.953  1.00  0.00    -0.744 OA
ENDBRANCH  73  74
ENDBRANCH  45  68
BRANCH  57  78
ATOM     78  C   UNL A   1      39.918  34.078  37.329  1.00  0.00    -0.014 A 
ATOM     79  C   UNL A   1      40.359  35.405  37.198  1.00  0.00     0.010 A 
ATOM     80  C   UNL A   1      39.312  33.670  38.532  1.00  0.00     0.010 A 
ATOM     81  C   UNL A   1      40.196  36.310  38.253  1.00  0.00     0.020 A 
ATOM     82  C   UNL A   1      39.129  34.576  39.580  1.00  0.00     0.020 A 
ATOM     83  C   UNL A   1      39.577  35.892  39.435  1.00  0.00     0.054 A 
BRANCH  83  84
ATOM     84  S   UNL A   1      39.295  37.105  40.754  1.00  0.00     0.124 S 
ATOM     85  O   UNL A   1      40.650  37.576  41.030  1.00  0.00    -0.237 OA
ATOM     86  O   UNL A   1      38.410  38.076  40.116  1.00  0.00    -0.237 OA
ATOM     87  O   UNL A   1      38.680  36.319  41.822  1.00  0.00    -0.744 OA
ENDBRANCH  83  84
ENDBRANCH  57  78
ENDBRANCH  31  32
ENDBRANCH  24  26
ENDBRANCH  23  24
ENDBRANCH  22  23
ENDBRANCH   1  22
TORSDOF 17
ENDMDL
MODEL 3
REMARK VINA RESULT:     -10.0      7.127     13.438
REMARK SMILES O=C(Cc1ccccc1Nc1c(Cl)cccc1Cl)OCCOC(=O)c1ccc(-c2c3nc(c(-c4ccc(S(=O)(=O)[O-])cc4)c4ccc([nH]4)c(-c4ccc(S(=O)(=O)[O-])cc4)c4nc(c(-c5ccc(S(=O)(=O)[O-])cc5)c5ccc2[nH]5)C=C4)C=C3)cc1
REMARK SMILES IDX 20 1 19 2 2 3 1 4 3 5 4 6 5 7 9 8 6 9 8 10 7 11 10 12 11 14
REMARK SMILES IDX 12 15 17 16 13 17 14 18 16 19 18 20 15 21 21 22 22 23 23 24
REMARK SMILES IDX 24 25 25 26 26 27 84 28 27 29 83 30 28 31 29 32 30 33 77 34
REMARK SMILES IDX 31 35 82 36 76 37 78 38 32 39 81 40 75 41 74 42 33 44 63 45
REMARK SMILES IDX 44 46 62 47 45 48 48 49 61 50 79 51 46 52 47 53 60 55 80 56
REMARK SMILES IDX 49 57 34 58 35 59 43 60 36 61 42 62 37 63 38 64 39 65 40 66
REMARK SMILES IDX 41 67 64 68 65 69 73 70 66 71 72 72 67 73 68 74 69 75 70 76
REMARK SMILES IDX 71 77 50 78 51 79 59 80 52 81 58 82 53 83 54 84 55 85 56 86
REMARK SMILES IDX 57 87
REMARK H PARENT 10 13 78 43 48 54
REMARK Flexibility Score: inf
ROOT
ATOM      1  C   UNL A   1      33.925  30.343  27.089  1.00  0.00     0.274 C 
ENDROOT
BRANCH   1   2
ATOM      2  O   UNL A   1      32.580  29.854  27.262  1.00  0.00    -0.462 OA
BRANCH   2   3
ATOM      3  C   UNL A   1      32.211  28.558  27.208  1.00  0.00     0.310 C 
ATOM      4  O   UNL A   1      31.448  28.098  28.061  1.00  0.00    -0.252 OA
BRANCH   3   5
ATOM      5  C   UNL A   1      32.671  27.679  26.070  1.00  0.00     0.160 C 
BRANCH   5   6
ATOM      6  C   UNL A   1      31.574  27.131  25.191  1.00  0.00    -0.013 A 
ATOM      7  C   UNL A   1      30.815  28.065  24.455  1.00  0.00     0.006 A 
ATOM      8  C   UNL A   1      31.335  25.747  25.030  1.00  0.00     0.042 A 
ATOM      9  C   UNL A   1      29.795  27.652  23.607  1.00  0.00     0.000 A 
ATOM     10  C   UNL A   1      30.286  25.359  24.182  1.00  0.00     0.026 A 
ATOM     11  C   UNL A   1      29.524  26.297  23.479  1.00  0.00     0.002 A 
BRANCH   8  12
ATOM     12  N   UNL A   1      32.128  24.792  25.691  1.00  0.00    -0.353 N 
ATOM     13  H   UNL A   1      32.489  25.093  26.556  1.00  0.00     0.167 HD
BRANCH  12  14
ATOM     14  C   UNL A   1      32.499  23.476  25.334  1.00  0.00     0.076 A 
ATOM     15  C   UNL A   1      33.664  23.272  24.564  1.00  0.00     0.066 A 
ATOM     16  C   UNL A   1      31.685  22.358  25.594  1.00  0.00     0.066 A 
ATOM     17  Cl  UNL A   1      34.716  24.589  24.160  1.00  0.00    -0.082 Cl
ATOM     18  C   UNL A   1      34.017  22.002  24.098  1.00  0.00     0.023 A 
ATOM     19  C   UNL A   1      32.045  21.086  25.132  1.00  0.00     0.023 A 
ATOM     20  Cl  UNL A   1      30.170  22.496  26.418  1.00  0.00    -0.082 Cl
ATOM     21  C   UNL A   1      33.208  20.907  24.386  1.00  0.00     0.003 A 
ENDBRANCH  12  14
ENDBRANCH   8  12
ENDBRANCH   5   6
ENDBRANCH   3   5
ENDBRANCH   2   3
ENDBRANCH   1   2
BRANCH   1  22
ATOM     22  C   UNL A   1      34.906  29.530  27.935  1.00  0.00     0.275 C 
BRANCH  22  23
ATOM     23  O   UNL A   1      35.906  30.405  28.485  1.00  0.00    -0.458 OA
BRANCH  23  24
ATOM     24  C   UNL A   1      36.443  30.024  29.673  1.00  0.00     0.338 C 
ATOM     25  O   UNL A   1      35.838  29.774  30.700  1.00  0.00    -0.246 OA
BRANCH  24  26
ATOM     26  C   UNL A   1      37.880  29.733  29.459  1.00  0.00     0.060 A 
ATOM     27  C   UNL A   1      38.360  29.684  28.143  1.00  0.00     0.016 A 
ATOM     28  C   UNL A   1      38.760  29.582  30.535  1.00  0.00     0.016 A 
ATOM     29  C   UNL A   1      39.720  29.467  27.902  1.00  0.00     0.010 A 
ATOM     30  C   UNL A   1      40.115  29.357  30.292  1.00  0.00     0.010 A 
ATOM     31  C   UNL A   1      40.598  29.275  28.976  1.00  0.00    -0.014 A 
BRANCH  31  32
ATOM     32  C   UNL A   1      41.982  28.797  28.751  1.00  0.00     0.031 A 
ATOM     33  C   UNL A   1      43.091  29.811  28.768  1.00  0.00     0.074 A 
ATOM     34  C   UNL A   1      42.246  27.509  28.468  1.00  0.00     0.049 A 
ATOM     35  N   UNL A   1      44.360  29.656  28.496  1.00  0.00    -0.248 NA
ATOM     36  C   UNL A   1      42.710  31.187  29.125  1.00  0.00     0.031 C 
ATOM     37  C   UNL A   1      41.265  26.427  28.434  1.00  0.00     0.029 A 
ATOM     38  N   UNL A   1      43.431  26.904  28.125  1.00  0.00    -0.354 N 
ATOM     39  C   UNL A   1      44.929  30.915  28.639  1.00  0.00     0.074 A 
ATOM     40  C   UNL A   1      43.863  31.825  29.000  1.00  0.00     0.031 C 
ATOM     41  C   UNL A   1      41.884  25.292  28.059  1.00  0.00     0.029 A 
ATOM     42  C   UNL A   1      43.295  25.575  27.800  1.00  0.00     0.049 A 
ATOM     43  H   UNL A   1      44.294  27.376  28.113  1.00  0.00     0.167 HD
ATOM     44  C   UNL A   1      46.220  31.285  28.483  1.00  0.00     0.031 A 
ATOM     45  C   UNL A   1      44.200  24.697  27.322  1.00  0.00     0.031 A 
ATOM     46  C   UNL A   1      47.275  30.391  28.094  1.00  0.00     0.049 A 
ATOM     47  C   UNL A   1      45.624  25.140  27.096  1.00  0.00     0.074 A 
ATOM     48  C   UNL A   1      48.620  30.667  27.934  1.00  0.00     0.029 A 
ATOM     49  N   UNL A   1      47.097  29.052  27.782  1.00  0.00    -0.354 N 
ATOM     50  N   UNL A   1      46.162  26.320  27.297  1.00  0.00    -0.248 NA
ATOM     51  C   UNL A   1      46.564  24.131  26.585  1.00  0.00     0.031 C 
ATOM     52  C   UNL A   1      49.250  29.505  27.475  1.00  0.00     0.029 A 
ATOM     53  C   UNL A   1      48.304  28.494  27.400  1.00  0.00     0.049 A 
ATOM     54  H   UNL A   1      46.241  28.570  27.826  1.00  0.00     0.167 HD
ATOM     55  C   UNL A   1      47.505  26.188  26.960  1.00  0.00     0.074 A 
ATOM     56  C   UNL A   1      47.702  24.814  26.546  1.00  0.00     0.031 C 
ATOM     57  C   UNL A   1      48.489  27.122  26.996  1.00  0.00     0.031 A 
BRANCH  44  58
ATOM     58  C   UNL A   1      46.540  32.738  28.691  1.00  0.00    -0.014 A 
ATOM     59  C   UNL A   1      46.415  33.667  27.643  1.00  0.00     0.010 A 
ATOM     60  C   UNL A   1      46.991  33.175  29.949  1.00  0.00     0.010 A 
ATOM     61  C   UNL A   1      46.789  34.999  27.835  1.00  0.00     0.020 A 
ATOM     62  C   UNL A   1      47.343  34.511  30.151  1.00  0.00     0.020 A 
ATOM     63  C   UNL A   1      47.264  35.409  29.084  1.00  0.00     0.054 A 
BRANCH  63  64
ATOM     64  S   UNL A   1      47.767  37.137  29.303  1.00  0.00     0.124 S 
ATOM     65  O   UNL A   1      48.811  37.274  28.290  1.00  0.00    -0.237 OA
ATOM     66  O   UNL A   1      46.532  37.870  29.033  1.00  0.00    -0.237 OA
ATOM     67  O   UNL A   1      48.230  37.190  30.687  1.00  0.00    -0.744 OA
ENDBRANCH  63  64
ENDBRANCH  44  58
BRANCH  45  68
ATOM     68  C   UNL A   1      43.776  23.308  26.995  1.00  0.00    -0.014 A 
ATOM     69  C   UNL A   1      43.170  22.495  27.966  1.00  0.00     0.010 A 
ATOM     70  C   UNL A   1      43.966  22.800  25.696  1.00  0.00     0.010 A 
ATOM     71  C   UNL A   1      42.766  21.194  27.649  1.00  0.00     0.020 A 
ATOM     72  C   UNL A   1      43.544  21.507  25.369  1.00  0.00     0.020 A 
ATOM     73  C   UNL A   1      42.952  20.709  26.351  1.00  0.00     0.054 A 
BRANCH  73  74
ATOM     74  S   UNL A   1      42.363  19.042  25.941  1.00  0.00     0.124 S 
ATOM     75  O   UNL A   1      43.058  18.774  24.687  1.00  0.00    -0.237 OA
ATOM     76  O   UNL A   1      42.807  18.257  27.091  1.00  0.00    -0.237 OA
ATOM     77  O   UNL A   1      40.915  19.209  25.833  1.00  0.00    -0.744 OA
ENDBRANCH  73  74
ENDBRANCH  45  68
BRANCH  57  78
ATOM     78  C   UNL A   1      49.882  26.701  26.612  1.00  0.00    -0.014 A 
ATOM     79  C   UNL A   1      50.760  26.145  27.557  1.00  0.00     0.010 A 
ATOM     80  C   UNL A   1      50.272  26.758  25.260  1.00  0.00     0.010 A 
ATOM     81  C   UNL A   1      52.008  25.655  27.158  1.00  0.00     0.020 A 
ATOM     82  C   UNL A   1      51.509  26.250  24.855  1.00  0.00     0.020 A 
ATOM     83  C   UNL A   1      52.373  25.704  25.808  1.00  0.00     0.054 A 
BRANCH  83  84
ATOM     84  S   UNL A   1      53.956  24.980  25.300  1.00  0.00     0.124 S 
ATOM     85  O   UNL A   1      54.724  25.027  26.542  1.00  0.00    -0.237 OA
ATOM     86  O   UNL A   1      53.571  23.645  24.850  1.00  0.00    -0.237 OA
ATOM     87  O   UNL A   1      54.424  25.875  24.244  1.00  0.00    -0.744 OA
ENDBRANCH  83  84
ENDBRANCH  57  78
ENDBRANCH  31  32
ENDBRANCH  24  26
ENDBRANCH  23  24
ENDBRANCH  22  23
ENDBRANCH   1  22
TORSDOF 17
ENDMDL
