MODEL 1
REMARK VINA RESULT:     -11.0      0.000      0.000
REMARK SMILES Cc1c(CC(=O)N[C@H](CO)C(=O)OCCOC(=O)c2ccc(-c3c4nc(c(-c5ccc(S(=O)(=O)[O-])cc5)c5ccc([nH]5)c(-c5ccc(S(=O)(=O)[O-])cc5)c5nc(c(-c6ccc(S(=O)(=O)[O-])cc6)c6ccc3[nH]6)C=C5)C=C4)cc2)cc(-c2ccc(S(C)(=O)=O)cc2)n1-c1ccc(F)cc1
REMARK SMILES IDX 14 1 13 2 11 3 12 4 8 5 7 6 5 7 6 8 4 10 3 11 1 12 2 13
REMARK SMILES IDX 91 14 79 15 80 16 92 17 93 18 98 19 94 20 97 21 95 22 96 23
REMARK SMILES IDX 81 24 82 25 90 26 83 27 89 28 84 29 85 30 86 31 87 32 88 33
REMARK SMILES IDX 9 34 10 35 15 37 16 38 17 39 18 40 19 41 20 42 78 43 21 44
REMARK SMILES IDX 77 45 22 46 23 47 24 48 71 49 25 50 76 51 70 52 72 53 26 54
REMARK SMILES IDX 75 55 69 56 68 57 27 59 57 60 38 61 56 62 39 63 42 64 55 65
REMARK SMILES IDX 73 66 40 67 41 68 54 70 74 71 43 72 28 73 29 74 37 75 30 76
REMARK SMILES IDX 36 77 31 78 32 79 33 80 34 81 35 82 58 83 59 84 67 85 60 86
REMARK SMILES IDX 66 87 61 88 62 89 63 90 64 91 65 92 44 93 45 94 53 95 46 96
REMARK SMILES IDX 52 97 47 98 48 99 49 100 50 101 51 102
REMARK H PARENT 7 9 10 36 72 58 42 69
REMARK Flexibility Score: inf
ROOT
ATOM      1  C   UNL A   1      32.203  29.527  26.046  1.00  0.00     0.274 C 
ENDROOT
BRANCH   1   2
ATOM      2  O   UNL A   1      32.704  29.583  24.652  1.00  0.00    -0.460 OA
BRANCH   2   3
ATOM      3  C   UNL A   1      32.047  29.287  23.504  1.00  0.00     0.331 C 
ATOM      4  O   UNL A   1      32.622  29.163  22.432  1.00  0.00    -0.250 OA
BRANCH   3   5
ATOM      5  C   UNL A   1      30.478  29.048  23.699  1.00  0.00     0.218 C 
BRANCH   5   6
ATOM      6  N   UNL A   1      30.016  27.783  24.326  1.00  0.00    -0.341 N 
ATOM      7  C   UNL A   1      29.866  26.539  23.790  1.00  0.00     0.225 C 
ATOM      8  O   UNL A   1      29.029  25.799  24.320  1.00  0.00    -0.275 OA
ATOM      9  H   UNL A   1      29.781  27.855  25.280  1.00  0.00     0.164 HD
BRANCH   7  10
ATOM     10  C   UNL A   1      30.779  26.017  22.697  1.00  0.00     0.137 C 
BRANCH  10  11
ATOM     11  C   UNL A   1      31.733  24.909  23.057  1.00  0.00    -0.017 A 
ATOM     12  C   UNL A   1      33.847  26.305  23.528  1.00  0.00     0.065 C 
ATOM     13  C   UNL A   1      33.069  25.042  23.406  1.00  0.00     0.024 A 
ATOM     14  N   UNL A   1      33.612  23.775  23.623  1.00  0.00    -0.314 N 
ATOM     15  C   UNL A   1      31.504  23.516  23.118  1.00  0.00     0.033 A 
ATOM     16  C   UNL A   1      32.649  22.815  23.386  1.00  0.00     0.053 A 
BRANCH  14  17
ATOM     17  C   UNL A   1      34.873  23.463  24.153  1.00  0.00     0.046 A 
ATOM     18  C   UNL A   1      35.817  22.833  23.331  1.00  0.00     0.029 A 
ATOM     19  C   UNL A   1      35.054  23.572  25.532  1.00  0.00     0.029 A 
ATOM     20  C   UNL A   1      36.954  22.288  23.904  1.00  0.00     0.041 A 
ATOM     21  C   UNL A   1      36.196  23.021  26.096  1.00  0.00     0.041 A 
ATOM     22  C   UNL A   1      37.131  22.384  25.281  1.00  0.00     0.123 A 
ATOM     23  F   UNL A   1      38.215  21.835  25.840  1.00  0.00    -0.207 F 
ENDBRANCH  14  17
BRANCH  16  24
ATOM     24  C   UNL A   1      32.737  21.368  23.651  1.00  0.00    -0.001 A 
ATOM     25  C   UNL A   1      32.283  20.439  22.702  1.00  0.00     0.011 A 
ATOM     26  C   UNL A   1      33.348  20.899  24.824  1.00  0.00     0.011 A 
ATOM     27  C   UNL A   1      32.427  19.068  22.923  1.00  0.00     0.021 A 
ATOM     28  C   UNL A   1      33.514  19.531  25.044  1.00  0.00     0.021 A 
ATOM     29  C   UNL A   1      33.045  18.626  24.095  1.00  0.00     0.067 A 
BRANCH  29  30
ATOM     30  S   UNL A   1      33.316  16.880  24.357  1.00  0.00     0.175 S 
ATOM     31  C   UNL A   1      34.957  16.867  25.066  1.00  0.00     0.163 C 
ATOM     32  O   UNL A   1      32.274  16.523  25.322  1.00  0.00    -0.224 OA
ATOM     33  O   UNL A   1      33.361  16.287  23.049  1.00  0.00    -0.224 OA
ENDBRANCH  29  30
ENDBRANCH  16  24
ENDBRANCH  10  11
ENDBRANCH   7  10
ENDBRANCH   5   6
BRANCH   5  34
ATOM     34  C   UNL A   1      29.450  29.381  22.568  1.00  0.00     0.193 C 
BRANCH  34  35
ATOM     35  O   UNL A   1      29.909  29.603  21.254  1.00  0.00    -0.394 OA
ATOM     36  H   UNL A   1      29.643  28.861  20.688  1.00  0.00     0.210 HD
ENDBRANCH  34  35
ENDBRANCH   5  34
ENDBRANCH   3   5
ENDBRANCH   2   3
ENDBRANCH   1   2
BRANCH   1  37
ATOM     37  C   UNL A   1      32.741  30.436  27.220  1.00  0.00     0.275 C 
BRANCH  37  38
ATOM     38  O   UNL A   1      34.074  31.074  27.174  1.00  0.00    -0.458 OA
BRANCH  38  39
ATOM     39  C   UNL A   1      35.170  30.328  27.584  1.00  0.00     0.338 C 
ATOM     40  O   UNL A   1      35.369  29.199  27.155  1.00  0.00    -0.246 OA
BRANCH  39  41
ATOM     41  C   UNL A   1      36.143  31.075  28.562  1.00  0.00     0.060 A 
ATOM     42  C   UNL A   1      36.453  30.501  29.782  1.00  0.00     0.016 A 
ATOM     43  C   UNL A   1      36.647  32.397  28.456  1.00  0.00     0.016 A 
ATOM     44  C   UNL A   1      37.354  31.146  30.747  1.00  0.00     0.010 A 
ATOM     45  C   UNL A   1      37.518  33.087  29.501  1.00  0.00     0.010 A 
ATOM     46  C   UNL A   1      37.975  32.470  30.691  1.00  0.00    -0.014 A 
BRANCH  46  47
ATOM     47  C   UNL A   1      38.652  33.122  32.176  1.00  0.00     0.031 A 
ATOM     48  C   UNL A   1      39.969  33.539  31.618  1.00  0.00     0.074 A 
ATOM     49  C   UNL A   1      38.622  33.258  33.617  1.00  0.00     0.049 A 
ATOM     50  N   UNL A   1      40.697  32.576  31.132  1.00  0.00    -0.248 NA
ATOM     51  C   UNL A   1      40.310  34.872  31.122  1.00  0.00     0.031 C 
ATOM     52  C   UNL A   1      37.745  32.580  34.607  1.00  0.00     0.029 A 
ATOM     53  N   UNL A   1      39.408  34.046  34.611  1.00  0.00    -0.354 N 
ATOM     54  C   UNL A   1      41.723  33.144  30.420  1.00  0.00     0.074 A 
ATOM     55  C   UNL A   1      41.329  34.552  30.306  1.00  0.00     0.031 C 
ATOM     56  C   UNL A   1      37.870  33.059  35.893  1.00  0.00     0.029 A 
ATOM     57  C   UNL A   1      38.890  34.110  36.022  1.00  0.00     0.049 A 
ATOM     58  H   UNL A   1      40.238  34.508  34.353  1.00  0.00     0.167 HD
ATOM     59  C   UNL A   1      42.948  32.651  30.764  1.00  0.00     0.031 A 
ATOM     60  C   UNL A   1      39.314  34.825  37.196  1.00  0.00     0.031 A 
ATOM     61  C   UNL A   1      43.440  33.349  31.933  1.00  0.00     0.049 A 
ATOM     62  C   UNL A   1      40.771  34.852  37.064  1.00  0.00     0.074 A 
ATOM     63  C   UNL A   1      43.488  34.702  32.220  1.00  0.00     0.029 A 
ATOM     64  N   UNL A   1      43.424  32.684  33.147  1.00  0.00    -0.354 N 
ATOM     65  N   UNL A   1      41.515  33.808  37.253  1.00  0.00    -0.248 NA
ATOM     66  C   UNL A   1      41.454  36.076  36.688  1.00  0.00     0.031 C 
ATOM     67  C   UNL A   1      42.911  34.789  33.499  1.00  0.00     0.029 A 
ATOM     68  C   UNL A   1      43.119  33.585  34.152  1.00  0.00     0.049 A 
ATOM     69  H   UNL A   1      43.602  31.725  33.275  1.00  0.00     0.167 HD
ATOM     70  C   UNL A   1      42.557  34.074  36.414  1.00  0.00     0.074 A 
ATOM     71  C   UNL A   1      42.599  35.527  36.287  1.00  0.00     0.031 C 
ATOM     72  C   UNL A   1      42.873  33.125  35.493  1.00  0.00     0.031 A 
BRANCH  59  73
ATOM     73  C   UNL A   1      43.058  31.156  30.565  1.00  0.00    -0.014 A 
ATOM     74  C   UNL A   1      43.588  30.673  29.361  1.00  0.00     0.010 A 
ATOM     75  C   UNL A   1      42.575  30.214  31.503  1.00  0.00     0.010 A 
ATOM     76  C   UNL A   1      43.677  29.293  29.124  1.00  0.00     0.020 A 
ATOM     77  C   UNL A   1      42.638  28.839  31.264  1.00  0.00     0.020 A 
ATOM     78  C   UNL A   1      43.229  28.385  30.089  1.00  0.00     0.054 A 
BRANCH  78  79
ATOM     79  S   UNL A   1      43.478  26.611  29.819  1.00  0.00     0.124 S 
ATOM     80  O   UNL A   1      44.581  26.535  28.859  1.00  0.00    -0.237 OA
ATOM     81  O   UNL A   1      43.812  26.140  31.159  1.00  0.00    -0.237 OA
ATOM     82  O   UNL A   1      42.197  26.151  29.290  1.00  0.00    -0.744 OA
ENDBRANCH  78  79
ENDBRANCH  59  73
BRANCH  60  83
ATOM     83  C   UNL A   1      39.015  35.441  38.696  1.00  0.00    -0.014 A 
ATOM     84  C   UNL A   1      39.249  34.670  39.914  1.00  0.00     0.010 A 
ATOM     85  C   UNL A   1      38.999  36.825  38.955  1.00  0.00     0.010 A 
ATOM     86  C   UNL A   1      39.570  35.228  41.207  1.00  0.00     0.020 A 
ATOM     87  C   UNL A   1      39.299  37.395  40.255  1.00  0.00     0.020 A 
ATOM     88  C   UNL A   1      39.631  36.604  41.363  1.00  0.00     0.054 A 
BRANCH  88  89
ATOM     89  S   UNL A   1      40.298  37.351  42.925  1.00  0.00     0.124 S 
ATOM     90  O   UNL A   1      40.123  38.786  42.719  1.00  0.00    -0.237 OA
ATOM     91  O   UNL A   1      39.452  36.764  43.962  1.00  0.00    -0.237 OA
ATOM     92  O   UNL A   1      41.689  36.900  42.955  1.00  0.00    -0.744 OA
ENDBRANCH  88  89
ENDBRANCH  60  83
BRANCH  72  93
ATOM     93  C   UNL A   1      42.844  31.673  35.921  1.00  0.00    -0.014 A 
ATOM     94  C   UNL A   1      43.897  30.978  36.560  1.00  0.00     0.010 A 
ATOM     95  C   UNL A   1      41.694  30.939  35.587  1.00  0.00     0.010 A 
ATOM     96  C   UNL A   1      43.822  29.595  36.793  1.00  0.00     0.020 A 
ATOM     97  C   UNL A   1      41.593  29.571  35.852  1.00  0.00     0.020 A 
ATOM     98  C   UNL A   1      42.672  28.897  36.423  1.00  0.00     0.054 A 
BRANCH  98  99
ATOM     99  S   UNL A   1      42.618  27.095  36.629  1.00  0.00     0.124 S 
ATOM    100  O   UNL A   1      41.217  26.865  36.980  1.00  0.00    -0.237 OA
ATOM    101  O   UNL A   1      43.017  26.605  35.314  1.00  0.00    -0.237 OA
ATOM    102  O   UNL A   1      43.565  26.839  37.713  1.00  0.00    -0.744 OA
ENDBRANCH  98  99
ENDBRANCH  72  93
ENDBRANCH  46  47
ENDBRANCH  39  41
ENDBRANCH  38  39
ENDBRANCH  37  38
ENDBRANCH   1  37
TORSDOF 22
ENDMDL
MODEL 2
REMARK VINA RESULT:     -10.7      5.068     10.057
REMARK SMILES Cc1c(CC(=O)N[C@H](CO)C(=O)OCCOC(=O)c2ccc(-c3c4nc(c(-c5ccc(S(=O)(=O)[O-])cc5)c5ccc([nH]5)c(-c5ccc(S(=O)(=O)[O-])cc5)c5nc(c(-c6ccc(S(=O)(=O)[O-])cc6)c6ccc3[nH]6)C=C5)C=C4)cc2)cc(-c2ccc(S(C)(=O)=O)cc2)n1-c1ccc(F)cc1
REMARK SMILES IDX 14 1 13 2 11 3 12 4 8 5 7 6 5 7 6 8 4 10 3 11 1 12 2 13
REMARK SMILES IDX 91 14 79 15 80 16 92 17 93 18 98 19 94 20 97 21 95 22 96 23
REMARK SMILES IDX 81 24 82 25 90 26 83 27 89 28 84 29 85 30 86 31 87 32 88 33
REMARK SMILES IDX 9 34 10 35 15 37 16 38 17 39 18 40 19 41 20 42 78 43 21 44
REMARK SMILES IDX 77 45 22 46 23 47 24 48 71 49 25 50 76 51 70 52 72 53 26 54
REMARK SMILES IDX 75 55 69 56 68 57 27 59 57 60 38 61 56 62 39 63 42 64 55 65
REMARK SMILES IDX 73 66 40 67 41 68 54 70 74 71 43 72 28 73 29 74 37 75 30 76
REMARK SMILES IDX 36 77 31 78 32 79 33 80 34 81 35 82 58 83 59 84 67 85 60 86
REMARK SMILES IDX 66 87 61 88 62 89 63 90 64 91 65 92 44 93 45 94 53 95 46 96
REMARK SMILES IDX 52 97 47 98 48 99 49 100 50 101 51 102
REMARK H PARENT 7 9 10 36 72 58 42 69
REMARK Flexibility Score: inf
ROOT
ATOM      1  C   UNL A   1      35.776  34.584  35.157  1.00  0.00     0.274 C 
ENDROOT
BRANCH   1   2
ATOM      2  O   UNL A   1      34.654  34.766  34.204  1.00  0.00    -0.460 OA
BRANCH   2   3
ATOM      3  C   UNL A   1      34.646  35.432  33.024  1.00  0.00     0.331 C 
ATOM      4  O   UNL A   1      34.699  36.652  32.960  1.00  0.00    -0.250 OA
BRANCH   3   5
ATOM      5  C   UNL A   1      34.633  34.478  31.741  1.00  0.00     0.218 C 
BRANCH   5   6
ATOM      6  N   UNL A   1      33.513  34.592  30.772  1.00  0.00    -0.341 N 
ATOM      7  C   UNL A   1      33.522  34.942  29.454  1.00  0.00     0.225 C 
ATOM      8  O   UNL A   1      32.487  35.446  29.002  1.00  0.00    -0.275 OA
ATOM      9  H   UNL A   1      32.624  34.382  31.140  1.00  0.00     0.164 HD
BRANCH   7  10
ATOM     10  C   UNL A   1      34.680  34.598  28.537  1.00  0.00     0.137 C 
BRANCH  10  11
ATOM     11  C   UNL A   1      34.954  33.139  28.280  1.00  0.00    -0.017 A 
ATOM     12  C   UNL A   1      37.368  32.997  29.170  1.00  0.00     0.065 C 
ATOM     13  C   UNL A   1      36.130  32.454  28.548  1.00  0.00     0.024 A 
ATOM     14  N   UNL A   1      35.993  31.131  28.123  1.00  0.00    -0.314 N 
ATOM     15  C   UNL A   1      34.108  32.156  27.719  1.00  0.00     0.033 A 
ATOM     16  C   UNL A   1      34.750  30.957  27.551  1.00  0.00     0.053 A 
BRANCH  14  17
ATOM     17  C   UNL A   1      36.872  30.063  28.356  1.00  0.00     0.046 A 
ATOM     18  C   UNL A   1      36.833  29.412  29.597  1.00  0.00     0.029 A 
ATOM     19  C   UNL A   1      37.905  29.847  27.443  1.00  0.00     0.029 A 
ATOM     20  C   UNL A   1      37.858  28.542  29.935  1.00  0.00     0.041 A 
ATOM     21  C   UNL A   1      38.927  28.975  27.793  1.00  0.00     0.041 A 
ATOM     22  C   UNL A   1      38.896  28.336  29.032  1.00  0.00     0.123 A 
ATOM     23  F   UNL A   1      39.899  27.517  29.367  1.00  0.00    -0.207 F 
ENDBRANCH  14  17
BRANCH  16  24
ATOM     24  C   UNL A   1      34.125  29.694  27.122  1.00  0.00    -0.001 A 
ATOM     25  C   UNL A   1      33.099  29.110  27.881  1.00  0.00     0.011 A 
ATOM     26  C   UNL A   1      34.494  29.099  25.905  1.00  0.00     0.011 A 
ATOM     27  C   UNL A   1      32.460  27.950  27.439  1.00  0.00     0.021 A 
ATOM     28  C   UNL A   1      33.847  27.951  25.447  1.00  0.00     0.021 A 
ATOM     29  C   UNL A   1      32.840  27.380  26.222  1.00  0.00     0.067 A 
BRANCH  29  30
ATOM     30  S   UNL A   1      31.977  25.946  25.599  1.00  0.00     0.175 S 
ATOM     31  C   UNL A   1      33.115  24.628  26.005  1.00  0.00     0.163 C 
ATOM     32  O   UNL A   1      30.757  25.916  26.408  1.00  0.00    -0.224 OA
ATOM     33  O   UNL A   1      31.926  26.105  24.173  1.00  0.00    -0.224 OA
ENDBRANCH  29  30
ENDBRANCH  16  24
ENDBRANCH  10  11
ENDBRANCH   7  10
ENDBRANCH   5   6
BRANCH   5  34
ATOM     34  C   UNL A   1      34.973  32.956  31.846  1.00  0.00     0.193 C 
BRANCH  34  35
ATOM     35  O   UNL A   1      34.159  32.014  31.185  1.00  0.00    -0.394 OA
ATOM     36  H   UNL A   1      33.965  31.276  31.785  1.00  0.00     0.210 HD
ENDBRANCH  34  35
ENDBRANCH   5  34
ENDBRANCH   3   5
ENDBRANCH   2   3
ENDBRANCH   1   2
BRANCH   1  37
ATOM     37  C   UNL A   1      37.184  33.984  34.766  1.00  0.00     0.275 C 
BRANCH  37  38
ATOM     38  O   UNL A   1      38.258  34.813  34.183  1.00  0.00    -0.458 OA
BRANCH  38  39
ATOM     39  C   UNL A   1      38.747  34.465  32.931  1.00  0.00     0.338 C 
ATOM     40  O   UNL A   1      38.192  34.836  31.906  1.00  0.00    -0.246 OA
BRANCH  39  41
ATOM     41  C   UNL A   1      40.081  33.640  32.954  1.00  0.00     0.060 A 
ATOM     42  C   UNL A   1      40.172  32.474  32.216  1.00  0.00     0.016 A 
ATOM     43  C   UNL A   1      41.211  33.825  33.793  1.00  0.00     0.016 A 
ATOM     44  C   UNL A   1      41.389  31.651  32.194  1.00  0.00     0.010 A 
ATOM     45  C   UNL A   1      42.438  32.919  33.818  1.00  0.00     0.010 A 
ATOM     46  C   UNL A   1      42.623  31.803  32.966  1.00  0.00    -0.014 A 
BRANCH  46  47
ATOM     47  C   UNL A   1      43.723  30.433  33.034  1.00  0.00     0.031 A 
ATOM     48  C   UNL A   1      44.988  31.195  32.841  1.00  0.00     0.074 A 
ATOM     49  C   UNL A   1      43.954  29.005  32.991  1.00  0.00     0.049 A 
ATOM     50  N   UNL A   1      45.082  31.842  31.716  1.00  0.00    -0.248 NA
ATOM     51  C   UNL A   1      45.866  31.687  33.903  1.00  0.00     0.031 C 
ATOM     52  C   UNL A   1      42.999  27.906  32.694  1.00  0.00     0.029 A 
ATOM     53  N   UNL A   1      45.148  28.132  33.185  1.00  0.00    -0.354 N 
ATOM     54  C   UNL A   1      46.150  32.698  31.812  1.00  0.00     0.074 A 
ATOM     55  C   UNL A   1      46.480  32.682  33.241  1.00  0.00     0.031 C 
ATOM     56  C   UNL A   1      43.511  26.643  32.896  1.00  0.00     0.029 A 
ATOM     57  C   UNL A   1      44.921  26.651  33.314  1.00  0.00     0.049 A 
ATOM     58  H   UNL A   1      46.056  28.512  33.226  1.00  0.00     0.167 HD
ATOM     59  C   UNL A   1      47.013  32.596  30.760  1.00  0.00     0.031 A 
ATOM     60  C   UNL A   1      45.791  25.540  33.594  1.00  0.00     0.031 A 
ATOM     61  C   UNL A   1      47.933  31.503  30.994  1.00  0.00     0.049 A 
ATOM     62  C   UNL A   1      47.044  25.924  32.943  1.00  0.00     0.074 A 
ATOM     63  C   UNL A   1      48.672  31.172  32.116  1.00  0.00     0.029 A 
ATOM     64  N   UNL A   1      47.757  30.334  30.273  1.00  0.00    -0.354 N 
ATOM     65  N   UNL A   1      47.203  25.913  31.657  1.00  0.00    -0.248 NA
ATOM     66  C   UNL A   1      48.180  26.362  33.733  1.00  0.00     0.031 C 
ATOM     67  C   UNL A   1      48.386  29.809  32.310  1.00  0.00     0.029 A 
ATOM     68  C   UNL A   1      48.066  29.254  31.081  1.00  0.00     0.049 A 
ATOM     69  H   UNL A   1      47.460  30.280  29.337  1.00  0.00     0.167 HD
ATOM     70  C   UNL A   1      48.120  26.910  31.498  1.00  0.00     0.074 A 
ATOM     71  C   UNL A   1      48.847  26.981  32.761  1.00  0.00     0.031 C 
ATOM     72  C   UNL A   1      47.808  27.911  30.632  1.00  0.00     0.031 A 
BRANCH  59  73
ATOM     73  C   UNL A   1      46.353  32.874  29.428  1.00  0.00    -0.014 A 
ATOM     74  C   UNL A   1      46.264  34.200  28.983  1.00  0.00     0.010 A 
ATOM     75  C   UNL A   1      45.743  31.867  28.642  1.00  0.00     0.010 A 
ATOM     76  C   UNL A   1      45.630  34.503  27.769  1.00  0.00     0.020 A 
ATOM     77  C   UNL A   1      45.091  32.165  27.444  1.00  0.00     0.020 A 
ATOM     78  C   UNL A   1      45.075  33.481  26.993  1.00  0.00     0.054 A 
BRANCH  78  79
ATOM     79  S   UNL A   1      44.382  33.879  25.366  1.00  0.00     0.124 S 
ATOM     80  O   UNL A   1      43.775  32.627  24.909  1.00  0.00    -0.237 OA
ATOM     81  O   UNL A   1      43.424  34.931  25.689  1.00  0.00    -0.237 OA
ATOM     82  O   UNL A   1      45.540  34.298  24.582  1.00  0.00    -0.744 OA
ENDBRANCH  78  79
ENDBRANCH  59  73
BRANCH  60  83
ATOM     83  C   UNL A   1      46.033  23.986  34.090  1.00  0.00    -0.014 A 
ATOM     84  C   UNL A   1      47.284  23.552  34.706  1.00  0.00     0.010 A 
ATOM     85  C   UNL A   1      44.969  23.124  34.418  1.00  0.00     0.010 A 
ATOM     86  C   UNL A   1      47.419  22.467  35.649  1.00  0.00     0.020 A 
ATOM     87  C   UNL A   1      45.099  22.018  35.348  1.00  0.00     0.020 A 
ATOM     88  C   UNL A   1      46.304  21.721  35.998  1.00  0.00     0.054 A 
BRANCH  88  89
ATOM     89  S   UNL A   1      46.379  20.504  37.397  1.00  0.00     0.124 S 
ATOM     90  O   UNL A   1      47.771  20.063  37.390  1.00  0.00    -0.237 OA
ATOM     91  O   UNL A   1      45.986  21.303  38.555  1.00  0.00    -0.237 OA
ATOM     92  O   UNL A   1      45.408  19.479  37.013  1.00  0.00    -0.744 OA
ENDBRANCH  88  89
ENDBRANCH  60  83
BRANCH  72  93
ATOM     93  C   UNL A   1      47.133  27.547  29.328  1.00  0.00    -0.014 A 
ATOM     94  C   UNL A   1      45.752  27.667  29.051  1.00  0.00     0.010 A 
ATOM     95  C   UNL A   1      47.944  26.975  28.335  1.00  0.00     0.010 A 
ATOM     96  C   UNL A   1      45.201  27.174  27.855  1.00  0.00     0.020 A 
ATOM     97  C   UNL A   1      47.413  26.519  27.125  1.00  0.00     0.020 A 
ATOM     98  C   UNL A   1      46.038  26.589  26.904  1.00  0.00     0.054 A 
BRANCH  98  99
ATOM     99  S   UNL A   1      45.314  25.861  25.408  1.00  0.00     0.124 S 
ATOM    100  O   UNL A   1      44.089  26.642  25.245  1.00  0.00    -0.237 OA
ATOM    101  O   UNL A   1      46.342  26.098  24.400  1.00  0.00    -0.237 OA
ATOM    102  O   UNL A   1      45.097  24.462  25.771  1.00  0.00    -0.744 OA
ENDBRANCH  98  99
ENDBRANCH  72  93
ENDBRANCH  46  47
ENDBRANCH  39  41
ENDBRANCH  38  39
ENDBRANCH  37  38
ENDBRANCH   1  37
TORSDOF 22
ENDMDL
MODEL 3
REMARK VINA RESULT:     -10.2      4.665      7.257
REMARK SMILES Cc1c(CC(=O)N[C@H](CO)C(=O)OCCOC(=O)c2ccc(-c3c4nc(c(-c5ccc(S(=O)(=O)[O-])cc5)c5ccc([nH]5)c(-c5ccc(S(=O)(=O)[O-])cc5)c5nc(c(-c6ccc(S(=O)(=O)[O-])cc6)c6ccc3[nH]6)C=C5)C=C4)cc2)cc(-c2ccc(S(C)(=O)=O)cc2)n1-c1ccc(F)cc1
REMARK SMILES IDX 14 1 13 2 11 3 12 4 8 5 7 6 5 7 6 8 4 10 3 11 1 12 2 13
REMARK SMILES IDX 91 14 79 15 80 16 92 17 93 18 98 19 94 20 97 21 95 22 96 23
REMARK SMILES IDX 81 24 82 25 90 26 83 27 89 28 84 29 85 30 86 31 87 32 88 33
REMARK SMILES IDX 9 34 10 35 15 37 16 38 17 39 18 40 19 41 20 42 78 43 21 44
REMARK SMILES IDX 77 45 22 46 23 47 24 48 71 49 25 50 76 51 70 52 72 53 26 54
REMARK SMILES IDX 75 55 69 56 68 57 27 59 57 60 38 61 56 62 39 63 42 64 55 65
REMARK SMILES IDX 73 66 40 67 41 68 54 70 74 71 43 72 28 73 29 74 37 75 30 76
REMARK SMILES IDX 36 77 31 78 32 79 33 80 34 81 35 82 58 83 59 84 67 85 60 86
REMARK SMILES IDX 66 87 61 88 62 89 63 90 64 91 65 92 44 93 45 94 53 95 46 96
REMARK SMILES IDX 52 97 47 98 48 99 49 100 50 101 51 102
REMARK H PARENT 7 9 10 36 72 58 42 69
REMARK Flexibility Score: inf
ROOT
ATOM      1  C   UNL A   1      32.782  29.153  25.966  1.00  0.00     0.274 C 
ENDROOT
BRANCH   1   2
ATOM      2  O   UNL A   1      33.165  29.339  24.546  1.00  0.00    -0.460 OA
BRANCH   2   3
ATOM      3  C   UNL A   1      32.426  29.110  23.433  1.00  0.00     0.331 C 
ATOM      4  O   UNL A   1      32.927  29.004  22.323  1.00  0.00    -0.250 OA
BRANCH   3   5
ATOM      5  C   UNL A   1      30.864  28.922  23.720  1.00  0.00     0.218 C 
BRANCH   5   6
ATOM      6  N   UNL A   1      30.420  27.783  24.563  1.00  0.00    -0.341 N 
ATOM      7  C   UNL A   1      30.053  26.518  24.211  1.00  0.00     0.225 C 
ATOM      8  O   UNL A   1      29.272  25.931  24.969  1.00  0.00    -0.275 OA
ATOM      9  H   UNL A   1      30.386  27.971  25.530  1.00  0.00     0.164 HD
BRANCH   7  10
ATOM     10  C   UNL A   1      30.680  25.796  23.034  1.00  0.00     0.137 C 
BRANCH  10  11
ATOM     11  C   UNL A   1      31.645  24.680  23.337  1.00  0.00    -0.017 A 
ATOM     12  C   UNL A   1      33.785  26.062  23.727  1.00  0.00     0.065 C 
ATOM     13  C   UNL A   1      32.996  24.803  23.626  1.00  0.00     0.024 A 
ATOM     14  N   UNL A   1      33.542  23.531  23.802  1.00  0.00    -0.314 N 
ATOM     15  C   UNL A   1      31.412  23.287  23.391  1.00  0.00     0.033 A 
ATOM     16  C   UNL A   1      32.566  22.578  23.599  1.00  0.00     0.053 A 
BRANCH  14  17
ATOM     17  C   UNL A   1      34.825  23.208  24.271  1.00  0.00     0.046 A 
ATOM     18  C   UNL A   1      35.765  22.691  23.369  1.00  0.00     0.029 A 
ATOM     19  C   UNL A   1      35.038  23.187  25.650  1.00  0.00     0.029 A 
ATOM     20  C   UNL A   1      36.932  22.127  23.860  1.00  0.00     0.041 A 
ATOM     21  C   UNL A   1      36.209  22.619  26.130  1.00  0.00     0.041 A 
ATOM     22  C   UNL A   1      37.141  22.094  25.235  1.00  0.00     0.123 A 
ATOM     23  F   UNL A   1      38.254  21.526  25.712  1.00  0.00    -0.207 F 
ENDBRANCH  14  17
BRANCH  16  24
ATOM     24  C   UNL A   1      32.659  21.127  23.842  1.00  0.00    -0.001 A 
ATOM     25  C   UNL A   1      32.347  20.211  22.826  1.00  0.00     0.011 A 
ATOM     26  C   UNL A   1      33.136  20.645  25.071  1.00  0.00     0.011 A 
ATOM     27  C   UNL A   1      32.500  18.839  23.034  1.00  0.00     0.021 A 
ATOM     28  C   UNL A   1      33.310  19.277  25.280  1.00  0.00     0.021 A 
ATOM     29  C   UNL A   1      32.983  18.383  24.262  1.00  0.00     0.067 A 
BRANCH  29  30
ATOM     30  S   UNL A   1      33.267  16.638  24.519  1.00  0.00     0.175 S 
ATOM     31  C   UNL A   1      34.875  16.640  25.302  1.00  0.00     0.163 C 
ATOM     32  O   UNL A   1      32.188  16.258  25.432  1.00  0.00    -0.224 OA
ATOM     33  O   UNL A   1      33.379  16.060  23.209  1.00  0.00    -0.224 OA
ENDBRANCH  29  30
ENDBRANCH  16  24
ENDBRANCH  10  11
ENDBRANCH   7  10
ENDBRANCH   5   6
BRANCH   5  34
ATOM     34  C   UNL A   1      29.797  29.075  22.587  1.00  0.00     0.193 C 
BRANCH  34  35
ATOM     35  O   UNL A   1      30.159  29.682  21.367  1.00  0.00    -0.394 OA
ATOM     36  H   UNL A   1      30.476  29.004  20.749  1.00  0.00     0.210 HD
ENDBRANCH  34  35
ENDBRANCH   5  34
ENDBRANCH   3   5
ENDBRANCH   2   3
ENDBRANCH   1   2
BRANCH   1  37
ATOM     37  C   UNL A   1      33.569  29.773  27.187  1.00  0.00     0.275 C 
BRANCH  37  38
ATOM     38  O   UNL A   1      34.970  29.408  27.487  1.00  0.00    -0.458 OA
BRANCH  38  39
ATOM     39  C   UNL A   1      35.852  30.424  27.829  1.00  0.00     0.338 C 
ATOM     40  O   UNL A   1      35.553  31.602  27.682  1.00  0.00    -0.246 OA
BRANCH  39  41
ATOM     41  C   UNL A   1      37.196  29.936  28.472  1.00  0.00     0.060 A 
ATOM     42  C   UNL A   1      37.181  29.383  29.740  1.00  0.00     0.016 A 
ATOM     43  C   UNL A   1      38.519  30.139  28.000  1.00  0.00     0.016 A 
ATOM     44  C   UNL A   1      38.402  28.908  30.405  1.00  0.00     0.010 A 
ATOM     45  C   UNL A   1      39.785  29.711  28.735  1.00  0.00     0.010 A 
ATOM     46  C   UNL A   1      39.794  29.009  29.965  1.00  0.00    -0.014 A 
BRANCH  46  47
ATOM     47  C   UNL A   1      41.054  28.731  31.158  1.00  0.00     0.031 A 
ATOM     48  C   UNL A   1      40.855  29.983  31.941  1.00  0.00     0.074 A 
ATOM     49  C   UNL A   1      42.236  28.018  31.594  1.00  0.00     0.049 A 
ATOM     50  N   UNL A   1      41.043  31.088  31.281  1.00  0.00    -0.248 NA
ATOM     51  C   UNL A   1      40.035  30.123  33.145  1.00  0.00     0.031 C 
ATOM     52  C   UNL A   1      43.054  27.018  30.860  1.00  0.00     0.029 A 
ATOM     53  N   UNL A   1      43.057  28.016  32.840  1.00  0.00    -0.354 N 
ATOM     54  C   UNL A   1      40.556  32.120  32.043  1.00  0.00     0.074 A 
ATOM     55  C   UNL A   1      39.792  31.443  33.096  1.00  0.00     0.031 C 
ATOM     56  C   UNL A   1      44.024  26.410  31.628  1.00  0.00     0.029 A 
ATOM     57  C   UNL A   1      44.078  26.923  33.005  1.00  0.00     0.049 A 
ATOM     58  H   UNL A   1      42.936  28.707  33.530  1.00  0.00     0.167 HD
ATOM     59  C   UNL A   1      41.448  33.141  32.191  1.00  0.00     0.031 A 
ATOM     60  C   UNL A   1      44.961  26.553  34.078  1.00  0.00     0.031 A 
ATOM     61  C   UNL A   1      42.357  32.836  33.276  1.00  0.00     0.049 A 
ATOM     62  C   UNL A   1      45.324  27.840  34.672  1.00  0.00     0.074 A 
ATOM     63  C   UNL A   1      42.108  32.370  34.555  1.00  0.00     0.029 A 
ATOM     64  N   UNL A   1      43.651  32.461  32.960  1.00  0.00    -0.354 N 
ATOM     65  N   UNL A   1      46.131  28.678  34.101  1.00  0.00    -0.248 NA
ATOM     66  C   UNL A   1      44.763  28.247  35.947  1.00  0.00     0.031 C 
ATOM     67  C   UNL A   1      42.985  31.279  34.685  1.00  0.00     0.029 A 
ATOM     68  C   UNL A   1      44.075  31.498  33.858  1.00  0.00     0.049 A 
ATOM     69  H   UNL A   1      44.185  32.823  32.216  1.00  0.00     0.167 HD
ATOM     70  C   UNL A   1      45.655  29.865  34.574  1.00  0.00     0.074 A 
ATOM     71  C   UNL A   1      45.007  29.552  35.843  1.00  0.00     0.031 C 
ATOM     72  C   UNL A   1      45.325  30.813  33.657  1.00  0.00     0.031 A 
BRANCH  59  73
ATOM     73  C   UNL A   1      41.881  33.742  30.872  1.00  0.00    -0.014 A 
ATOM     74  C   UNL A   1      43.210  33.579  30.460  1.00  0.00     0.010 A 
ATOM     75  C   UNL A   1      41.029  34.536  30.068  1.00  0.00     0.010 A 
ATOM     76  C   UNL A   1      43.659  34.149  29.259  1.00  0.00     0.020 A 
ATOM     77  C   UNL A   1      41.475  35.126  28.883  1.00  0.00     0.020 A 
ATOM     78  C   UNL A   1      42.782  34.893  28.464  1.00  0.00     0.054 A 
BRANCH  78  79
ATOM     79  S   UNL A   1      43.346  35.504  26.854  1.00  0.00     0.124 S 
ATOM     80  O   UNL A   1      43.156  34.373  25.944  1.00  0.00    -0.237 OA
ATOM     81  O   UNL A   1      42.443  36.626  26.618  1.00  0.00    -0.237 OA
ATOM     82  O   UNL A   1      44.745  35.857  27.080  1.00  0.00    -0.744 OA
ENDBRANCH  78  79
ENDBRANCH  59  73
BRANCH  60  83
ATOM     83  C   UNL A   1      45.922  25.451  34.840  1.00  0.00    -0.014 A 
ATOM     84  C   UNL A   1      45.510  24.779  36.070  1.00  0.00     0.010 A 
ATOM     85  C   UNL A   1      46.923  24.726  34.165  1.00  0.00     0.010 A 
ATOM     86  C   UNL A   1      45.948  23.470  36.494  1.00  0.00     0.020 A 
ATOM     87  C   UNL A   1      47.385  23.419  34.594  1.00  0.00     0.020 A 
ATOM     88  C   UNL A   1      46.866  22.773  35.724  1.00  0.00     0.054 A 
BRANCH  88  89
ATOM     89  S   UNL A   1      47.247  20.993  36.086  1.00  0.00     0.124 S 
ATOM     90  O   UNL A   1      48.435  21.064  36.932  1.00  0.00    -0.237 OA
ATOM     91  O   UNL A   1      46.035  20.522  36.753  1.00  0.00    -0.237 OA
ATOM     92  O   UNL A   1      47.471  20.414  34.761  1.00  0.00    -0.744 OA
ENDBRANCH  88  89
ENDBRANCH  60  83
BRANCH  72  93
ATOM     93  C   UNL A   1      46.235  31.002  32.462  1.00  0.00    -0.014 A 
ATOM     94  C   UNL A   1      47.501  31.630  32.478  1.00  0.00     0.010 A 
ATOM     95  C   UNL A   1      45.740  30.575  31.218  1.00  0.00     0.010 A 
ATOM     96  C   UNL A   1      48.209  31.877  31.289  1.00  0.00     0.020 A 
ATOM     97  C   UNL A   1      46.455  30.780  30.034  1.00  0.00     0.020 A 
ATOM     98  C   UNL A   1      47.671  31.460  30.071  1.00  0.00     0.054 A 
BRANCH  98  99
ATOM     99  S   UNL A   1      48.534  31.871  28.529  1.00  0.00     0.124 S 
ATOM    100  O   UNL A   1      48.195  33.282  28.350  1.00  0.00    -0.237 OA
ATOM    101  O   UNL A   1      49.932  31.605  28.857  1.00  0.00    -0.237 OA
ATOM    102  O   UNL A   1      47.935  30.973  27.543  1.00  0.00    -0.744 OA
ENDBRANCH  98  99
ENDBRANCH  72  93
ENDBRANCH  46  47
ENDBRANCH  39  41
ENDBRANCH  38  39
ENDBRANCH  37  38
ENDBRANCH   1  37
TORSDOF 22
ENDMDL
