MODEL 1
REMARK VINA RESULT:      -9.5      0.000      0.000
REMARK SMILES C[C@@H](C(=O)OCCOC(=O)c1ccc(-c2c3nc(c(-c4ccc(S(=O)(=O)[O-])cc4)c4ccc([nH]4)c(-c4ccc(S(=O)(=O)[O-])cc4)c4nc(c(-c5ccc(S(=O)(=O)[O-])cc5)c5ccc2[nH]5)C=C4)C=C3)cc1)c1cccn(C(F)F)c1=O
REMARK SMILES IDX 7 1 6 2 5 3 3 4 4 5 2 6 1 7 71 8 72 9 79 10 73 11 75 12
REMARK SMILES IDX 80 13 74 14 76 15 77 16 78 17 8 18 9 19 10 20 11 21 12 22
REMARK SMILES IDX 70 23 13 24 69 25 14 26 15 27 16 28 63 29 17 30 68 31 62 32
REMARK SMILES IDX 64 33 18 34 67 35 61 36 60 37 19 39 49 40 30 41 48 42 31 43
REMARK SMILES IDX 34 44 47 45 65 46 32 47 33 48 46 50 66 51 35 52 20 53 21 54
REMARK SMILES IDX 29 55 22 56 28 57 23 58 24 59 25 60 26 61 27 62 50 63 51 64
REMARK SMILES IDX 59 65 52 66 58 67 53 68 54 69 55 70 56 71 57 72 36 73 37 74
REMARK SMILES IDX 45 75 38 76 44 77 39 78 40 79 41 80 42 81 43 82
REMARK H PARENT 64 38 34 49
REMARK Flexibility Score: inf
ROOT
ATOM      1  C   UNL A   1      36.400  23.656  25.336  1.00  0.00     0.275 C 
ENDROOT
BRANCH   1   2
ATOM      2  C   UNL A   1      35.425  22.933  24.401  1.00  0.00     0.274 C 
BRANCH   2   3
ATOM      3  O   UNL A   1      35.252  23.649  23.162  1.00  0.00    -0.462 OA
BRANCH   3   4
ATOM      4  C   UNL A   1      33.978  23.729  22.677  1.00  0.00     0.313 C 
ATOM      5  O   UNL A   1      33.670  23.250  21.593  1.00  0.00    -0.252 OA
BRANCH   4   6
ATOM      6  C   UNL A   1      33.032  24.571  23.588  1.00  0.00     0.132 C 
ATOM      7  C   UNL A   1      31.559  24.239  23.251  1.00  0.00     0.025 C 
BRANCH   6   8
ATOM      8  C   UNL A   1      33.356  26.084  23.609  1.00  0.00     0.032 A 
ATOM      9  C   UNL A   1      33.498  26.873  22.522  1.00  0.00     0.012 A 
ATOM     10  C   UNL A   1      33.571  26.779  24.946  1.00  0.00     0.259 A 
ATOM     11  C   UNL A   1      33.691  28.297  22.593  1.00  0.00     0.019 A 
ATOM     12  N   UNL A   1      33.678  28.161  24.936  1.00  0.00    -0.258 N 
ATOM     13  O   UNL A   1      33.654  26.130  25.985  1.00  0.00    -0.269 OA
ATOM     14  C   UNL A   1      33.732  28.903  23.778  1.00  0.00     0.095 A 
BRANCH  12  15
ATOM     15  C   UNL A   1      33.721  28.845  26.206  1.00  0.00     0.451 C 
ATOM     16  F   UNL A   1      34.964  28.757  26.749  1.00  0.00    -0.185 F 
ATOM     17  F   UNL A   1      33.481  30.167  26.006  1.00  0.00    -0.185 F 
ENDBRANCH  12  15
ENDBRANCH   6   8
ENDBRANCH   4   6
ENDBRANCH   3   4
ENDBRANCH   2   3
ENDBRANCH   1   2
BRANCH   1  18
ATOM     18  O   UNL A   1      37.773  23.393  24.990  1.00  0.00    -0.458 OA
BRANCH  18  19
ATOM     19  C   UNL A   1      38.567  23.046  26.034  1.00  0.00     0.338 C 
ATOM     20  O   UNL A   1      38.926  21.920  26.331  1.00  0.00    -0.246 OA
BRANCH  19  21
ATOM     21  C   UNL A   1      39.104  24.255  26.693  1.00  0.00     0.060 A 
ATOM     22  C   UNL A   1      38.716  24.483  28.015  1.00  0.00     0.016 A 
ATOM     23  C   UNL A   1      39.931  25.174  26.042  1.00  0.00     0.016 A 
ATOM     24  C   UNL A   1      39.188  25.591  28.710  1.00  0.00     0.010 A 
ATOM     25  C   UNL A   1      40.383  26.310  26.733  1.00  0.00     0.010 A 
ATOM     26  C   UNL A   1      40.025  26.516  28.077  1.00  0.00    -0.014 A 
BRANCH  26  27
ATOM     27  C   UNL A   1      40.438  27.723  28.832  1.00  0.00     0.031 A 
ATOM     28  C   UNL A   1      41.833  27.804  29.383  1.00  0.00     0.074 A 
ATOM     29  C   UNL A   1      39.616  28.784  28.931  1.00  0.00     0.049 A 
ATOM     30  N   UNL A   1      42.400  28.775  30.049  1.00  0.00    -0.248 NA
ATOM     31  C   UNL A   1      42.704  26.647  29.133  1.00  0.00     0.031 C 
ATOM     32  C   UNL A   1      38.281  28.875  28.342  1.00  0.00     0.029 A 
ATOM     33  N   UNL A   1      39.795  30.000  29.543  1.00  0.00    -0.354 N 
ATOM     34  C   UNL A   1      43.696  28.344  30.309  1.00  0.00     0.074 A 
ATOM     35  C   UNL A   1      43.828  27.026  29.725  1.00  0.00     0.031 C 
ATOM     36  C   UNL A   1      37.768  30.088  28.609  1.00  0.00     0.029 A 
ATOM     37  C   UNL A   1      38.712  30.842  29.435  1.00  0.00     0.049 A 
ATOM     38  H   UNL A   1      40.622  30.247  30.018  1.00  0.00     0.167 HD
ATOM     39  C   UNL A   1      44.680  28.981  30.987  1.00  0.00     0.031 A 
ATOM     40  C   UNL A   1      38.497  32.065  29.963  1.00  0.00     0.031 A 
ATOM     41  C   UNL A   1      44.535  30.272  31.608  1.00  0.00     0.049 A 
ATOM     42  C   UNL A   1      39.563  32.693  30.827  1.00  0.00     0.074 A 
ATOM     43  C   UNL A   1      45.463  30.972  32.359  1.00  0.00     0.029 A 
ATOM     44  N   UNL A   1      43.388  31.049  31.564  1.00  0.00    -0.354 N 
ATOM     45  N   UNL A   1      40.773  32.263  31.091  1.00  0.00    -0.248 NA
ATOM     46  C   UNL A   1      39.227  33.970  31.475  1.00  0.00     0.031 C 
ATOM     47  C   UNL A   1      44.853  32.140  32.828  1.00  0.00     0.029 A 
ATOM     48  C   UNL A   1      43.571  32.205  32.306  1.00  0.00     0.049 A 
ATOM     49  H   UNL A   1      42.565  30.815  31.078  1.00  0.00     0.167 HD
ATOM     50  C   UNL A   1      41.350  33.227  31.915  1.00  0.00     0.074 A 
ATOM     51  C   UNL A   1      40.363  34.271  32.091  1.00  0.00     0.031 C 
ATOM     52  C   UNL A   1      42.584  33.243  32.476  1.00  0.00     0.031 A 
BRANCH  39  53
ATOM     53  C   UNL A   1      45.975  28.239  31.174  1.00  0.00    -0.014 A 
ATOM     54  C   UNL A   1      47.045  28.383  30.273  1.00  0.00     0.010 A 
ATOM     55  C   UNL A   1      46.121  27.386  32.283  1.00  0.00     0.010 A 
ATOM     56  C   UNL A   1      48.223  27.653  30.457  1.00  0.00     0.020 A 
ATOM     57  C   UNL A   1      47.307  26.677  32.486  1.00  0.00     0.020 A 
ATOM     58  C   UNL A   1      48.343  26.801  31.559  1.00  0.00     0.054 A 
BRANCH  58  59
ATOM     59  S   UNL A   1      49.881  25.865  31.775  1.00  0.00     0.124 S 
ATOM     60  O   UNL A   1      50.820  26.914  32.164  1.00  0.00    -0.237 OA
ATOM     61  O   UNL A   1      49.531  24.913  32.827  1.00  0.00    -0.237 OA
ATOM     62  O   UNL A   1      50.118  25.275  30.459  1.00  0.00    -0.744 OA
ENDBRANCH  58  59
ENDBRANCH  39  53
BRANCH  40  63
ATOM     63  C   UNL A   1      37.196  32.763  29.747  1.00  0.00    -0.014 A 
ATOM     64  C   UNL A   1      36.952  33.490  28.569  1.00  0.00     0.010 A 
ATOM     65  C   UNL A   1      36.205  32.736  30.745  1.00  0.00     0.010 A 
ATOM     66  C   UNL A   1      35.754  34.192  28.403  1.00  0.00     0.020 A 
ATOM     67  C   UNL A   1      34.993  33.408  30.570  1.00  0.00     0.020 A 
ATOM     68  C   UNL A   1      34.780  34.144  29.405  1.00  0.00     0.054 A 
BRANCH  68  69
ATOM     69  S   UNL A   1      33.216  35.032  29.154  1.00  0.00     0.124 S 
ATOM     70  O   UNL A   1      33.680  36.350  28.733  1.00  0.00    -0.237 OA
ATOM     71  O   UNL A   1      32.562  34.230  28.124  1.00  0.00    -0.237 OA
ATOM     72  O   UNL A   1      32.581  34.982  30.469  1.00  0.00    -0.744 OA
ENDBRANCH  68  69
ENDBRANCH  40  63
BRANCH  52  73
ATOM     73  C   UNL A   1      42.967  34.444  33.306  1.00  0.00    -0.014 A 
ATOM     74  C   UNL A   1      42.728  34.486  34.693  1.00  0.00     0.010 A 
ATOM     75  C   UNL A   1      43.641  35.519  32.699  1.00  0.00     0.010 A 
ATOM     76  C   UNL A   1      43.133  35.592  35.448  1.00  0.00     0.020 A 
ATOM     77  C   UNL A   1      44.076  36.612  33.455  1.00  0.00     0.020 A 
ATOM     78  C   UNL A   1      43.807  36.647  34.824  1.00  0.00     0.054 A 
BRANCH  78  79
ATOM     79  S   UNL A   1      44.370  38.044  35.836  1.00  0.00     0.124 S 
ATOM     80  O   UNL A   1      43.913  39.190  35.055  1.00  0.00    -0.237 OA
ATOM     81  O   UNL A   1      43.672  37.826  37.100  1.00  0.00    -0.237 OA
ATOM     82  O   UNL A   1      45.820  37.869  35.894  1.00  0.00    -0.744 OA
ENDBRANCH  78  79
ENDBRANCH  52  73
ENDBRANCH  26  27
ENDBRANCH  19  21
ENDBRANCH  18  19
ENDBRANCH   1  18
TORSDOF 16
ENDMDL
MODEL 2
REMARK VINA RESULT:      -9.5      3.762      4.703
REMARK SMILES C[C@@H](C(=O)OCCOC(=O)c1ccc(-c2c3nc(c(-c4ccc(S(=O)(=O)[O-])cc4)c4ccc([nH]4)c(-c4ccc(S(=O)(=O)[O-])cc4)c4nc(c(-c5ccc(S(=O)(=O)[O-])cc5)c5ccc2[nH]5)C=C4)C=C3)cc1)c1cccn(C(F)F)c1=O
REMARK SMILES IDX 7 1 6 2 5 3 3 4 4 5 2 6 1 7 71 8 72 9 79 10 73 11 75 12
REMARK SMILES IDX 80 13 74 14 76 15 77 16 78 17 8 18 9 19 10 20 11 21 12 22
REMARK SMILES IDX 70 23 13 24 69 25 14 26 15 27 16 28 63 29 17 30 68 31 62 32
REMARK SMILES IDX 64 33 18 34 67 35 61 36 60 37 19 39 49 40 30 41 48 42 31 43
REMARK SMILES IDX 34 44 47 45 65 46 32 47 33 48 46 50 66 51 35 52 20 53 21 54
REMARK SMILES IDX 29 55 22 56 28 57 23 58 24 59 25 60 26 61 27 62 50 63 51 64
REMARK SMILES IDX 59 65 52 66 58 67 53 68 54 69 55 70 56 71 57 72 36 73 37 74
REMARK SMILES IDX 45 75 38 76 44 77 39 78 40 79 41 80 42 81 43 82
REMARK H PARENT 64 38 34 49
REMARK Flexibility Score: inf
ROOT
ATOM      1  C   UNL A   1      41.322  22.219  26.119  1.00  0.00     0.275 C 
ENDROOT
BRANCH   1   2
ATOM      2  C   UNL A   1      40.256  21.119  26.119  1.00  0.00     0.274 C 
BRANCH   2   3
ATOM      3  O   UNL A   1      38.943  21.656  26.378  1.00  0.00    -0.462 OA
BRANCH   3   4
ATOM      4  C   UNL A   1      38.029  21.539  25.371  1.00  0.00     0.313 C 
ATOM      5  O   UNL A   1      37.838  20.476  24.793  1.00  0.00    -0.252 OA
BRANCH   4   6
ATOM      6  C   UNL A   1      37.367  22.899  24.988  1.00  0.00     0.132 C 
ATOM      7  C   UNL A   1      37.535  23.902  26.154  1.00  0.00     0.025 C 
BRANCH   6   8
ATOM      8  C   UNL A   1      35.919  22.772  24.460  1.00  0.00     0.032 A 
ATOM      9  C   UNL A   1      35.458  23.282  23.297  1.00  0.00     0.012 A 
ATOM     10  C   UNL A   1      34.881  22.045  25.303  1.00  0.00     0.259 A 
ATOM     11  C   UNL A   1      34.131  23.046  22.795  1.00  0.00     0.019 A 
ATOM     12  N   UNL A   1      33.648  21.793  24.721  1.00  0.00    -0.258 N 
ATOM     13  O   UNL A   1      35.134  21.707  26.457  1.00  0.00    -0.269 OA
ATOM     14  C   UNL A   1      33.286  22.284  23.487  1.00  0.00     0.095 A 
BRANCH  12  15
ATOM     15  C   UNL A   1      32.714  20.967  25.446  1.00  0.00     0.451 C 
ATOM     16  F   UNL A   1      31.816  21.741  26.112  1.00  0.00    -0.185 F 
ATOM     17  F   UNL A   1      31.999  20.225  24.561  1.00  0.00    -0.185 F 
ENDBRANCH  12  15
ENDBRANCH   6   8
ENDBRANCH   4   6
ENDBRANCH   3   4
ENDBRANCH   2   3
ENDBRANCH   1   2
BRANCH   1  18
ATOM     18  O   UNL A   1      41.007  23.275  27.046  1.00  0.00    -0.458 OA
BRANCH  18  19
ATOM     19  C   UNL A   1      41.421  24.510  26.665  1.00  0.00     0.338 C 
ATOM     20  O   UNL A   1      41.861  24.823  25.572  1.00  0.00    -0.246 OA
BRANCH  19  21
ATOM     21  C   UNL A   1      41.104  25.503  27.712  1.00  0.00     0.060 A 
ATOM     22  C   UNL A   1      42.095  26.438  28.020  1.00  0.00     0.016 A 
ATOM     23  C   UNL A   1      39.897  25.510  28.414  1.00  0.00     0.016 A 
ATOM     24  C   UNL A   1      41.870  27.413  28.985  1.00  0.00     0.010 A 
ATOM     25  C   UNL A   1      39.682  26.476  29.412  1.00  0.00     0.010 A 
ATOM     26  C   UNL A   1      40.664  27.443  29.691  1.00  0.00    -0.014 A 
BRANCH  26  27
ATOM     27  C   UNL A   1      40.501  28.451  30.766  1.00  0.00     0.031 A 
ATOM     28  C   UNL A   1      41.431  28.428  31.944  1.00  0.00     0.074 A 
ATOM     29  C   UNL A   1      39.604  29.447  30.640  1.00  0.00     0.049 A 
ATOM     30  N   UNL A   1      41.474  29.229  32.976  1.00  0.00    -0.248 NA
ATOM     31  C   UNL A   1      42.456  27.374  31.949  1.00  0.00     0.031 C 
ATOM     32  C   UNL A   1      38.721  29.648  29.492  1.00  0.00     0.029 A 
ATOM     33  N   UNL A   1      39.305  30.493  31.478  1.00  0.00    -0.354 N 
ATOM     34  C   UNL A   1      42.526  28.773  33.761  1.00  0.00     0.074 A 
ATOM     35  C   UNL A   1      43.093  27.626  33.083  1.00  0.00     0.031 C 
ATOM     36  C   UNL A   1      37.991  30.758  29.692  1.00  0.00     0.029 A 
ATOM     37  C   UNL A   1      38.312  31.318  31.005  1.00  0.00     0.049 A 
ATOM     38  H   UNL A   1      39.760  30.638  32.340  1.00  0.00     0.167 HD
ATOM     39  C   UNL A   1      42.967  29.254  34.948  1.00  0.00     0.031 A 
ATOM     40  C   UNL A   1      37.712  32.383  31.576  1.00  0.00     0.031 A 
ATOM     41  C   UNL A   1      42.375  30.365  35.645  1.00  0.00     0.049 A 
ATOM     42  C   UNL A   1      38.135  32.815  32.959  1.00  0.00     0.074 A 
ATOM     43  C   UNL A   1      42.724  30.889  36.877  1.00  0.00     0.029 A 
ATOM     44  N   UNL A   1      41.303  31.111  35.183  1.00  0.00    -0.354 N 
ATOM     45  N   UNL A   1      39.111  32.356  33.706  1.00  0.00    -0.248 NA
ATOM     46  C   UNL A   1      37.365  33.903  33.582  1.00  0.00     0.031 C 
ATOM     47  C   UNL A   1      41.818  31.907  37.191  1.00  0.00     0.029 A 
ATOM     48  C   UNL A   1      40.953  32.069  36.121  1.00  0.00     0.049 A 
ATOM     49  H   UNL A   1      40.855  30.981  34.315  1.00  0.00     0.167 HD
ATOM     50  C   UNL A   1      39.087  33.115  34.874  1.00  0.00     0.074 A 
ATOM     51  C   UNL A   1      38.012  34.074  34.727  1.00  0.00     0.031 C 
ATOM     52  C   UNL A   1      39.882  33.023  35.968  1.00  0.00     0.031 A 
BRANCH  39  53
ATOM     53  C   UNL A   1      44.094  28.510  35.612  1.00  0.00    -0.014 A 
ATOM     54  C   UNL A   1      45.439  28.858  35.392  1.00  0.00     0.010 A 
ATOM     55  C   UNL A   1      43.793  27.447  36.482  1.00  0.00     0.010 A 
ATOM     56  C   UNL A   1      46.464  28.126  35.999  1.00  0.00     0.020 A 
ATOM     57  C   UNL A   1      44.814  26.731  37.112  1.00  0.00     0.020 A 
ATOM     58  C   UNL A   1      46.144  27.064  36.850  1.00  0.00     0.054 A 
BRANCH  58  59
ATOM     59  S   UNL A   1      47.490  26.129  37.625  1.00  0.00     0.124 S 
ATOM     60  O   UNL A   1      48.605  27.069  37.527  1.00  0.00    -0.237 OA
ATOM     61  O   UNL A   1      46.983  25.895  38.974  1.00  0.00    -0.237 OA
ATOM     62  O   UNL A   1      47.609  24.935  36.791  1.00  0.00    -0.744 OA
ENDBRANCH  58  59
ENDBRANCH  39  53
BRANCH  40  63
ATOM     63  C   UNL A   1      36.599  33.090  30.876  1.00  0.00    -0.014 A 
ATOM     64  C   UNL A   1      36.857  33.954  29.798  1.00  0.00     0.010 A 
ATOM     65  C   UNL A   1      35.272  32.930  31.315  1.00  0.00     0.010 A 
ATOM     66  C   UNL A   1      35.815  34.660  29.188  1.00  0.00     0.020 A 
ATOM     67  C   UNL A   1      34.223  33.607  30.689  1.00  0.00     0.020 A 
ATOM     68  C   UNL A   1      34.503  34.480  29.637  1.00  0.00     0.054 A 
BRANCH  68  69
ATOM     69  S   UNL A   1      33.159  35.376  28.808  1.00  0.00     0.124 S 
ATOM     70  O   UNL A   1      32.421  35.929  29.938  1.00  0.00    -0.237 OA
ATOM     71  O   UNL A   1      33.886  36.344  27.990  1.00  0.00    -0.237 OA
ATOM     72  O   UNL A   1      32.466  34.332  28.057  1.00  0.00    -0.744 OA
ENDBRANCH  68  69
ENDBRANCH  40  63
BRANCH  52  73
ATOM     73  C   UNL A   1      39.656  34.008  37.090  1.00  0.00    -0.014 A 
ATOM     74  C   UNL A   1      38.895  33.669  38.224  1.00  0.00     0.010 A 
ATOM     75  C   UNL A   1      40.277  35.269  37.039  1.00  0.00     0.010 A 
ATOM     76  C   UNL A   1      38.738  34.584  39.271  1.00  0.00     0.020 A 
ATOM     77  C   UNL A   1      40.149  36.175  38.096  1.00  0.00     0.020 A 
ATOM     78  C   UNL A   1      39.369  35.830  39.201  1.00  0.00     0.054 A 
BRANCH  78  79
ATOM     79  S   UNL A   1      39.194  36.978  40.597  1.00  0.00     0.124 S 
ATOM     80  O   UNL A   1      38.348  38.023  40.028  1.00  0.00    -0.237 OA
ATOM     81  O   UNL A   1      38.564  36.146  41.618  1.00  0.00    -0.237 OA
ATOM     82  O   UNL A   1      40.568  37.379  40.890  1.00  0.00    -0.744 OA
ENDBRANCH  78  79
ENDBRANCH  52  73
ENDBRANCH  26  27
ENDBRANCH  19  21
ENDBRANCH  18  19
ENDBRANCH   1  18
TORSDOF 16
ENDMDL
MODEL 3
REMARK VINA RESULT:      -9.4      4.112      9.936
REMARK SMILES C[C@@H](C(=O)OCCOC(=O)c1ccc(-c2c3nc(c(-c4ccc(S(=O)(=O)[O-])cc4)c4ccc([nH]4)c(-c4ccc(S(=O)(=O)[O-])cc4)c4nc(c(-c5ccc(S(=O)(=O)[O-])cc5)c5ccc2[nH]5)C=C4)C=C3)cc1)c1cccn(C(F)F)c1=O
REMARK SMILES IDX 7 1 6 2 5 3 3 4 4 5 2 6 1 7 71 8 72 9 79 10 73 11 75 12
REMARK SMILES IDX 80 13 74 14 76 15 77 16 78 17 8 18 9 19 10 20 11 21 12 22
REMARK SMILES IDX 70 23 13 24 69 25 14 26 15 27 16 28 63 29 17 30 68 31 62 32
REMARK SMILES IDX 64 33 18 34 67 35 61 36 60 37 19 39 49 40 30 41 48 42 31 43
REMARK SMILES IDX 34 44 47 45 65 46 32 47 33 48 46 50 66 51 35 52 20 53 21 54
REMARK SMILES IDX 29 55 22 56 28 57 23 58 24 59 25 60 26 61 27 62 50 63 51 64
REMARK SMILES IDX 59 65 52 66 58 67 53 68 54 69 55 70 56 71 57 72 36 73 37 74
REMARK SMILES IDX 45 75 38 76 44 77 39 78 40 79 41 80 42 81 43 82
REMARK H PARENT 64 38 34 49
REMARK Flexibility Score: inf
ROOT
ATOM      1  C   UNL A   1      44.073  24.171  25.153  1.00  0.00     0.275 C 
ENDROOT
BRANCH   1   2
ATOM      2  C   UNL A   1      43.909  22.678  24.854  1.00  0.00     0.274 C 
BRANCH   2   3
ATOM      3  O   UNL A   1      42.593  22.209  25.214  1.00  0.00    -0.462 OA
BRANCH   3   4
ATOM      4  C   UNL A   1      42.524  20.968  25.779  1.00  0.00     0.313 C 
ATOM      5  O   UNL A   1      43.279  20.063  25.444  1.00  0.00    -0.252 OA
BRANCH   4   6
ATOM      6  C   UNL A   1      41.337  20.821  26.781  1.00  0.00     0.132 C 
ATOM      7  C   UNL A   1      41.562  19.577  27.672  1.00  0.00     0.025 C 
BRANCH   6   8
ATOM      8  C   UNL A   1      39.939  20.887  26.120  1.00  0.00     0.032 A 
ATOM      9  C   UNL A   1      39.324  19.871  25.479  1.00  0.00     0.012 A 
ATOM     10  C   UNL A   1      39.167  22.199  26.144  1.00  0.00     0.259 A 
ATOM     11  C   UNL A   1      37.978  19.946  24.975  1.00  0.00     0.019 A 
ATOM     12  N   UNL A   1      37.852  22.173  25.706  1.00  0.00    -0.258 N 
ATOM     13  O   UNL A   1      39.702  23.236  26.529  1.00  0.00    -0.269 OA
ATOM     14  C   UNL A   1      37.271  21.063  25.137  1.00  0.00     0.095 A 
BRANCH  12  15
ATOM     15  C   UNL A   1      37.060  23.367  25.873  1.00  0.00     0.451 C 
ATOM     16  F   UNL A   1      36.923  24.013  24.684  1.00  0.00    -0.185 F 
ATOM     17  F   UNL A   1      35.808  23.019  26.267  1.00  0.00    -0.185 F 
ENDBRANCH  12  15
ENDBRANCH   6   8
ENDBRANCH   4   6
ENDBRANCH   3   4
ENDBRANCH   2   3
ENDBRANCH   1   2
BRANCH   1  18
ATOM     18  O   UNL A   1      43.124  24.633  26.133  1.00  0.00    -0.458 OA
BRANCH  18  19
ATOM     19  C   UNL A   1      42.517  25.807  25.829  1.00  0.00     0.338 C 
ATOM     20  O   UNL A   1      42.170  26.180  24.722  1.00  0.00    -0.246 OA
BRANCH  19  21
ATOM     21  C   UNL A   1      42.158  26.534  27.065  1.00  0.00     0.060 A 
ATOM     22  C   UNL A   1      42.778  27.767  27.278  1.00  0.00     0.016 A 
ATOM     23  C   UNL A   1      41.276  26.023  28.020  1.00  0.00     0.016 A 
ATOM     24  C   UNL A   1      42.485  28.519  28.410  1.00  0.00     0.010 A 
ATOM     25  C   UNL A   1      41.004  26.768  29.180  1.00  0.00     0.010 A 
ATOM     26  C   UNL A   1      41.597  28.028  29.373  1.00  0.00    -0.014 A 
BRANCH  26  27
ATOM     27  C   UNL A   1      41.377  28.829  30.601  1.00  0.00     0.031 A 
ATOM     28  C   UNL A   1      40.232  29.799  30.652  1.00  0.00     0.074 A 
ATOM     29  C   UNL A   1      42.122  28.613  31.702  1.00  0.00     0.049 A 
ATOM     30  N   UNL A   1      39.852  30.575  31.633  1.00  0.00    -0.248 NA
ATOM     31  C   UNL A   1      39.398  29.892  29.444  1.00  0.00     0.031 C 
ATOM     32  C   UNL A   1      43.187  27.619  31.818  1.00  0.00     0.029 A 
ATOM     33  N   UNL A   1      42.076  29.202  32.941  1.00  0.00    -0.354 N 
ATOM     34  C   UNL A   1      38.738  31.258  31.160  1.00  0.00     0.074 A 
ATOM     35  C   UNL A   1      38.504  30.801  29.806  1.00  0.00     0.031 C 
ATOM     36  C   UNL A   1      43.685  27.657  33.066  1.00  0.00     0.029 A 
ATOM     37  C   UNL A   1      43.013  28.714  33.823  1.00  0.00     0.049 A 
ATOM     38  H   UNL A   1      41.433  29.910  33.178  1.00  0.00     0.167 HD
ATOM     39  C   UNL A   1      37.989  32.193  31.790  1.00  0.00     0.031 A 
ATOM     40  C   UNL A   1      43.313  29.095  35.082  1.00  0.00     0.031 A 
ATOM     41  C   UNL A   1      38.247  32.682  33.120  1.00  0.00     0.049 A 
ATOM     42  C   UNL A   1      42.547  30.233  35.711  1.00  0.00     0.074 A 
ATOM     43  C   UNL A   1      37.571  33.666  33.819  1.00  0.00     0.029 A 
ATOM     44  N   UNL A   1      39.270  32.238  33.943  1.00  0.00    -0.354 N 
ATOM     45  N   UNL A   1      41.514  30.893  35.243  1.00  0.00    -0.248 NA
ATOM     46  C   UNL A   1      42.996  30.686  37.036  1.00  0.00     0.031 C 
ATOM     47  C   UNL A   1      38.228  33.865  35.037  1.00  0.00     0.029 A 
ATOM     48  C   UNL A   1      39.266  32.952  35.130  1.00  0.00     0.049 A 
ATOM     49  H   UNL A   1      39.905  31.520  33.719  1.00  0.00     0.167 HD
ATOM     50  C   UNL A   1      41.177  31.821  36.225  1.00  0.00     0.074 A 
ATOM     51  C   UNL A   1      42.103  31.625  37.320  1.00  0.00     0.031 C 
ATOM     52  C   UNL A   1      40.191  32.751  36.219  1.00  0.00     0.031 A 
BRANCH  39  53
ATOM     53  C   UNL A   1      36.870  32.820  31.003  1.00  0.00    -0.014 A 
ATOM     54  C   UNL A   1      37.101  33.877  30.105  1.00  0.00     0.010 A 
ATOM     55  C   UNL A   1      35.562  32.328  31.164  1.00  0.00     0.010 A 
ATOM     56  C   UNL A   1      36.034  34.459  29.413  1.00  0.00     0.020 A 
ATOM     57  C   UNL A   1      34.498  32.887  30.453  1.00  0.00     0.020 A 
ATOM     58  C   UNL A   1      34.739  33.963  29.597  1.00  0.00     0.054 A 
BRANCH  58  59
ATOM     59  S   UNL A   1      33.372  34.735  28.690  1.00  0.00     0.124 S 
ATOM     60  O   UNL A   1      32.952  33.654  27.801  1.00  0.00    -0.237 OA
ATOM     61  O   UNL A   1      32.431  35.073  29.754  1.00  0.00    -0.237 OA
ATOM     62  O   UNL A   1      33.995  35.878  28.027  1.00  0.00    -0.744 OA
ENDBRANCH  58  59
ENDBRANCH  39  53
BRANCH  40  63
ATOM     63  C   UNL A   1      44.430  28.441  35.824  1.00  0.00    -0.014 A 
ATOM     64  C   UNL A   1      44.192  27.345  36.672  1.00  0.00     0.010 A 
ATOM     65  C   UNL A   1      45.741  28.942  35.715  1.00  0.00     0.010 A 
ATOM     66  C   UNL A   1      45.236  26.779  37.411  1.00  0.00     0.020 A 
ATOM     67  C   UNL A   1      46.793  28.359  36.425  1.00  0.00     0.020 A 
ATOM     68  C   UNL A   1      46.531  27.288  37.280  1.00  0.00     0.054 A 
BRANCH  68  69
ATOM     69  S   UNL A   1      47.879  26.515  38.219  1.00  0.00     0.124 S 
ATOM     70  O   UNL A   1      48.494  25.655  37.214  1.00  0.00    -0.237 OA
ATOM     71  O   UNL A   1      48.671  27.668  38.638  1.00  0.00    -0.237 OA
ATOM     72  O   UNL A   1      47.184  25.819  39.300  1.00  0.00    -0.744 OA
ENDBRANCH  68  69
ENDBRANCH  40  63
BRANCH  52  73
ATOM     73  C   UNL A   1      40.024  33.613  37.447  1.00  0.00    -0.014 A 
ATOM     74  C   UNL A   1      40.663  34.862  37.561  1.00  0.00     0.010 A 
ATOM     75  C   UNL A   1      39.156  33.196  38.473  1.00  0.00     0.010 A 
ATOM     76  C   UNL A   1      40.457  35.662  38.690  1.00  0.00     0.020 A 
ATOM     77  C   UNL A   1      38.923  34.006  39.588  1.00  0.00     0.020 A 
ATOM     78  C   UNL A   1      39.585  35.230  39.695  1.00  0.00     0.054 A 
BRANCH  78  79
ATOM     79  S   UNL A   1      39.293  36.311  41.123  1.00  0.00     0.124 S 
ATOM     80  O   UNL A   1      40.636  36.448  41.681  1.00  0.00    -0.237 OA
ATOM     81  O   UNL A   1      38.742  37.515  40.506  1.00  0.00    -0.237 OA
ATOM     82  O   UNL A   1      38.352  35.554  41.945  1.00  0.00    -0.744 OA
ENDBRANCH  78  79
ENDBRANCH  52  73
ENDBRANCH  26  27
ENDBRANCH  19  21
ENDBRANCH  18  19
ENDBRANCH   1  18
TORSDOF 16
ENDMDL
