MODEL 1
REMARK VINA RESULT:      -9.5      0.000      0.000
REMARK SMILES CCC[NH+]1CCN(c2cc(C(=O)OCCOC(=O)c3ccc(-c4c5nc(c(-c6ccc(S(=O)(=O)[O-])cc6)c6ccc([nH]6)c(-c6ccc(S(=O)(=O)[O-])cc6)c6nc(c(-c7ccc(S(=O)(=O)[O-])cc7)c7ccc4[nH]7)C=C6)C=C5)cc3)c3cc(NC(=O)c4ccc(F)cc4)ccc3n2)CC1
REMARK SMILES IDX 14 1 13 2 11 3 12 4 10 5 8 6 9 7 95 8 94 9 79 10 93 11 80 12
REMARK SMILES IDX 92 13 81 14 7 15 4 16 5 17 97 18 6 20 96 21 3 22 2 23 1 24
REMARK SMILES IDX 82 25 83 26 84 28 85 29 86 30 91 31 87 32 90 33 88 34 89 35
REMARK SMILES IDX 15 36 16 37 17 38 18 39 19 40 20 41 78 42 21 43 77 44 22 45
REMARK SMILES IDX 23 46 24 47 71 48 25 49 76 50 70 51 72 52 26 53 75 54 69 55
REMARK SMILES IDX 68 56 27 58 57 59 38 60 56 61 39 62 42 63 55 64 73 65 40 66
REMARK SMILES IDX 41 67 54 69 74 70 43 71 28 72 29 73 37 74 30 75 36 76 31 77
REMARK SMILES IDX 32 78 33 79 34 80 35 81 58 82 59 83 67 84 60 85 66 86 61 87
REMARK SMILES IDX 62 88 63 89 64 90 65 91 44 92 45 93 53 94 46 95 52 96 47 97
REMARK SMILES IDX 48 98 49 99 50 100 51 101
REMARK H PARENT 4 19 82 27 72 57 42 68
REMARK Flexibility Score: inf
ROOT
ATOM      1  C   UNL A   1      45.834  23.402  27.320  1.00  0.00     0.275 C 
ENDROOT
BRANCH   1   2
ATOM      2  O   UNL A   1      45.415  24.128  28.497  1.00  0.00    -0.458 OA
BRANCH   2   3
ATOM      3  C   UNL A   1      44.375  23.581  29.173  1.00  0.00     0.339 C 
ATOM      4  O   UNL A   1      44.440  22.874  30.161  1.00  0.00    -0.246 OA
BRANCH   3   5
ATOM      5  C   UNL A   1      43.083  23.999  28.592  1.00  0.00     0.073 A 
ATOM      6  C   UNL A   1      41.424  25.719  28.415  1.00  0.00     0.130 A 
ATOM      7  C   UNL A   1      42.688  25.321  28.802  1.00  0.00     0.063 A 
ATOM      8  N   UNL A   1      40.536  24.823  27.948  1.00  0.00    -0.231 NA
ATOM      9  C   UNL A   1      40.907  23.551  27.749  1.00  0.00     0.074 A 
ATOM     10  C   UNL A   1      42.200  23.073  28.012  1.00  0.00     0.017 A 
ATOM     11  C   UNL A   1      39.960  22.666  27.265  1.00  0.00     0.031 A 
ATOM     12  C   UNL A   1      42.516  21.720  27.716  1.00  0.00     0.037 A 
ATOM     13  C   UNL A   1      40.264  21.324  27.021  1.00  0.00     0.028 A 
ATOM     14  C   UNL A   1      41.550  20.834  27.247  1.00  0.00     0.042 A 
BRANCH   6  15
ATOM     15  N   UNL A   1      41.014  27.030  28.498  1.00  0.00    -0.345 N 
ATOM     16  N   UNL A   1      39.992  29.751  28.702  1.00  0.00    -0.332 N 
ATOM     17  C   UNL A   1      41.242  29.353  29.353  1.00  0.00     0.284 C 
ATOM     18  C   UNL A   1      39.638  28.882  27.578  1.00  0.00     0.284 C 
ATOM     19  H   UNL A   1      40.205  30.645  28.261  1.00  0.00     0.348 HD
ATOM     20  C   UNL A   1      41.421  27.848  29.643  1.00  0.00     0.179 C 
ATOM     21  C   UNL A   1      39.754  27.364  27.836  1.00  0.00     0.179 C 
BRANCH  16  22
ATOM     22  C   UNL A   1      38.917  30.241  29.555  1.00  0.00     0.262 C 
BRANCH  22  23
ATOM     23  C   UNL A   1      38.763  31.738  29.844  1.00  0.00     0.058 C 
ATOM     24  C   UNL A   1      39.453  32.226  31.102  1.00  0.00     0.010 C 
ENDBRANCH  22  23
ENDBRANCH  16  22
ENDBRANCH   6  15
BRANCH  14  25
ATOM     25  N   UNL A   1      41.778  19.486  26.931  1.00  0.00    -0.322 N 
ATOM     26  C   UNL A   1      42.638  18.842  26.074  1.00  0.00     0.255 C 
ATOM     27  H   UNL A   1      41.199  18.868  27.431  1.00  0.00     0.170 HD
ATOM     28  O   UNL A   1      42.438  17.656  25.808  1.00  0.00    -0.269 OA
BRANCH  26  29
ATOM     29  C   UNL A   1      43.835  19.480  25.491  1.00  0.00     0.040 A 
ATOM     30  C   UNL A   1      45.070  18.834  25.649  1.00  0.00     0.017 A 
ATOM     31  C   UNL A   1      43.774  20.742  24.883  1.00  0.00     0.017 A 
ATOM     32  C   UNL A   1      46.236  19.434  25.174  1.00  0.00     0.040 A 
ATOM     33  C   UNL A   1      44.941  21.328  24.389  1.00  0.00     0.040 A 
ATOM     34  C   UNL A   1      46.160  20.674  24.548  1.00  0.00     0.123 A 
ATOM     35  F   UNL A   1      47.276  21.229  24.058  1.00  0.00    -0.207 F 
ENDBRANCH  26  29
ENDBRANCH  14  25
ENDBRANCH   3   5
ENDBRANCH   2   3
ENDBRANCH   1   2
BRANCH   1  36
ATOM     36  C   UNL A   1      46.842  24.213  26.503  1.00  0.00     0.275 C 
BRANCH  36  37
ATOM     37  O   UNL A   1      46.161  24.786  25.376  1.00  0.00    -0.458 OA
BRANCH  37  38
ATOM     38  C   UNL A   1      46.656  25.979  24.984  1.00  0.00     0.338 C 
ATOM     39  O   UNL A   1      47.229  26.246  23.940  1.00  0.00    -0.246 OA
BRANCH  38  40
ATOM     40  C   UNL A   1      46.116  26.993  25.890  1.00  0.00     0.060 A 
ATOM     41  C   UNL A   1      47.047  27.805  26.536  1.00  0.00     0.016 A 
ATOM     42  C   UNL A   1      44.760  27.097  26.170  1.00  0.00     0.016 A 
ATOM     43  C   UNL A   1      46.648  28.656  27.554  1.00  0.00     0.010 A 
ATOM     44  C   UNL A   1      44.350  27.994  27.160  1.00  0.00     0.010 A 
ATOM     45  C   UNL A   1      45.296  28.738  27.897  1.00  0.00    -0.014 A 
BRANCH  45  46
ATOM     46  C   UNL A   1      44.889  29.463  29.124  1.00  0.00     0.031 A 
ATOM     47  C   UNL A   1      44.961  28.735  30.441  1.00  0.00     0.074 A 
ATOM     48  C   UNL A   1      44.528  30.760  29.091  1.00  0.00     0.049 A 
ATOM     49  N   UNL A   1      44.447  29.061  31.597  1.00  0.00    -0.248 NA
ATOM     50  C   UNL A   1      45.701  27.460  30.450  1.00  0.00     0.031 C 
ATOM     51  C   UNL A   1      44.539  31.620  27.906  1.00  0.00     0.029 A 
ATOM     52  N   UNL A   1      44.100  31.590  30.097  1.00  0.00    -0.354 N 
ATOM     53  C   UNL A   1      44.731  27.998  32.446  1.00  0.00     0.074 A 
ATOM     54  C   UNL A   1      45.476  27.024  31.681  1.00  0.00     0.031 C 
ATOM     55  C   UNL A   1      44.169  32.862  28.260  1.00  0.00     0.029 A 
ATOM     56  C   UNL A   1      43.801  32.862  29.672  1.00  0.00     0.049 A 
ATOM     57  H   UNL A   1      44.015  31.301  31.034  1.00  0.00     0.167 HD
ATOM     58  C   UNL A   1      44.383  27.846  33.746  1.00  0.00     0.031 A 
ATOM     59  C   UNL A   1      43.242  33.894  30.334  1.00  0.00     0.031 A 
ATOM     60  C   UNL A   1      43.683  28.848  34.502  1.00  0.00     0.049 A 
ATOM     61  C   UNL A   1      42.817  33.687  31.765  1.00  0.00     0.074 A 
ATOM     62  C   UNL A   1      43.238  28.790  35.810  1.00  0.00     0.029 A 
ATOM     63  N   UNL A   1      43.354  30.106  34.020  1.00  0.00    -0.354 N 
ATOM     64  N   UNL A   1      42.971  32.628  32.525  1.00  0.00    -0.248 NA
ATOM     65  C   UNL A   1      42.118  34.802  32.416  1.00  0.00     0.031 C 
ATOM     66  C   UNL A   1      42.616  30.006  36.111  1.00  0.00     0.029 A 
ATOM     67  C   UNL A   1      42.714  30.836  35.005  1.00  0.00     0.049 A 
ATOM     68  H   UNL A   1      43.546  30.431  33.111  1.00  0.00     0.167 HD
ATOM     69  C   UNL A   1      42.394  32.953  33.747  1.00  0.00     0.074 A 
ATOM     70  C   UNL A   1      41.914  34.316  33.633  1.00  0.00     0.031 C 
ATOM     71  C   UNL A   1      42.259  32.194  34.862  1.00  0.00     0.031 A 
BRANCH  58  72
ATOM     72  C   UNL A   1      44.706  26.535  34.408  1.00  0.00    -0.014 A 
ATOM     73  C   UNL A   1      43.840  25.431  34.322  1.00  0.00     0.010 A 
ATOM     74  C   UNL A   1      45.922  26.399  35.105  1.00  0.00     0.010 A 
ATOM     75  C   UNL A   1      44.173  24.224  34.943  1.00  0.00     0.020 A 
ATOM     76  C   UNL A   1      46.270  25.186  35.705  1.00  0.00     0.020 A 
ATOM     77  C   UNL A   1      45.385  24.109  35.632  1.00  0.00     0.054 A 
BRANCH  77  78
ATOM     78  S   UNL A   1      45.808  22.520  36.399  1.00  0.00     0.124 S 
ATOM     79  O   UNL A   1      44.940  21.596  35.673  1.00  0.00    -0.237 OA
ATOM     80  O   UNL A   1      47.236  22.396  36.113  1.00  0.00    -0.237 OA
ATOM     81  O   UNL A   1      45.473  22.714  37.807  1.00  0.00    -0.744 OA
ENDBRANCH  77  78
ENDBRANCH  58  72
BRANCH  59  82
ATOM     82  C   UNL A   1      42.973  35.184  29.639  1.00  0.00    -0.014 A 
ATOM     83  C   UNL A   1      41.861  35.325  28.789  1.00  0.00     0.010 A 
ATOM     84  C   UNL A   1      43.844  36.276  29.806  1.00  0.00     0.010 A 
ATOM     85  C   UNL A   1      41.638  36.526  28.106  1.00  0.00     0.020 A 
ATOM     86  C   UNL A   1      43.607  37.488  29.152  1.00  0.00     0.020 A 
ATOM     87  C   UNL A   1      42.514  37.599  28.293  1.00  0.00     0.054 A 
BRANCH  87  88
ATOM     88  S   UNL A   1      42.190  39.161  27.427  1.00  0.00     0.124 S 
ATOM     89  O   UNL A   1      43.532  39.566  27.022  1.00  0.00    -0.237 OA
ATOM     90  O   UNL A   1      41.298  38.749  26.347  1.00  0.00    -0.237 OA
ATOM     91  O   UNL A   1      41.566  39.995  28.454  1.00  0.00    -0.744 OA
ENDBRANCH  87  88
ENDBRANCH  59  82
BRANCH  71  92
ATOM     92  C   UNL A   1      41.604  32.834  36.052  1.00  0.00    -0.014 A 
ATOM     93  C   UNL A   1      42.328  33.675  36.915  1.00  0.00     0.010 A 
ATOM     94  C   UNL A   1      40.230  32.630  36.279  1.00  0.00     0.010 A 
ATOM     95  C   UNL A   1      41.696  34.276  38.005  1.00  0.00     0.020 A 
ATOM     96  C   UNL A   1      39.590  33.250  37.353  1.00  0.00     0.020 A 
ATOM     97  C   UNL A   1      40.331  34.057  38.218  1.00  0.00     0.054 A 
BRANCH  97  98
ATOM     98  S   UNL A   1      39.522  34.880  39.617  1.00  0.00     0.124 S 
ATOM     99  O   UNL A   1      39.242  36.205  39.069  1.00  0.00    -0.237 OA
ATOM    100  O   UNL A   1      38.351  34.038  39.853  1.00  0.00    -0.237 OA
ATOM    101  O   UNL A   1      40.531  34.841  40.672  1.00  0.00    -0.744 OA
ENDBRANCH  97  98
ENDBRANCH  71  92
ENDBRANCH  45  46
ENDBRANCH  38  40
ENDBRANCH  37  38
ENDBRANCH  36  37
ENDBRANCH   1  36
TORSDOF 19
ENDMDL
MODEL 2
REMARK VINA RESULT:      -8.9      4.899     12.094
REMARK SMILES CCC[NH+]1CCN(c2cc(C(=O)OCCOC(=O)c3ccc(-c4c5nc(c(-c6ccc(S(=O)(=O)[O-])cc6)c6ccc([nH]6)c(-c6ccc(S(=O)(=O)[O-])cc6)c6nc(c(-c7ccc(S(=O)(=O)[O-])cc7)c7ccc4[nH]7)C=C6)C=C5)cc3)c3cc(NC(=O)c4ccc(F)cc4)ccc3n2)CC1
REMARK SMILES IDX 14 1 13 2 11 3 12 4 10 5 8 6 9 7 95 8 94 9 79 10 93 11 80 12
REMARK SMILES IDX 92 13 81 14 7 15 4 16 5 17 97 18 6 20 96 21 3 22 2 23 1 24
REMARK SMILES IDX 82 25 83 26 84 28 85 29 86 30 91 31 87 32 90 33 88 34 89 35
REMARK SMILES IDX 15 36 16 37 17 38 18 39 19 40 20 41 78 42 21 43 77 44 22 45
REMARK SMILES IDX 23 46 24 47 71 48 25 49 76 50 70 51 72 52 26 53 75 54 69 55
REMARK SMILES IDX 68 56 27 58 57 59 38 60 56 61 39 62 42 63 55 64 73 65 40 66
REMARK SMILES IDX 41 67 54 69 74 70 43 71 28 72 29 73 37 74 30 75 36 76 31 77
REMARK SMILES IDX 32 78 33 79 34 80 35 81 58 82 59 83 67 84 60 85 66 86 61 87
REMARK SMILES IDX 62 88 63 89 64 90 65 91 44 92 45 93 53 94 46 95 52 96 47 97
REMARK SMILES IDX 48 98 49 99 50 100 51 101
REMARK H PARENT 4 19 82 27 72 57 42 68
REMARK Flexibility Score: inf
ROOT
ATOM      1  C   UNL A   1      36.184  33.015  30.716  1.00  0.00     0.275 C 
ENDROOT
BRANCH   1   2
ATOM      2  O   UNL A   1      37.426  33.733  30.884  1.00  0.00    -0.458 OA
BRANCH   2   3
ATOM      3  C   UNL A   1      38.236  33.748  29.796  1.00  0.00     0.339 C 
ATOM      4  O   UNL A   1      37.926  33.459  28.654  1.00  0.00    -0.246 OA
BRANCH   3   5
ATOM      5  C   UNL A   1      39.588  34.228  30.144  1.00  0.00     0.073 A 
ATOM      6  C   UNL A   1      41.629  35.217  29.368  1.00  0.00     0.130 A 
ATOM      7  C   UNL A   1      40.307  34.885  29.144  1.00  0.00     0.063 A 
ATOM      8  N   UNL A   1      42.258  34.811  30.486  1.00  0.00    -0.231 NA
ATOM      9  C   UNL A   1      41.574  34.175  31.447  1.00  0.00     0.074 A 
ATOM     10  C   UNL A   1      40.203  33.886  31.360  1.00  0.00     0.017 A 
ATOM     11  C   UNL A   1      42.262  33.779  32.580  1.00  0.00     0.031 A 
ATOM     12  C   UNL A   1      39.553  33.258  32.454  1.00  0.00     0.037 A 
ATOM     13  C   UNL A   1      41.626  33.118  33.634  1.00  0.00     0.028 A 
ATOM     14  C   UNL A   1      40.258  32.847  33.581  1.00  0.00     0.042 A 
BRANCH   6  15
ATOM     15  N   UNL A   1      42.359  35.956  28.466  1.00  0.00    -0.345 N 
ATOM     16  N   UNL A   1      43.896  37.652  26.663  1.00  0.00    -0.332 N 
ATOM     17  C   UNL A   1      44.289  36.266  26.930  1.00  0.00     0.284 C 
ATOM     18  C   UNL A   1      42.476  37.897  26.920  1.00  0.00     0.284 C 
ATOM     19  H   UNL A   1      43.981  37.752  25.652  1.00  0.00     0.348 HD
ATOM     20  C   UNL A   1      43.773  35.644  28.245  1.00  0.00     0.179 C 
ATOM     21  C   UNL A   1      41.923  37.335  28.249  1.00  0.00     0.179 C 
BRANCH  16  22
ATOM     22  C   UNL A   1      44.846  38.699  27.013  1.00  0.00     0.262 C 
BRANCH  22  23
ATOM     23  C   UNL A   1      46.167  38.850  26.248  1.00  0.00     0.058 C 
ATOM     24  C   UNL A   1      46.289  40.111  25.417  1.00  0.00     0.010 C 
ENDBRANCH  22  23
ENDBRANCH  16  22
ENDBRANCH   6  15
BRANCH  14  25
ATOM     25  N   UNL A   1      39.693  32.221  34.703  1.00  0.00    -0.322 N 
ATOM     26  C   UNL A   1      39.748  32.462  36.055  1.00  0.00     0.255 C 
ATOM     27  H   UNL A   1      39.136  31.444  34.472  1.00  0.00     0.170 HD
ATOM     28  O   UNL A   1      39.361  31.588  36.832  1.00  0.00    -0.269 OA
BRANCH  26  29
ATOM     29  C   UNL A   1      40.195  33.744  36.636  1.00  0.00     0.040 A 
ATOM     30  C   UNL A   1      41.397  33.756  37.360  1.00  0.00     0.017 A 
ATOM     31  C   UNL A   1      39.407  34.900  36.561  1.00  0.00     0.017 A 
ATOM     32  C   UNL A   1      41.822  34.930  37.982  1.00  0.00     0.040 A 
ATOM     33  C   UNL A   1      39.848  36.078  37.167  1.00  0.00     0.040 A 
ATOM     34  C   UNL A   1      41.045  36.079  37.879  1.00  0.00     0.123 A 
ATOM     35  F   UNL A   1      41.476  37.213  38.444  1.00  0.00    -0.207 F 
ENDBRANCH  26  29
ENDBRANCH  14  25
ENDBRANCH   3   5
ENDBRANCH   2   3
ENDBRANCH   1   2
BRANCH   1  36
ATOM     36  C   UNL A   1      36.118  31.805  31.650  1.00  0.00     0.275 C 
BRANCH  36  37
ATOM     37  O   UNL A   1      36.588  30.651  30.937  1.00  0.00    -0.458 OA
BRANCH  37  38
ATOM     38  C   UNL A   1      37.368  29.830  31.672  1.00  0.00     0.338 C 
ATOM     39  O   UNL A   1      37.015  28.970  32.462  1.00  0.00    -0.246 OA
BRANCH  38  40
ATOM     40  C   UNL A   1      38.725  29.922  31.133  1.00  0.00     0.060 A 
ATOM     41  C   UNL A   1      38.834  30.233  29.779  1.00  0.00     0.016 A 
ATOM     42  C   UNL A   1      39.851  29.634  31.894  1.00  0.00     0.016 A 
ATOM     43  C   UNL A   1      40.059  30.150  29.136  1.00  0.00     0.010 A 
ATOM     44  C   UNL A   1      41.095  29.602  31.258  1.00  0.00     0.010 A 
ATOM     45  C   UNL A   1      41.200  29.805  29.866  1.00  0.00    -0.014 A 
BRANCH  45  46
ATOM     46  C   UNL A   1      42.463  29.491  29.155  1.00  0.00     0.031 A 
ATOM     47  C   UNL A   1      42.611  28.127  28.532  1.00  0.00     0.074 A 
ATOM     48  C   UNL A   1      43.433  30.411  28.999  1.00  0.00     0.049 A 
ATOM     49  N   UNL A   1      43.683  27.538  28.074  1.00  0.00    -0.248 NA
ATOM     50  C   UNL A   1      41.386  27.314  28.426  1.00  0.00     0.031 C 
ATOM     51  C   UNL A   1      43.365  31.807  29.438  1.00  0.00     0.029 A 
ATOM     52  N   UNL A   1      44.666  30.311  28.405  1.00  0.00    -0.354 N 
ATOM     53  C   UNL A   1      43.279  26.261  27.702  1.00  0.00     0.074 A 
ATOM     54  C   UNL A   1      41.862  26.164  27.970  1.00  0.00     0.031 C 
ATOM     55  C   UNL A   1      44.492  32.439  29.068  1.00  0.00     0.029 A 
ATOM     56  C   UNL A   1      45.399  31.473  28.457  1.00  0.00     0.049 A 
ATOM     57  H   UNL A   1      44.995  29.485  27.983  1.00  0.00     0.167 HD
ATOM     58  C   UNL A   1      44.032  25.256  27.197  1.00  0.00     0.031 A 
ATOM     59  C   UNL A   1      46.676  31.716  28.101  1.00  0.00     0.031 A 
ATOM     60  C   UNL A   1      45.431  25.389  26.893  1.00  0.00     0.049 A 
ATOM     61  C   UNL A   1      47.510  30.571  27.588  1.00  0.00     0.074 A 
ATOM     62  C   UNL A   1      46.308  24.430  26.420  1.00  0.00     0.029 A 
ATOM     63  N   UNL A   1      46.149  26.570  27.006  1.00  0.00    -0.354 N 
ATOM     64  N   UNL A   1      47.155  29.328  27.362  1.00  0.00    -0.248 NA
ATOM     65  C   UNL A   1      48.924  30.855  27.311  1.00  0.00     0.031 C 
ATOM     66  C   UNL A   1      47.565  25.026  26.272  1.00  0.00     0.029 A 
ATOM     67  C   UNL A   1      47.458  26.367  26.609  1.00  0.00     0.049 A 
ATOM     68  H   UNL A   1      45.781  27.427  27.323  1.00  0.00     0.167 HD
ATOM     69  C   UNL A   1      48.300  28.684  26.908  1.00  0.00     0.074 A 
ATOM     70  C   UNL A   1      49.351  29.682  26.866  1.00  0.00     0.031 C 
ATOM     71  C   UNL A   1      48.476  27.383  26.568  1.00  0.00     0.031 A 
BRANCH  58  72
ATOM     72  C   UNL A   1      43.373  23.920  26.995  1.00  0.00    -0.014 A 
ATOM     73  C   UNL A   1      42.892  23.516  25.738  1.00  0.00     0.010 A 
ATOM     74  C   UNL A   1      43.264  23.037  28.086  1.00  0.00     0.010 A 
ATOM     75  C   UNL A   1      42.291  22.264  25.582  1.00  0.00     0.020 A 
ATOM     76  C   UNL A   1      42.686  21.774  27.928  1.00  0.00     0.020 A 
ATOM     77  C   UNL A   1      42.190  21.402  26.678  1.00  0.00     0.054 A 
BRANCH  77  78
ATOM     78  S   UNL A   1      41.437  19.768  26.440  1.00  0.00     0.124 S 
ATOM     79  O   UNL A   1      42.214  19.239  25.322  1.00  0.00    -0.237 OA
ATOM     80  O   UNL A   1      41.668  19.117  27.729  1.00  0.00    -0.237 OA
ATOM     81  O   UNL A   1      40.040  20.070  26.141  1.00  0.00    -0.744 OA
ENDBRANCH  77  78
ENDBRANCH  58  72
BRANCH  59  82
ATOM     82  C   UNL A   1      47.271  33.068  28.292  1.00  0.00    -0.014 A 
ATOM     83  C   UNL A   1      47.857  33.429  29.518  1.00  0.00     0.010 A 
ATOM     84  C   UNL A   1      47.236  34.013  27.250  1.00  0.00     0.010 A 
ATOM     85  C   UNL A   1      48.376  34.715  29.705  1.00  0.00     0.020 A 
ATOM     86  C   UNL A   1      47.784  35.287  27.420  1.00  0.00     0.020 A 
ATOM     87  C   UNL A   1      48.336  35.635  28.654  1.00  0.00     0.054 A 
BRANCH  87  88
ATOM     88  S   UNL A   1      49.047  37.287  28.900  1.00  0.00     0.124 S 
ATOM     89  O   UNL A   1      50.043  37.036  29.936  1.00  0.00    -0.237 OA
ATOM     90  O   UNL A   1      49.574  37.608  27.576  1.00  0.00    -0.237 OA
ATOM     91  O   UNL A   1      47.899  38.091  29.316  1.00  0.00    -0.744 OA
ENDBRANCH  87  88
ENDBRANCH  59  82
BRANCH  71  92
ATOM     92  C   UNL A   1      49.840  26.980  26.085  1.00  0.00    -0.014 A 
ATOM     93  C   UNL A   1      50.207  27.134  24.737  1.00  0.00     0.010 A 
ATOM     94  C   UNL A   1      50.782  26.487  27.006  1.00  0.00     0.010 A 
ATOM     95  C   UNL A   1      51.487  26.771  24.312  1.00  0.00     0.020 A 
ATOM     96  C   UNL A   1      52.070  26.147  26.589  1.00  0.00     0.020 A 
ATOM     97  C   UNL A   1      52.409  26.277  25.241  1.00  0.00     0.054 A 
BRANCH  97  98
ATOM     98  S   UNL A   1      54.077  25.849  24.673  1.00  0.00     0.124 S 
ATOM     99  O   UNL A   1      54.023  26.228  23.263  1.00  0.00    -0.237 OA
ATOM    100  O   UNL A   1      54.929  26.685  25.516  1.00  0.00    -0.237 OA
ATOM    101  O   UNL A   1      54.173  24.415  24.931  1.00  0.00    -0.744 OA
ENDBRANCH  97  98
ENDBRANCH  71  92
ENDBRANCH  45  46
ENDBRANCH  38  40
ENDBRANCH  37  38
ENDBRANCH  36  37
ENDBRANCH   1  36
TORSDOF 19
ENDMDL
MODEL 3
REMARK VINA RESULT:      -8.8      6.410     11.602
REMARK SMILES CCC[NH+]1CCN(c2cc(C(=O)OCCOC(=O)c3ccc(-c4c5nc(c(-c6ccc(S(=O)(=O)[O-])cc6)c6ccc([nH]6)c(-c6ccc(S(=O)(=O)[O-])cc6)c6nc(c(-c7ccc(S(=O)(=O)[O-])cc7)c7ccc4[nH]7)C=C6)C=C5)cc3)c3cc(NC(=O)c4ccc(F)cc4)ccc3n2)CC1
REMARK SMILES IDX 14 1 13 2 11 3 12 4 10 5 8 6 9 7 95 8 94 9 79 10 93 11 80 12
REMARK SMILES IDX 92 13 81 14 7 15 4 16 5 17 97 18 6 20 96 21 3 22 2 23 1 24
REMARK SMILES IDX 82 25 83 26 84 28 85 29 86 30 91 31 87 32 90 33 88 34 89 35
REMARK SMILES IDX 15 36 16 37 17 38 18 39 19 40 20 41 78 42 21 43 77 44 22 45
REMARK SMILES IDX 23 46 24 47 71 48 25 49 76 50 70 51 72 52 26 53 75 54 69 55
REMARK SMILES IDX 68 56 27 58 57 59 38 60 56 61 39 62 42 63 55 64 73 65 40 66
REMARK SMILES IDX 41 67 54 69 74 70 43 71 28 72 29 73 37 74 30 75 36 76 31 77
REMARK SMILES IDX 32 78 33 79 34 80 35 81 58 82 59 83 67 84 60 85 66 86 61 87
REMARK SMILES IDX 62 88 63 89 64 90 65 91 44 92 45 93 53 94 46 95 52 96 47 97
REMARK SMILES IDX 48 98 49 99 50 100 51 101
REMARK H PARENT 4 19 82 27 72 57 42 68
REMARK Flexibility Score: inf
ROOT
ATOM      1  C   UNL A   1      43.084  20.791  25.806  1.00  0.00     0.275 C 
ENDROOT
BRANCH   1   2
ATOM      2  O   UNL A   1      41.705  21.062  25.473  1.00  0.00    -0.458 OA
BRANCH   2   3
ATOM      3  C   UNL A   1      40.811  20.805  26.460  1.00  0.00     0.339 C 
ATOM      4  O   UNL A   1      40.811  19.846  27.210  1.00  0.00    -0.246 OA
BRANCH   3   5
ATOM      5  C   UNL A   1      39.818  21.891  26.576  1.00  0.00     0.073 A 
ATOM      6  C   UNL A   1      37.734  22.796  25.811  1.00  0.00     0.130 A 
ATOM      7  C   UNL A   1      38.627  21.744  25.861  1.00  0.00     0.063 A 
ATOM      8  N   UNL A   1      38.051  23.991  26.342  1.00  0.00    -0.231 NA
ATOM      9  C   UNL A   1      39.194  24.140  27.025  1.00  0.00     0.074 A 
ATOM     10  C   UNL A   1      40.119  23.102  27.222  1.00  0.00     0.017 A 
ATOM     11  C   UNL A   1      39.477  25.386  27.555  1.00  0.00     0.031 A 
ATOM     12  C   UNL A   1      41.277  23.341  28.008  1.00  0.00     0.037 A 
ATOM     13  C   UNL A   1      40.643  25.627  28.287  1.00  0.00     0.028 A 
ATOM     14  C   UNL A   1      41.560  24.603  28.520  1.00  0.00     0.042 A 
BRANCH   6  15
ATOM     15  N   UNL A   1      36.500  22.678  25.215  1.00  0.00    -0.345 N 
ATOM     16  N   UNL A   1      33.817  22.474  24.095  1.00  0.00    -0.332 N 
ATOM     17  C   UNL A   1      34.909  23.109  23.354  1.00  0.00     0.284 C 
ATOM     18  C   UNL A   1      34.296  21.538  25.115  1.00  0.00     0.284 C 
ATOM     19  H   UNL A   1      33.356  21.875  23.412  1.00  0.00     0.348 HD
ATOM     20  C   UNL A   1      36.093  23.641  24.188  1.00  0.00     0.179 C 
ATOM     21  C   UNL A   1      35.449  22.044  26.009  1.00  0.00     0.179 C 
BRANCH  16  22
ATOM     22  C   UNL A   1      32.653  23.292  24.409  1.00  0.00     0.262 C 
BRANCH  22  23
ATOM     23  C   UNL A   1      32.609  24.776  24.025  1.00  0.00     0.058 C 
ATOM     24  C   UNL A   1      32.824  25.745  25.170  1.00  0.00     0.010 C 
ENDBRANCH  22  23
ENDBRANCH  16  22
ENDBRANCH   6  15
BRANCH  14  25
ATOM     25  N   UNL A   1      42.680  24.923  29.304  1.00  0.00    -0.322 N 
ATOM     26  C   UNL A   1      43.662  25.880  29.216  1.00  0.00     0.255 C 
ATOM     27  H   UNL A   1      42.784  24.335  30.087  1.00  0.00     0.170 HD
ATOM     28  O   UNL A   1      44.675  25.761  29.906  1.00  0.00    -0.269 OA
BRANCH  26  29
ATOM     29  C   UNL A   1      43.546  27.088  28.374  1.00  0.00     0.040 A 
ATOM     30  C   UNL A   1      43.141  28.283  28.988  1.00  0.00     0.017 A 
ATOM     31  C   UNL A   1      43.734  27.038  26.986  1.00  0.00     0.017 A 
ATOM     32  C   UNL A   1      42.954  29.431  28.219  1.00  0.00     0.040 A 
ATOM     33  C   UNL A   1      43.566  28.196  26.224  1.00  0.00     0.040 A 
ATOM     34  C   UNL A   1      43.169  29.377  26.846  1.00  0.00     0.123 A 
ATOM     35  F   UNL A   1      43.027  30.492  26.117  1.00  0.00    -0.207 F 
ENDBRANCH  26  29
ENDBRANCH  14  25
ENDBRANCH   3   5
ENDBRANCH   2   3
ENDBRANCH   1   2
BRANCH   1  36
ATOM     36  C   UNL A   1      43.727  21.990  26.506  1.00  0.00     0.275 C 
BRANCH  36  37
ATOM     37  O   UNL A   1      44.452  22.754  25.530  1.00  0.00    -0.458 OA
BRANCH  37  38
ATOM     38  C   UNL A   1      45.793  22.630  25.621  1.00  0.00     0.338 C 
ATOM     39  O   UNL A   1      46.481  21.674  25.302  1.00  0.00    -0.246 OA
BRANCH  38  40
ATOM     40  C   UNL A   1      46.336  23.965  25.880  1.00  0.00     0.060 A 
ATOM     41  C   UNL A   1      46.091  24.932  24.907  1.00  0.00     0.016 A 
ATOM     42  C   UNL A   1      47.127  24.247  26.986  1.00  0.00     0.016 A 
ATOM     43  C   UNL A   1      46.725  26.162  24.965  1.00  0.00     0.010 A 
ATOM     44  C   UNL A   1      47.726  25.506  27.073  1.00  0.00     0.010 A 
ATOM     45  C   UNL A   1      47.574  26.452  26.037  1.00  0.00    -0.014 A 
BRANCH  45  46
ATOM     46  C   UNL A   1      48.429  27.663  25.994  1.00  0.00     0.031 A 
ATOM     47  C   UNL A   1      47.987  28.877  26.769  1.00  0.00     0.074 A 
ATOM     48  C   UNL A   1      49.608  27.672  25.342  1.00  0.00     0.049 A 
ATOM     49  N   UNL A   1      48.425  30.105  26.702  1.00  0.00    -0.248 NA
ATOM     50  C   UNL A   1      46.895  28.678  27.739  1.00  0.00     0.031 C 
ATOM     51  C   UNL A   1      50.216  26.527  24.661  1.00  0.00     0.029 A 
ATOM     52  N   UNL A   1      50.518  28.684  25.166  1.00  0.00    -0.354 N 
ATOM     53  C   UNL A   1      47.611  30.839  27.557  1.00  0.00     0.074 A 
ATOM     54  C   UNL A   1      46.665  29.918  28.146  1.00  0.00     0.031 C 
ATOM     55  C   UNL A   1      51.412  26.893  24.171  1.00  0.00     0.029 A 
ATOM     56  C   UNL A   1      51.610  28.317  24.416  1.00  0.00     0.049 A 
ATOM     57  H   UNL A   1      50.399  29.586  25.541  1.00  0.00     0.167 HD
ATOM     58  C   UNL A   1      47.644  32.168  27.814  1.00  0.00     0.031 A 
ATOM     59  C   UNL A   1      52.627  29.060  23.936  1.00  0.00     0.031 A 
ATOM     60  C   UNL A   1      48.624  33.059  27.255  1.00  0.00     0.049 A 
ATOM     61  C   UNL A   1      52.617  30.545  24.191  1.00  0.00     0.074 A 
ATOM     62  C   UNL A   1      48.731  34.430  27.405  1.00  0.00     0.029 A 
ATOM     63  N   UNL A   1      49.686  32.657  26.459  1.00  0.00    -0.354 N 
ATOM     64  N   UNL A   1      51.767  31.255  24.894  1.00  0.00    -0.248 NA
ATOM     65  C   UNL A   1      53.686  31.331  23.562  1.00  0.00     0.031 C 
ATOM     66  C   UNL A   1      49.846  34.860  26.677  1.00  0.00     0.029 A 
ATOM     67  C   UNL A   1      50.457  33.751  26.113  1.00  0.00     0.049 A 
ATOM     68  H   UNL A   1      49.864  31.729  26.181  1.00  0.00     0.167 HD
ATOM     69  C   UNL A   1      52.204  32.571  24.799  1.00  0.00     0.074 A 
ATOM     70  C   UNL A   1      53.409  32.554  23.993  1.00  0.00     0.031 C 
ATOM     71  C   UNL A   1      51.656  33.697  25.318  1.00  0.00     0.031 A 
BRANCH  58  72
ATOM     72  C   UNL A   1      46.564  32.740  28.689  1.00  0.00    -0.014 A 
ATOM     73  C   UNL A   1      45.345  33.196  28.157  1.00  0.00     0.010 A 
ATOM     74  C   UNL A   1      46.763  32.790  30.082  1.00  0.00     0.010 A 
ATOM     75  C   UNL A   1      44.358  33.716  28.999  1.00  0.00     0.020 A 
ATOM     76  C   UNL A   1      45.769  33.285  30.929  1.00  0.00     0.020 A 
ATOM     77  C   UNL A   1      44.577  33.758  30.380  1.00  0.00     0.054 A 
BRANCH  77  78
ATOM     78  S   UNL A   1      43.264  34.405  31.454  1.00  0.00     0.124 S 
ATOM     79  O   UNL A   1      42.256  34.818  30.480  1.00  0.00    -0.237 OA
ATOM     80  O   UNL A   1      42.913  33.242  32.266  1.00  0.00    -0.237 OA
ATOM     81  O   UNL A   1      43.914  35.494  32.178  1.00  0.00    -0.744 OA
ENDBRANCH  77  78
ENDBRANCH  58  72
BRANCH  59  82
ATOM     82  C   UNL A   1      53.690  28.437  23.100  1.00  0.00    -0.014 A 
ATOM     83  C   UNL A   1      54.895  27.998  23.679  1.00  0.00     0.010 A 
ATOM     84  C   UNL A   1      53.513  28.296  21.711  1.00  0.00     0.010 A 
ATOM     85  C   UNL A   1      55.908  27.452  22.882  1.00  0.00     0.020 A 
ATOM     86  C   UNL A   1      54.508  27.721  20.916  1.00  0.00     0.020 A 
ATOM     87  C   UNL A   1      55.706  27.318  21.506  1.00  0.00     0.054 A 
BRANCH  87  88
ATOM     88  S   UNL A   1      57.015  26.574  20.491  1.00  0.00     0.124 S 
ATOM     89  O   UNL A   1      56.260  25.647  19.656  1.00  0.00    -0.237 OA
ATOM     90  O   UNL A   1      57.582  27.731  19.804  1.00  0.00    -0.237 OA
ATOM     91  O   UNL A   1      57.897  25.953  21.478  1.00  0.00    -0.744 OA
ENDBRANCH  87  88
ENDBRANCH  59  82
BRANCH  71  92
ATOM     92  C   UNL A   1      52.377  34.991  25.063  1.00  0.00    -0.014 A 
ATOM     93  C   UNL A   1      52.046  35.802  23.964  1.00  0.00     0.010 A 
ATOM     94  C   UNL A   1      53.365  35.421  25.968  1.00  0.00     0.010 A 
ATOM     95  C   UNL A   1      52.715  37.010  23.756  1.00  0.00     0.020 A 
ATOM     96  C   UNL A   1      54.017  36.640  25.776  1.00  0.00     0.020 A 
ATOM     97  C   UNL A   1      53.698  37.419  24.663  1.00  0.00     0.054 A 
BRANCH  97  98
ATOM     98  S   UNL A   1      54.526  39.010  24.394  1.00  0.00     0.124 S 
ATOM     99  O   UNL A   1      55.922  38.675  24.664  1.00  0.00    -0.237 OA
ATOM    100  O   UNL A   1      54.210  39.307  22.998  1.00  0.00    -0.237 OA
ATOM    101  O   UNL A   1      53.897  39.897  25.369  1.00  0.00    -0.744 OA
ENDBRANCH  97  98
ENDBRANCH  71  92
ENDBRANCH  45  46
ENDBRANCH  38  40
ENDBRANCH  37  38
ENDBRANCH  36  37
ENDBRANCH   1  36
TORSDOF 19
ENDMDL
