MODEL 1
REMARK VINA RESULT:      -9.6      0.000      0.000
REMARK SMILES COc1cc(/C=C/C(=O)OCCOC(=O)c2ccc(-c3c4nc(c(-c5ccc(S(=O)(=O)[O-])cc5)c5ccc([nH]5)c(-c5ccc(S(=O)(=O)[O-])cc5)c5nc(c(-c6ccc(S(=O)(=O)[O-])cc6)c6ccc3[nH]6)C=C5)C=C4)cc2)cc(OC)c1O
REMARK SMILES IDX 12 1 11 2 10 3 8 4 9 5 7 6 6 7 5 8 3 9 4 10 80 11 77 12
REMARK SMILES IDX 76 13 2 14 1 15 81 16 78 18 79 19 13 20 14 21 15 22 16 23
REMARK SMILES IDX 17 24 75 25 18 26 74 27 19 28 20 29 21 30 68 31 22 32 73 33
REMARK SMILES IDX 67 34 69 35 23 36 72 37 66 38 65 39 24 41 54 42 35 43 53 44
REMARK SMILES IDX 36 45 39 46 52 47 70 48 37 49 38 50 51 52 71 53 40 54 25 55
REMARK SMILES IDX 26 56 34 57 27 58 33 59 28 60 29 61 30 62 31 63 32 64 55 65
REMARK SMILES IDX 56 66 64 67 57 68 63 69 58 70 59 71 60 72 61 73 62 74 41 75
REMARK SMILES IDX 42 76 50 77 43 78 49 79 44 80 45 81 46 82 47 83 48 84
REMARK H PARENT 81 17 69 40 39 51
REMARK Flexibility Score: inf
ROOT
ATOM      1  C   UNL A   1      33.161  30.108  26.175  1.00  0.00     0.275 C 
ENDROOT
BRANCH   1   2
ATOM      2  C   UNL A   1      31.978  29.216  25.783  1.00  0.00     0.275 C 
BRANCH   2   3
ATOM      3  O   UNL A   1      31.831  29.122  24.354  1.00  0.00    -0.459 OA
BRANCH   3   4
ATOM      4  C   UNL A   1      32.688  28.275  23.734  1.00  0.00     0.330 C 
ATOM      5  O   UNL A   1      33.177  28.434  22.624  1.00  0.00    -0.247 OA
BRANCH   4   6
ATOM      6  C   UNL A   1      33.047  27.106  24.561  1.00  0.00     0.094 C 
ATOM      7  C   UNL A   1      33.669  25.997  24.133  1.00  0.00     0.016 C 
BRANCH   7   8
ATOM      8  C   UNL A   1      33.901  24.839  25.011  1.00  0.00    -0.018 A 
ATOM      9  C   UNL A   1      35.399  23.173  25.989  1.00  0.00     0.165 A 
ATOM     10  C   UNL A   1      35.158  24.232  25.102  1.00  0.00     0.058 A 
ATOM     11  C   UNL A   1      34.363  22.728  26.823  1.00  0.00     0.200 A 
ATOM     12  C   UNL A   1      33.087  23.311  26.737  1.00  0.00     0.165 A 
ATOM     13  C   UNL A   1      32.877  24.371  25.838  1.00  0.00     0.058 A 
BRANCH   9  14
ATOM     14  O   UNL A   1      36.701  22.748  25.978  1.00  0.00    -0.493 OA
ATOM     15  C   UNL A   1      37.740  23.717  25.977  1.00  0.00     0.278 C 
ENDBRANCH   9  14
BRANCH  11  16
ATOM     16  O   UNL A   1      34.619  21.791  27.786  1.00  0.00    -0.502 OA
ATOM     17  H   UNL A   1      34.013  21.090  27.931  1.00  0.00     0.293 HD
ENDBRANCH  11  16
BRANCH  12  18
ATOM     18  O   UNL A   1      31.969  23.023  27.478  1.00  0.00    -0.493 OA
ATOM     19  C   UNL A   1      30.714  22.963  26.818  1.00  0.00     0.278 C 
ENDBRANCH  12  18
ENDBRANCH   7   8
ENDBRANCH   4   6
ENDBRANCH   3   4
ENDBRANCH   2   3
ENDBRANCH   1   2
BRANCH   1  20
ATOM     20  O   UNL A   1      33.868  29.602  27.321  1.00  0.00    -0.458 OA
BRANCH  20  21
ATOM     21  C   UNL A   1      34.580  30.529  28.007  1.00  0.00     0.338 C 
ATOM     22  O   UNL A   1      34.162  31.573  28.478  1.00  0.00    -0.246 OA
BRANCH  21  23
ATOM     23  C   UNL A   1      35.957  30.048  28.224  1.00  0.00     0.060 A 
ATOM     24  C   UNL A   1      36.288  29.570  29.495  1.00  0.00     0.016 A 
ATOM     25  C   UNL A   1      36.931  30.127  27.223  1.00  0.00     0.016 A 
ATOM     26  C   UNL A   1      37.594  29.170  29.774  1.00  0.00     0.010 A 
ATOM     27  C   UNL A   1      38.242  29.727  27.505  1.00  0.00     0.010 A 
ATOM     28  C   UNL A   1      38.585  29.257  28.784  1.00  0.00    -0.014 A 
BRANCH  28  29
ATOM     29  C   UNL A   1      39.980  28.871  29.111  1.00  0.00     0.031 A 
ATOM     30  C   UNL A   1      40.885  29.835  29.827  1.00  0.00     0.074 A 
ATOM     31  C   UNL A   1      40.424  27.641  28.791  1.00  0.00     0.049 A 
ATOM     32  N   UNL A   1      42.124  29.670  30.215  1.00  0.00    -0.248 NA
ATOM     33  C   UNL A   1      40.323  31.156  30.152  1.00  0.00     0.031 C 
ATOM     34  C   UNL A   1      39.636  26.609  28.116  1.00  0.00     0.029 A 
ATOM     35  N   UNL A   1      41.646  27.050  28.997  1.00  0.00    -0.354 N 
ATOM     36  C   UNL A   1      42.494  30.863  30.823  1.00  0.00     0.074 A 
ATOM     37  C   UNL A   1      41.355  31.753  30.731  1.00  0.00     0.031 C 
ATOM     38  C   UNL A   1      40.391  25.508  27.973  1.00  0.00     0.029 A 
ATOM     39  C   UNL A   1      41.723  25.765  28.516  1.00  0.00     0.049 A 
ATOM     40  H   UNL A   1      42.395  27.503  29.448  1.00  0.00     0.167 HD
ATOM     41  C   UNL A   1      43.672  31.186  31.410  1.00  0.00     0.031 A 
ATOM     42  C   UNL A   1      42.753  24.896  28.500  1.00  0.00     0.031 A 
ATOM     43  C   UNL A   1      44.809  30.306  31.490  1.00  0.00     0.049 A 
ATOM     44  C   UNL A   1      44.068  25.297  29.111  1.00  0.00     0.074 A 
ATOM     45  C   UNL A   1      46.038  30.539  32.081  1.00  0.00     0.029 A 
ATOM     46  N   UNL A   1      44.860  29.026  30.957  1.00  0.00    -0.354 N 
ATOM     47  N   UNL A   1      44.389  26.419  29.710  1.00  0.00    -0.248 NA
ATOM     48  C   UNL A   1      45.156  24.312  29.050  1.00  0.00     0.031 C 
ATOM     49  C   UNL A   1      46.850  29.419  31.865  1.00  0.00     0.029 A 
ATOM     50  C   UNL A   1      46.108  28.468  31.184  1.00  0.00     0.049 A 
ATOM     51  H   UNL A   1      44.119  28.581  30.487  1.00  0.00     0.167 HD
ATOM     52  C   UNL A   1      45.711  26.268  30.113  1.00  0.00     0.074 A 
ATOM     53  C   UNL A   1      46.124  24.940  29.705  1.00  0.00     0.031 C 
ATOM     54  C   UNL A   1      46.509  27.148  30.765  1.00  0.00     0.031 A 
BRANCH  41  55
ATOM     55  C   UNL A   1      43.802  32.569  31.990  1.00  0.00    -0.014 A 
ATOM     56  C   UNL A   1      43.503  32.823  33.340  1.00  0.00     0.010 A 
ATOM     57  C   UNL A   1      44.268  33.623  31.181  1.00  0.00     0.010 A 
ATOM     58  C   UNL A   1      43.629  34.114  33.862  1.00  0.00     0.020 A 
ATOM     59  C   UNL A   1      44.418  34.910  31.706  1.00  0.00     0.020 A 
ATOM     60  C   UNL A   1      44.080  35.150  33.039  1.00  0.00     0.054 A 
BRANCH  60  61
ATOM     61  S   UNL A   1      44.248  36.814  33.744  1.00  0.00     0.124 S 
ATOM     62  O   UNL A   1      45.095  37.475  32.755  1.00  0.00    -0.237 OA
ATOM     63  O   UNL A   1      42.865  37.282  33.799  1.00  0.00    -0.237 OA
ATOM     64  O   UNL A   1      44.875  36.579  35.043  1.00  0.00    -0.744 OA
ENDBRANCH  60  61
ENDBRANCH  41  55
BRANCH  42  65
ATOM     65  C   UNL A   1      42.581  23.558  27.872  1.00  0.00    -0.014 A 
ATOM     66  C   UNL A   1      42.996  23.325  26.551  1.00  0.00     0.010 A 
ATOM     67  C   UNL A   1      42.010  22.503  28.608  1.00  0.00     0.010 A 
ATOM     68  C   UNL A   1      42.834  22.064  25.971  1.00  0.00     0.020 A 
ATOM     69  C   UNL A   1      41.869  21.235  28.040  1.00  0.00     0.020 A 
ATOM     70  C   UNL A   1      42.272  21.026  26.720  1.00  0.00     0.054 A 
BRANCH  70  71
ATOM     71  S   UNL A   1      42.125  19.381  25.969  1.00  0.00     0.124 S 
ATOM     72  O   UNL A   1      42.666  18.520  27.016  1.00  0.00    -0.237 OA
ATOM     73  O   UNL A   1      40.687  19.265  25.734  1.00  0.00    -0.237 OA
ATOM     74  O   UNL A   1      42.939  19.484  24.759  1.00  0.00    -0.744 OA
ENDBRANCH  70  71
ENDBRANCH  42  65
BRANCH  54  75
ATOM     75  C   UNL A   1      47.907  26.700  31.099  1.00  0.00    -0.014 A 
ATOM     76  C   UNL A   1      48.980  26.949  30.224  1.00  0.00     0.010 A 
ATOM     77  C   UNL A   1      48.158  26.060  32.328  1.00  0.00     0.010 A 
ATOM     78  C   UNL A   1      50.274  26.542  30.559  1.00  0.00     0.020 A 
ATOM     79  C   UNL A   1      49.455  25.673  32.675  1.00  0.00     0.020 A 
ATOM     80  C   UNL A   1      50.503  25.903  31.782  1.00  0.00     0.054 A 
BRANCH  80  81
ATOM     81  S   UNL A   1      52.197  25.419  32.214  1.00  0.00     0.124 S 
ATOM     82  O   UNL A   1      52.404  26.128  33.473  1.00  0.00    -0.237 OA
ATOM     83  O   UNL A   1      52.100  23.964  32.320  1.00  0.00    -0.237 OA
ATOM     84  O   UNL A   1      52.992  25.902  31.087  1.00  0.00    -0.744 OA
ENDBRANCH  80  81
ENDBRANCH  54  75
ENDBRANCH  28  29
ENDBRANCH  21  23
ENDBRANCH  20  21
ENDBRANCH   1  20
TORSDOF 18
ENDMDL
MODEL 2
REMARK VINA RESULT:      -9.6      2.647      5.332
REMARK SMILES COc1cc(/C=C/C(=O)OCCOC(=O)c2ccc(-c3c4nc(c(-c5ccc(S(=O)(=O)[O-])cc5)c5ccc([nH]5)c(-c5ccc(S(=O)(=O)[O-])cc5)c5nc(c(-c6ccc(S(=O)(=O)[O-])cc6)c6ccc3[nH]6)C=C5)C=C4)cc2)cc(OC)c1O
REMARK SMILES IDX 12 1 11 2 10 3 8 4 9 5 7 6 6 7 5 8 3 9 4 10 80 11 77 12
REMARK SMILES IDX 76 13 2 14 1 15 81 16 78 18 79 19 13 20 14 21 15 22 16 23
REMARK SMILES IDX 17 24 75 25 18 26 74 27 19 28 20 29 21 30 68 31 22 32 73 33
REMARK SMILES IDX 67 34 69 35 23 36 72 37 66 38 65 39 24 41 54 42 35 43 53 44
REMARK SMILES IDX 36 45 39 46 52 47 70 48 37 49 38 50 51 52 71 53 40 54 25 55
REMARK SMILES IDX 26 56 34 57 27 58 33 59 28 60 29 61 30 62 31 63 32 64 55 65
REMARK SMILES IDX 56 66 64 67 57 68 63 69 58 70 59 71 60 72 61 73 62 74 41 75
REMARK SMILES IDX 42 76 50 77 43 78 49 79 44 80 45 81 46 82 47 83 48 84
REMARK H PARENT 81 17 69 40 39 51
REMARK Flexibility Score: inf
ROOT
ATOM      1  C   UNL A   1      33.464  32.116  27.993  1.00  0.00     0.275 C 
ENDROOT
BRANCH   1   2
ATOM      2  C   UNL A   1      34.144  33.418  28.432  1.00  0.00     0.275 C 
BRANCH   2   3
ATOM      3  O   UNL A   1      34.898  33.242  29.646  1.00  0.00    -0.459 OA
BRANCH   3   4
ATOM      4  C   UNL A   1      36.243  33.180  29.495  1.00  0.00     0.330 C 
ATOM      5  O   UNL A   1      36.876  33.588  28.532  1.00  0.00    -0.247 OA
BRANCH   4   6
ATOM      6  C   UNL A   1      36.930  32.596  30.664  1.00  0.00     0.094 C 
ATOM      7  C   UNL A   1      36.361  32.278  31.837  1.00  0.00     0.016 C 
BRANCH   7   8
ATOM      8  C   UNL A   1      37.143  31.788  32.982  1.00  0.00    -0.018 A 
ATOM      9  C   UNL A   1      37.707  31.848  35.360  1.00  0.00     0.165 A 
ATOM     10  C   UNL A   1      37.015  32.359  34.253  1.00  0.00     0.058 A 
ATOM     11  C   UNL A   1      38.529  30.724  35.196  1.00  0.00     0.200 A 
ATOM     12  C   UNL A   1      38.687  30.144  33.926  1.00  0.00     0.165 A 
ATOM     13  C   UNL A   1      37.979  30.678  32.836  1.00  0.00     0.058 A 
BRANCH   9  14
ATOM     14  O   UNL A   1      37.410  32.501  36.527  1.00  0.00    -0.493 OA
ATOM     15  C   UNL A   1      38.165  33.651  36.883  1.00  0.00     0.278 C 
ENDBRANCH   9  14
BRANCH  11  16
ATOM     16  O   UNL A   1      39.103  30.134  36.289  1.00  0.00    -0.502 OA
ATOM     17  H   UNL A   1      38.753  29.334  36.627  1.00  0.00     0.293 HD
ENDBRANCH  11  16
BRANCH  12  18
ATOM     18  O   UNL A   1      39.426  29.040  33.581  1.00  0.00    -0.493 OA
ATOM     19  C   UNL A   1      40.833  29.177  33.453  1.00  0.00     0.278 C 
ENDBRANCH  12  18
ENDBRANCH   7   8
ENDBRANCH   4   6
ENDBRANCH   3   4
ENDBRANCH   2   3
ENDBRANCH   1   2
BRANCH   1  20
ATOM     20  O   UNL A   1      34.346  31.271  27.232  1.00  0.00    -0.458 OA
BRANCH  20  21
ATOM     21  C   UNL A   1      34.484  30.012  27.713  1.00  0.00     0.338 C 
ATOM     22  O   UNL A   1      33.633  29.139  27.735  1.00  0.00    -0.246 OA
BRANCH  21  23
ATOM     23  C   UNL A   1      35.882  29.777  28.120  1.00  0.00     0.060 A 
ATOM     24  C   UNL A   1      36.880  29.974  27.162  1.00  0.00     0.016 A 
ATOM     25  C   UNL A   1      36.208  29.306  29.395  1.00  0.00     0.016 A 
ATOM     26  C   UNL A   1      38.211  29.698  27.473  1.00  0.00     0.010 A 
ATOM     27  C   UNL A   1      37.545  29.027  29.705  1.00  0.00     0.010 A 
ATOM     28  C   UNL A   1      38.553  29.211  28.744  1.00  0.00    -0.014 A 
BRANCH  28  29
ATOM     29  C   UNL A   1      39.968  28.879  29.043  1.00  0.00     0.031 A 
ATOM     30  C   UNL A   1      40.859  29.888  29.711  1.00  0.00     0.074 A 
ATOM     31  C   UNL A   1      40.443  27.656  28.741  1.00  0.00     0.049 A 
ATOM     32  N   UNL A   1      42.113  29.772  30.070  1.00  0.00    -0.248 NA
ATOM     33  C   UNL A   1      40.263  31.198  30.019  1.00  0.00     0.031 C 
ATOM     34  C   UNL A   1      39.671  26.582  28.113  1.00  0.00     0.029 A 
ATOM     35  N   UNL A   1      41.687  27.109  28.929  1.00  0.00    -0.354 N 
ATOM     36  C   UNL A   1      42.459  30.991  30.639  1.00  0.00     0.074 A 
ATOM     37  C   UNL A   1      41.291  31.842  30.556  1.00  0.00     0.031 C 
ATOM     38  C   UNL A   1      40.458  25.502  27.976  1.00  0.00     0.029 A 
ATOM     39  C   UNL A   1      41.794  25.815  28.477  1.00  0.00     0.049 A 
ATOM     40  H   UNL A   1      42.433  27.596  29.348  1.00  0.00     0.167 HD
ATOM     41  C   UNL A   1      43.641  31.365  31.186  1.00  0.00     0.031 A 
ATOM     42  C   UNL A   1      42.850  24.979  28.455  1.00  0.00     0.031 A 
ATOM     43  C   UNL A   1      44.808  30.524  31.258  1.00  0.00     0.049 A 
ATOM     44  C   UNL A   1      44.167  25.437  29.021  1.00  0.00     0.074 A 
ATOM     45  C   UNL A   1      46.044  30.811  31.810  1.00  0.00     0.029 A 
ATOM     46  N   UNL A   1      44.886  29.233  30.755  1.00  0.00    -0.354 N 
ATOM     47  N   UNL A   1      44.467  26.582  29.584  1.00  0.00    -0.248 NA
ATOM     48  C   UNL A   1      45.285  24.485  28.955  1.00  0.00     0.031 C 
ATOM     49  C   UNL A   1      46.885  29.712  31.599  1.00  0.00     0.029 A 
ATOM     50  C   UNL A   1      46.157  28.721  30.961  1.00  0.00     0.049 A 
ATOM     51  H   UNL A   1      44.148  28.753  30.315  1.00  0.00     0.167 HD
ATOM     52  C   UNL A   1      45.803  26.483  29.955  1.00  0.00     0.074 A 
ATOM     53  C   UNL A   1      46.248  25.160  29.568  1.00  0.00     0.031 C 
ATOM     54  C   UNL A   1      46.590  27.404  30.564  1.00  0.00     0.031 A 
BRANCH  41  55
ATOM     55  C   UNL A   1      43.742  32.766  31.729  1.00  0.00    -0.014 A 
ATOM     56  C   UNL A   1      44.109  33.842  30.901  1.00  0.00     0.010 A 
ATOM     57  C   UNL A   1      43.428  33.015  33.078  1.00  0.00     0.010 A 
ATOM     58  C   UNL A   1      44.197  35.136  31.421  1.00  0.00     0.020 A 
ATOM     59  C   UNL A   1      43.493  34.312  33.596  1.00  0.00     0.020 A 
ATOM     60  C   UNL A   1      43.895  35.362  32.768  1.00  0.00     0.054 A 
BRANCH  60  61
ATOM     61  S   UNL A   1      44.005  37.053  33.416  1.00  0.00     0.124 S 
ATOM     62  O   UNL A   1      45.204  36.979  34.246  1.00  0.00    -0.237 OA
ATOM     63  O   UNL A   1      44.132  37.856  32.201  1.00  0.00    -0.237 OA
ATOM     64  O   UNL A   1      42.752  37.228  34.146  1.00  0.00    -0.744 OA
ENDBRANCH  60  61
ENDBRANCH  41  55
BRANCH  42  65
ATOM     65  C   UNL A   1      42.705  23.621  27.864  1.00  0.00    -0.014 A 
ATOM     66  C   UNL A   1      42.151  22.568  28.610  1.00  0.00     0.010 A 
ATOM     67  C   UNL A   1      43.111  23.382  26.538  1.00  0.00     0.010 A 
ATOM     68  C   UNL A   1      42.015  21.296  28.046  1.00  0.00     0.020 A 
ATOM     69  C   UNL A   1      42.954  22.120  25.962  1.00  0.00     0.020 A 
ATOM     70  C   UNL A   1      42.417  21.081  26.724  1.00  0.00     0.054 A 
BRANCH  70  71
ATOM     71  S   UNL A   1      42.178  19.438  25.991  1.00  0.00     0.124 S 
ATOM     72  O   UNL A   1      40.727  19.381  25.842  1.00  0.00    -0.237 OA
ATOM     73  O   UNL A   1      42.938  19.531  24.747  1.00  0.00    -0.237 OA
ATOM     74  O   UNL A   1      42.742  18.533  26.990  1.00  0.00    -0.744 OA
ENDBRANCH  70  71
ENDBRANCH  42  65
BRANCH  54  75
ATOM     75  C   UNL A   1      48.009  27.009  30.871  1.00  0.00    -0.014 A 
ATOM     76  C   UNL A   1      49.052  27.282  29.969  1.00  0.00     0.010 A 
ATOM     77  C   UNL A   1      48.310  26.395  32.102  1.00  0.00     0.010 A 
ATOM     78  C   UNL A   1      50.368  26.925  30.279  1.00  0.00     0.020 A 
ATOM     79  C   UNL A   1      49.627  26.057  32.425  1.00  0.00     0.020 A 
ATOM     80  C   UNL A   1      50.646  26.311  31.505  1.00  0.00     0.054 A 
BRANCH  80  81
ATOM     81  S   UNL A   1      52.365  25.891  31.904  1.00  0.00     0.124 S 
ATOM     82  O   UNL A   1      53.025  26.053  30.612  1.00  0.00    -0.237 OA
ATOM     83  O   UNL A   1      52.714  26.885  32.917  1.00  0.00    -0.237 OA
ATOM     84  O   UNL A   1      52.280  24.517  32.393  1.00  0.00    -0.744 OA
ENDBRANCH  80  81
ENDBRANCH  54  75
ENDBRANCH  28  29
ENDBRANCH  21  23
ENDBRANCH  20  21
ENDBRANCH   1  20
TORSDOF 18
ENDMDL
MODEL 3
REMARK VINA RESULT:      -9.5      0.926      2.118
REMARK SMILES COc1cc(/C=C/C(=O)OCCOC(=O)c2ccc(-c3c4nc(c(-c5ccc(S(=O)(=O)[O-])cc5)c5ccc([nH]5)c(-c5ccc(S(=O)(=O)[O-])cc5)c5nc(c(-c6ccc(S(=O)(=O)[O-])cc6)c6ccc3[nH]6)C=C5)C=C4)cc2)cc(OC)c1O
REMARK SMILES IDX 12 1 11 2 10 3 8 4 9 5 7 6 6 7 5 8 3 9 4 10 80 11 77 12
REMARK SMILES IDX 76 13 2 14 1 15 81 16 78 18 79 19 13 20 14 21 15 22 16 23
REMARK SMILES IDX 17 24 75 25 18 26 74 27 19 28 20 29 21 30 68 31 22 32 73 33
REMARK SMILES IDX 67 34 69 35 23 36 72 37 66 38 65 39 24 41 54 42 35 43 53 44
REMARK SMILES IDX 36 45 39 46 52 47 70 48 37 49 38 50 51 52 71 53 40 54 25 55
REMARK SMILES IDX 26 56 34 57 27 58 33 59 28 60 29 61 30 62 31 63 32 64 55 65
REMARK SMILES IDX 56 66 64 67 57 68 63 69 58 70 59 71 60 72 61 73 62 74 41 75
REMARK SMILES IDX 42 76 50 77 43 78 49 79 44 80 45 81 46 82 47 83 48 84
REMARK H PARENT 81 17 69 40 39 51
REMARK Flexibility Score: inf
ROOT
ATOM      1  C   UNL A   1      32.630  29.878  26.557  1.00  0.00     0.275 C 
ENDROOT
BRANCH   1   2
ATOM      2  C   UNL A   1      32.473  28.945  25.351  1.00  0.00     0.275 C 
BRANCH   2   3
ATOM      3  O   UNL A   1      33.468  27.905  25.348  1.00  0.00    -0.459 OA
BRANCH   3   4
ATOM      4  C   UNL A   1      33.638  27.264  24.166  1.00  0.00     0.330 C 
ATOM      5  O   UNL A   1      33.565  27.772  23.057  1.00  0.00    -0.247 OA
BRANCH   4   6
ATOM      6  C   UNL A   1      33.987  25.838  24.327  1.00  0.00     0.094 C 
ATOM      7  C   UNL A   1      34.574  25.285  25.399  1.00  0.00     0.016 C 
BRANCH   7   8
ATOM      8  C   UNL A   1      34.972  23.869  25.434  1.00  0.00    -0.018 A 
ATOM      9  C   UNL A   1      34.403  21.493  25.366  1.00  0.00     0.165 A 
ATOM     10  C   UNL A   1      34.023  22.842  25.403  1.00  0.00     0.058 A 
ATOM     11  C   UNL A   1      35.766  21.164  25.333  1.00  0.00     0.200 A 
ATOM     12  C   UNL A   1      36.738  22.178  25.379  1.00  0.00     0.165 A 
ATOM     13  C   UNL A   1      36.325  23.521  25.416  1.00  0.00     0.058 A 
BRANCH   9  14
ATOM     14  O   UNL A   1      33.336  20.637  25.281  1.00  0.00    -0.493 OA
ATOM     15  C   UNL A   1      32.035  21.176  25.098  1.00  0.00     0.278 C 
ENDBRANCH   9  14
BRANCH  11  16
ATOM     16  O   UNL A   1      36.149  19.863  25.159  1.00  0.00    -0.502 OA
ATOM     17  H   UNL A   1      36.272  19.522  24.295  1.00  0.00     0.293 HD
ENDBRANCH  11  16
BRANCH  12  18
ATOM     18  O   UNL A   1      38.103  22.050  25.336  1.00  0.00    -0.493 OA
ATOM     19  C   UNL A   1      38.875  22.660  26.360  1.00  0.00     0.278 C 
ENDBRANCH  12  18
ENDBRANCH   7   8
ENDBRANCH   4   6
ENDBRANCH   3   4
ENDBRANCH   2   3
ENDBRANCH   1   2
BRANCH   1  20
ATOM     20  O   UNL A   1      33.660  29.433  27.458  1.00  0.00    -0.458 OA
BRANCH  20  21
ATOM     21  C   UNL A   1      34.375  30.426  28.041  1.00  0.00     0.338 C 
ATOM     22  O   UNL A   1      33.948  31.491  28.452  1.00  0.00    -0.246 OA
BRANCH  21  23
ATOM     23  C   UNL A   1      35.774  29.998  28.230  1.00  0.00     0.060 A 
ATOM     24  C   UNL A   1      36.161  29.586  29.508  1.00  0.00     0.016 A 
ATOM     25  C   UNL A   1      36.710  30.062  27.194  1.00  0.00     0.016 A 
ATOM     26  C   UNL A   1      37.489  29.239  29.758  1.00  0.00     0.010 A 
ATOM     27  C   UNL A   1      38.042  29.715  27.447  1.00  0.00     0.010 A 
ATOM     28  C   UNL A   1      38.443  29.312  28.732  1.00  0.00    -0.014 A 
BRANCH  28  29
ATOM     29  C   UNL A   1      39.859  28.984  29.026  1.00  0.00     0.031 A 
ATOM     30  C   UNL A   1      40.753  30.000  29.680  1.00  0.00     0.074 A 
ATOM     31  C   UNL A   1      40.335  27.759  28.732  1.00  0.00     0.049 A 
ATOM     32  N   UNL A   1      42.008  29.890  30.033  1.00  0.00    -0.248 NA
ATOM     33  C   UNL A   1      40.156  31.312  29.980  1.00  0.00     0.031 C 
ATOM     34  C   UNL A   1      39.562  26.679  28.117  1.00  0.00     0.029 A 
ATOM     35  N   UNL A   1      41.581  27.216  28.918  1.00  0.00    -0.354 N 
ATOM     36  C   UNL A   1      42.356  31.114  30.591  1.00  0.00     0.074 A 
ATOM     37  C   UNL A   1      41.186  31.962  30.506  1.00  0.00     0.031 C 
ATOM     38  C   UNL A   1      40.349  25.599  27.986  1.00  0.00     0.029 A 
ATOM     39  C   UNL A   1      41.687  25.918  28.477  1.00  0.00     0.049 A 
ATOM     40  H   UNL A   1      42.328  27.708  29.329  1.00  0.00     0.167 HD
ATOM     41  C   UNL A   1      43.540  31.495  31.128  1.00  0.00     0.031 A 
ATOM     42  C   UNL A   1      42.745  25.083  28.456  1.00  0.00     0.031 A 
ATOM     43  C   UNL A   1      44.708  30.656  31.201  1.00  0.00     0.049 A 
ATOM     44  C   UNL A   1      44.064  25.548  29.011  1.00  0.00     0.074 A 
ATOM     45  C   UNL A   1      45.947  30.949  31.744  1.00  0.00     0.029 A 
ATOM     46  N   UNL A   1      44.786  29.361  30.708  1.00  0.00    -0.354 N 
ATOM     47  N   UNL A   1      44.365  26.699  29.563  1.00  0.00    -0.248 NA
ATOM     48  C   UNL A   1      45.183  24.598  28.948  1.00  0.00     0.031 C 
ATOM     49  C   UNL A   1      46.789  29.850  31.538  1.00  0.00     0.029 A 
ATOM     50  C   UNL A   1      46.059  28.853  30.913  1.00  0.00     0.049 A 
ATOM     51  H   UNL A   1      44.046  28.876  30.277  1.00  0.00     0.167 HD
ATOM     52  C   UNL A   1      45.703  26.606  29.928  1.00  0.00     0.074 A 
ATOM     53  C   UNL A   1      46.148  25.279  29.550  1.00  0.00     0.031 C 
ATOM     54  C   UNL A   1      46.492  27.533  30.525  1.00  0.00     0.031 A 
BRANCH  41  55
ATOM     55  C   UNL A   1      43.642  32.901  31.658  1.00  0.00    -0.014 A 
ATOM     56  C   UNL A   1      44.005  33.969  30.819  1.00  0.00     0.010 A 
ATOM     57  C   UNL A   1      43.331  33.161  33.005  1.00  0.00     0.010 A 
ATOM     58  C   UNL A   1      44.095  35.268  31.328  1.00  0.00     0.020 A 
ATOM     59  C   UNL A   1      43.397  34.463  33.512  1.00  0.00     0.020 A 
ATOM     60  C   UNL A   1      43.796  35.505  32.674  1.00  0.00     0.054 A 
BRANCH  60  61
ATOM     61  S   UNL A   1      43.907  37.202  33.306  1.00  0.00     0.124 S 
ATOM     62  O   UNL A   1      42.671  37.318  34.074  1.00  0.00    -0.237 OA
ATOM     63  O   UNL A   1      45.136  37.172  34.096  1.00  0.00    -0.237 OA
ATOM     64  O   UNL A   1      43.969  38.020  32.097  1.00  0.00    -0.744 OA
ENDBRANCH  60  61
ENDBRANCH  41  55
BRANCH  42  65
ATOM     65  C   UNL A   1      42.599  23.721  27.879  1.00  0.00    -0.014 A 
ATOM     66  C   UNL A   1      42.211  22.637  28.683  1.00  0.00     0.010 A 
ATOM     67  C   UNL A   1      42.836  23.507  26.508  1.00  0.00     0.010 A 
ATOM     68  C   UNL A   1      42.072  21.360  28.130  1.00  0.00     0.020 A 
ATOM     69  C   UNL A   1      42.674  22.238  25.947  1.00  0.00     0.020 A 
ATOM     70  C   UNL A   1      42.304  21.169  26.765  1.00  0.00     0.054 A 
BRANCH  70  71
ATOM     71  S   UNL A   1      42.062  19.517  26.055  1.00  0.00     0.124 S 
ATOM     72  O   UNL A   1      40.621  19.497  25.820  1.00  0.00    -0.237 OA
ATOM     73  O   UNL A   1      42.898  19.558  24.858  1.00  0.00    -0.237 OA
ATOM     74  O   UNL A   1      42.538  18.621  27.107  1.00  0.00    -0.744 OA
ENDBRANCH  70  71
ENDBRANCH  42  65
BRANCH  54  75
ATOM     75  C   UNL A   1      47.913  27.143  30.827  1.00  0.00    -0.014 A 
ATOM     76  C   UNL A   1      48.255  26.519  32.041  1.00  0.00     0.010 A 
ATOM     77  C   UNL A   1      48.915  27.361  29.863  1.00  0.00     0.010 A 
ATOM     78  C   UNL A   1      49.577  26.146  32.297  1.00  0.00     0.020 A 
ATOM     79  C   UNL A   1      50.234  26.969  30.107  1.00  0.00     0.020 A 
ATOM     80  C   UNL A   1      50.560  26.376  31.329  1.00  0.00     0.054 A 
BRANCH  80  81
ATOM     81  S   UNL A   1      52.262  25.849  31.666  1.00  0.00     0.124 S 
ATOM     82  O   UNL A   1      52.689  26.821  32.667  1.00  0.00    -0.237 OA
ATOM     83  O   UNL A   1      52.087  24.482  32.152  1.00  0.00    -0.237 OA
ATOM     84  O   UNL A   1      52.922  25.960  30.367  1.00  0.00    -0.744 OA
ENDBRANCH  80  81
ENDBRANCH  54  75
ENDBRANCH  28  29
ENDBRANCH  21  23
ENDBRANCH  20  21
ENDBRANCH   1  20
TORSDOF 18
ENDMDL
