MODEL 1
REMARK VINA RESULT:     -10.8      0.000      0.000
REMARK SMILES C[C@@H]1CN(C(=O)Nc2ccc(O)c(C(=O)OCCOC(=O)c3ccc(-c4c5nc(c(-c6ccc(S(=O)(=O)[O-])cc6)c6ccc([nH]6)c(-c6ccc(S(=O)(=O)[O-])cc6)c6nc(c(-c7ccc(S(=O)(=O)[O-])cc7)c7ccc4[nH]7)C=C6)C=C5)cc3)c2)C[C@@H]1C
REMARK SMILES IDX 18 1 17 2 16 3 14 4 15 5 13 6 8 7 9 8 82 9 10 10 11 11 7 12
REMARK SMILES IDX 5 13 6 14 4 16 1 17 2 18 3 19 84 20 83 21 85 22 12 23 19 25
REMARK SMILES IDX 20 26 21 27 22 28 23 29 81 30 24 31 80 32 25 33 26 34 27 35
REMARK SMILES IDX 74 36 28 37 79 38 73 39 75 40 29 41 78 42 72 43 71 44 30 46
REMARK SMILES IDX 60 47 41 48 59 49 42 50 45 51 58 52 76 53 43 54 44 55 57 57
REMARK SMILES IDX 77 58 46 59 31 60 32 61 40 62 33 63 39 64 34 65 35 66 36 67
REMARK SMILES IDX 37 68 38 69 61 70 62 71 70 72 63 73 69 74 64 75 65 76 66 77
REMARK SMILES IDX 67 78 68 79 47 80 48 81 56 82 49 83 55 84 50 85 51 86 52 87
REMARK SMILES IDX 53 88 54 89
REMARK H PARENT 7 15 12 24 75 45 45 56
REMARK Flexibility Score: inf
ROOT
ATOM      1  C   UNL A   1      32.943  30.375  26.496  1.00  0.00     0.275 C 
ENDROOT
BRANCH   1   2
ATOM      2  C   UNL A   1      32.679  29.299  25.445  1.00  0.00     0.275 C 
BRANCH   2   3
ATOM      3  O   UNL A   1      31.308  28.870  25.517  1.00  0.00    -0.458 OA
BRANCH   3   4
ATOM      4  C   UNL A   1      30.655  28.717  24.339  1.00  0.00     0.342 C 
ATOM      5  O   UNL A   1      30.059  29.582  23.724  1.00  0.00    -0.246 OA
BRANCH   4   6
ATOM      6  C   UNL A   1      30.897  27.365  23.783  1.00  0.00     0.103 A 
ATOM      7  C   UNL A   1      30.680  24.972  24.115  1.00  0.00     0.044 A 
ATOM      8  C   UNL A   1      31.243  24.744  22.862  1.00  0.00     0.030 A 
ATOM      9  C   UNL A   1      30.478  26.274  24.560  1.00  0.00     0.045 A 
ATOM     10  C   UNL A   1      31.700  25.822  22.097  1.00  0.00     0.049 A 
ATOM     11  C   UNL A   1      31.551  27.129  22.572  1.00  0.00     0.130 A 
BRANCH   7  12
ATOM     12  N   UNL A   1      30.319  23.920  24.955  1.00  0.00    -0.308 N 
ATOM     13  C   UNL A   1      31.058  22.899  25.476  1.00  0.00     0.321 C 
ATOM     14  O   UNL A   1      30.446  22.002  26.061  1.00  0.00    -0.248 OA
ATOM     15  H   UNL A   1      29.370  23.913  25.217  1.00  0.00     0.171 HD
BRANCH  13  16
ATOM     16  N   UNL A   1      32.427  22.939  25.467  1.00  0.00    -0.324 N 
ATOM     17  C   UNL A   1      35.718  22.967  23.774  1.00  0.00     0.010 C 
ATOM     18  C   UNL A   1      34.741  22.872  24.934  1.00  0.00     0.010 C 
ATOM     19  C   UNL A   1      33.357  22.438  24.470  1.00  0.00     0.125 C 
ATOM     20  C   UNL A   1      34.454  24.151  25.732  1.00  0.00     0.010 C 
ATOM     21  C   UNL A   1      33.130  23.785  26.426  1.00  0.00     0.125 C 
ATOM     22  C   UNL A   1      34.300  25.418  24.889  1.00  0.00     0.010 C 
ENDBRANCH  13  16
ENDBRANCH   7  12
BRANCH  11  23
ATOM     23  O   UNL A   1      32.110  28.160  21.872  1.00  0.00    -0.507 OA
ATOM     24  H   UNL A   1      32.916  28.541  22.162  1.00  0.00     0.293 HD
ENDBRANCH  11  23
ENDBRANCH   4   6
ENDBRANCH   3   4
ENDBRANCH   2   3
ENDBRANCH   1   2
BRANCH   1  25
ATOM     25  O   UNL A   1      33.703  29.821  27.586  1.00  0.00    -0.458 OA
BRANCH  25  26
ATOM     26  C   UNL A   1      34.526  30.687  28.217  1.00  0.00     0.338 C 
ATOM     27  O   UNL A   1      34.246  31.778  28.687  1.00  0.00    -0.246 OA
BRANCH  26  28
ATOM     28  C   UNL A   1      35.864  30.092  28.337  1.00  0.00     0.060 A 
ATOM     29  C   UNL A   1      36.267  29.619  29.580  1.00  0.00     0.016 A 
ATOM     30  C   UNL A   1      36.765  30.139  27.277  1.00  0.00     0.016 A 
ATOM     31  C   UNL A   1      37.603  29.301  29.810  1.00  0.00     0.010 A 
ATOM     32  C   UNL A   1      38.083  29.710  27.481  1.00  0.00     0.010 A 
ATOM     33  C   UNL A   1      38.533  29.330  28.761  1.00  0.00    -0.014 A 
BRANCH  33  34
ATOM     34  C   UNL A   1      39.969  28.999  29.004  1.00  0.00     0.031 A 
ATOM     35  C   UNL A   1      40.898  30.035  29.593  1.00  0.00     0.074 A 
ATOM     36  C   UNL A   1      40.453  27.775  28.706  1.00  0.00     0.049 A 
ATOM     37  N   UNL A   1      42.202  30.007  29.711  1.00  0.00    -0.248 NA
ATOM     38  C   UNL A   1      40.282  31.272  30.100  1.00  0.00     0.031 C 
ATOM     39  C   UNL A   1      39.670  26.656  28.176  1.00  0.00     0.029 A 
ATOM     40  N   UNL A   1      41.724  27.261  28.816  1.00  0.00    -0.354 N 
ATOM     41  C   UNL A   1      42.566  31.239  30.246  1.00  0.00     0.074 A 
ATOM     42  C   UNL A   1      41.345  31.996  30.423  1.00  0.00     0.031 C 
ATOM     43  C   UNL A   1      40.463  25.582  28.050  1.00  0.00     0.029 A 
ATOM     44  C   UNL A   1      41.829  25.955  28.396  1.00  0.00     0.049 A 
ATOM     45  H   UNL A   1      42.485  27.780  29.163  1.00  0.00     0.167 HD
ATOM     46  C   UNL A   1      43.802  31.701  30.558  1.00  0.00     0.031 A 
ATOM     47  C   UNL A   1      42.904  25.155  28.257  1.00  0.00     0.031 A 
ATOM     48  C   UNL A   1      45.010  30.928  30.425  1.00  0.00     0.049 A 
ATOM     49  C   UNL A   1      44.268  25.696  28.581  1.00  0.00     0.074 A 
ATOM     50  C   UNL A   1      46.309  31.301  30.727  1.00  0.00     0.029 A 
ATOM     51  N   UNL A   1      45.068  29.618  29.970  1.00  0.00    -0.354 N 
ATOM     52  N   UNL A   1      44.597  26.884  29.028  1.00  0.00    -0.248 NA
ATOM     53  C   UNL A   1      45.407  24.794  28.364  1.00  0.00     0.031 C 
ATOM     54  C   UNL A   1      47.157  30.234  30.413  1.00  0.00     0.029 A 
ATOM     55  C   UNL A   1      46.382  29.175  29.969  1.00  0.00     0.049 A 
ATOM     56  H   UNL A   1      44.292  29.083  29.690  1.00  0.00     0.167 HD
ATOM     57  C   UNL A   1      45.980  26.866  29.162  1.00  0.00     0.074 A 
ATOM     58  C   UNL A   1      46.423  25.546  28.765  1.00  0.00     0.031 C 
ATOM     59  C   UNL A   1      46.808  27.858  29.571  1.00  0.00     0.031 A 
BRANCH  46  60
ATOM     60  C   UNL A   1      43.920  33.126  31.032  1.00  0.00    -0.014 A 
ATOM     61  C   UNL A   1      44.126  34.190  30.136  1.00  0.00     0.010 A 
ATOM     62  C   UNL A   1      43.779  33.410  32.404  1.00  0.00     0.010 A 
ATOM     63  C   UNL A   1      44.230  35.503  30.607  1.00  0.00     0.020 A 
ATOM     64  C   UNL A   1      43.855  34.724  32.876  1.00  0.00     0.020 A 
ATOM     65  C   UNL A   1      44.100  35.761  31.976  1.00  0.00     0.054 A 
BRANCH  65  66
ATOM     66  S   UNL A   1      44.225  37.475  32.560  1.00  0.00     0.124 S 
ATOM     67  O   UNL A   1      45.648  37.582  32.874  1.00  0.00    -0.237 OA
ATOM     68  O   UNL A   1      43.779  38.244  31.401  1.00  0.00    -0.237 OA
ATOM     69  O   UNL A   1      43.329  37.515  33.713  1.00  0.00    -0.744 OA
ENDBRANCH  65  66
ENDBRANCH  46  60
BRANCH  47  70
ATOM     70  C   UNL A   1      42.733  23.769  27.737  1.00  0.00    -0.014 A 
ATOM     71  C   UNL A   1      42.441  22.706  28.609  1.00  0.00     0.010 A 
ATOM     72  C   UNL A   1      42.839  23.512  26.357  1.00  0.00     0.010 A 
ATOM     73  C   UNL A   1      42.265  21.410  28.110  1.00  0.00     0.020 A 
ATOM     74  C   UNL A   1      42.633  22.225  25.854  1.00  0.00     0.020 A 
ATOM     75  C   UNL A   1      42.358  21.179  26.735  1.00  0.00     0.054 A 
BRANCH  75  76
ATOM     76  S   UNL A   1      42.062  19.504  26.102  1.00  0.00     0.124 S 
ATOM     77  O   UNL A   1      42.527  18.676  27.208  1.00  0.00    -0.237 OA
ATOM     78  O   UNL A   1      40.619  19.502  25.872  1.00  0.00    -0.237 OA
ATOM     79  O   UNL A   1      42.877  19.449  24.890  1.00  0.00    -0.744 OA
ENDBRANCH  75  76
ENDBRANCH  47  70
BRANCH  59  80
ATOM     80  C   UNL A   1      48.278  27.542  29.648  1.00  0.00    -0.014 A 
ATOM     81  C   UNL A   1      49.120  27.718  28.535  1.00  0.00     0.010 A 
ATOM     82  C   UNL A   1      48.830  27.105  30.864  1.00  0.00     0.010 A 
ATOM     83  C   UNL A   1      50.484  27.433  28.632  1.00  0.00     0.020 A 
ATOM     84  C   UNL A   1      50.198  26.842  30.971  1.00  0.00     0.020 A 
ATOM     85  C   UNL A   1      51.014  26.995  29.849  1.00  0.00     0.054 A 
BRANCH  85  86
ATOM     86  S   UNL A   1      52.795  26.668  29.961  1.00  0.00     0.124 S 
ATOM     87  O   UNL A   1      53.100  26.183  28.617  1.00  0.00    -0.237 OA
ATOM     88  O   UNL A   1      53.343  27.981  30.295  1.00  0.00    -0.237 OA
ATOM     89  O   UNL A   1      52.899  25.670  31.021  1.00  0.00    -0.744 OA
ENDBRANCH  85  86
ENDBRANCH  59  80
ENDBRANCH  33  34
ENDBRANCH  26  28
ENDBRANCH  25  26
ENDBRANCH   1  25
TORSDOF 17
ENDMDL
MODEL 2
REMARK VINA RESULT:     -10.7      2.541      8.670
REMARK SMILES C[C@@H]1CN(C(=O)Nc2ccc(O)c(C(=O)OCCOC(=O)c3ccc(-c4c5nc(c(-c6ccc(S(=O)(=O)[O-])cc6)c6ccc([nH]6)c(-c6ccc(S(=O)(=O)[O-])cc6)c6nc(c(-c7ccc(S(=O)(=O)[O-])cc7)c7ccc4[nH]7)C=C6)C=C5)cc3)c2)C[C@@H]1C
REMARK SMILES IDX 18 1 17 2 16 3 14 4 15 5 13 6 8 7 9 8 82 9 10 10 11 11 7 12
REMARK SMILES IDX 5 13 6 14 4 16 1 17 2 18 3 19 84 20 83 21 85 22 12 23 19 25
REMARK SMILES IDX 20 26 21 27 22 28 23 29 81 30 24 31 80 32 25 33 26 34 27 35
REMARK SMILES IDX 74 36 28 37 79 38 73 39 75 40 29 41 78 42 72 43 71 44 30 46
REMARK SMILES IDX 60 47 41 48 59 49 42 50 45 51 58 52 76 53 43 54 44 55 57 57
REMARK SMILES IDX 77 58 46 59 31 60 32 61 40 62 33 63 39 64 34 65 35 66 36 67
REMARK SMILES IDX 37 68 38 69 61 70 62 71 70 72 63 73 69 74 64 75 65 76 66 77
REMARK SMILES IDX 67 78 68 79 47 80 48 81 56 82 49 83 55 84 50 85 51 86 52 87
REMARK SMILES IDX 53 88 54 89
REMARK H PARENT 7 15 12 24 75 45 45 56
REMARK Flexibility Score: inf
ROOT
ATOM      1  C   UNL A   1      34.911  29.479  27.854  1.00  0.00     0.275 C 
ENDROOT
BRANCH   1   2
ATOM      2  C   UNL A   1      33.960  30.332  27.018  1.00  0.00     0.275 C 
BRANCH   2   3
ATOM      3  O   UNL A   1      33.349  29.525  25.996  1.00  0.00    -0.458 OA
BRANCH   3   4
ATOM      4  C   UNL A   1      32.032  29.741  25.755  1.00  0.00     0.342 C 
ATOM      5  O   UNL A   1      31.472  30.821  25.713  1.00  0.00    -0.246 OA
BRANCH   4   6
ATOM      6  C   UNL A   1      31.360  28.477  25.373  1.00  0.00     0.103 A 
ATOM      7  C   UNL A   1      30.860  26.185  25.987  1.00  0.00     0.044 A 
ATOM      8  C   UNL A   1      30.114  26.031  24.822  1.00  0.00     0.030 A 
ATOM      9  C   UNL A   1      31.453  27.409  26.277  1.00  0.00     0.045 A 
ATOM     10  C   UNL A   1      30.048  27.076  23.895  1.00  0.00     0.049 A 
ATOM     11  C   UNL A   1      30.695  28.288  24.160  1.00  0.00     0.130 A 
BRANCH   7  12
ATOM     12  N   UNL A   1      31.046  25.129  26.879  1.00  0.00    -0.308 N 
ATOM     13  C   UNL A   1      31.705  23.944  26.736  1.00  0.00     0.321 C 
ATOM     14  O   UNL A   1      31.571  23.113  27.637  1.00  0.00    -0.248 OA
ATOM     15  H   UNL A   1      30.631  25.262  27.762  1.00  0.00     0.171 HD
BRANCH  13  16
ATOM     16  N   UNL A   1      32.583  23.743  25.705  1.00  0.00    -0.324 N 
ATOM     17  C   UNL A   1      33.427  23.249  22.135  1.00  0.00     0.010 C 
ATOM     18  C   UNL A   1      33.659  23.287  23.637  1.00  0.00     0.010 C 
ATOM     19  C   UNL A   1      32.359  23.120  24.412  1.00  0.00     0.125 C 
ATOM     20  C   UNL A   1      34.258  24.568  24.234  1.00  0.00     0.010 C 
ATOM     21  C   UNL A   1      33.878  24.417  25.717  1.00  0.00     0.125 C 
ATOM     22  C   UNL A   1      33.704  25.871  23.655  1.00  0.00     0.010 C 
ENDBRANCH  13  16
ENDBRANCH   7  12
BRANCH  11  23
ATOM     23  O   UNL A   1      30.723  29.253  23.193  1.00  0.00    -0.507 OA
ATOM     24  H   UNL A   1      30.330  29.092  22.358  1.00  0.00     0.293 HD
ENDBRANCH  11  23
ENDBRANCH   4   6
ENDBRANCH   3   4
ENDBRANCH   2   3
ENDBRANCH   1   2
BRANCH   1  25
ATOM     25  O   UNL A   1      35.919  30.313  28.454  1.00  0.00    -0.458 OA
BRANCH  25  26
ATOM     26  C   UNL A   1      36.620  29.743  29.459  1.00  0.00     0.338 C 
ATOM     27  O   UNL A   1      36.187  29.256  30.490  1.00  0.00    -0.246 OA
BRANCH  26  28
ATOM     28  C   UNL A   1      38.047  29.720  29.109  1.00  0.00     0.060 A 
ATOM     29  C   UNL A   1      38.396  29.672  27.764  1.00  0.00     0.016 A 
ATOM     30  C   UNL A   1      39.023  29.592  30.093  1.00  0.00     0.016 A 
ATOM     31  C   UNL A   1      39.704  29.377  27.389  1.00  0.00     0.010 A 
ATOM     32  C   UNL A   1      40.358  29.408  29.712  1.00  0.00     0.010 A 
ATOM     33  C   UNL A   1      40.711  29.251  28.357  1.00  0.00    -0.014 A 
BRANCH  33  34
ATOM     34  C   UNL A   1      42.114  28.925  27.961  1.00  0.00     0.031 A 
ATOM     35  C   UNL A   1      42.480  27.517  27.553  1.00  0.00     0.074 A 
ATOM     36  C   UNL A   1      43.067  29.880  27.957  1.00  0.00     0.049 A 
ATOM     37  N   UNL A   1      43.664  26.994  27.352  1.00  0.00    -0.248 NA
ATOM     38  C   UNL A   1      41.371  26.567  27.363  1.00  0.00     0.031 C 
ATOM     39  C   UNL A   1      42.858  31.294  28.281  1.00  0.00     0.029 A 
ATOM     40  N   UNL A   1      44.408  29.808  27.661  1.00  0.00    -0.354 N 
ATOM     41  C   UNL A   1      43.447  25.648  27.075  1.00  0.00     0.074 A 
ATOM     42  C   UNL A   1      42.018  25.432  27.140  1.00  0.00     0.031 C 
ATOM     43  C   UNL A   1      44.011  31.959  28.123  1.00  0.00     0.029 A 
ATOM     44  C   UNL A   1      45.066  31.010  27.783  1.00  0.00     0.049 A 
ATOM     45  H   UNL A   1      44.855  28.974  27.389  1.00  0.00     0.167 HD
ATOM     46  C   UNL A   1      44.354  24.679  26.795  1.00  0.00     0.031 A 
ATOM     47  C   UNL A   1      46.373  31.318  27.680  1.00  0.00     0.031 A 
ATOM     48  C   UNL A   1      45.771  24.907  26.683  1.00  0.00     0.049 A 
ATOM     49  C   UNL A   1      47.364  30.225  27.398  1.00  0.00     0.074 A 
ATOM     50  C   UNL A   1      46.770  23.994  26.390  1.00  0.00     0.029 A 
ATOM     51  N   UNL A   1      46.392  26.138  26.840  1.00  0.00    -0.354 N 
ATOM     52  N   UNL A   1      47.145  28.947  27.198  1.00  0.00    -0.248 NA
ATOM     53  C   UNL A   1      48.780  30.611  27.345  1.00  0.00     0.031 C 
ATOM     54  C   UNL A   1      47.998  24.664  26.414  1.00  0.00     0.029 A 
ATOM     55  C   UNL A   1      47.760  26.004  26.666  1.00  0.00     0.049 A 
ATOM     56  H   UNL A   1      45.928  26.981  27.046  1.00  0.00     0.167 HD
ATOM     57  C   UNL A   1      48.394  28.380  26.979  1.00  0.00     0.074 A 
ATOM     58  C   UNL A   1      49.362  29.455  27.054  1.00  0.00     0.031 C 
ATOM     59  C   UNL A   1      48.711  27.083  26.744  1.00  0.00     0.031 A 
BRANCH  46  60
ATOM     60  C   UNL A   1      43.847  23.269  26.632  1.00  0.00    -0.014 A 
ATOM     61  C   UNL A   1      44.107  22.517  25.473  1.00  0.00     0.010 A 
ATOM     62  C   UNL A   1      43.128  22.670  27.685  1.00  0.00     0.010 A 
ATOM     63  C   UNL A   1      43.623  21.210  25.353  1.00  0.00     0.020 A 
ATOM     64  C   UNL A   1      42.667  21.354  27.580  1.00  0.00     0.020 A 
ATOM     65  C   UNL A   1      42.901  20.638  26.405  1.00  0.00     0.054 A 
BRANCH  65  66
ATOM     66  S   UNL A   1      42.297  18.936  26.230  1.00  0.00     0.124 S 
ATOM     67  O   UNL A   1      40.906  19.151  25.836  1.00  0.00    -0.237 OA
ATOM     68  O   UNL A   1      43.166  18.391  25.191  1.00  0.00    -0.237 OA
ATOM     69  O   UNL A   1      42.485  18.362  27.560  1.00  0.00    -0.744 OA
ENDBRANCH  65  66
ENDBRANCH  46  60
BRANCH  47  70
ATOM     70  C   UNL A   1      46.823  32.722  27.899  1.00  0.00    -0.014 A 
ATOM     71  C   UNL A   1      47.181  33.169  29.182  1.00  0.00     0.010 A 
ATOM     72  C   UNL A   1      46.915  33.613  26.814  1.00  0.00     0.010 A 
ATOM     73  C   UNL A   1      47.619  34.485  29.377  1.00  0.00     0.020 A 
ATOM     74  C   UNL A   1      47.382  34.918  27.000  1.00  0.00     0.020 A 
ATOM     75  C   UNL A   1      47.720  35.349  28.282  1.00  0.00     0.054 A 
BRANCH  75  76
ATOM     76  S   UNL A   1      48.352  37.030  28.545  1.00  0.00     0.124 S 
ATOM     77  O   UNL A   1      47.236  37.668  29.234  1.00  0.00    -0.237 OA
ATOM     78  O   UNL A   1      49.547  36.798  29.354  1.00  0.00    -0.237 OA
ATOM     79  O   UNL A   1      48.611  37.512  27.190  1.00  0.00    -0.744 OA
ENDBRANCH  75  76
ENDBRANCH  47  70
BRANCH  59  80
ATOM     80  C   UNL A   1      50.163  26.759  26.511  1.00  0.00    -0.014 A 
ATOM     81  C   UNL A   1      50.997  26.354  27.568  1.00  0.00     0.010 A 
ATOM     82  C   UNL A   1      50.686  26.820  25.207  1.00  0.00     0.010 A 
ATOM     83  C   UNL A   1      52.338  26.043  27.328  1.00  0.00     0.020 A 
ATOM     84  C   UNL A   1      52.019  26.486  24.960  1.00  0.00     0.020 A 
ATOM     85  C   UNL A   1      52.841  26.113  26.025  1.00  0.00     0.054 A 
BRANCH  85  86
ATOM     86  S   UNL A   1      54.575  25.667  25.732  1.00  0.00     0.124 S 
ATOM     87  O   UNL A   1      54.611  25.526  24.279  1.00  0.00    -0.237 OA
ATOM     88  O   UNL A   1      55.299  26.817  26.270  1.00  0.00    -0.237 OA
ATOM     89  O   UNL A   1      54.745  24.426  26.483  1.00  0.00    -0.744 OA
ENDBRANCH  85  86
ENDBRANCH  59  80
ENDBRANCH  33  34
ENDBRANCH  26  28
ENDBRANCH  25  26
ENDBRANCH   1  25
TORSDOF 17
ENDMDL
MODEL 3
REMARK VINA RESULT:     -10.7      2.626      3.557
REMARK SMILES C[C@@H]1CN(C(=O)Nc2ccc(O)c(C(=O)OCCOC(=O)c3ccc(-c4c5nc(c(-c6ccc(S(=O)(=O)[O-])cc6)c6ccc([nH]6)c(-c6ccc(S(=O)(=O)[O-])cc6)c6nc(c(-c7ccc(S(=O)(=O)[O-])cc7)c7ccc4[nH]7)C=C6)C=C5)cc3)c2)C[C@@H]1C
REMARK SMILES IDX 18 1 17 2 16 3 14 4 15 5 13 6 8 7 9 8 82 9 10 10 11 11 7 12
REMARK SMILES IDX 5 13 6 14 4 16 1 17 2 18 3 19 84 20 83 21 85 22 12 23 19 25
REMARK SMILES IDX 20 26 21 27 22 28 23 29 81 30 24 31 80 32 25 33 26 34 27 35
REMARK SMILES IDX 74 36 28 37 79 38 73 39 75 40 29 41 78 42 72 43 71 44 30 46
REMARK SMILES IDX 60 47 41 48 59 49 42 50 45 51 58 52 76 53 43 54 44 55 57 57
REMARK SMILES IDX 77 58 46 59 31 60 32 61 40 62 33 63 39 64 34 65 35 66 36 67
REMARK SMILES IDX 37 68 38 69 61 70 62 71 70 72 63 73 69 74 64 75 65 76 66 77
REMARK SMILES IDX 67 78 68 79 47 80 48 81 56 82 49 83 55 84 50 85 51 86 52 87
REMARK SMILES IDX 53 88 54 89
REMARK H PARENT 7 15 12 24 75 45 45 56
REMARK Flexibility Score: inf
ROOT
ATOM      1  C   UNL A   1      35.105  30.540  27.567  1.00  0.00     0.275 C 
ENDROOT
BRANCH   1   2
ATOM      2  C   UNL A   1      34.749  29.125  27.118  1.00  0.00     0.275 C 
BRANCH   2   3
ATOM      3  O   UNL A   1      33.408  28.804  27.527  1.00  0.00    -0.458 OA
BRANCH   3   4
ATOM      4  C   UNL A   1      32.402  29.386  26.828  1.00  0.00     0.342 C 
ATOM      5  O   UNL A   1      32.167  30.579  26.755  1.00  0.00    -0.246 OA
BRANCH   4   6
ATOM      6  C   UNL A   1      31.694  28.380  26.002  1.00  0.00     0.103 A 
ATOM      7  C   UNL A   1      30.571  26.231  25.951  1.00  0.00     0.044 A 
ATOM      8  C   UNL A   1      30.302  26.400  24.596  1.00  0.00     0.030 A 
ATOM      9  C   UNL A   1      31.234  27.229  26.658  1.00  0.00     0.045 A 
ATOM     10  C   UNL A   1      30.790  27.525  23.924  1.00  0.00     0.049 A 
ATOM     11  C   UNL A   1      31.509  28.499  24.623  1.00  0.00     0.130 A 
BRANCH   7  12
ATOM     12  N   UNL A   1      30.202  25.070  26.630  1.00  0.00    -0.308 N 
ATOM     13  C   UNL A   1      30.679  23.795  26.543  1.00  0.00     0.321 C 
ATOM     14  O   UNL A   1      30.054  22.919  27.144  1.00  0.00    -0.248 OA
ATOM     15  H   UNL A   1      29.475  25.191  27.282  1.00  0.00     0.171 HD
BRANCH  13  16
ATOM     16  N   UNL A   1      31.874  23.527  25.929  1.00  0.00    -0.324 N 
ATOM     17  C   UNL A   1      34.095  23.316  22.976  1.00  0.00     0.010 C 
ATOM     18  C   UNL A   1      33.653  23.102  24.414  1.00  0.00     0.010 C 
ATOM     19  C   UNL A   1      32.137  23.150  24.551  1.00  0.00     0.125 C 
ATOM     20  C   UNL A   1      34.130  24.113  25.466  1.00  0.00     0.010 C 
ATOM     21  C   UNL A   1      33.124  23.865  26.603  1.00  0.00     0.125 C 
ATOM     22  C   UNL A   1      34.100  25.575  25.016  1.00  0.00     0.010 C 
ENDBRANCH  13  16
ENDBRANCH   7  12
BRANCH  11  23
ATOM     23  O   UNL A   1      32.082  29.529  23.931  1.00  0.00    -0.507 OA
ATOM     24  H   UNL A   1      32.977  29.470  23.659  1.00  0.00     0.293 HD
ENDBRANCH  11  23
ENDBRANCH   4   6
ENDBRANCH   3   4
ENDBRANCH   2   3
ENDBRANCH   1   2
BRANCH   1  25
ATOM     25  O   UNL A   1      36.502  30.610  27.909  1.00  0.00    -0.458 OA
BRANCH  25  26
ATOM     26  C   UNL A   1      36.909  29.741  28.860  1.00  0.00     0.338 C 
ATOM     27  O   UNL A   1      36.275  29.329  29.818  1.00  0.00    -0.246 OA
BRANCH  26  28
ATOM     28  C   UNL A   1      38.266  29.274  28.548  1.00  0.00     0.060 A 
ATOM     29  C   UNL A   1      39.081  28.863  29.597  1.00  0.00     0.016 A 
ATOM     30  C   UNL A   1      38.782  29.383  27.259  1.00  0.00     0.016 A 
ATOM     31  C   UNL A   1      40.445  28.672  29.393  1.00  0.00     0.010 A 
ATOM     32  C   UNL A   1      40.131  29.080  27.036  1.00  0.00     0.010 A 
ATOM     33  C   UNL A   1      40.993  28.767  28.106  1.00  0.00    -0.014 A 
BRANCH  33  34
ATOM     34  C   UNL A   1      42.456  28.573  27.883  1.00  0.00     0.031 A 
ATOM     35  C   UNL A   1      43.427  29.687  28.198  1.00  0.00     0.074 A 
ATOM     36  C   UNL A   1      42.930  27.404  27.403  1.00  0.00     0.049 A 
ATOM     37  N   UNL A   1      44.701  29.783  27.909  1.00  0.00    -0.248 NA
ATOM     38  C   UNL A   1      42.892  30.855  28.918  1.00  0.00     0.031 C 
ATOM     39  C   UNL A   1      42.124  26.220  27.095  1.00  0.00     0.029 A 
ATOM     40  N   UNL A   1      44.213  27.014  27.098  1.00  0.00    -0.354 N 
ATOM     41  C   UNL A   1      45.102  31.039  28.354  1.00  0.00     0.074 A 
ATOM     42  C   UNL A   1      43.934  31.674  28.927  1.00  0.00     0.031 C 
ATOM     43  C   UNL A   1      42.931  25.229  26.690  1.00  0.00     0.029 A 
ATOM     44  C   UNL A   1      44.299  25.729  26.614  1.00  0.00     0.049 A 
ATOM     45  H   UNL A   1      44.996  27.600  27.213  1.00  0.00     0.167 HD
ATOM     46  C   UNL A   1      46.328  31.615  28.289  1.00  0.00     0.031 A 
ATOM     47  C   UNL A   1      45.344  25.037  26.121  1.00  0.00     0.031 A 
ATOM     48  C   UNL A   1      47.499  30.963  27.762  1.00  0.00     0.049 A 
ATOM     49  C   UNL A   1      46.687  25.703  26.031  1.00  0.00     0.074 A 
ATOM     50  C   UNL A   1      48.789  31.457  27.665  1.00  0.00     0.029 A 
ATOM     51  N   UNL A   1      47.529  29.670  27.260  1.00  0.00    -0.354 N 
ATOM     52  N   UNL A   1      47.033  26.913  26.401  1.00  0.00    -0.248 NA
ATOM     53  C   UNL A   1      47.779  24.917  25.440  1.00  0.00     0.031 C 
ATOM     54  C   UNL A   1      49.589  30.479  27.064  1.00  0.00     0.029 A 
ATOM     55  C   UNL A   1      48.811  29.355  26.838  1.00  0.00     0.049 A 
ATOM     56  H   UNL A   1      46.754  29.065  27.211  1.00  0.00     0.167 HD
ATOM     57  C   UNL A   1      48.385  27.027  26.103  1.00  0.00     0.074 A 
ATOM     58  C   UNL A   1      48.799  25.759  25.538  1.00  0.00     0.031 C 
ATOM     59  C   UNL A   1      49.208  28.089  26.277  1.00  0.00     0.031 A 
BRANCH  46  60
ATOM     60  C   UNL A   1      46.461  33.040  28.760  1.00  0.00    -0.014 A 
ATOM     61  C   UNL A   1      46.849  33.353  30.076  1.00  0.00     0.010 A 
ATOM     62  C   UNL A   1      46.231  34.091  27.850  1.00  0.00     0.010 A 
ATOM     63  C   UNL A   1      46.963  34.686  30.482  1.00  0.00     0.020 A 
ATOM     64  C   UNL A   1      46.372  35.425  28.245  1.00  0.00     0.020 A 
ATOM     65  C   UNL A   1      46.719  35.714  29.566  1.00  0.00     0.054 A 
BRANCH  65  66
ATOM     66  S   UNL A   1      46.889  37.436  30.114  1.00  0.00     0.124 S 
ATOM     67  O   UNL A   1      46.639  38.171  28.877  1.00  0.00    -0.237 OA
ATOM     68  O   UNL A   1      45.850  37.553  31.134  1.00  0.00    -0.237 OA
ATOM     69  O   UNL A   1      48.259  37.507  30.615  1.00  0.00    -0.744 OA
ENDBRANCH  65  66
ENDBRANCH  46  60
BRANCH  47  70
ATOM     70  C   UNL A   1      45.143  23.646  25.624  1.00  0.00    -0.014 A 
ATOM     71  C   UNL A   1      45.013  23.387  24.249  1.00  0.00     0.010 A 
ATOM     72  C   UNL A   1      45.104  22.569  26.529  1.00  0.00     0.010 A 
ATOM     73  C   UNL A   1      44.842  22.076  23.789  1.00  0.00     0.020 A 
ATOM     74  C   UNL A   1      44.965  21.256  26.070  1.00  0.00     0.020 A 
ATOM     75  C   UNL A   1      44.823  21.019  24.703  1.00  0.00     0.054 A 
BRANCH  75  76
ATOM     76  S   UNL A   1      44.666  19.321  24.082  1.00  0.00     0.124 S 
ATOM     77  O   UNL A   1      45.966  18.753  24.419  1.00  0.00    -0.237 OA
ATOM     78  O   UNL A   1      43.532  18.806  24.846  1.00  0.00    -0.237 OA
ATOM     79  O   UNL A   1      44.412  19.503  22.654  1.00  0.00    -0.744 OA
ENDBRANCH  75  76
ENDBRANCH  47  70
BRANCH  59  80
ATOM     80  C   UNL A   1      50.651  27.915  25.886  1.00  0.00    -0.014 A 
ATOM     81  C   UNL A   1      51.595  27.400  26.793  1.00  0.00     0.010 A 
ATOM     82  C   UNL A   1      51.058  28.232  24.578  1.00  0.00     0.010 A 
ATOM     83  C   UNL A   1      52.927  27.233  26.406  1.00  0.00     0.020 A 
ATOM     84  C   UNL A   1      52.383  28.042  24.180  1.00  0.00     0.020 A 
ATOM     85  C   UNL A   1      53.313  27.557  25.102  1.00  0.00     0.054 A 
BRANCH  85  86
ATOM     86  S   UNL A   1      55.039  27.294  24.610  1.00  0.00     0.124 S 
ATOM     87  O   UNL A   1      55.517  26.386  25.650  1.00  0.00    -0.237 OA
ATOM     88  O   UNL A   1      54.909  26.711  23.276  1.00  0.00    -0.237 OA
ATOM     89  O   UNL A   1      55.617  28.635  24.642  1.00  0.00    -0.744 OA
ENDBRANCH  85  86
ENDBRANCH  59  80
ENDBRANCH  33  34
ENDBRANCH  26  28
ENDBRANCH  25  26
ENDBRANCH   1  25
TORSDOF 17
ENDMDL
