MODEL 1
REMARK VINA RESULT:     -10.5      0.000      0.000
REMARK SMILES COc1ncccc1C[C@H](C(=O)OCCOC(=O)c1ccc(-c2c3nc(c(-c4ccc(S(=O)(=O)[O-])cc4)c4ccc([nH]4)c(-c4ccc(S(=O)(=O)[O-])cc4)c4nc(c(-c5ccc(S(=O)(=O)[O-])cc5)c5ccc2[nH]5)C=C4)C=C3)cc1)c1ccc(F)cc1
REMARK SMILES IDX 14 1 13 2 11 3 12 4 10 5 9 6 8 7 3 8 4 9 5 10 7 11 6 12 2 13
REMARK SMILES IDX 1 14 79 15 80 16 85 17 81 18 84 19 82 20 83 21 15 22 16 23
REMARK SMILES IDX 17 24 18 25 19 26 20 27 78 28 21 29 77 30 22 31 23 32 24 33
REMARK SMILES IDX 71 34 25 35 76 36 70 37 72 38 26 39 75 40 69 41 68 42 27 44
REMARK SMILES IDX 57 45 38 46 56 47 39 48 42 49 55 50 73 51 40 52 41 53 54 55
REMARK SMILES IDX 74 56 43 57 28 58 29 59 37 60 30 61 36 62 31 63 32 64 33 65
REMARK SMILES IDX 34 66 35 67 58 68 59 69 67 70 60 71 66 72 61 73 62 74 63 75
REMARK SMILES IDX 64 76 65 77 44 78 45 79 53 80 46 81 52 82 47 83 48 84 49 85
REMARK SMILES IDX 50 86 51 87
REMARK H PARENT 72 43 42 54
REMARK Flexibility Score: inf
ROOT
ATOM      1  C   UNL A   1      31.791  29.278  26.866  1.00  0.00     0.274 C 
ENDROOT
BRANCH   1   2
ATOM      2  O   UNL A   1      31.670  28.256  25.861  1.00  0.00    -0.462 OA
BRANCH   2   3
ATOM      3  C   UNL A   1      31.745  26.982  26.322  1.00  0.00     0.313 C 
ATOM      4  O   UNL A   1      30.972  26.517  27.156  1.00  0.00    -0.252 OA
BRANCH   3   5
ATOM      5  C   UNL A   1      32.859  26.150  25.674  1.00  0.00     0.134 C 
BRANCH   5   6
ATOM      6  C   UNL A   1      33.056  24.712  26.215  1.00  0.00     0.061 C 
BRANCH   6   7
ATOM      7  C   UNL A   1      34.121  23.899  25.513  1.00  0.00     0.015 A 
ATOM      8  C   UNL A   1      33.831  22.733  24.810  1.00  0.00     0.216 A 
ATOM      9  N   UNL A   1      34.744  22.017  24.119  1.00  0.00    -0.222 NA
ATOM     10  C   UNL A   1      36.005  22.495  24.096  1.00  0.00     0.115 A 
ATOM     11  C   UNL A   1      35.453  24.334  25.501  1.00  0.00     0.011 A 
ATOM     12  C   UNL A   1      36.406  23.634  24.771  1.00  0.00     0.021 A 
BRANCH   8  13
ATOM     13  O   UNL A   1      32.534  22.269  24.850  1.00  0.00    -0.481 OA
ATOM     14  C   UNL A   1      32.479  20.874  24.568  1.00  0.00     0.280 C 
ENDBRANCH   8  13
ENDBRANCH   6   7
ENDBRANCH   5   6
BRANCH   5  15
ATOM     15  C   UNL A   1      32.641  26.185  24.159  1.00  0.00    -0.033 A 
ATOM     16  C   UNL A   1      31.536  25.507  23.609  1.00  0.00     0.007 A 
ATOM     17  C   UNL A   1      33.600  26.734  23.292  1.00  0.00     0.007 A 
ATOM     18  C   UNL A   1      31.405  25.367  22.227  1.00  0.00     0.039 A 
ATOM     19  C   UNL A   1      33.459  26.599  21.910  1.00  0.00     0.039 A 
ATOM     20  C   UNL A   1      32.371  25.910  21.391  1.00  0.00     0.123 A 
ATOM     21  F   UNL A   1      32.263  25.755  20.065  1.00  0.00    -0.207 F 
ENDBRANCH   5  15
ENDBRANCH   3   5
ENDBRANCH   2   3
ENDBRANCH   1   2
BRANCH   1  22
ATOM     22  C   UNL A   1      33.172  29.931  26.810  1.00  0.00     0.275 C 
BRANCH  22  23
ATOM     23  O   UNL A   1      33.960  29.530  27.943  1.00  0.00    -0.458 OA
BRANCH  23  24
ATOM     24  C   UNL A   1      34.755  30.494  28.464  1.00  0.00     0.338 C 
ATOM     25  O   UNL A   1      34.434  31.644  28.710  1.00  0.00    -0.246 OA
BRANCH  24  26
ATOM     26  C   UNL A   1      36.136  29.994  28.638  1.00  0.00     0.060 A 
ATOM     27  C   UNL A   1      36.606  29.493  29.856  1.00  0.00     0.016 A 
ATOM     28  C   UNL A   1      37.008  30.121  27.555  1.00  0.00     0.016 A 
ATOM     29  C   UNL A   1      37.963  29.173  30.002  1.00  0.00     0.010 A 
ATOM     30  C   UNL A   1      38.343  29.732  27.683  1.00  0.00     0.010 A 
ATOM     31  C   UNL A   1      38.844  29.275  28.913  1.00  0.00    -0.014 A 
BRANCH  31  32
ATOM     32  C   UNL A   1      40.284  28.903  29.011  1.00  0.00     0.031 A 
ATOM     33  C   UNL A   1      41.321  29.947  29.338  1.00  0.00     0.074 A 
ATOM     34  C   UNL A   1      40.683  27.651  28.711  1.00  0.00     0.049 A 
ATOM     35  N   UNL A   1      42.624  29.886  29.223  1.00  0.00    -0.248 NA
ATOM     36  C   UNL A   1      40.824  31.234  29.850  1.00  0.00     0.031 C 
ATOM     37  C   UNL A   1      39.797  26.530  28.394  1.00  0.00     0.029 A 
ATOM     38  N   UNL A   1      41.946  27.121  28.593  1.00  0.00    -0.354 N 
ATOM     39  C   UNL A   1      43.100  31.139  29.592  1.00  0.00     0.074 A 
ATOM     40  C   UNL A   1      41.944  31.939  29.941  1.00  0.00     0.031 C 
ATOM     41  C   UNL A   1      40.540  25.447  28.121  1.00  0.00     0.029 A 
ATOM     42  C   UNL A   1      41.952  25.815  28.167  1.00  0.00     0.049 A 
ATOM     43  H   UNL A   1      42.765  27.629  28.795  1.00  0.00     0.167 HD
ATOM     44  C   UNL A   1      44.379  31.587  29.624  1.00  0.00     0.031 A 
ATOM     45  C   UNL A   1      42.968  25.008  27.799  1.00  0.00     0.031 A 
ATOM     46  C   UNL A   1      45.531  30.787  29.297  1.00  0.00     0.049 A 
ATOM     47  C   UNL A   1      44.375  25.528  27.817  1.00  0.00     0.074 A 
ATOM     48  C   UNL A   1      46.867  31.148  29.331  1.00  0.00     0.029 A 
ATOM     49  N   UNL A   1      45.485  29.466  28.880  1.00  0.00    -0.354 N 
ATOM     50  N   UNL A   1      44.805  26.723  28.142  1.00  0.00    -0.248 NA
ATOM     51  C   UNL A   1      45.434  24.594  27.406  1.00  0.00     0.031 C 
ATOM     52  C   UNL A   1      47.628  30.055  28.897  1.00  0.00     0.029 A 
ATOM     53  C   UNL A   1      46.768  29.001  28.637  1.00  0.00     0.049 A 
ATOM     54  H   UNL A   1      44.663  28.935  28.771  1.00  0.00     0.167 HD
ATOM     55  C   UNL A   1      46.186  26.682  27.988  1.00  0.00     0.074 A 
ATOM     56  C   UNL A   1      46.520  25.342  27.549  1.00  0.00     0.031 C 
ATOM     57  C   UNL A   1      47.091  27.669  28.195  1.00  0.00     0.031 A 
BRANCH  44  58
ATOM     58  C   UNL A   1      44.599  33.034  29.984  1.00  0.00    -0.014 A 
ATOM     59  C   UNL A   1      44.579  34.045  29.009  1.00  0.00     0.010 A 
ATOM     60  C   UNL A   1      44.798  33.385  31.333  1.00  0.00     0.010 A 
ATOM     61  C   UNL A   1      44.802  35.379  29.370  1.00  0.00     0.020 A 
ATOM     62  C   UNL A   1      44.998  34.719  31.699  1.00  0.00     0.020 A 
ATOM     63  C   UNL A   1      45.020  35.705  30.711  1.00  0.00     0.054 A 
BRANCH  63  64
ATOM     64  S   UNL A   1      45.307  37.441  31.158  1.00  0.00     0.124 S 
ATOM     65  O   UNL A   1      45.441  37.357  32.610  1.00  0.00    -0.237 OA
ATOM     66  O   UNL A   1      46.531  37.766  30.432  1.00  0.00    -0.237 OA
ATOM     67  O   UNL A   1      44.105  38.122  30.682  1.00  0.00    -0.744 OA
ENDBRANCH  63  64
ENDBRANCH  44  58
BRANCH  45  68
ATOM     68  C   UNL A   1      42.661  23.627  27.345  1.00  0.00    -0.014 A 
ATOM     69  C   UNL A   1      42.746  23.292  25.983  1.00  0.00     0.010 A 
ATOM     70  C   UNL A   1      42.369  22.621  28.284  1.00  0.00     0.010 A 
ATOM     71  C   UNL A   1      42.563  21.969  25.570  1.00  0.00     0.020 A 
ATOM     72  C   UNL A   1      42.208  21.295  27.878  1.00  0.00     0.020 A 
ATOM     73  C   UNL A   1      42.305  20.977  26.521  1.00  0.00     0.054 A 
BRANCH  73  74
ATOM     74  S   UNL A   1      42.192  19.249  25.981  1.00  0.00     0.124 S 
ATOM     75  O   UNL A   1      42.696  18.532  27.148  1.00  0.00    -0.237 OA
ATOM     76  O   UNL A   1      40.764  19.092  25.710  1.00  0.00    -0.237 OA
ATOM     77  O   UNL A   1      43.048  19.206  24.798  1.00  0.00    -0.744 OA
ENDBRANCH  73  74
ENDBRANCH  45  68
BRANCH  57  78
ATOM     78  C   UNL A   1      48.542  27.334  27.979  1.00  0.00    -0.014 A 
ATOM     79  C   UNL A   1      49.375  26.985  29.056  1.00  0.00     0.010 A 
ATOM     80  C   UNL A   1      49.061  27.314  26.672  1.00  0.00     0.010 A 
ATOM     81  C   UNL A   1      50.711  26.638  28.830  1.00  0.00     0.020 A 
ATOM     82  C   UNL A   1      50.390  26.950  26.441  1.00  0.00     0.020 A 
ATOM     83  C   UNL A   1      51.210  26.624  27.523  1.00  0.00     0.054 A 
BRANCH  83  84
ATOM     84  S   UNL A   1      52.932  26.122  27.247  1.00  0.00     0.124 S 
ATOM     85  O   UNL A   1      53.423  25.957  28.612  1.00  0.00    -0.237 OA
ATOM     86  O   UNL A   1      52.790  24.889  26.476  1.00  0.00    -0.237 OA
ATOM     87  O   UNL A   1      53.504  27.246  26.509  1.00  0.00    -0.744 OA
ENDBRANCH  83  84
ENDBRANCH  57  78
ENDBRANCH  31  32
ENDBRANCH  24  26
ENDBRANCH  23  24
ENDBRANCH  22  23
ENDBRANCH   1  22
TORSDOF 18
ENDMDL
MODEL 2
REMARK VINA RESULT:     -10.0      5.735     11.077
REMARK SMILES COc1ncccc1C[C@H](C(=O)OCCOC(=O)c1ccc(-c2c3nc(c(-c4ccc(S(=O)(=O)[O-])cc4)c4ccc([nH]4)c(-c4ccc(S(=O)(=O)[O-])cc4)c4nc(c(-c5ccc(S(=O)(=O)[O-])cc5)c5ccc2[nH]5)C=C4)C=C3)cc1)c1ccc(F)cc1
REMARK SMILES IDX 14 1 13 2 11 3 12 4 10 5 9 6 8 7 3 8 4 9 5 10 7 11 6 12 2 13
REMARK SMILES IDX 1 14 79 15 80 16 85 17 81 18 84 19 82 20 83 21 15 22 16 23
REMARK SMILES IDX 17 24 18 25 19 26 20 27 78 28 21 29 77 30 22 31 23 32 24 33
REMARK SMILES IDX 71 34 25 35 76 36 70 37 72 38 26 39 75 40 69 41 68 42 27 44
REMARK SMILES IDX 57 45 38 46 56 47 39 48 42 49 55 50 73 51 40 52 41 53 54 55
REMARK SMILES IDX 74 56 43 57 28 58 29 59 37 60 30 61 36 62 31 63 32 64 33 65
REMARK SMILES IDX 34 66 35 67 58 68 59 69 67 70 60 71 66 72 61 73 62 74 63 75
REMARK SMILES IDX 64 76 65 77 44 78 45 79 53 80 46 81 52 82 47 83 48 84 49 85
REMARK SMILES IDX 50 86 51 87
REMARK H PARENT 72 43 42 54
REMARK Flexibility Score: inf
ROOT
ATOM      1  C   UNL A   1      36.706  23.722  25.922  1.00  0.00     0.274 C 
ENDROOT
BRANCH   1   2
ATOM      2  O   UNL A   1      37.096  23.100  24.685  1.00  0.00    -0.462 OA
BRANCH   2   3
ATOM      3  C   UNL A   1      36.189  23.194  23.681  1.00  0.00     0.313 C 
ATOM      4  O   UNL A   1      36.455  22.965  22.504  1.00  0.00    -0.252 OA
BRANCH   3   5
ATOM      5  C   UNL A   1      34.778  23.571  24.150  1.00  0.00     0.134 C 
BRANCH   5   6
ATOM      6  C   UNL A   1      34.133  24.812  23.486  1.00  0.00     0.061 C 
BRANCH   6   7
ATOM      7  C   UNL A   1      33.130  25.554  24.341  1.00  0.00     0.015 A 
ATOM      8  C   UNL A   1      31.813  25.762  23.940  1.00  0.00     0.216 A 
ATOM      9  N   UNL A   1      30.874  26.363  24.702  1.00  0.00    -0.222 NA
ATOM     10  C   UNL A   1      31.247  26.751  25.938  1.00  0.00     0.115 A 
ATOM     11  C   UNL A   1      33.487  26.016  25.614  1.00  0.00     0.011 A 
ATOM     12  C   UNL A   1      32.531  26.608  26.432  1.00  0.00     0.021 A 
BRANCH   8  13
ATOM     13  O   UNL A   1      31.459  25.352  22.672  1.00  0.00    -0.481 OA
ATOM     14  C   UNL A   1      31.515  26.437  21.749  1.00  0.00     0.280 C 
ENDBRANCH   8  13
ENDBRANCH   6   7
ENDBRANCH   5   6
BRANCH   5  15
ATOM     15  C   UNL A   1      33.903  22.320  24.036  1.00  0.00    -0.033 A 
ATOM     16  C   UNL A   1      34.163  21.222  24.879  1.00  0.00     0.007 A 
ATOM     17  C   UNL A   1      32.960  22.175  23.005  1.00  0.00     0.007 A 
ATOM     18  C   UNL A   1      33.508  20.006  24.683  1.00  0.00     0.039 A 
ATOM     19  C   UNL A   1      32.301  20.959  22.819  1.00  0.00     0.039 A 
ATOM     20  C   UNL A   1      32.587  19.884  23.652  1.00  0.00     0.123 A 
ATOM     21  F   UNL A   1      31.976  18.711  23.443  1.00  0.00    -0.207 F 
ENDBRANCH   5  15
ENDBRANCH   3   5
ENDBRANCH   2   3
ENDBRANCH   1   2
BRANCH   1  22
ATOM     22  C   UNL A   1      37.929  24.022  26.787  1.00  0.00     0.275 C 
BRANCH  22  23
ATOM     23  O   UNL A   1      39.046  24.395  25.962  1.00  0.00    -0.458 OA
BRANCH  23  24
ATOM     24  C   UNL A   1      40.233  24.487  26.604  1.00  0.00     0.338 C 
ATOM     25  O   UNL A   1      41.154  23.691  26.544  1.00  0.00    -0.246 OA
BRANCH  24  26
ATOM     26  C   UNL A   1      40.259  25.675  27.485  1.00  0.00     0.060 A 
ATOM     27  C   UNL A   1      41.028  26.807  27.197  1.00  0.00     0.016 A 
ATOM     28  C   UNL A   1      39.549  25.603  28.685  1.00  0.00     0.016 A 
ATOM     29  C   UNL A   1      41.130  27.840  28.140  1.00  0.00     0.010 A 
ATOM     30  C   UNL A   1      39.595  26.666  29.589  1.00  0.00     0.010 A 
ATOM     31  C   UNL A   1      40.403  27.788  29.340  1.00  0.00    -0.014 A 
BRANCH  31  32
ATOM     32  C   UNL A   1      40.445  28.883  30.350  1.00  0.00     0.031 A 
ATOM     33  C   UNL A   1      41.389  28.804  31.523  1.00  0.00     0.074 A 
ATOM     34  C   UNL A   1      39.570  29.907  30.278  1.00  0.00     0.049 A 
ATOM     35  N   UNL A   1      41.403  29.510  32.625  1.00  0.00    -0.248 NA
ATOM     36  C   UNL A   1      42.450  27.785  31.450  1.00  0.00     0.031 C 
ATOM     37  C   UNL A   1      38.612  30.129  29.196  1.00  0.00     0.029 A 
ATOM     38  N   UNL A   1      39.329  30.937  31.155  1.00  0.00    -0.354 N 
ATOM     39  C   UNL A   1      42.432  28.987  33.401  1.00  0.00     0.074 A 
ATOM     40  C   UNL A   1      43.024  27.908  32.638  1.00  0.00     0.031 C 
ATOM     41  C   UNL A   1      37.887  31.225  29.470  1.00  0.00     0.029 A 
ATOM     42  C   UNL A   1      38.277  31.738  30.780  1.00  0.00     0.049 A 
ATOM     43  H   UNL A   1      39.859  31.086  31.972  1.00  0.00     0.167 HD
ATOM     44  C   UNL A   1      42.838  29.363  34.639  1.00  0.00     0.031 A 
ATOM     45  C   UNL A   1      37.651  32.739  31.430  1.00  0.00     0.031 A 
ATOM     46  C   UNL A   1      42.265  30.450  35.390  1.00  0.00     0.049 A 
ATOM     47  C   UNL A   1      38.097  33.125  32.810  1.00  0.00     0.074 A 
ATOM     48  C   UNL A   1      42.632  30.922  36.639  1.00  0.00     0.029 A 
ATOM     49  N   UNL A   1      41.206  31.236  34.962  1.00  0.00    -0.354 N 
ATOM     50  N   UNL A   1      39.053  32.603  33.539  1.00  0.00    -0.248 NA
ATOM     51  C   UNL A   1      37.372  34.227  33.459  1.00  0.00     0.031 C 
ATOM     52  C   UNL A   1      41.770  31.970  36.983  1.00  0.00     0.029 A 
ATOM     53  C   UNL A   1      40.896  32.180  35.929  1.00  0.00     0.049 A 
ATOM     54  H   UNL A   1      40.743  31.140  34.099  1.00  0.00     0.167 HD
ATOM     55  C   UNL A   1      39.054  33.322  34.730  1.00  0.00     0.074 A 
ATOM     56  C   UNL A   1      38.010  34.320  34.618  1.00  0.00     0.031 C 
ATOM     57  C   UNL A   1      39.852  33.165  35.813  1.00  0.00     0.031 A 
BRANCH  44  58
ATOM     58  C   UNL A   1      43.934  28.555  35.284  1.00  0.00    -0.014 A 
ATOM     59  C   UNL A   1      43.650  27.416  36.057  1.00  0.00     0.010 A 
ATOM     60  C   UNL A   1      45.276  28.931  35.084  1.00  0.00     0.010 A 
ATOM     61  C   UNL A   1      44.688  26.694  36.658  1.00  0.00     0.020 A 
ATOM     62  C   UNL A   1      46.315  28.198  35.664  1.00  0.00     0.020 A 
ATOM     63  C   UNL A   1      46.013  27.096  36.466  1.00  0.00     0.054 A 
BRANCH  63  64
ATOM     64  S   UNL A   1      47.343  26.145  37.253  1.00  0.00     0.124 S 
ATOM     65  O   UNL A   1      46.627  24.961  37.721  1.00  0.00    -0.237 OA
ATOM     66  O   UNL A   1      48.277  25.921  36.153  1.00  0.00    -0.237 OA
ATOM     67  O   UNL A   1      47.828  27.037  38.305  1.00  0.00    -0.744 OA
ENDBRANCH  63  64
ENDBRANCH  44  58
BRANCH  45  68
ATOM     68  C   UNL A   1      36.501  33.414  30.774  1.00  0.00    -0.014 A 
ATOM     69  C   UNL A   1      35.237  33.423  31.389  1.00  0.00     0.010 A 
ATOM     70  C   UNL A   1      36.688  34.125  29.575  1.00  0.00     0.010 A 
ATOM     71  C   UNL A   1      34.184  34.148  30.825  1.00  0.00     0.020 A 
ATOM     72  C   UNL A   1      35.644  34.870  29.020  1.00  0.00     0.020 A 
ATOM     73  C   UNL A   1      34.397  34.875  29.649  1.00  0.00     0.054 A 
BRANCH  73  74
ATOM     74  S   UNL A   1      33.055  35.908  28.999  1.00  0.00     0.124 S 
ATOM     75  O   UNL A   1      32.383  36.338  30.222  1.00  0.00    -0.237 OA
ATOM     76  O   UNL A   1      33.777  36.951  28.274  1.00  0.00    -0.237 OA
ATOM     77  O   UNL A   1      32.296  34.988  28.155  1.00  0.00    -0.744 OA
ENDBRANCH  73  74
ENDBRANCH  45  68
BRANCH  57  78
ATOM     78  C   UNL A   1      39.652  34.114  36.964  1.00  0.00    -0.014 A 
ATOM     79  C   UNL A   1      38.809  33.783  38.039  1.00  0.00     0.010 A 
ATOM     80  C   UNL A   1      40.362  35.327  36.994  1.00  0.00     0.010 A 
ATOM     81  C   UNL A   1      38.665  34.660  39.118  1.00  0.00     0.020 A 
ATOM     82  C   UNL A   1      40.235  36.197  38.080  1.00  0.00     0.020 A 
ATOM     83  C   UNL A   1      39.379  35.863  39.131  1.00  0.00     0.054 A 
BRANCH  83  84
ATOM     84  S   UNL A   1      39.219  36.964  40.564  1.00  0.00     0.124 S 
ATOM     85  O   UNL A   1      38.620  36.080  41.561  1.00  0.00    -0.237 OA
ATOM     86  O   UNL A   1      40.601  37.361  40.824  1.00  0.00    -0.237 OA
ATOM     87  O   UNL A   1      38.352  38.036  40.080  1.00  0.00    -0.744 OA
ENDBRANCH  83  84
ENDBRANCH  57  78
ENDBRANCH  31  32
ENDBRANCH  24  26
ENDBRANCH  23  24
ENDBRANCH  22  23
ENDBRANCH   1  22
TORSDOF 18
ENDMDL
MODEL 3
REMARK VINA RESULT:      -9.9      4.176     10.015
REMARK SMILES COc1ncccc1C[C@H](C(=O)OCCOC(=O)c1ccc(-c2c3nc(c(-c4ccc(S(=O)(=O)[O-])cc4)c4ccc([nH]4)c(-c4ccc(S(=O)(=O)[O-])cc4)c4nc(c(-c5ccc(S(=O)(=O)[O-])cc5)c5ccc2[nH]5)C=C4)C=C3)cc1)c1ccc(F)cc1
REMARK SMILES IDX 14 1 13 2 11 3 12 4 10 5 9 6 8 7 3 8 4 9 5 10 7 11 6 12 2 13
REMARK SMILES IDX 1 14 79 15 80 16 85 17 81 18 84 19 82 20 83 21 15 22 16 23
REMARK SMILES IDX 17 24 18 25 19 26 20 27 78 28 21 29 77 30 22 31 23 32 24 33
REMARK SMILES IDX 71 34 25 35 76 36 70 37 72 38 26 39 75 40 69 41 68 42 27 44
REMARK SMILES IDX 57 45 38 46 56 47 39 48 42 49 55 50 73 51 40 52 41 53 54 55
REMARK SMILES IDX 74 56 43 57 28 58 29 59 37 60 30 61 36 62 31 63 32 64 33 65
REMARK SMILES IDX 34 66 35 67 58 68 59 69 67 70 60 71 66 72 61 73 62 74 63 75
REMARK SMILES IDX 64 76 65 77 44 78 45 79 53 80 46 81 52 82 47 83 48 84 49 85
REMARK SMILES IDX 50 86 51 87
REMARK H PARENT 72 43 42 54
REMARK Flexibility Score: inf
ROOT
ATOM      1  C   UNL A   1      35.541  24.064  24.985  1.00  0.00     0.274 C 
ENDROOT
BRANCH   1   2
ATOM      2  O   UNL A   1      34.402  23.299  25.418  1.00  0.00    -0.462 OA
BRANCH   2   3
ATOM      3  C   UNL A   1      33.761  22.615  24.438  1.00  0.00     0.313 C 
ATOM      4  O   UNL A   1      34.162  22.558  23.278  1.00  0.00    -0.252 OA
BRANCH   3   5
ATOM      5  C   UNL A   1      32.505  21.873  24.915  1.00  0.00     0.134 C 
BRANCH   5   6
ATOM      6  C   UNL A   1      31.141  22.502  24.540  1.00  0.00     0.061 C 
BRANCH   6   7
ATOM      7  C   UNL A   1      30.958  23.943  24.962  1.00  0.00     0.015 A 
ATOM      8  C   UNL A   1      30.781  24.316  26.292  1.00  0.00     0.216 A 
ATOM      9  N   UNL A   1      30.677  25.595  26.714  1.00  0.00    -0.222 NA
ATOM     10  C   UNL A   1      30.786  26.558  25.776  1.00  0.00     0.115 A 
ATOM     11  C   UNL A   1      31.017  24.974  24.016  1.00  0.00     0.011 A 
ATOM     12  C   UNL A   1      30.947  26.300  24.426  1.00  0.00     0.021 A 
BRANCH   8  13
ATOM     13  O   UNL A   1      30.675  23.310  27.229  1.00  0.00    -0.481 OA
ATOM     14  C   UNL A   1      29.335  22.834  27.321  1.00  0.00     0.280 C 
ENDBRANCH   8  13
ENDBRANCH   6   7
ENDBRANCH   5   6
BRANCH   5  15
ATOM     15  C   UNL A   1      32.628  20.416  24.459  1.00  0.00    -0.033 A 
ATOM     16  C   UNL A   1      33.373  19.513  25.241  1.00  0.00     0.007 A 
ATOM     17  C   UNL A   1      32.159  19.998  23.203  1.00  0.00     0.007 A 
ATOM     18  C   UNL A   1      33.656  18.231  24.769  1.00  0.00     0.039 A 
ATOM     19  C   UNL A   1      32.436  18.712  22.740  1.00  0.00     0.039 A 
ATOM     20  C   UNL A   1      33.188  17.844  23.521  1.00  0.00     0.123 A 
ATOM     21  F   UNL A   1      33.480  16.624  23.053  1.00  0.00    -0.207 F 
ENDBRANCH   5  15
ENDBRANCH   3   5
ENDBRANCH   2   3
ENDBRANCH   1   2
BRANCH   1  22
ATOM     22  C   UNL A   1      36.727  23.846  25.923  1.00  0.00     0.275 C 
BRANCH  22  23
ATOM     23  O   UNL A   1      37.765  23.110  25.254  1.00  0.00    -0.458 OA
BRANCH  23  24
ATOM     24  C   UNL A   1      38.907  22.948  25.962  1.00  0.00     0.338 C 
ATOM     25  O   UNL A   1      39.537  21.913  26.096  1.00  0.00    -0.246 OA
BRANCH  24  26
ATOM     26  C   UNL A   1      39.278  24.205  26.648  1.00  0.00     0.060 A 
ATOM     27  C   UNL A   1      40.059  25.191  26.036  1.00  0.00     0.016 A 
ATOM     28  C   UNL A   1      38.897  24.347  27.983  1.00  0.00     0.016 A 
ATOM     29  C   UNL A   1      40.504  26.291  26.783  1.00  0.00     0.010 A 
ATOM     30  C   UNL A   1      39.281  25.481  28.701  1.00  0.00     0.010 A 
ATOM     31  C   UNL A   1      40.108  26.456  28.120  1.00  0.00    -0.014 A 
BRANCH  31  32
ATOM     32  C   UNL A   1      40.519  27.633  28.937  1.00  0.00     0.031 A 
ATOM     33  C   UNL A   1      41.783  27.588  29.757  1.00  0.00     0.074 A 
ATOM     34  C   UNL A   1      39.714  28.710  29.028  1.00  0.00     0.049 A 
ATOM     35  N   UNL A   1      42.179  28.389  30.714  1.00  0.00    -0.248 NA
ATOM     36  C   UNL A   1      42.718  26.488  29.470  1.00  0.00     0.031 C 
ATOM     37  C   UNL A   1      38.471  28.907  28.282  1.00  0.00     0.029 A 
ATOM     38  N   UNL A   1      39.811  29.833  29.816  1.00  0.00    -0.354 N 
ATOM     39  C   UNL A   1      43.378  27.861  31.182  1.00  0.00     0.074 A 
ATOM     40  C   UNL A   1      43.646  26.673  30.399  1.00  0.00     0.031 C 
ATOM     41  C   UNL A   1      37.922  30.076  28.645  1.00  0.00     0.029 A 
ATOM     42  C   UNL A   1      38.731  30.675  29.702  1.00  0.00     0.049 A 
ATOM     43  H   UNL A   1      40.579  30.014  30.404  1.00  0.00     0.167 HD
ATOM     44  C   UNL A   1      44.174  28.316  32.182  1.00  0.00     0.031 A 
ATOM     45  C   UNL A   1      38.391  31.777  30.399  1.00  0.00     0.031 A 
ATOM     46  C   UNL A   1      43.919  29.508  32.948  1.00  0.00     0.049 A 
ATOM     47  C   UNL A   1      39.270  32.252  31.518  1.00  0.00     0.074 A 
ATOM     48  C   UNL A   1      44.686  30.062  33.959  1.00  0.00     0.029 A 
ATOM     49  N   UNL A   1      42.816  30.332  32.788  1.00  0.00    -0.354 N 
ATOM     50  N   UNL A   1      40.385  31.726  31.966  1.00  0.00    -0.248 NA
ATOM     51  C   UNL A   1      38.840  33.462  32.235  1.00  0.00     0.031 C 
ATOM     52  C   UNL A   1      44.027  31.201  34.436  1.00  0.00     0.029 A 
ATOM     53  C   UNL A   1      42.873  31.381  33.691  1.00  0.00     0.049 A 
ATOM     54  H   UNL A   1      42.097  30.193  32.129  1.00  0.00     0.167 HD
ATOM     55  C   UNL A   1      40.798  32.548  33.008  1.00  0.00     0.074 A 
ATOM     56  C   UNL A   1      39.818  33.610  33.119  1.00  0.00     0.031 C 
ATOM     57  C   UNL A   1      41.892  32.430  33.799  1.00  0.00     0.031 A 
BRANCH  44  58
ATOM     58  C   UNL A   1      45.381  27.487  32.538  1.00  0.00    -0.014 A 
ATOM     59  C   UNL A   1      46.644  27.749  31.979  1.00  0.00     0.010 A 
ATOM     60  C   UNL A   1      45.249  26.446  33.476  1.00  0.00     0.010 A 
ATOM     61  C   UNL A   1      47.744  26.953  32.316  1.00  0.00     0.020 A 
ATOM     62  C   UNL A   1      46.351  25.664  33.832  1.00  0.00     0.020 A 
ATOM     63  C   UNL A   1      47.588  25.909  33.232  1.00  0.00     0.054 A 
BRANCH  63  64
ATOM     64  S   UNL A   1      49.028  24.889  33.656  1.00  0.00     0.124 S 
ATOM     65  O   UNL A   1      49.722  25.738  34.620  1.00  0.00    -0.237 OA
ATOM     66  O   UNL A   1      48.420  23.680  34.206  1.00  0.00    -0.237 OA
ATOM     67  O   UNL A   1      49.712  24.710  32.377  1.00  0.00    -0.744 OA
ENDBRANCH  63  64
ENDBRANCH  44  58
BRANCH  45  68
ATOM     68  C   UNL A   1      37.123  32.476  30.064  1.00  0.00    -0.014 A 
ATOM     69  C   UNL A   1      35.966  32.254  30.830  1.00  0.00     0.010 A 
ATOM     70  C   UNL A   1      37.093  33.433  29.034  1.00  0.00     0.010 A 
ATOM     71  C   UNL A   1      34.805  32.992  30.582  1.00  0.00     0.020 A 
ATOM     72  C   UNL A   1      35.942  34.188  28.798  1.00  0.00     0.020 A 
ATOM     73  C   UNL A   1      34.803  33.961  29.575  1.00  0.00     0.054 A 
BRANCH  73  74
ATOM     74  S   UNL A   1      33.328  34.993  29.349  1.00  0.00     0.124 S 
ATOM     75  O   UNL A   1      32.591  34.249  28.332  1.00  0.00    -0.237 OA
ATOM     76  O   UNL A   1      32.734  34.997  30.684  1.00  0.00    -0.237 OA
ATOM     77  O   UNL A   1      33.874  36.277  28.917  1.00  0.00    -0.744 OA
ENDBRANCH  73  74
ENDBRANCH  45  68
BRANCH  57  78
ATOM     78  C   UNL A   1      42.111  33.493  34.841  1.00  0.00    -0.014 A 
ATOM     79  C   UNL A   1      42.788  34.685  34.530  1.00  0.00     0.010 A 
ATOM     80  C   UNL A   1      41.583  33.317  36.132  1.00  0.00     0.010 A 
ATOM     81  C   UNL A   1      42.947  35.679  35.501  1.00  0.00     0.020 A 
ATOM     82  C   UNL A   1      41.725  34.316  37.099  1.00  0.00     0.020 A 
ATOM     83  C   UNL A   1      42.415  35.486  36.781  1.00  0.00     0.054 A 
BRANCH  83  84
ATOM     84  S   UNL A   1      42.589  36.809  38.012  1.00  0.00     0.124 S 
ATOM     85  O   UNL A   1      43.351  37.812  37.274  1.00  0.00    -0.237 OA
ATOM     86  O   UNL A   1      41.202  37.162  38.305  1.00  0.00    -0.237 OA
ATOM     87  O   UNL A   1      43.305  36.164  39.111  1.00  0.00    -0.744 OA
ENDBRANCH  83  84
ENDBRANCH  57  78
ENDBRANCH  31  32
ENDBRANCH  24  26
ENDBRANCH  23  24
ENDBRANCH  22  23
ENDBRANCH   1  22
TORSDOF 18
ENDMDL
