MODEL 1
REMARK VINA RESULT:     -11.9      0.000      0.000
REMARK SMILES COc1ccc(Cl)c2c1N[C@@H](c1ccc(C(=O)OCCOC(=O)c3ccc(-c4c5nc(c(-c6ccc(S(=O)(=O)[O-])cc6)c6ccc([nH]6)c(-c6ccc(S(=O)(=O)[O-])cc6)c6nc(c(-c7ccc(S(=O)(=O)[O-])cc7)c7ccc4[nH]7)C=C6)C=C5)cc3)cc1)[C@@H]1CC=C[C@H]21
REMARK SMILES IDX 20 1 19 2 18 3 16 4 17 5 15 6 12 7 13 8 85 9 14 10 84 11
REMARK SMILES IDX 11 12 3 13 4 14 9 15 5 16 8 17 10 18 6 19 90 20 7 22 86 23
REMARK SMILES IDX 89 24 87 25 88 26 2 27 1 28 21 29 22 30 23 31 24 32 25 33
REMARK SMILES IDX 83 34 26 35 82 36 27 37 28 38 29 39 76 40 30 41 81 42 75 43
REMARK SMILES IDX 77 44 31 45 80 46 74 47 73 48 32 50 62 51 43 52 61 53 44 54
REMARK SMILES IDX 47 55 60 56 78 57 45 58 46 59 59 61 79 62 48 63 33 64 34 65
REMARK SMILES IDX 42 66 35 67 41 68 36 69 37 70 38 71 39 72 40 73 63 74 64 75
REMARK SMILES IDX 72 76 65 77 71 78 66 79 67 80 68 81 69 82 70 83 49 84 50 85
REMARK SMILES IDX 58 86 51 87 57 88 52 89 53 90 54 91 55 92 56 93
REMARK H PARENT 10 21 77 49 47 60
REMARK Flexibility Score: inf
ROOT
ATOM      1  C   UNL A   1      41.246  22.106  26.343  1.00  0.00     0.275 C 
ENDROOT
BRANCH   1   2
ATOM      2  C   UNL A   1      40.097  21.114  26.177  1.00  0.00     0.275 C 
BRANCH   2   3
ATOM      3  O   UNL A   1      38.837  21.808  26.214  1.00  0.00    -0.458 OA
BRANCH   3   4
ATOM      4  C   UNL A   1      37.881  21.343  25.370  1.00  0.00     0.338 C 
ATOM      5  O   UNL A   1      37.742  20.190  25.006  1.00  0.00    -0.246 OA
BRANCH   4   6
ATOM      6  C   UNL A   1      36.931  22.427  25.000  1.00  0.00     0.060 A 
ATOM      7  C   UNL A   1      35.091  24.400  24.184  1.00  0.00    -0.025 A 
ATOM      8  C   UNL A   1      35.653  23.517  23.249  1.00  0.00     0.007 A 
ATOM      9  C   UNL A   1      35.459  24.273  25.535  1.00  0.00     0.007 A 
ATOM     10  C   UNL A   1      36.571  22.548  23.651  1.00  0.00     0.016 A 
ATOM     11  C   UNL A   1      36.372  23.296  25.941  1.00  0.00     0.016 A 
BRANCH   7  12
ATOM     12  C   UNL A   1      34.152  25.516  23.741  1.00  0.00     0.114 C 
ATOM     13  C   UNL A   1      33.117  28.569  25.636  1.00  0.00     0.142 A 
ATOM     14  C   UNL A   1      32.108  29.528  25.692  1.00  0.00     0.050 A 
ATOM     15  C   UNL A   1      33.031  27.452  24.782  1.00  0.00     0.083 A 
ATOM     16  C   UNL A   1      31.000  29.400  24.863  1.00  0.00     0.025 A 
ATOM     17  C   UNL A   1      31.905  27.318  23.946  1.00  0.00     0.005 A 
ATOM     18  N   UNL A   1      34.018  26.480  24.813  1.00  0.00    -0.375 N 
ATOM     19  C   UNL A   1      30.898  28.307  23.998  1.00  0.00     0.047 A 
ATOM     20  C   UNL A   1      31.758  26.089  23.082  1.00  0.00     0.051 C 
ATOM     21  H   UNL A   1      34.638  26.443  25.578  1.00  0.00     0.161 HD
ATOM     22  Cl  UNL A   1      29.460  28.204  23.036  1.00  0.00    -0.084 Cl
ATOM     23  C   UNL A   1      32.767  24.952  23.362  1.00  0.00     0.031 C 
ATOM     24  C   UNL A   1      31.956  26.306  21.603  1.00  0.00    -0.023 C 
ATOM     25  C   UNL A   1      32.803  24.171  22.034  1.00  0.00     0.034 C 
ATOM     26  C   UNL A   1      32.515  25.237  21.025  1.00  0.00    -0.030 C 
BRANCH  13  27
ATOM     27  O   UNL A   1      34.170  28.706  26.507  1.00  0.00    -0.495 OA
ATOM     28  C   UNL A   1      34.189  30.011  27.087  1.00  0.00     0.278 C 
ENDBRANCH  13  27
ENDBRANCH   7  12
ENDBRANCH   4   6
ENDBRANCH   3   4
ENDBRANCH   2   3
ENDBRANCH   1   2
BRANCH   1  29
ATOM     29  O   UNL A   1      40.729  23.430  26.570  1.00  0.00    -0.458 OA
BRANCH  29  30
ATOM     30  C   UNL A   1      41.620  24.439  26.430  1.00  0.00     0.338 C 
ATOM     31  O   UNL A   1      42.553  24.507  25.650  1.00  0.00    -0.246 OA
BRANCH  30  32
ATOM     32  C   UNL A   1      41.281  25.513  27.374  1.00  0.00     0.060 A 
ATOM     33  C   UNL A   1      42.092  26.644  27.431  1.00  0.00     0.016 A 
ATOM     34  C   UNL A   1      40.231  25.349  28.279  1.00  0.00     0.016 A 
ATOM     35  C   UNL A   1      41.900  27.594  28.431  1.00  0.00     0.010 A 
ATOM     36  C   UNL A   1      40.002  26.332  29.248  1.00  0.00     0.010 A 
ATOM     37  C   UNL A   1      40.854  27.445  29.352  1.00  0.00    -0.014 A 
BRANCH  37  38
ATOM     38  C   UNL A   1      40.690  28.426  30.456  1.00  0.00     0.031 A 
ATOM     39  C   UNL A   1      41.623  28.388  31.636  1.00  0.00     0.074 A 
ATOM     40  C   UNL A   1      39.738  29.376  30.385  1.00  0.00     0.049 A 
ATOM     41  N   UNL A   1      41.585  29.093  32.739  1.00  0.00    -0.248 NA
ATOM     42  C   UNL A   1      42.746  27.439  31.568  1.00  0.00     0.031 C 
ATOM     43  C   UNL A   1      38.820  29.573  29.262  1.00  0.00     0.029 A 
ATOM     44  N   UNL A   1      39.397  30.367  31.273  1.00  0.00    -0.354 N 
ATOM     45  C   UNL A   1      42.665  28.663  33.499  1.00  0.00     0.074 A 
ATOM     46  C   UNL A   1      43.329  27.623  32.744  1.00  0.00     0.031 C 
ATOM     47  C   UNL A   1      38.044  30.639  29.514  1.00  0.00     0.029 A 
ATOM     48  C   UNL A   1      38.363  31.161  30.839  1.00  0.00     0.049 A 
ATOM     49  H   UNL A   1      39.850  30.496  32.137  1.00  0.00     0.167 HD
ATOM     50  C   UNL A   1      43.070  29.099  34.716  1.00  0.00     0.031 A 
ATOM     51  C   UNL A   1      37.723  32.181  31.448  1.00  0.00     0.031 A 
ATOM     52  C   UNL A   1      42.417  30.139  35.464  1.00  0.00     0.049 A 
ATOM     53  C   UNL A   1      38.128  32.585  32.836  1.00  0.00     0.074 A 
ATOM     54  C   UNL A   1      42.738  30.626  36.719  1.00  0.00     0.029 A 
ATOM     55  N   UNL A   1      41.320  30.860  35.022  1.00  0.00    -0.354 N 
ATOM     56  N   UNL A   1      39.102  32.111  33.576  1.00  0.00    -0.248 NA
ATOM     57  C   UNL A   1      37.341  33.645  33.480  1.00  0.00     0.031 C 
ATOM     58  C   UNL A   1      41.812  31.619  37.051  1.00  0.00     0.029 A 
ATOM     59  C   UNL A   1      40.941  31.781  35.985  1.00  0.00     0.049 A 
ATOM     60  H   UNL A   1      40.874  30.737  34.153  1.00  0.00     0.167 HD
ATOM     61  C   UNL A   1      39.050  32.824  34.768  1.00  0.00     0.074 A 
ATOM     62  C   UNL A   1      37.956  33.765  34.650  1.00  0.00     0.031 C 
ATOM     63  C   UNL A   1      39.846  32.706  35.859  1.00  0.00     0.031 A 
BRANCH  50  64
ATOM     64  C   UNL A   1      44.269  28.433  35.331  1.00  0.00    -0.014 A 
ATOM     65  C   UNL A   1      45.560  28.958  35.154  1.00  0.00     0.010 A 
ATOM     66  C   UNL A   1      44.094  27.298  36.144  1.00  0.00     0.010 A 
ATOM     67  C   UNL A   1      46.660  28.348  35.762  1.00  0.00     0.020 A 
ATOM     68  C   UNL A   1      45.189  26.696  36.770  1.00  0.00     0.020 A 
ATOM     69  C   UNL A   1      46.466  27.221  36.569  1.00  0.00     0.054 A 
BRANCH  69  70
ATOM     70  S   UNL A   1      47.914  26.460  37.352  1.00  0.00     0.124 S 
ATOM     71  O   UNL A   1      47.604  25.035  37.245  1.00  0.00    -0.237 OA
ATOM     72  O   UNL A   1      49.010  26.929  36.509  1.00  0.00    -0.237 OA
ATOM     73  O   UNL A   1      47.899  26.996  38.711  1.00  0.00    -0.744 OA
ENDBRANCH  69  70
ENDBRANCH  50  64
BRANCH  51  74
ATOM     74  C   UNL A   1      36.615  32.871  30.736  1.00  0.00    -0.014 A 
ATOM     75  C   UNL A   1      35.283  32.673  31.135  1.00  0.00     0.010 A 
ATOM     76  C   UNL A   1      36.895  33.780  29.699  1.00  0.00     0.010 A 
ATOM     77  C   UNL A   1      34.251  33.389  30.523  1.00  0.00     0.020 A 
ATOM     78  C   UNL A   1      35.867  34.511  29.099  1.00  0.00     0.020 A 
ATOM     79  C   UNL A   1      34.551  34.315  29.519  1.00  0.00     0.054 A 
BRANCH  79  80
ATOM     80  S   UNL A   1      33.198  35.291  28.803  1.00  0.00     0.124 S 
ATOM     81  O   UNL A   1      32.495  34.297  27.998  1.00  0.00    -0.237 OA
ATOM     82  O   UNL A   1      32.491  35.755  29.993  1.00  0.00    -0.237 OA
ATOM     83  O   UNL A   1      33.887  36.332  28.046  1.00  0.00    -0.744 OA
ENDBRANCH  79  80
ENDBRANCH  51  74
BRANCH  63  84
ATOM     84  C   UNL A   1      39.584  33.623  37.021  1.00  0.00    -0.014 A 
ATOM     85  C   UNL A   1      38.689  33.255  38.041  1.00  0.00     0.010 A 
ATOM     86  C   UNL A   1      40.326  34.811  37.150  1.00  0.00     0.010 A 
ATOM     87  C   UNL A   1      38.542  34.062  39.172  1.00  0.00     0.020 A 
ATOM     88  C   UNL A   1      40.195  35.610  38.287  1.00  0.00     0.020 A 
ATOM     89  C   UNL A   1      39.305  35.229  39.293  1.00  0.00     0.054 A 
BRANCH  89  90
ATOM     90  S   UNL A   1      39.141  36.217  40.806  1.00  0.00     0.124 S 
ATOM     91  O   UNL A   1      38.517  37.441  40.309  1.00  0.00    -0.237 OA
ATOM     92  O   UNL A   1      38.290  35.373  41.640  1.00  0.00    -0.237 OA
ATOM     93  O   UNL A   1      40.516  36.370  41.275  1.00  0.00    -0.744 OA
ENDBRANCH  89  90
ENDBRANCH  63  84
ENDBRANCH  37  38
ENDBRANCH  30  32
ENDBRANCH  29  30
ENDBRANCH   1  29
TORSDOF 16
ENDMDL
MODEL 2
REMARK VINA RESULT:     -11.8      1.322      8.214
REMARK SMILES COc1ccc(Cl)c2c1N[C@@H](c1ccc(C(=O)OCCOC(=O)c3ccc(-c4c5nc(c(-c6ccc(S(=O)(=O)[O-])cc6)c6ccc([nH]6)c(-c6ccc(S(=O)(=O)[O-])cc6)c6nc(c(-c7ccc(S(=O)(=O)[O-])cc7)c7ccc4[nH]7)C=C6)C=C5)cc3)cc1)[C@@H]1CC=C[C@H]21
REMARK SMILES IDX 20 1 19 2 18 3 16 4 17 5 15 6 12 7 13 8 85 9 14 10 84 11
REMARK SMILES IDX 11 12 3 13 4 14 9 15 5 16 8 17 10 18 6 19 90 20 7 22 86 23
REMARK SMILES IDX 89 24 87 25 88 26 2 27 1 28 21 29 22 30 23 31 24 32 25 33
REMARK SMILES IDX 83 34 26 35 82 36 27 37 28 38 29 39 76 40 30 41 81 42 75 43
REMARK SMILES IDX 77 44 31 45 80 46 74 47 73 48 32 50 62 51 43 52 61 53 44 54
REMARK SMILES IDX 47 55 60 56 78 57 45 58 46 59 59 61 79 62 48 63 33 64 34 65
REMARK SMILES IDX 42 66 35 67 41 68 36 69 37 70 38 71 39 72 40 73 63 74 64 75
REMARK SMILES IDX 72 76 65 77 71 78 66 79 67 80 68 81 69 82 70 83 49 84 50 85
REMARK SMILES IDX 58 86 51 87 57 88 52 89 53 90 54 91 55 92 56 93
REMARK H PARENT 10 21 77 49 47 60
REMARK Flexibility Score: inf
ROOT
ATOM      1  C   UNL A   1      42.431  23.970  25.798  1.00  0.00     0.275 C 
ENDROOT
BRANCH   1   2
ATOM      2  C   UNL A   1      41.883  22.643  26.316  1.00  0.00     0.275 C 
BRANCH   2   3
ATOM      3  O   UNL A   1      40.468  22.753  26.556  1.00  0.00    -0.458 OA
BRANCH   3   4
ATOM      4  C   UNL A   1      39.713  21.708  26.131  1.00  0.00     0.338 C 
ATOM      5  O   UNL A   1      40.064  20.543  26.076  1.00  0.00    -0.246 OA
BRANCH   4   6
ATOM      6  C   UNL A   1      38.328  22.151  25.815  1.00  0.00     0.060 A 
ATOM      7  C   UNL A   1      35.752  23.128  25.221  1.00  0.00    -0.025 A 
ATOM      8  C   UNL A   1      36.668  23.915  25.936  1.00  0.00     0.007 A 
ATOM      9  C   UNL A   1      36.151  21.846  24.801  1.00  0.00     0.007 A 
ATOM     10  C   UNL A   1      37.938  23.427  26.239  1.00  0.00     0.016 A 
ATOM     11  C   UNL A   1      37.428  21.360  25.096  1.00  0.00     0.016 A 
BRANCH   7  12
ATOM     12  C   UNL A   1      34.333  23.619  24.959  1.00  0.00     0.114 C 
ATOM     13  C   UNL A   1      33.179  27.101  24.234  1.00  0.00     0.142 A 
ATOM     14  C   UNL A   1      32.044  27.907  24.286  1.00  0.00     0.050 A 
ATOM     15  C   UNL A   1      33.184  25.793  24.757  1.00  0.00     0.083 A 
ATOM     16  C   UNL A   1      30.875  27.401  24.842  1.00  0.00     0.025 A 
ATOM     17  C   UNL A   1      32.002  25.282  25.327  1.00  0.00     0.005 A 
ATOM     18  N   UNL A   1      34.356  25.053  24.756  1.00  0.00    -0.375 N 
ATOM     19  C   UNL A   1      30.852  26.102  25.358  1.00  0.00     0.047 A 
ATOM     20  C   UNL A   1      32.010  23.914  25.963  1.00  0.00     0.051 C 
ATOM     21  H   UNL A   1      35.217  25.509  24.615  1.00  0.00     0.161 HD
ATOM     22  Cl  UNL A   1      29.365  25.572  26.074  1.00  0.00    -0.084 Cl
ATOM     23  C   UNL A   1      33.403  23.268  26.139  1.00  0.00     0.031 C 
ATOM     24  C   UNL A   1      31.276  22.839  25.203  1.00  0.00    -0.023 C 
ATOM     25  C   UNL A   1      33.093  21.760  26.202  1.00  0.00     0.034 C 
ATOM     26  C   UNL A   1      31.866  21.647  25.354  1.00  0.00    -0.030 C 
BRANCH  13  27
ATOM     27  O   UNL A   1      34.326  27.656  23.722  1.00  0.00    -0.495 OA
ATOM     28  C   UNL A   1      34.033  28.504  22.611  1.00  0.00     0.278 C 
ENDBRANCH  13  27
ENDBRANCH   7  12
ENDBRANCH   4   6
ENDBRANCH   3   4
ENDBRANCH   2   3
ENDBRANCH   1   2
BRANCH   1  29
ATOM     29  O   UNL A   1      41.407  24.981  25.843  1.00  0.00    -0.458 OA
BRANCH  29  30
ATOM     30  C   UNL A   1      41.829  26.252  25.659  1.00  0.00     0.338 C 
ATOM     31  O   UNL A   1      42.425  26.708  24.698  1.00  0.00    -0.246 OA
BRANCH  30  32
ATOM     32  C   UNL A   1      41.432  27.064  26.817  1.00  0.00     0.060 A 
ATOM     33  C   UNL A   1      41.980  28.336  26.972  1.00  0.00     0.016 A 
ATOM     34  C   UNL A   1      40.608  26.524  27.805  1.00  0.00     0.016 A 
ATOM     35  C   UNL A   1      41.760  29.056  28.143  1.00  0.00     0.010 A 
ATOM     36  C   UNL A   1      40.341  27.270  28.958  1.00  0.00     0.010 A 
ATOM     37  C   UNL A   1      40.940  28.528  29.150  1.00  0.00    -0.014 A 
BRANCH  37  38
ATOM     38  C   UNL A   1      40.758  29.269  30.426  1.00  0.00     0.031 A 
ATOM     39  C   UNL A   1      39.664  30.294  30.547  1.00  0.00     0.074 A 
ATOM     40  C   UNL A   1      41.540  28.996  31.487  1.00  0.00     0.049 A 
ATOM     41  N   UNL A   1      39.404  31.109  31.538  1.00  0.00    -0.248 NA
ATOM     42  C   UNL A   1      38.737  30.418  29.409  1.00  0.00     0.031 C 
ATOM     43  C   UNL A   1      42.584  27.971  31.528  1.00  0.00     0.029 A 
ATOM     44  N   UNL A   1      41.564  29.548  32.745  1.00  0.00    -0.354 N 
ATOM     45  C   UNL A   1      38.299  31.851  31.138  1.00  0.00     0.074 A 
ATOM     46  C   UNL A   1      37.947  31.405  29.808  1.00  0.00     0.031 C 
ATOM     47  C   UNL A   1      43.124  27.946  32.757  1.00  0.00     0.029 A 
ATOM     48  C   UNL A   1      42.512  28.992  33.571  1.00  0.00     0.049 A 
ATOM     49  H   UNL A   1      40.961  30.272  33.026  1.00  0.00     0.167 HD
ATOM     50  C   UNL A   1      37.635  32.813  31.821  1.00  0.00     0.031 A 
ATOM     51  C   UNL A   1      42.867  29.303  34.834  1.00  0.00     0.031 A 
ATOM     52  C   UNL A   1      37.978  33.250  33.147  1.00  0.00     0.049 A 
ATOM     53  C   UNL A   1      42.179  30.437  35.538  1.00  0.00     0.074 A 
ATOM     54  C   UNL A   1      37.380  34.242  33.907  1.00  0.00     0.029 A 
ATOM     55  N   UNL A   1      38.999  32.717  33.916  1.00  0.00    -0.354 N 
ATOM     56  N   UNL A   1      41.189  31.185  35.114  1.00  0.00    -0.248 NA
ATOM     57  C   UNL A   1      42.667  30.784  36.880  1.00  0.00     0.031 C 
ATOM     58  C   UNL A   1      38.064  34.331  35.123  1.00  0.00     0.029 A 
ATOM     59  C   UNL A   1      39.059  33.366  35.138  1.00  0.00     0.049 A 
ATOM     60  H   UNL A   1      39.595  31.985  33.637  1.00  0.00     0.167 HD
ATOM     61  C   UNL A   1      40.927  32.083  36.141  1.00  0.00     0.074 A 
ATOM     62  C   UNL A   1      41.857  31.783  37.210  1.00  0.00     0.031 C 
ATOM     63  C   UNL A   1      39.994  33.064  36.190  1.00  0.00     0.031 A 
BRANCH  50  64
ATOM     64  C   UNL A   1      36.477  33.481  31.134  1.00  0.00    -0.014 A 
ATOM     65  C   UNL A   1      35.279  33.740  31.821  1.00  0.00     0.010 A 
ATOM     66  C   UNL A   1      36.610  33.906  29.800  1.00  0.00     0.010 A 
ATOM     67  C   UNL A   1      34.225  34.394  31.179  1.00  0.00     0.020 A 
ATOM     68  C   UNL A   1      35.565  34.578  29.160  1.00  0.00     0.020 A 
ATOM     69  C   UNL A   1      34.376  34.811  29.852  1.00  0.00     0.054 A 
BRANCH  69  70
ATOM     70  S   UNL A   1      32.992  35.668  29.052  1.00  0.00     0.124 S 
ATOM     71  O   UNL A   1      32.200  36.106  30.201  1.00  0.00    -0.237 OA
ATOM     72  O   UNL A   1      33.665  36.732  28.313  1.00  0.00    -0.237 OA
ATOM     73  O   UNL A   1      32.369  34.634  28.230  1.00  0.00    -0.744 OA
ENDBRANCH  69  70
ENDBRANCH  50  64
BRANCH  51  74
ATOM     74  C   UNL A   1      43.949  28.527  35.495  1.00  0.00    -0.014 A 
ATOM     75  C   UNL A   1      45.285  28.947  35.398  1.00  0.00     0.010 A 
ATOM     76  C   UNL A   1      43.636  27.402  36.282  1.00  0.00     0.010 A 
ATOM     77  C   UNL A   1      46.290  28.267  36.093  1.00  0.00     0.020 A 
ATOM     78  C   UNL A   1      44.635  26.733  36.992  1.00  0.00     0.020 A 
ATOM     79  C   UNL A   1      45.956  27.173  36.897  1.00  0.00     0.054 A 
BRANCH  79  80
ATOM     80  S   UNL A   1      47.270  26.364  37.854  1.00  0.00     0.124 S 
ATOM     81  O   UNL A   1      46.662  25.080  38.186  1.00  0.00    -0.237 OA
ATOM     82  O   UNL A   1      48.365  26.314  36.889  1.00  0.00    -0.237 OA
ATOM     83  O   UNL A   1      47.480  27.266  38.983  1.00  0.00    -0.744 OA
ENDBRANCH  79  80
ENDBRANCH  51  74
BRANCH  63  84
ATOM     84  C   UNL A   1      39.908  33.890  37.443  1.00  0.00    -0.014 A 
ATOM     85  C   UNL A   1      40.664  35.067  37.583  1.00  0.00     0.010 A 
ATOM     86  C   UNL A   1      38.978  33.546  38.440  1.00  0.00     0.010 A 
ATOM     87  C   UNL A   1      40.489  35.886  38.701  1.00  0.00     0.020 A 
ATOM     88  C   UNL A   1      38.788  34.372  39.550  1.00  0.00     0.020 A 
ATOM     89  C   UNL A   1      39.544  35.539  39.672  1.00  0.00     0.054 A 
BRANCH  89  90
ATOM     90  S   UNL A   1      39.292  36.661  41.076  1.00  0.00     0.124 S 
ATOM     91  O   UNL A   1      38.443  35.865  41.959  1.00  0.00    -0.237 OA
ATOM     92  O   UNL A   1      40.656  36.882  41.548  1.00  0.00    -0.237 OA
ATOM     93  O   UNL A   1      38.645  37.827  40.480  1.00  0.00    -0.744 OA
ENDBRANCH  89  90
ENDBRANCH  63  84
ENDBRANCH  37  38
ENDBRANCH  30  32
ENDBRANCH  29  30
ENDBRANCH   1  29
TORSDOF 16
ENDMDL
MODEL 3
REMARK VINA RESULT:     -11.7      2.310      8.840
REMARK SMILES COc1ccc(Cl)c2c1N[C@@H](c1ccc(C(=O)OCCOC(=O)c3ccc(-c4c5nc(c(-c6ccc(S(=O)(=O)[O-])cc6)c6ccc([nH]6)c(-c6ccc(S(=O)(=O)[O-])cc6)c6nc(c(-c7ccc(S(=O)(=O)[O-])cc7)c7ccc4[nH]7)C=C6)C=C5)cc3)cc1)[C@@H]1CC=C[C@H]21
REMARK SMILES IDX 20 1 19 2 18 3 16 4 17 5 15 6 12 7 13 8 85 9 14 10 84 11
REMARK SMILES IDX 11 12 3 13 4 14 9 15 5 16 8 17 10 18 6 19 90 20 7 22 86 23
REMARK SMILES IDX 89 24 87 25 88 26 2 27 1 28 21 29 22 30 23 31 24 32 25 33
REMARK SMILES IDX 83 34 26 35 82 36 27 37 28 38 29 39 76 40 30 41 81 42 75 43
REMARK SMILES IDX 77 44 31 45 80 46 74 47 73 48 32 50 62 51 43 52 61 53 44 54
REMARK SMILES IDX 47 55 60 56 78 57 45 58 46 59 59 61 79 62 48 63 33 64 34 65
REMARK SMILES IDX 42 66 35 67 41 68 36 69 37 70 38 71 39 72 40 73 63 74 64 75
REMARK SMILES IDX 72 76 65 77 71 78 66 79 67 80 68 81 69 82 70 83 49 84 50 85
REMARK SMILES IDX 58 86 51 87 57 88 52 89 53 90 54 91 55 92 56 93
REMARK H PARENT 10 21 77 49 47 60
REMARK Flexibility Score: inf
ROOT
ATOM      1  C   UNL A   1      43.557  23.702  25.549  1.00  0.00     0.275 C 
ENDROOT
BRANCH   1   2
ATOM      2  C   UNL A   1      43.508  22.177  25.488  1.00  0.00     0.275 C 
BRANCH   2   3
ATOM      3  O   UNL A   1      42.788  21.660  26.622  1.00  0.00    -0.458 OA
BRANCH   3   4
ATOM      4  C   UNL A   1      42.186  20.457  26.443  1.00  0.00     0.338 C 
ATOM      5  O   UNL A   1      42.718  19.366  26.540  1.00  0.00    -0.246 OA
BRANCH   4   6
ATOM      6  C   UNL A   1      40.730  20.627  26.194  1.00  0.00     0.060 A 
ATOM      7  C   UNL A   1      37.993  21.091  25.707  1.00  0.00    -0.025 A 
ATOM      8  C   UNL A   1      38.803  22.099  26.250  1.00  0.00     0.007 A 
ATOM      9  C   UNL A   1      38.577  19.849  25.403  1.00  0.00     0.007 A 
ATOM     10  C   UNL A   1      40.154  21.866  26.501  1.00  0.00     0.016 A 
ATOM     11  C   UNL A   1      39.935  19.617  25.645  1.00  0.00     0.016 A 
BRANCH   7  12
ATOM     12  C   UNL A   1      36.497  21.310  25.509  1.00  0.00     0.114 C 
ATOM     13  C   UNL A   1      33.893  18.805  24.544  1.00  0.00     0.142 A 
ATOM     14  C   UNL A   1      32.622  18.715  23.981  1.00  0.00     0.050 A 
ATOM     15  C   UNL A   1      34.588  20.028  24.611  1.00  0.00     0.083 A 
ATOM     16  C   UNL A   1      32.008  19.866  23.499  1.00  0.00     0.025 A 
ATOM     17  C   UNL A   1      33.970  21.193  24.117  1.00  0.00     0.005 A 
ATOM     18  N   UNL A   1      35.883  20.061  25.107  1.00  0.00    -0.375 N 
ATOM     19  C   UNL A   1      32.674  21.093  23.566  1.00  0.00     0.047 A 
ATOM     20  C   UNL A   1      34.730  22.496  24.108  1.00  0.00     0.051 C 
ATOM     21  H   UNL A   1      36.392  19.222  25.187  1.00  0.00     0.161 HD
ATOM     22  Cl  UNL A   1      31.851  22.464  22.898  1.00  0.00    -0.084 Cl
ATOM     23  C   UNL A   1      36.236  22.393  24.443  1.00  0.00     0.031 C 
ATOM     24  C   UNL A   1      34.271  23.524  25.112  1.00  0.00    -0.023 C 
ATOM     25  C   UNL A   1      36.586  23.804  24.953  1.00  0.00     0.034 C 
ATOM     26  C   UNL A   1      35.297  24.257  25.561  1.00  0.00    -0.030 C 
BRANCH  13  27
ATOM     27  O   UNL A   1      34.484  17.638  24.963  1.00  0.00    -0.495 OA
ATOM     28  C   UNL A   1      33.517  16.596  25.104  1.00  0.00     0.278 C 
ENDBRANCH  13  27
ENDBRANCH   7  12
ENDBRANCH   4   6
ENDBRANCH   3   4
ENDBRANCH   2   3
ENDBRANCH   1   2
BRANCH   1  29
ATOM     29  O   UNL A   1      42.413  24.207  26.263  1.00  0.00    -0.458 OA
BRANCH  29  30
ATOM     30  C   UNL A   1      42.098  25.500  26.024  1.00  0.00     0.338 C 
ATOM     31  O   UNL A   1      41.868  26.026  24.949  1.00  0.00    -0.246 OA
BRANCH  30  32
ATOM     32  C   UNL A   1      42.038  26.224  27.302  1.00  0.00     0.060 A 
ATOM     33  C   UNL A   1      41.101  25.833  28.257  1.00  0.00     0.016 A 
ATOM     34  C   UNL A   1      42.828  27.355  27.507  1.00  0.00     0.016 A 
ATOM     35  C   UNL A   1      40.903  26.605  29.399  1.00  0.00     0.010 A 
ATOM     36  C   UNL A   1      42.668  28.099  28.681  1.00  0.00     0.010 A 
ATOM     37  C   UNL A   1      41.683  27.748  29.621  1.00  0.00    -0.014 A 
BRANCH  37  38
ATOM     38  C   UNL A   1      41.426  28.605  30.807  1.00  0.00     0.031 A 
ATOM     39  C   UNL A   1      40.297  29.600  30.783  1.00  0.00     0.074 A 
ATOM     40  C   UNL A   1      42.171  28.465  31.921  1.00  0.00     0.049 A 
ATOM     41  N   UNL A   1      39.973  30.500  31.676  1.00  0.00    -0.248 NA
ATOM     42  C   UNL A   1      39.416  29.579  29.603  1.00  0.00     0.031 C 
ATOM     43  C   UNL A   1      43.243  27.485  32.104  1.00  0.00     0.029 A 
ATOM     44  N   UNL A   1      42.126  29.140  33.116  1.00  0.00    -0.354 N 
ATOM     45  C   UNL A   1      38.864  31.160  31.162  1.00  0.00     0.074 A 
ATOM     46  C   UNL A   1      38.581  30.573  29.870  1.00  0.00     0.031 C 
ATOM     47  C   UNL A   1      43.731  27.601  33.350  1.00  0.00     0.029 A 
ATOM     48  C   UNL A   1      43.055  28.701  34.030  1.00  0.00     0.049 A 
ATOM     49  H   UNL A   1      41.490  29.868  33.300  1.00  0.00     0.167 HD
ATOM     50  C   UNL A   1      38.143  32.162  31.718  1.00  0.00     0.031 A 
ATOM     51  C   UNL A   1      43.347  29.148  35.268  1.00  0.00     0.031 A 
ATOM     52  C   UNL A   1      38.417  32.740  33.007  1.00  0.00     0.049 A 
ATOM     53  C   UNL A   1      42.598  30.322  35.827  1.00  0.00     0.074 A 
ATOM     54  C   UNL A   1      37.759  33.781  33.639  1.00  0.00     0.029 A 
ATOM     55  N   UNL A   1      39.421  32.321  33.864  1.00  0.00    -0.354 N 
ATOM     56  N   UNL A   1      41.604  30.990  35.292  1.00  0.00    -0.248 NA
ATOM     57  C   UNL A   1      43.018  30.817  37.146  1.00  0.00     0.031 C 
ATOM     58  C   UNL A   1      38.389  34.014  34.865  1.00  0.00     0.029 A 
ATOM     59  C   UNL A   1      39.411  33.089  35.015  1.00  0.00     0.049 A 
ATOM     60  H   UNL A   1      40.050  31.585  33.682  1.00  0.00     0.167 HD
ATOM     61  C   UNL A   1      41.273  31.976  36.214  1.00  0.00     0.074 A 
ATOM     62  C   UNL A   1      42.166  31.815  37.343  1.00  0.00     0.031 C 
ATOM     63  C   UNL A   1      40.309  32.925  36.128  1.00  0.00     0.031 A 
BRANCH  50  64
ATOM     64  C   UNL A   1      36.995  32.719  30.924  1.00  0.00    -0.014 A 
ATOM     65  C   UNL A   1      37.209  33.671  29.912  1.00  0.00     0.010 A 
ATOM     66  C   UNL A   1      35.692  32.243  31.157  1.00  0.00     0.010 A 
ATOM     67  C   UNL A   1      36.136  34.152  29.159  1.00  0.00     0.020 A 
ATOM     68  C   UNL A   1      34.618  32.708  30.393  1.00  0.00     0.020 A 
ATOM     69  C   UNL A   1      34.847  33.665  29.403  1.00  0.00     0.054 A 
BRANCH  69  70
ATOM     70  S   UNL A   1      33.477  34.304  28.399  1.00  0.00     0.124 S 
ATOM     71  O   UNL A   1      32.562  34.810  29.420  1.00  0.00    -0.237 OA
ATOM     72  O   UNL A   1      34.134  35.322  27.584  1.00  0.00    -0.237 OA
ATOM     73  O   UNL A   1      33.002  33.132  27.669  1.00  0.00    -0.744 OA
ENDBRANCH  69  70
ENDBRANCH  50  64
BRANCH  51  74
ATOM     74  C   UNL A   1      44.423  28.478  36.045  1.00  0.00    -0.014 A 
ATOM     75  C   UNL A   1      45.745  28.948  35.979  1.00  0.00     0.010 A 
ATOM     76  C   UNL A   1      44.116  27.409  36.907  1.00  0.00     0.010 A 
ATOM     77  C   UNL A   1      46.738  28.374  36.778  1.00  0.00     0.020 A 
ATOM     78  C   UNL A   1      45.102  26.846  37.720  1.00  0.00     0.020 A 
ATOM     79  C   UNL A   1      46.407  27.336  37.654  1.00  0.00     0.054 A 
BRANCH  79  80
ATOM     80  S   UNL A   1      47.700  26.668  38.739  1.00  0.00     0.124 S 
ATOM     81  O   UNL A   1      48.850  26.602  37.843  1.00  0.00    -0.237 OA
ATOM     82  O   UNL A   1      47.774  27.681  39.788  1.00  0.00    -0.237 OA
ATOM     83  O   UNL A   1      47.164  25.377  39.161  1.00  0.00    -0.744 OA
ENDBRANCH  79  80
ENDBRANCH  51  74
BRANCH  63  84
ATOM     84  C   UNL A   1      40.147  33.868  37.287  1.00  0.00    -0.014 A 
ATOM     85  C   UNL A   1      40.790  35.118  37.294  1.00  0.00     0.010 A 
ATOM     86  C   UNL A   1      39.252  33.546  38.324  1.00  0.00     0.010 A 
ATOM     87  C   UNL A   1      40.539  36.032  38.321  1.00  0.00     0.020 A 
ATOM     88  C   UNL A   1      38.986  34.465  39.342  1.00  0.00     0.020 A 
ATOM     89  C   UNL A   1      39.630  35.704  39.333  1.00  0.00     0.054 A 
BRANCH  89  90
ATOM     90  S   UNL A   1      39.275  36.940  40.612  1.00  0.00     0.124 S 
ATOM     91  O   UNL A   1      40.615  37.316  41.058  1.00  0.00    -0.237 OA
ATOM     92  O   UNL A   1      38.551  37.964  39.866  1.00  0.00    -0.237 OA
ATOM     93  O   UNL A   1      38.479  36.208  41.595  1.00  0.00    -0.744 OA
ENDBRANCH  89  90
ENDBRANCH  63  84
ENDBRANCH  37  38
ENDBRANCH  30  32
ENDBRANCH  29  30
ENDBRANCH   1  29
TORSDOF 16
ENDMDL
