MODEL 1
REMARK VINA RESULT:     -10.0      0.000      0.000
REMARK SMILES COC[C@@H](C)N(C)C(=O)N1CCC(CC(=O)OCCOC(=O)c2ccc(-c3c4nc(c(-c5ccc(S(=O)(=O)[O-])cc5)c5ccc([nH]5)c(-c5ccc(S(=O)(=O)[O-])cc5)c5nc(c(-c6ccc(S(=O)(=O)[O-])cc6)c6ccc3[nH]6)C=C5)C=C4)cc2)CC1
REMARK SMILES IDX 18 1 17 2 15 3 16 4 14 5 13 6 8 7 9 8 10 9 11 10 84 11 12 12
REMARK SMILES IDX 83 13 6 14 7 15 4 16 5 17 3 18 2 19 1 20 19 21 20 22 21 23
REMARK SMILES IDX 22 24 23 25 24 26 82 27 25 28 81 29 26 30 27 31 28 32 75 33
REMARK SMILES IDX 29 34 80 35 74 36 76 37 30 38 79 39 73 40 72 41 31 43 61 44
REMARK SMILES IDX 42 45 60 46 43 47 46 48 59 49 77 50 44 51 45 52 58 54 78 55
REMARK SMILES IDX 47 56 32 57 33 58 41 59 34 60 40 61 35 62 36 63 37 64 38 65
REMARK SMILES IDX 39 66 62 67 63 68 71 69 64 70 70 71 65 72 66 73 67 74 68 75
REMARK SMILES IDX 69 76 48 77 49 78 57 79 50 80 56 81 51 82 52 83 53 84 54 85
REMARK SMILES IDX 55 86
REMARK H PARENT 76 42 46 53
REMARK Flexibility Score: inf
ROOT
ATOM      1  C   UNL A   1      37.424  22.710  25.405  1.00  0.00     0.274 C 
ENDROOT
BRANCH   1   2
ATOM      2  O   UNL A   1      36.837  21.446  25.764  1.00  0.00    -0.462 OA
BRANCH   2   3
ATOM      3  C   UNL A   1      35.499  21.318  25.597  1.00  0.00     0.306 C 
ATOM      4  O   UNL A   1      34.961  20.466  24.901  1.00  0.00    -0.252 OA
BRANCH   3   5
ATOM      5  C   UNL A   1      34.714  22.398  26.314  1.00  0.00     0.126 C 
BRANCH   5   6
ATOM      6  C   UNL A   1      33.541  23.024  25.538  1.00  0.00     0.003 C 
ATOM      7  C   UNL A   1      31.625  26.456  25.881  1.00  0.00     0.320 C 
ATOM      8  O   UNL A   1      31.551  26.414  27.111  1.00  0.00    -0.248 OA
ATOM      9  N   UNL A   1      31.766  25.297  25.143  1.00  0.00    -0.325 N 
ATOM     10  C   UNL A   1      31.245  24.066  25.709  1.00  0.00     0.121 C 
ATOM     11  C   UNL A   1      32.858  25.108  24.194  1.00  0.00     0.121 C 
ATOM     12  C   UNL A   1      32.338  23.315  26.456  1.00  0.00     0.026 C 
ATOM     13  C   UNL A   1      34.007  24.328  24.847  1.00  0.00     0.026 C 
BRANCH   7  14
ATOM     14  N   UNL A   1      31.507  27.646  25.180  1.00  0.00    -0.323 N 
ATOM     15  C   UNL A   1      30.382  27.967  24.311  1.00  0.00     0.149 C 
BRANCH  14  16
ATOM     16  C   UNL A   1      32.452  28.751  25.464  1.00  0.00     0.109 C 
ATOM     17  C   UNL A   1      31.779  29.851  26.288  1.00  0.00     0.033 C 
BRANCH  16  18
ATOM     18  C   UNL A   1      33.139  29.276  24.178  1.00  0.00     0.184 C 
BRANCH  18  19
ATOM     19  O   UNL A   1      34.138  28.390  23.660  1.00  0.00    -0.383 OA
ATOM     20  C   UNL A   1      34.160  28.322  22.241  1.00  0.00     0.194 C 
ENDBRANCH  18  19
ENDBRANCH  16  18
ENDBRANCH  14  16
ENDBRANCH   7  14
ENDBRANCH   5   6
ENDBRANCH   3   5
ENDBRANCH   2   3
ENDBRANCH   1   2
BRANCH   1  21
ATOM     21  C   UNL A   1      38.735  22.937  26.157  1.00  0.00     0.275 C 
BRANCH  21  22
ATOM     22  O   UNL A   1      38.883  24.320  26.525  1.00  0.00    -0.458 OA
BRANCH  22  23
ATOM     23  C   UNL A   1      40.153  24.767  26.637  1.00  0.00     0.338 C 
ATOM     24  O   UNL A   1      41.118  24.458  25.955  1.00  0.00    -0.246 OA
BRANCH  23  25
ATOM     25  C   UNL A   1      40.191  25.799  27.681  1.00  0.00     0.060 A 
ATOM     26  C   UNL A   1      41.156  26.808  27.600  1.00  0.00     0.016 A 
ATOM     27  C   UNL A   1      39.289  25.756  28.744  1.00  0.00     0.016 A 
ATOM     28  C   UNL A   1      41.208  27.796  28.581  1.00  0.00     0.010 A 
ATOM     29  C   UNL A   1      39.339  26.751  29.721  1.00  0.00     0.010 A 
ATOM     30  C   UNL A   1      40.295  27.780  29.644  1.00  0.00    -0.014 A 
BRANCH  30  31
ATOM     31  C   UNL A   1      40.315  28.844  30.675  1.00  0.00     0.031 A 
ATOM     32  C   UNL A   1      41.250  28.741  31.844  1.00  0.00     0.074 A 
ATOM     33  C   UNL A   1      39.460  29.879  30.578  1.00  0.00     0.049 A 
ATOM     34  N   UNL A   1      41.316  29.489  32.915  1.00  0.00    -0.248 NA
ATOM     35  C   UNL A   1      42.238  27.651  31.805  1.00  0.00     0.031 C 
ATOM     36  C   UNL A   1      38.530  30.107  29.469  1.00  0.00     0.029 A 
ATOM     37  N   UNL A   1      39.220  30.924  31.435  1.00  0.00    -0.354 N 
ATOM     38  C   UNL A   1      42.338  28.951  33.689  1.00  0.00     0.074 A 
ATOM     39  C   UNL A   1      42.856  27.807  32.968  1.00  0.00     0.031 C 
ATOM     40  C   UNL A   1      37.815  31.215  29.720  1.00  0.00     0.029 A 
ATOM     41  C   UNL A   1      38.195  31.743  31.027  1.00  0.00     0.049 A 
ATOM     42  H   UNL A   1      39.733  31.071  32.263  1.00  0.00     0.167 HD
ATOM     43  C   UNL A   1      42.797  29.373  34.891  1.00  0.00     0.031 A 
ATOM     44  C   UNL A   1      37.598  32.777  31.652  1.00  0.00     0.031 A 
ATOM     45  C   UNL A   1      42.267  30.505  35.605  1.00  0.00     0.049 A 
ATOM     46  C   UNL A   1      38.069  33.174  33.023  1.00  0.00     0.074 A 
ATOM     47  C   UNL A   1      42.677  31.024  36.821  1.00  0.00     0.029 A 
ATOM     48  N   UNL A   1      41.208  31.289  35.173  1.00  0.00    -0.354 N 
ATOM     49  N   UNL A   1      39.042  32.663  33.740  1.00  0.00    -0.248 NA
ATOM     50  C   UNL A   1      37.355  34.280  33.677  1.00  0.00     0.031 C 
ATOM     51  C   UNL A   1      41.831  32.088  37.149  1.00  0.00     0.029 A 
ATOM     52  C   UNL A   1      40.927  32.266  36.113  1.00  0.00     0.049 A 
ATOM     53  H   UNL A   1      40.726  31.167  34.323  1.00  0.00     0.167 HD
ATOM     54  C   UNL A   1      39.065  33.393  34.922  1.00  0.00     0.074 A 
ATOM     55  C   UNL A   1      38.021  34.391  34.819  1.00  0.00     0.031 C 
ATOM     56  C   UNL A   1      39.877  33.246  35.998  1.00  0.00     0.031 A 
BRANCH  43  57
ATOM     57  C   UNL A   1      43.901  28.577  35.532  1.00  0.00    -0.014 A 
ATOM     58  C   UNL A   1      43.621  27.493  36.383  1.00  0.00     0.010 A 
ATOM     59  C   UNL A   1      45.242  28.895  35.246  1.00  0.00     0.010 A 
ATOM     60  C   UNL A   1      44.663  26.766  36.966  1.00  0.00     0.020 A 
ATOM     61  C   UNL A   1      46.285  28.155  35.810  1.00  0.00     0.020 A 
ATOM     62  C   UNL A   1      45.988  27.105  36.681  1.00  0.00     0.054 A 
BRANCH  62  63
ATOM     63  S   UNL A   1      47.320  26.137  37.442  1.00  0.00     0.124 S 
ATOM     64  O   UNL A   1      46.983  26.226  38.860  1.00  0.00    -0.237 OA
ATOM     65  O   UNL A   1      47.146  24.819  36.837  1.00  0.00    -0.237 OA
ATOM     66  O   UNL A   1      48.535  26.845  37.045  1.00  0.00    -0.744 OA
ENDBRANCH  62  63
ENDBRANCH  43  57
BRANCH  44  67
ATOM     67  C   UNL A   1      36.455  33.474  31.002  1.00  0.00    -0.014 A 
ATOM     68  C   UNL A   1      35.347  33.890  31.760  1.00  0.00     0.010 A 
ATOM     69  C   UNL A   1      36.480  33.740  29.621  1.00  0.00     0.010 A 
ATOM     70  C   UNL A   1      34.280  34.553  31.145  1.00  0.00     0.020 A 
ATOM     71  C   UNL A   1      35.428  34.425  29.008  1.00  0.00     0.020 A 
ATOM     72  C   UNL A   1      34.329  34.819  29.773  1.00  0.00     0.054 A 
BRANCH  72  73
ATOM     73  S   UNL A   1      32.961  35.733  29.007  1.00  0.00     0.124 S 
ATOM     74  O   UNL A   1      32.103  36.012  30.154  1.00  0.00    -0.237 OA
ATOM     75  O   UNL A   1      33.638  36.889  28.425  1.00  0.00    -0.237 OA
ATOM     76  O   UNL A   1      32.421  34.785  28.035  1.00  0.00    -0.744 OA
ENDBRANCH  72  73
ENDBRANCH  44  67
BRANCH  56  77
ATOM     77  C   UNL A   1      39.680  34.198  37.147  1.00  0.00    -0.014 A 
ATOM     78  C   UNL A   1      38.886  33.843  38.251  1.00  0.00     0.010 A 
ATOM     79  C   UNL A   1      40.347  35.437  37.149  1.00  0.00     0.010 A 
ATOM     80  C   UNL A   1      38.748  34.719  39.331  1.00  0.00     0.020 A 
ATOM     81  C   UNL A   1      40.230  36.304  38.238  1.00  0.00     0.020 A 
ATOM     82  C   UNL A   1      39.422  35.944  39.318  1.00  0.00     0.054 A 
BRANCH  82  83
ATOM     83  S   UNL A   1      39.274  37.039  40.757  1.00  0.00     0.124 S 
ATOM     84  O   UNL A   1      38.553  36.197  41.706  1.00  0.00    -0.237 OA
ATOM     85  O   UNL A   1      40.669  37.316  41.096  1.00  0.00    -0.237 OA
ATOM     86  O   UNL A   1      38.525  38.184  40.245  1.00  0.00    -0.744 OA
ENDBRANCH  82  83
ENDBRANCH  56  77
ENDBRANCH  30  31
ENDBRANCH  23  25
ENDBRANCH  22  23
ENDBRANCH  21  22
ENDBRANCH   1  21
TORSDOF 19
ENDMDL
MODEL 2
REMARK VINA RESULT:     -10.0      4.795     11.883
REMARK SMILES COC[C@@H](C)N(C)C(=O)N1CCC(CC(=O)OCCOC(=O)c2ccc(-c3c4nc(c(-c5ccc(S(=O)(=O)[O-])cc5)c5ccc([nH]5)c(-c5ccc(S(=O)(=O)[O-])cc5)c5nc(c(-c6ccc(S(=O)(=O)[O-])cc6)c6ccc3[nH]6)C=C5)C=C4)cc2)CC1
REMARK SMILES IDX 18 1 17 2 15 3 16 4 14 5 13 6 8 7 9 8 10 9 11 10 84 11 12 12
REMARK SMILES IDX 83 13 6 14 7 15 4 16 5 17 3 18 2 19 1 20 19 21 20 22 21 23
REMARK SMILES IDX 22 24 23 25 24 26 82 27 25 28 81 29 26 30 27 31 28 32 75 33
REMARK SMILES IDX 29 34 80 35 74 36 76 37 30 38 79 39 73 40 72 41 31 43 61 44
REMARK SMILES IDX 42 45 60 46 43 47 46 48 59 49 77 50 44 51 45 52 58 54 78 55
REMARK SMILES IDX 47 56 32 57 33 58 41 59 34 60 40 61 35 62 36 63 37 64 38 65
REMARK SMILES IDX 39 66 62 67 63 68 71 69 64 70 70 71 65 72 66 73 67 74 68 75
REMARK SMILES IDX 69 76 48 77 49 78 57 79 50 80 56 81 51 82 52 83 53 84 54 85
REMARK SMILES IDX 55 86
REMARK H PARENT 76 42 46 53
REMARK Flexibility Score: inf
ROOT
ATOM      1  C   UNL A   1      33.493  33.962  27.956  1.00  0.00     0.274 C 
ENDROOT
BRANCH   1   2
ATOM      2  O   UNL A   1      34.198  34.657  29.001  1.00  0.00    -0.462 OA
BRANCH   2   3
ATOM      3  C   UNL A   1      33.451  35.192  29.998  1.00  0.00     0.306 C 
ATOM      4  O   UNL A   1      32.502  35.947  29.829  1.00  0.00    -0.252 OA
BRANCH   3   5
ATOM      5  C   UNL A   1      33.958  34.815  31.375  1.00  0.00     0.126 C 
BRANCH   5   6
ATOM      6  C   UNL A   1      35.440  34.410  31.474  1.00  0.00     0.003 C 
ATOM      7  C   UNL A   1      37.417  32.053  33.944  1.00  0.00     0.320 C 
ATOM      8  O   UNL A   1      36.861  32.474  34.960  1.00  0.00    -0.248 OA
ATOM      9  N   UNL A   1      37.492  32.834  32.807  1.00  0.00    -0.325 N 
ATOM     10  C   UNL A   1      37.470  34.276  32.972  1.00  0.00     0.121 C 
ATOM     11  C   UNL A   1      37.004  32.369  31.512  1.00  0.00     0.121 C 
ATOM     12  C   UNL A   1      36.053  34.811  32.829  1.00  0.00     0.026 C 
ATOM     13  C   UNL A   1      35.581  32.884  31.259  1.00  0.00     0.026 C 
BRANCH   7  14
ATOM     14  N   UNL A   1      38.045  30.818  33.910  1.00  0.00    -0.323 N 
ATOM     15  C   UNL A   1      37.478  29.637  33.271  1.00  0.00     0.149 C 
BRANCH  14  16
ATOM     16  C   UNL A   1      39.452  30.707  34.359  1.00  0.00     0.109 C 
ATOM     17  C   UNL A   1      40.196  29.626  33.572  1.00  0.00     0.033 C 
BRANCH  16  18
ATOM     18  C   UNL A   1      39.564  30.539  35.896  1.00  0.00     0.184 C 
BRANCH  18  19
ATOM     19  O   UNL A   1      40.222  31.633  36.545  1.00  0.00    -0.383 OA
ATOM     20  C   UNL A   1      41.634  31.624  36.387  1.00  0.00     0.194 C 
ENDBRANCH  18  19
ENDBRANCH  16  18
ENDBRANCH  14  16
ENDBRANCH   7  14
ENDBRANCH   5   6
ENDBRANCH   3   5
ENDBRANCH   2   3
ENDBRANCH   1   2
BRANCH   1  21
ATOM     21  C   UNL A   1      33.471  32.457  28.221  1.00  0.00     0.275 C 
BRANCH  21  22
ATOM     22  O   UNL A   1      34.581  31.806  27.578  1.00  0.00    -0.458 OA
BRANCH  22  23
ATOM     23  C   UNL A   1      34.608  30.458  27.669  1.00  0.00     0.338 C 
ATOM     24  O   UNL A   1      33.713  29.673  27.397  1.00  0.00    -0.246 OA
BRANCH  23  25
ATOM     25  C   UNL A   1      35.959  30.047  28.069  1.00  0.00     0.060 A 
ATOM     26  C   UNL A   1      37.000  30.153  27.142  1.00  0.00     0.016 A 
ATOM     27  C   UNL A   1      36.189  29.540  29.348  1.00  0.00     0.016 A 
ATOM     28  C   UNL A   1      38.291  29.768  27.503  1.00  0.00     0.010 A 
ATOM     29  C   UNL A   1      37.483  29.162  29.709  1.00  0.00     0.010 A 
ATOM     30  C   UNL A   1      38.543  29.278  28.791  1.00  0.00    -0.014 A 
BRANCH  30  31
ATOM     31  C   UNL A   1      39.915  28.898  29.201  1.00  0.00     0.031 A 
ATOM     32  C   UNL A   1      40.803  29.900  29.879  1.00  0.00     0.074 A 
ATOM     33  C   UNL A   1      40.373  27.663  28.922  1.00  0.00     0.049 A 
ATOM     34  N   UNL A   1      42.071  29.805  30.183  1.00  0.00    -0.248 NA
ATOM     35  C   UNL A   1      40.182  31.177  30.264  1.00  0.00     0.031 C 
ATOM     36  C   UNL A   1      39.592  26.591  28.300  1.00  0.00     0.029 A 
ATOM     37  N   UNL A   1      41.614  27.106  29.108  1.00  0.00    -0.354 N 
ATOM     38  C   UNL A   1      42.410  31.016  30.775  1.00  0.00     0.074 A 
ATOM     39  C   UNL A   1      41.214  31.832  30.778  1.00  0.00     0.031 C 
ATOM     40  C   UNL A   1      40.375  25.512  28.147  1.00  0.00     0.029 A 
ATOM     41  C   UNL A   1      41.723  25.831  28.607  1.00  0.00     0.049 A 
ATOM     42  H   UNL A   1      42.355  27.577  29.556  1.00  0.00     0.167 HD
ATOM     43  C   UNL A   1      43.609  31.408  31.267  1.00  0.00     0.031 A 
ATOM     44  C   UNL A   1      42.797  25.025  28.492  1.00  0.00     0.031 A 
ATOM     45  C   UNL A   1      44.795  30.592  31.248  1.00  0.00     0.049 A 
ATOM     46  C   UNL A   1      44.135  25.515  28.968  1.00  0.00     0.074 A 
ATOM     47  C   UNL A   1      46.054  30.893  31.740  1.00  0.00     0.029 A 
ATOM     48  N   UNL A   1      44.872  29.319  30.704  1.00  0.00    -0.354 N 
ATOM     49  N   UNL A   1      44.440  26.658  29.535  1.00  0.00    -0.248 NA
ATOM     50  C   UNL A   1      45.279  24.612  28.780  1.00  0.00     0.031 C 
ATOM     51  C   UNL A   1      46.905  29.822  31.444  1.00  0.00     0.029 A 
ATOM     52  C   UNL A   1      46.164  28.834  30.815  1.00  0.00     0.049 A 
ATOM     53  H   UNL A   1      44.119  28.833  30.297  1.00  0.00     0.167 HD
ATOM     54  C   UNL A   1      45.806  26.607  29.782  1.00  0.00     0.074 A 
ATOM     55  C   UNL A   1      46.267  25.314  29.319  1.00  0.00     0.031 C 
ATOM     56  C   UNL A   1      46.608  27.547  30.340  1.00  0.00     0.031 A 
BRANCH  43  57
ATOM     57  C   UNL A   1      43.708  32.800  31.828  1.00  0.00    -0.014 A 
ATOM     58  C   UNL A   1      43.438  33.062  33.183  1.00  0.00     0.010 A 
ATOM     59  C   UNL A   1      44.117  33.858  30.995  1.00  0.00     0.010 A 
ATOM     60  C   UNL A   1      43.537  34.363  33.685  1.00  0.00     0.020 A 
ATOM     61  C   UNL A   1      44.240  35.156  31.499  1.00  0.00     0.020 A 
ATOM     62  C   UNL A   1      43.932  35.403  32.838  1.00  0.00     0.054 A 
BRANCH  62  63
ATOM     63  S   UNL A   1      44.066  37.079  33.518  1.00  0.00     0.124 S 
ATOM     64  O   UNL A   1      45.464  37.122  33.938  1.00  0.00    -0.237 OA
ATOM     65  O   UNL A   1      43.729  37.919  32.371  1.00  0.00    -0.237 OA
ATOM     66  O   UNL A   1      43.089  37.093  34.603  1.00  0.00    -0.744 OA
ENDBRANCH  62  63
ENDBRANCH  43  57
BRANCH  44  67
ATOM     67  C   UNL A   1      42.652  23.689  27.853  1.00  0.00    -0.014 A 
ATOM     68  C   UNL A   1      42.778  23.544  26.461  1.00  0.00     0.010 A 
ATOM     69  C   UNL A   1      42.405  22.549  28.641  1.00  0.00     0.010 A 
ATOM     70  C   UNL A   1      42.650  22.284  25.868  1.00  0.00     0.020 A 
ATOM     71  C   UNL A   1      42.303  21.285  28.055  1.00  0.00     0.020 A 
ATOM     72  C   UNL A   1      42.416  21.162  26.669  1.00  0.00     0.054 A 
BRANCH  72  73
ATOM     73  S   UNL A   1      42.314  19.529  25.884  1.00  0.00     0.124 S 
ATOM     74  O   UNL A   1      40.938  19.511  25.400  1.00  0.00    -0.237 OA
ATOM     75  O   UNL A   1      43.348  19.606  24.855  1.00  0.00    -0.237 OA
ATOM     76  O   UNL A   1      42.606  18.606  26.979  1.00  0.00    -0.744 OA
ENDBRANCH  72  73
ENDBRANCH  44  67
BRANCH  56  77
ATOM     77  C   UNL A   1      48.065  27.209  30.495  1.00  0.00    -0.014 A 
ATOM     78  C   UNL A   1      48.989  27.508  29.479  1.00  0.00     0.010 A 
ATOM     79  C   UNL A   1      48.526  26.642  31.698  1.00  0.00     0.010 A 
ATOM     80  C   UNL A   1      50.347  27.229  29.655  1.00  0.00     0.020 A 
ATOM     81  C   UNL A   1      49.886  26.384  31.887  1.00  0.00     0.020 A 
ATOM     82  C   UNL A   1      50.786  26.669  30.859  1.00  0.00     0.054 A 
BRANCH  82  83
ATOM     83  S   UNL A   1      52.562  26.370  31.087  1.00  0.00     0.124 S 
ATOM     84  O   UNL A   1      52.565  25.104  31.813  1.00  0.00    -0.237 OA
ATOM     85  O   UNL A   1      53.056  26.308  29.713  1.00  0.00    -0.237 OA
ATOM     86  O   UNL A   1      53.013  27.530  31.853  1.00  0.00    -0.744 OA
ENDBRANCH  82  83
ENDBRANCH  56  77
ENDBRANCH  30  31
ENDBRANCH  23  25
ENDBRANCH  22  23
ENDBRANCH  21  22
ENDBRANCH   1  21
TORSDOF 19
ENDMDL
MODEL 3
REMARK VINA RESULT:     -10.0      4.353     10.379
REMARK SMILES COC[C@@H](C)N(C)C(=O)N1CCC(CC(=O)OCCOC(=O)c2ccc(-c3c4nc(c(-c5ccc(S(=O)(=O)[O-])cc5)c5ccc([nH]5)c(-c5ccc(S(=O)(=O)[O-])cc5)c5nc(c(-c6ccc(S(=O)(=O)[O-])cc6)c6ccc3[nH]6)C=C5)C=C4)cc2)CC1
REMARK SMILES IDX 18 1 17 2 15 3 16 4 14 5 13 6 8 7 9 8 10 9 11 10 84 11 12 12
REMARK SMILES IDX 83 13 6 14 7 15 4 16 5 17 3 18 2 19 1 20 19 21 20 22 21 23
REMARK SMILES IDX 22 24 23 25 24 26 82 27 25 28 81 29 26 30 27 31 28 32 75 33
REMARK SMILES IDX 29 34 80 35 74 36 76 37 30 38 79 39 73 40 72 41 31 43 61 44
REMARK SMILES IDX 42 45 60 46 43 47 46 48 59 49 77 50 44 51 45 52 58 54 78 55
REMARK SMILES IDX 47 56 32 57 33 58 41 59 34 60 40 61 35 62 36 63 37 64 38 65
REMARK SMILES IDX 39 66 62 67 63 68 71 69 64 70 70 71 65 72 66 73 67 74 68 75
REMARK SMILES IDX 69 76 48 77 49 78 57 79 50 80 56 81 51 82 52 83 53 84 54 85
REMARK SMILES IDX 55 86
REMARK H PARENT 76 42 46 53
REMARK Flexibility Score: inf
ROOT
ATOM      1  C   UNL A   1      31.832  29.915  25.961  1.00  0.00     0.274 C 
ENDROOT
BRANCH   1   2
ATOM      2  O   UNL A   1      31.539  28.857  25.031  1.00  0.00    -0.462 OA
BRANCH   2   3
ATOM      3  C   UNL A   1      32.279  28.809  23.897  1.00  0.00     0.306 C 
ATOM      4  O   UNL A   1      33.477  29.054  23.836  1.00  0.00    -0.252 OA
BRANCH   3   5
ATOM      5  C   UNL A   1      31.451  28.484  22.670  1.00  0.00     0.126 C 
BRANCH   5   6
ATOM      6  C   UNL A   1      31.386  27.002  22.259  1.00  0.00     0.003 C 
ATOM      7  C   UNL A   1      33.115  23.749  23.671  1.00  0.00     0.320 C 
ATOM      8  O   UNL A   1      34.225  24.268  23.803  1.00  0.00    -0.248 OA
ATOM      9  N   UNL A   1      32.204  24.254  22.765  1.00  0.00    -0.325 N 
ATOM     10  C   UNL A   1      32.721  24.958  21.605  1.00  0.00     0.121 C 
ATOM     11  C   UNL A   1      30.856  24.651  23.158  1.00  0.00     0.121 C 
ATOM     12  C   UNL A   1      32.772  26.457  21.867  1.00  0.00     0.026 C 
ATOM     13  C   UNL A   1      30.795  26.162  23.417  1.00  0.00     0.026 C 
BRANCH   7  14
ATOM     14  N   UNL A   1      32.752  22.607  24.370  1.00  0.00    -0.323 N 
ATOM     15  C   UNL A   1      32.590  21.297  23.753  1.00  0.00     0.149 C 
BRANCH  14  16
ATOM     16  C   UNL A   1      32.716  22.644  25.850  1.00  0.00     0.109 C 
ATOM     17  C   UNL A   1      33.632  21.573  26.447  1.00  0.00     0.033 C 
BRANCH  16  18
ATOM     18  C   UNL A   1      31.269  22.596  26.400  1.00  0.00     0.184 C 
BRANCH  18  19
ATOM     19  O   UNL A   1      30.897  23.766  27.137  1.00  0.00    -0.383 OA
ATOM     20  C   UNL A   1      31.632  24.926  26.773  1.00  0.00     0.194 C 
ENDBRANCH  18  19
ENDBRANCH  16  18
ENDBRANCH  14  16
ENDBRANCH   7  14
ENDBRANCH   5   6
ENDBRANCH   3   5
ENDBRANCH   2   3
ENDBRANCH   1   2
BRANCH   1  21
ATOM     21  C   UNL A   1      32.464  29.359  27.237  1.00  0.00     0.275 C 
BRANCH  21  22
ATOM     22  O   UNL A   1      33.899  29.364  27.143  1.00  0.00    -0.458 OA
BRANCH  22  23
ATOM     23  C   UNL A   1      34.522  30.436  27.680  1.00  0.00     0.338 C 
ATOM     24  O   UNL A   1      34.064  31.553  27.862  1.00  0.00    -0.246 OA
BRANCH  23  25
ATOM     25  C   UNL A   1      35.860  30.023  28.123  1.00  0.00     0.060 A 
ATOM     26  C   UNL A   1      36.925  30.100  27.222  1.00  0.00     0.016 A 
ATOM     27  C   UNL A   1      36.053  29.543  29.419  1.00  0.00     0.016 A 
ATOM     28  C   UNL A   1      38.202  29.713  27.624  1.00  0.00     0.010 A 
ATOM     29  C   UNL A   1      37.334  29.163  29.821  1.00  0.00     0.010 A 
ATOM     30  C   UNL A   1      38.418  29.249  28.928  1.00  0.00    -0.014 A 
BRANCH  30  31
ATOM     31  C   UNL A   1      39.776  28.867  29.381  1.00  0.00     0.031 A 
ATOM     32  C   UNL A   1      40.623  29.852  30.133  1.00  0.00     0.074 A 
ATOM     33  C   UNL A   1      40.259  27.649  29.076  1.00  0.00     0.049 A 
ATOM     34  N   UNL A   1      41.878  29.758  30.487  1.00  0.00    -0.248 NA
ATOM     35  C   UNL A   1      39.972  31.108  30.539  1.00  0.00     0.031 C 
ATOM     36  C   UNL A   1      39.516  26.593  28.382  1.00  0.00     0.029 A 
ATOM     37  N   UNL A   1      41.497  27.098  29.294  1.00  0.00    -0.354 N 
ATOM     38  C   UNL A   1      42.178  30.949  31.138  1.00  0.00     0.074 A 
ATOM     39  C   UNL A   1      40.974  31.753  31.120  1.00  0.00     0.031 C 
ATOM     40  C   UNL A   1      40.318  25.528  28.222  1.00  0.00     0.029 A 
ATOM     41  C   UNL A   1      41.642  25.843  28.751  1.00  0.00     0.049 A 
ATOM     42  H   UNL A   1      42.213  27.558  29.790  1.00  0.00     0.167 HD
ATOM     43  C   UNL A   1      43.351  31.334  31.694  1.00  0.00     0.031 A 
ATOM     44  C   UNL A   1      42.728  25.052  28.652  1.00  0.00     0.031 A 
ATOM     45  C   UNL A   1      44.546  30.531  31.695  1.00  0.00     0.049 A 
ATOM     46  C   UNL A   1      44.040  25.537  29.202  1.00  0.00     0.074 A 
ATOM     47  C   UNL A   1      45.780  30.826  32.250  1.00  0.00     0.029 A 
ATOM     48  N   UNL A   1      44.660  29.281  31.107  1.00  0.00    -0.354 N 
ATOM     49  N   UNL A   1      44.307  26.661  29.823  1.00  0.00    -0.248 NA
ATOM     50  C   UNL A   1      45.201  24.653  29.029  1.00  0.00     0.031 C 
ATOM     51  C   UNL A   1      46.654  29.775  31.951  1.00  0.00     0.029 A 
ATOM     52  C   UNL A   1      45.952  28.804  31.255  1.00  0.00     0.049 A 
ATOM     53  H   UNL A   1      43.930  28.803  30.651  1.00  0.00     0.167 HD
ATOM     54  C   UNL A   1      45.663  26.614  30.126  1.00  0.00     0.074 A 
ATOM     55  C   UNL A   1      46.158  25.344  29.635  1.00  0.00     0.031 C 
ATOM     56  C   UNL A   1      46.429  27.541  30.751  1.00  0.00     0.031 A 
BRANCH  43  57
ATOM     57  C   UNL A   1      43.411  32.705  32.310  1.00  0.00    -0.014 A 
ATOM     58  C   UNL A   1      43.075  32.914  33.660  1.00  0.00     0.010 A 
ATOM     59  C   UNL A   1      43.849  33.796  31.537  1.00  0.00     0.010 A 
ATOM     60  C   UNL A   1      43.138  34.196  34.213  1.00  0.00     0.020 A 
ATOM     61  C   UNL A   1      43.936  35.075  32.094  1.00  0.00     0.020 A 
ATOM     62  C   UNL A   1      43.563  35.270  33.425  1.00  0.00     0.054 A 
BRANCH  62  63
ATOM     63  S   UNL A   1      43.649  36.920  34.172  1.00  0.00     0.124 S 
ATOM     64  O   UNL A   1      45.077  37.053  34.445  1.00  0.00    -0.237 OA
ATOM     65  O   UNL A   1      43.131  37.781  33.110  1.00  0.00    -0.237 OA
ATOM     66  O   UNL A   1      42.796  36.813  35.353  1.00  0.00    -0.744 OA
ENDBRANCH  62  63
ENDBRANCH  43  57
BRANCH  44  67
ATOM     67  C   UNL A   1      42.626  23.740  27.958  1.00  0.00    -0.014 A 
ATOM     68  C   UNL A   1      42.951  23.623  26.596  1.00  0.00     0.010 A 
ATOM     69  C   UNL A   1      42.217  22.594  28.665  1.00  0.00     0.010 A 
ATOM     70  C   UNL A   1      42.862  22.385  25.952  1.00  0.00     0.020 A 
ATOM     71  C   UNL A   1      42.152  21.350  28.032  1.00  0.00     0.020 A 
ATOM     72  C   UNL A   1      42.465  21.256  26.675  1.00  0.00     0.054 A 
BRANCH  72  73
ATOM     73  S   UNL A   1      42.414  19.649  25.834  1.00  0.00     0.124 S 
ATOM     74  O   UNL A   1      41.016  19.564  25.427  1.00  0.00    -0.237 OA
ATOM     75  O   UNL A   1      43.380  19.825  24.753  1.00  0.00    -0.237 OA
ATOM     76  O   UNL A   1      42.823  18.707  26.875  1.00  0.00    -0.744 OA
ENDBRANCH  72  73
ENDBRANCH  44  67
BRANCH  56  77
ATOM     77  C   UNL A   1      47.883  27.211  30.956  1.00  0.00    -0.014 A 
ATOM     78  C   UNL A   1      48.305  26.462  32.068  1.00  0.00     0.010 A 
ATOM     79  C   UNL A   1      48.830  27.601  29.991  1.00  0.00     0.010 A 
ATOM     80  C   UNL A   1      49.652  26.125  32.221  1.00  0.00     0.020 A 
ATOM     81  C   UNL A   1      50.173  27.245  30.129  1.00  0.00     0.020 A 
ATOM     82  C   UNL A   1      50.578  26.518  31.249  1.00  0.00     0.054 A 
BRANCH  82  83
ATOM     83  S   UNL A   1      52.312  26.018  31.441  1.00  0.00     0.124 S 
ATOM     84  O   UNL A   1      52.181  24.683  32.017  1.00  0.00    -0.237 OA
ATOM     85  O   UNL A   1      52.813  26.064  30.069  1.00  0.00    -0.237 OA
ATOM     86  O   UNL A   1      52.867  27.031  32.335  1.00  0.00    -0.744 OA
ENDBRANCH  82  83
ENDBRANCH  56  77
ENDBRANCH  30  31
ENDBRANCH  23  25
ENDBRANCH  22  23
ENDBRANCH  21  22
ENDBRANCH   1  21
TORSDOF 19
ENDMDL
