MODEL 1
REMARK VINA RESULT:     -12.4      0.000      0.000
REMARK SMILES NS(=O)(=O)c1ccc(-n2ccnc2-c2ccc(O)c(C(=O)OCCOC(=O)c3ccc(-c4c5nc(c(-c6ccc(S(=O)(=O)[O-])cc6)c6ccc([nH]6)c(-c6ccc(S(=O)(=O)[O-])cc6)c6nc(c(-c7ccc(S(=O)(=O)[O-])cc7)c7ccc4[nH]7)C=C6)C=C5)cc3)c2)cc1
REMARK SMILES IDX 23 1 22 2 20 3 21 4 19 5 14 6 15 7 88 8 16 9 17 10 13 11
REMARK SMILES IDX 9 12 10 13 11 14 12 15 8 16 5 17 6 18 90 19 7 20 89 21 2 22
REMARK SMILES IDX 3 23 4 24 1 25 18 28 24 30 25 31 26 32 27 33 28 34 29 35
REMARK SMILES IDX 87 36 30 37 86 38 31 39 32 40 33 41 80 42 34 43 85 44 79 45
REMARK SMILES IDX 81 46 35 47 84 48 78 49 77 50 36 52 66 53 47 54 65 55 48 56
REMARK SMILES IDX 51 57 64 58 82 59 49 60 50 61 63 63 83 64 52 65 37 66 38 67
REMARK SMILES IDX 46 68 39 69 45 70 40 71 41 72 42 73 43 74 44 75 67 76 68 77
REMARK SMILES IDX 76 78 69 79 75 80 70 81 71 82 72 83 73 84 74 85 53 86 54 87
REMARK SMILES IDX 62 88 55 89 61 90 56 91 57 92 58 93 59 94 60 95
REMARK H PARENT 1 26 1 27 18 29 81 51 51 62
REMARK Flexibility Score: inf
ROOT
ATOM      1  C   UNL A   1      37.134  21.035  24.745  1.00  0.00     0.275 C 
ENDROOT
BRANCH   1   2
ATOM      2  O   UNL A   1      36.139  20.985  25.782  1.00  0.00    -0.458 OA
BRANCH   2   3
ATOM      3  C   UNL A   1      35.392  22.106  25.952  1.00  0.00     0.342 C 
ATOM      4  O   UNL A   1      35.650  23.047  26.691  1.00  0.00    -0.246 OA
BRANCH   3   5
ATOM      5  C   UNL A   1      34.230  22.130  25.029  1.00  0.00     0.102 A 
ATOM      6  C   UNL A   1      33.032  23.129  23.155  1.00  0.00     0.019 A 
ATOM      7  C   UNL A   1      32.019  22.176  23.300  1.00  0.00     0.016 A 
ATOM      8  C   UNL A   1      34.108  23.129  24.057  1.00  0.00     0.031 A 
ATOM      9  C   UNL A   1      32.118  21.194  24.289  1.00  0.00     0.048 A 
ATOM     10  C   UNL A   1      33.226  21.160  25.135  1.00  0.00     0.130 A 
BRANCH   6  11
ATOM     11  C   UNL A   1      32.995  24.102  22.058  1.00  0.00     0.144 A 
ATOM     12  N   UNL A   1      32.611  25.436  22.201  1.00  0.00    -0.300 N 
ATOM     13  C   UNL A   1      32.400  25.920  20.930  1.00  0.00     0.113 A 
ATOM     14  C   UNL A   1      32.835  24.930  20.083  1.00  0.00     0.132 A 
ATOM     15  N   UNL A   1      33.227  23.825  20.786  1.00  0.00    -0.236 NA
BRANCH  12  16
ATOM     16  C   UNL A   1      32.473  26.179  23.402  1.00  0.00     0.047 A 
ATOM     17  C   UNL A   1      32.175  27.698  25.718  1.00  0.00     0.082 A 
ATOM     18  C   UNL A   1      31.053  27.100  25.140  1.00  0.00     0.024 A 
ATOM     19  C   UNL A   1      33.444  27.536  25.149  1.00  0.00     0.024 A 
ATOM     20  C   UNL A   1      31.202  26.347  23.975  1.00  0.00     0.028 A 
ATOM     21  C   UNL A   1      33.599  26.755  24.000  1.00  0.00     0.028 A 
BRANCH  17  22
ATOM     22  S   UNL A   1      32.034  28.693  27.173  1.00  0.00     0.238 S 
ATOM     23  O   UNL A   1      31.304  27.936  28.172  1.00  0.00    -0.207 OA
ATOM     24  O   UNL A   1      31.659  30.023  26.777  1.00  0.00    -0.207 OA
BRANCH  22  25
ATOM     25  N   UNL A   1      33.601  28.813  27.767  1.00  0.00    -0.225 NA
ATOM     26  H   UNL A   1      34.040  29.656  27.398  1.00  0.00     0.137 HD
ATOM     27  H   UNL A   1      34.138  27.995  27.477  1.00  0.00     0.137 HD
ENDBRANCH  22  25
ENDBRANCH  17  22
ENDBRANCH  12  16
ENDBRANCH   6  11
BRANCH  10  28
ATOM     28  O   UNL A   1      33.252  20.145  26.055  1.00  0.00    -0.507 OA
ATOM     29  H   UNL A   1      33.825  19.414  25.930  1.00  0.00     0.293 HD
ENDBRANCH  10  28
ENDBRANCH   3   5
ENDBRANCH   2   3
ENDBRANCH   1   2
BRANCH   1  30
ATOM     30  C   UNL A   1      38.540  21.044  25.330  1.00  0.00     0.275 C 
BRANCH  30  31
ATOM     31  O   UNL A   1      38.849  22.314  25.901  1.00  0.00    -0.458 OA
BRANCH  31  32
ATOM     32  C   UNL A   1      39.872  22.318  26.788  1.00  0.00     0.338 C 
ATOM     33  O   UNL A   1      40.278  21.371  27.439  1.00  0.00    -0.246 OA
BRANCH  32  34
ATOM     34  C   UNL A   1      40.295  23.704  27.012  1.00  0.00     0.060 A 
ATOM     35  C   UNL A   1      41.534  23.908  27.626  1.00  0.00     0.016 A 
ATOM     36  C   UNL A   1      39.357  24.738  26.879  1.00  0.00     0.016 A 
ATOM     37  C   UNL A   1      41.756  25.106  28.275  1.00  0.00     0.010 A 
ATOM     38  C   UNL A   1      39.568  25.918  27.547  1.00  0.00     0.010 A 
ATOM     39  C   UNL A   1      40.731  26.057  28.299  1.00  0.00    -0.014 A 
BRANCH  39  40
ATOM     40  C   UNL A   1      40.938  27.285  29.035  1.00  0.00     0.031 A 
ATOM     41  C   UNL A   1      42.083  28.067  28.520  1.00  0.00     0.074 A 
ATOM     42  C   UNL A   1      40.082  27.717  29.979  1.00  0.00     0.049 A 
ATOM     43  N   UNL A   1      43.230  28.248  29.085  1.00  0.00    -0.248 NA
ATOM     44  C   UNL A   1      42.021  28.532  27.122  1.00  0.00     0.031 C 
ATOM     45  C   UNL A   1      38.774  27.167  30.349  1.00  0.00     0.029 A 
ATOM     46  N   UNL A   1      40.160  28.836  30.743  1.00  0.00    -0.354 N 
ATOM     47  C   UNL A   1      43.947  29.055  28.211  1.00  0.00     0.074 A 
ATOM     48  C   UNL A   1      43.257  28.998  26.948  1.00  0.00     0.031 C 
ATOM     49  C   UNL A   1      38.092  28.086  31.074  1.00  0.00     0.029 A 
ATOM     50  C   UNL A   1      38.962  29.223  31.331  1.00  0.00     0.049 A 
ATOM     51  H   UNL A   1      40.999  29.336  30.869  1.00  0.00     0.167 HD
ATOM     52  C   UNL A   1      44.876  29.940  28.664  1.00  0.00     0.031 A 
ATOM     53  C   UNL A   1      38.703  30.425  31.915  1.00  0.00     0.031 A 
ATOM     54  C   UNL A   1      45.261  29.654  30.023  1.00  0.00     0.049 A 
ATOM     55  C   UNL A   1      40.017  31.043  32.230  1.00  0.00     0.074 A 
ATOM     56  C   UNL A   1      45.824  28.569  30.666  1.00  0.00     0.029 A 
ATOM     57  N   UNL A   1      44.679  30.419  31.010  1.00  0.00    -0.354 N 
ATOM     58  N   UNL A   1      40.842  30.555  33.113  1.00  0.00    -0.248 NA
ATOM     59  C   UNL A   1      40.620  31.910  31.229  1.00  0.00     0.031 C 
ATOM     60  C   UNL A   1      45.146  28.491  31.918  1.00  0.00     0.029 A 
ATOM     61  C   UNL A   1      44.267  29.572  32.006  1.00  0.00     0.049 A 
ATOM     62  H   UNL A   1      44.577  31.399  31.000  1.00  0.00     0.167 HD
ATOM     63  C   UNL A   1      42.098  30.678  32.534  1.00  0.00     0.074 A 
ATOM     64  C   UNL A   1      41.907  31.600  31.413  1.00  0.00     0.031 C 
ATOM     65  C   UNL A   1      43.105  29.807  32.838  1.00  0.00     0.031 A 
BRANCH  52  66
ATOM     66  C   UNL A   1      45.083  31.297  28.037  1.00  0.00    -0.014 A 
ATOM     67  C   UNL A   1      44.246  31.686  26.974  1.00  0.00     0.010 A 
ATOM     68  C   UNL A   1      46.235  32.082  28.263  1.00  0.00     0.010 A 
ATOM     69  C   UNL A   1      44.587  32.758  26.138  1.00  0.00     0.020 A 
ATOM     70  C   UNL A   1      46.560  33.179  27.466  1.00  0.00     0.020 A 
ATOM     71  C   UNL A   1      45.749  33.489  26.385  1.00  0.00     0.054 A 
BRANCH  71  72
ATOM     72  S   UNL A   1      46.232  34.807  25.246  1.00  0.00     0.124 S 
ATOM     73  O   UNL A   1      45.876  36.002  26.003  1.00  0.00    -0.237 OA
ATOM     74  O   UNL A   1      47.661  34.560  25.079  1.00  0.00    -0.237 OA
ATOM     75  O   UNL A   1      45.417  34.549  24.060  1.00  0.00    -0.744 OA
ENDBRANCH  71  72
ENDBRANCH  52  66
BRANCH  53  76
ATOM     76  C   UNL A   1      37.446  31.222  31.875  1.00  0.00    -0.014 A 
ATOM     77  C   UNL A   1      36.698  31.456  33.047  1.00  0.00     0.010 A 
ATOM     78  C   UNL A   1      37.146  32.008  30.745  1.00  0.00     0.010 A 
ATOM     79  C   UNL A   1      35.744  32.487  33.108  1.00  0.00     0.020 A 
ATOM     80  C   UNL A   1      36.192  33.034  30.796  1.00  0.00     0.020 A 
ATOM     81  C   UNL A   1      35.515  33.289  31.986  1.00  0.00     0.054 A 
BRANCH  81  82
ATOM     82  S   UNL A   1      34.435  34.745  32.126  1.00  0.00     0.124 S 
ATOM     83  O   UNL A   1      34.183  35.084  30.728  1.00  0.00    -0.237 OA
ATOM     84  O   UNL A   1      33.288  34.223  32.866  1.00  0.00    -0.237 OA
ATOM     85  O   UNL A   1      35.252  35.711  32.860  1.00  0.00    -0.744 OA
ENDBRANCH  81  82
ENDBRANCH  53  76
BRANCH  65  86
ATOM     86  C   UNL A   1      42.912  28.869  34.009  1.00  0.00    -0.014 A 
ATOM     87  C   UNL A   1      43.153  29.219  35.354  1.00  0.00     0.010 A 
ATOM     88  C   UNL A   1      42.339  27.615  33.740  1.00  0.00     0.010 A 
ATOM     89  C   UNL A   1      42.863  28.319  36.394  1.00  0.00     0.020 A 
ATOM     90  C   UNL A   1      42.031  26.722  34.770  1.00  0.00     0.020 A 
ATOM     91  C   UNL A   1      42.310  27.072  36.091  1.00  0.00     0.054 A 
BRANCH  91  92
ATOM     92  S   UNL A   1      41.931  25.907  37.432  1.00  0.00     0.124 S 
ATOM     93  O   UNL A   1      40.524  26.186  37.707  1.00  0.00    -0.237 OA
ATOM     94  O   UNL A   1      42.207  24.608  36.822  1.00  0.00    -0.237 OA
ATOM     95  O   UNL A   1      42.856  26.291  38.498  1.00  0.00    -0.744 OA
ENDBRANCH  91  92
ENDBRANCH  65  86
ENDBRANCH  39  40
ENDBRANCH  32  34
ENDBRANCH  31  32
ENDBRANCH  30  31
ENDBRANCH   1  30
TORSDOF 19
ENDMDL
MODEL 2
REMARK VINA RESULT:     -12.2      1.567      2.244
REMARK SMILES NS(=O)(=O)c1ccc(-n2ccnc2-c2ccc(O)c(C(=O)OCCOC(=O)c3ccc(-c4c5nc(c(-c6ccc(S(=O)(=O)[O-])cc6)c6ccc([nH]6)c(-c6ccc(S(=O)(=O)[O-])cc6)c6nc(c(-c7ccc(S(=O)(=O)[O-])cc7)c7ccc4[nH]7)C=C6)C=C5)cc3)c2)cc1
REMARK SMILES IDX 23 1 22 2 20 3 21 4 19 5 14 6 15 7 88 8 16 9 17 10 13 11
REMARK SMILES IDX 9 12 10 13 11 14 12 15 8 16 5 17 6 18 90 19 7 20 89 21 2 22
REMARK SMILES IDX 3 23 4 24 1 25 18 28 24 30 25 31 26 32 27 33 28 34 29 35
REMARK SMILES IDX 87 36 30 37 86 38 31 39 32 40 33 41 80 42 34 43 85 44 79 45
REMARK SMILES IDX 81 46 35 47 84 48 78 49 77 50 36 52 66 53 47 54 65 55 48 56
REMARK SMILES IDX 51 57 64 58 82 59 49 60 50 61 63 63 83 64 52 65 37 66 38 67
REMARK SMILES IDX 46 68 39 69 45 70 40 71 41 72 42 73 43 74 44 75 67 76 68 77
REMARK SMILES IDX 76 78 69 79 75 80 70 81 71 82 72 83 73 84 74 85 53 86 54 87
REMARK SMILES IDX 62 88 55 89 61 90 56 91 57 92 58 93 59 94 60 95
REMARK H PARENT 1 26 1 27 18 29 81 51 51 62
REMARK Flexibility Score: inf
ROOT
ATOM      1  C   UNL A   1      37.009  22.238  24.290  1.00  0.00     0.275 C 
ENDROOT
BRANCH   1   2
ATOM      2  O   UNL A   1      36.109  23.268  24.735  1.00  0.00    -0.458 OA
BRANCH   2   3
ATOM      3  C   UNL A   1      35.131  23.628  23.865  1.00  0.00     0.342 C 
ATOM      4  O   UNL A   1      35.088  23.368  22.670  1.00  0.00    -0.246 OA
BRANCH   3   5
ATOM      5  C   UNL A   1      34.009  24.308  24.561  1.00  0.00     0.102 A 
ATOM      6  C   UNL A   1      32.280  26.027  24.616  1.00  0.00     0.019 A 
ATOM      7  C   UNL A   1      31.902  25.598  25.892  1.00  0.00     0.016 A 
ATOM      8  C   UNL A   1      33.368  25.408  23.981  1.00  0.00     0.031 A 
ATOM      9  C   UNL A   1      32.557  24.520  26.493  1.00  0.00     0.048 A 
ATOM     10  C   UNL A   1      33.592  23.867  25.823  1.00  0.00     0.130 A 
BRANCH   6  11
ATOM     11  C   UNL A   1      31.535  27.087  23.929  1.00  0.00     0.144 A 
ATOM     12  N   UNL A   1      31.483  28.415  24.355  1.00  0.00    -0.300 N 
ATOM     13  C   UNL A   1      30.454  29.008  23.660  1.00  0.00     0.113 A 
ATOM     14  C   UNL A   1      30.057  28.080  22.728  1.00  0.00     0.132 A 
ATOM     15  N   UNL A   1      30.748  26.909  22.883  1.00  0.00    -0.236 NA
BRANCH  12  16
ATOM     16  C   UNL A   1      32.320  29.060  25.302  1.00  0.00     0.047 A 
ATOM     17  C   UNL A   1      33.971  30.387  27.112  1.00  0.00     0.082 A 
ATOM     18  C   UNL A   1      32.636  30.776  26.988  1.00  0.00     0.024 A 
ATOM     19  C   UNL A   1      34.483  29.335  26.342  1.00  0.00     0.024 A 
ATOM     20  C   UNL A   1      31.812  30.118  26.075  1.00  0.00     0.028 A 
ATOM     21  C   UNL A   1      33.650  28.653  25.450  1.00  0.00     0.028 A 
BRANCH  17  22
ATOM     22  S   UNL A   1      35.067  31.214  28.226  1.00  0.00     0.238 S 
ATOM     23  O   UNL A   1      35.697  32.309  27.513  1.00  0.00    -0.207 OA
ATOM     24  O   UNL A   1      35.817  30.220  28.944  1.00  0.00    -0.207 OA
BRANCH  22  25
ATOM     25  N   UNL A   1      34.062  31.943  29.358  1.00  0.00    -0.225 NA
ATOM     26  H   UNL A   1      34.630  32.446  30.041  1.00  0.00     0.137 HD
ATOM     27  H   UNL A   1      33.512  31.228  29.834  1.00  0.00     0.137 HD
ENDBRANCH  22  25
ENDBRANCH  17  22
ENDBRANCH  12  16
ENDBRANCH   6  11
BRANCH  10  28
ATOM     28  O   UNL A   1      34.158  22.804  26.474  1.00  0.00    -0.507 OA
ATOM     29  H   UNL A   1      34.552  22.925  27.316  1.00  0.00     0.293 HD
ENDBRANCH  10  28
ENDBRANCH   3   5
ENDBRANCH   2   3
ENDBRANCH   1   2
BRANCH   1  30
ATOM     30  C   UNL A   1      37.822  21.677  25.449  1.00  0.00     0.275 C 
BRANCH  30  31
ATOM     31  O   UNL A   1      38.445  22.724  26.192  1.00  0.00    -0.458 OA
BRANCH  31  32
ATOM     32  C   UNL A   1      39.760  22.545  26.454  1.00  0.00     0.338 C 
ATOM     33  O   UNL A   1      40.343  21.481  26.579  1.00  0.00    -0.246 OA
BRANCH  32  34
ATOM     34  C   UNL A   1      40.357  23.844  26.779  1.00  0.00     0.060 A 
ATOM     35  C   UNL A   1      41.402  23.860  27.705  1.00  0.00     0.016 A 
ATOM     36  C   UNL A   1      39.696  25.019  26.391  1.00  0.00     0.016 A 
ATOM     37  C   UNL A   1      41.660  25.034  28.385  1.00  0.00     0.010 A 
ATOM     38  C   UNL A   1      39.934  26.178  27.085  1.00  0.00     0.010 A 
ATOM     39  C   UNL A   1      40.860  26.151  28.125  1.00  0.00    -0.014 A 
BRANCH  39  40
ATOM     40  C   UNL A   1      41.085  27.361  28.884  1.00  0.00     0.031 A 
ATOM     41  C   UNL A   1      42.290  28.094  28.435  1.00  0.00     0.074 A 
ATOM     42  C   UNL A   1      40.203  27.825  29.789  1.00  0.00     0.049 A 
ATOM     43  N   UNL A   1      43.413  28.217  29.059  1.00  0.00    -0.248 NA
ATOM     44  C   UNL A   1      42.319  28.574  27.041  1.00  0.00     0.031 C 
ATOM     45  C   UNL A   1      38.855  27.332  30.086  1.00  0.00     0.029 A 
ATOM     46  N   UNL A   1      40.294  28.932  30.567  1.00  0.00    -0.354 N 
ATOM     47  C   UNL A   1      44.210  28.997  28.230  1.00  0.00     0.074 A 
ATOM     48  C   UNL A   1      43.582  28.983  26.934  1.00  0.00     0.031 C 
ATOM     49  C   UNL A   1      38.180  28.275  30.787  1.00  0.00     0.029 A 
ATOM     50  C   UNL A   1      39.086  29.369  31.100  1.00  0.00     0.049 A 
ATOM     51  H   UNL A   1      41.148  29.391  30.741  1.00  0.00     0.167 HD
ATOM     52  C   UNL A   1      45.154  29.834  28.739  1.00  0.00     0.031 A 
ATOM     53  C   UNL A   1      38.854  30.576  31.683  1.00  0.00     0.031 A 
ATOM     54  C   UNL A   1      45.456  29.520  30.112  1.00  0.00     0.049 A 
ATOM     55  C   UNL A   1      40.177  31.130  32.070  1.00  0.00     0.074 A 
ATOM     56  C   UNL A   1      45.936  28.404  30.770  1.00  0.00     0.029 A 
ATOM     57  N   UNL A   1      44.862  30.302  31.077  1.00  0.00    -0.354 N 
ATOM     58  N   UNL A   1      40.934  30.596  32.987  1.00  0.00    -0.248 NA
ATOM     59  C   UNL A   1      40.869  31.977  31.110  1.00  0.00     0.031 C 
ATOM     60  C   UNL A   1      45.194  28.347  31.986  1.00  0.00     0.029 A 
ATOM     61  C   UNL A   1      44.362  29.466  32.042  1.00  0.00     0.049 A 
ATOM     62  H   UNL A   1      44.805  31.286  31.073  1.00  0.00     0.167 HD
ATOM     63  C   UNL A   1      42.221  30.667  32.473  1.00  0.00     0.074 A 
ATOM     64  C   UNL A   1      42.129  31.606  31.354  1.00  0.00     0.031 C 
ATOM     65  C   UNL A   1      43.171  29.748  32.818  1.00  0.00     0.031 A 
BRANCH  52  66
ATOM     66  C   UNL A   1      45.455  31.186  28.137  1.00  0.00    -0.014 A 
ATOM     67  C   UNL A   1      44.380  32.019  27.773  1.00  0.00     0.010 A 
ATOM     68  C   UNL A   1      46.734  31.550  27.663  1.00  0.00     0.010 A 
ATOM     69  C   UNL A   1      44.568  33.114  26.919  1.00  0.00     0.020 A 
ATOM     70  C   UNL A   1      46.940  32.664  26.851  1.00  0.00     0.020 A 
ATOM     71  C   UNL A   1      45.848  33.420  26.455  1.00  0.00     0.054 A 
BRANCH  71  72
ATOM     72  S   UNL A   1      46.067  34.773  25.278  1.00  0.00     0.124 S 
ATOM     73  O   UNL A   1      47.481  34.649  24.938  1.00  0.00    -0.237 OA
ATOM     74  O   UNL A   1      45.124  34.416  24.221  1.00  0.00    -0.237 OA
ATOM     75  O   UNL A   1      45.709  35.961  26.050  1.00  0.00    -0.744 OA
ENDBRANCH  71  72
ENDBRANCH  52  66
BRANCH  53  76
ATOM     76  C   UNL A   1      37.639  31.430  31.589  1.00  0.00    -0.014 A 
ATOM     77  C   UNL A   1      36.500  31.160  32.375  1.00  0.00     0.010 A 
ATOM     78  C   UNL A   1      37.708  32.688  30.957  1.00  0.00     0.010 A 
ATOM     79  C   UNL A   1      35.510  32.138  32.583  1.00  0.00     0.020 A 
ATOM     80  C   UNL A   1      36.723  33.665  31.155  1.00  0.00     0.020 A 
ATOM     81  C   UNL A   1      35.641  33.396  31.990  1.00  0.00     0.054 A 
BRANCH  81  82
ATOM     82  S   UNL A   1      34.472  34.721  32.421  1.00  0.00     0.124 S 
ATOM     83  O   UNL A   1      35.306  35.636  33.194  1.00  0.00    -0.237 OA
ATOM     84  O   UNL A   1      34.044  35.208  31.112  1.00  0.00    -0.237 OA
ATOM     85  O   UNL A   1      33.436  34.030  33.188  1.00  0.00    -0.744 OA
ENDBRANCH  81  82
ENDBRANCH  53  76
BRANCH  65  86
ATOM     86  C   UNL A   1      42.877  28.809  33.968  1.00  0.00    -0.014 A 
ATOM     87  C   UNL A   1      42.177  27.592  33.839  1.00  0.00     0.010 A 
ATOM     88  C   UNL A   1      43.450  29.119  35.212  1.00  0.00     0.010 A 
ATOM     89  C   UNL A   1      42.022  26.732  34.940  1.00  0.00     0.020 A 
ATOM     90  C   UNL A   1      43.317  28.260  36.306  1.00  0.00     0.020 A 
ATOM     91  C   UNL A   1      42.590  27.078  36.169  1.00  0.00     0.054 A 
BRANCH  91  92
ATOM     92  S   UNL A   1      42.395  25.968  37.593  1.00  0.00     0.124 S 
ATOM     93  O   UNL A   1      43.307  26.549  38.575  1.00  0.00    -0.237 OA
ATOM     94  O   UNL A   1      40.973  26.088  37.907  1.00  0.00    -0.237 OA
ATOM     95  O   UNL A   1      42.799  24.661  37.074  1.00  0.00    -0.744 OA
ENDBRANCH  91  92
ENDBRANCH  65  86
ENDBRANCH  39  40
ENDBRANCH  32  34
ENDBRANCH  31  32
ENDBRANCH  30  31
ENDBRANCH   1  30
TORSDOF 19
ENDMDL
MODEL 3
REMARK VINA RESULT:     -12.2      3.024      9.481
REMARK SMILES NS(=O)(=O)c1ccc(-n2ccnc2-c2ccc(O)c(C(=O)OCCOC(=O)c3ccc(-c4c5nc(c(-c6ccc(S(=O)(=O)[O-])cc6)c6ccc([nH]6)c(-c6ccc(S(=O)(=O)[O-])cc6)c6nc(c(-c7ccc(S(=O)(=O)[O-])cc7)c7ccc4[nH]7)C=C6)C=C5)cc3)c2)cc1
REMARK SMILES IDX 23 1 22 2 20 3 21 4 19 5 14 6 15 7 88 8 16 9 17 10 13 11
REMARK SMILES IDX 9 12 10 13 11 14 12 15 8 16 5 17 6 18 90 19 7 20 89 21 2 22
REMARK SMILES IDX 3 23 4 24 1 25 18 28 24 30 25 31 26 32 27 33 28 34 29 35
REMARK SMILES IDX 87 36 30 37 86 38 31 39 32 40 33 41 80 42 34 43 85 44 79 45
REMARK SMILES IDX 81 46 35 47 84 48 78 49 77 50 36 52 66 53 47 54 65 55 48 56
REMARK SMILES IDX 51 57 64 58 82 59 49 60 50 61 63 63 83 64 52 65 37 66 38 67
REMARK SMILES IDX 46 68 39 69 45 70 40 71 41 72 42 73 43 74 44 75 67 76 68 77
REMARK SMILES IDX 76 78 69 79 75 80 70 81 71 82 72 83 73 84 74 85 53 86 54 87
REMARK SMILES IDX 62 88 55 89 61 90 56 91 57 92 58 93 59 94 60 95
REMARK H PARENT 1 26 1 27 18 29 81 51 51 62
REMARK Flexibility Score: inf
ROOT
ATOM      1  C   UNL A   1      32.812  30.111  25.974  1.00  0.00     0.275 C 
ENDROOT
BRANCH   1   2
ATOM      2  O   UNL A   1      33.664  29.007  25.625  1.00  0.00    -0.458 OA
BRANCH   2   3
ATOM      3  C   UNL A   1      33.547  28.535  24.357  1.00  0.00     0.342 C 
ATOM      4  O   UNL A   1      34.375  28.639  23.462  1.00  0.00    -0.246 OA
BRANCH   3   5
ATOM      5  C   UNL A   1      32.301  27.747  24.185  1.00  0.00     0.102 A 
ATOM      6  C   UNL A   1      30.829  25.930  24.877  1.00  0.00     0.019 A 
ATOM      7  C   UNL A   1      29.950  26.253  23.839  1.00  0.00     0.016 A 
ATOM      8  C   UNL A   1      32.026  26.651  25.010  1.00  0.00     0.031 A 
ATOM      9  C   UNL A   1      30.231  27.326  22.990  1.00  0.00     0.048 A 
ATOM     10  C   UNL A   1      31.391  28.080  23.175  1.00  0.00     0.130 A 
BRANCH   6  11
ATOM     11  C   UNL A   1      30.498  24.874  25.840  1.00  0.00     0.144 A 
ATOM     12  N   UNL A   1      31.228  23.696  25.998  1.00  0.00    -0.300 N 
ATOM     13  C   UNL A   1      30.441  22.844  26.738  1.00  0.00     0.113 A 
ATOM     14  C   UNL A   1      29.366  23.597  27.144  1.00  0.00     0.132 A 
ATOM     15  N   UNL A   1      29.423  24.855  26.610  1.00  0.00    -0.236 NA
BRANCH  12  16
ATOM     16  C   UNL A   1      32.532  23.407  25.517  1.00  0.00     0.047 A 
ATOM     17  C   UNL A   1      35.100  22.916  24.555  1.00  0.00     0.082 A 
ATOM     18  C   UNL A   1      34.938  23.504  25.811  1.00  0.00     0.024 A 
ATOM     19  C   UNL A   1      33.987  22.567  23.782  1.00  0.00     0.024 A 
ATOM     20  C   UNL A   1      33.652  23.758  26.289  1.00  0.00     0.028 A 
ATOM     21  C   UNL A   1      32.698  22.792  24.272  1.00  0.00     0.028 A 
BRANCH  17  22
ATOM     22  S   UNL A   1      36.708  22.609  23.888  1.00  0.00     0.238 S 
ATOM     23  O   UNL A   1      36.729  23.085  22.518  1.00  0.00    -0.207 OA
ATOM     24  O   UNL A   1      37.103  21.277  24.255  1.00  0.00    -0.207 OA
BRANCH  22  25
ATOM     25  N   UNL A   1      37.731  23.642  24.731  1.00  0.00    -0.225 NA
ATOM     26  H   UNL A   1      37.527  23.582  25.728  1.00  0.00     0.137 HD
ATOM     27  H   UNL A   1      37.584  24.600  24.411  1.00  0.00     0.137 HD
ENDBRANCH  22  25
ENDBRANCH  17  22
ENDBRANCH  12  16
ENDBRANCH   6  11
BRANCH  10  28
ATOM     28  O   UNL A   1      31.570  29.131  22.315  1.00  0.00    -0.507 OA
ATOM     29  H   UNL A   1      32.366  29.625  22.338  1.00  0.00     0.293 HD
ENDBRANCH  10  28
ENDBRANCH   3   5
ENDBRANCH   2   3
ENDBRANCH   1   2
BRANCH   1  30
ATOM     30  C   UNL A   1      33.092  30.597  27.390  1.00  0.00     0.275 C 
BRANCH  30  31
ATOM     31  O   UNL A   1      34.191  31.506  27.412  1.00  0.00    -0.458 OA
BRANCH  31  32
ATOM     32  C   UNL A   1      34.894  31.538  28.569  1.00  0.00     0.338 C 
ATOM     33  O   UNL A   1      34.507  31.952  29.648  1.00  0.00    -0.246 OA
BRANCH  32  34
ATOM     34  C   UNL A   1      36.288  31.187  28.282  1.00  0.00     0.060 A 
ATOM     35  C   UNL A   1      36.543  29.899  27.801  1.00  0.00     0.016 A 
ATOM     36  C   UNL A   1      37.316  32.015  28.755  1.00  0.00     0.016 A 
ATOM     37  C   UNL A   1      37.808  29.373  27.970  1.00  0.00     0.010 A 
ATOM     38  C   UNL A   1      38.566  31.482  28.947  1.00  0.00     0.010 A 
ATOM     39  C   UNL A   1      38.775  30.145  28.623  1.00  0.00    -0.014 A 
BRANCH  39  40
ATOM     40  C   UNL A   1      40.080  29.569  28.860  1.00  0.00     0.031 A 
ATOM     41  C   UNL A   1      40.364  29.388  30.301  1.00  0.00     0.074 A 
ATOM     42  C   UNL A   1      40.866  29.118  27.865  1.00  0.00     0.049 A 
ATOM     43  N   UNL A   1      41.197  30.055  31.028  1.00  0.00    -0.248 NA
ATOM     44  C   UNL A   1      39.471  28.499  31.068  1.00  0.00     0.031 C 
ATOM     45  C   UNL A   1      40.550  28.983  26.440  1.00  0.00     0.029 A 
ATOM     46  N   UNL A   1      42.104  28.568  27.949  1.00  0.00    -0.354 N 
ATOM     47  C   UNL A   1      41.100  29.502  32.299  1.00  0.00     0.074 A 
ATOM     48  C   UNL A   1      39.883  28.732  32.314  1.00  0.00     0.031 C 
ATOM     49  C   UNL A   1      41.464  28.172  25.855  1.00  0.00     0.029 A 
ATOM     50  C   UNL A   1      42.495  27.846  26.828  1.00  0.00     0.049 A 
ATOM     51  H   UNL A   1      42.679  28.672  28.741  1.00  0.00     0.167 HD
ATOM     52  C   UNL A   1      42.168  29.471  33.140  1.00  0.00     0.031 A 
ATOM     53  C   UNL A   1      43.551  26.990  26.751  1.00  0.00     0.031 A 
ATOM     54  C   UNL A   1      43.205  30.377  32.715  1.00  0.00     0.049 A 
ATOM     55  C   UNL A   1      44.458  27.319  27.880  1.00  0.00     0.074 A 
ATOM     56  C   UNL A   1      43.276  31.740  32.501  1.00  0.00     0.029 A 
ATOM     57  N   UNL A   1      44.271  29.831  32.037  1.00  0.00    -0.354 N 
ATOM     58  N   UNL A   1      45.107  28.446  27.969  1.00  0.00    -0.248 NA
ATOM     59  C   UNL A   1      44.263  26.614  29.138  1.00  0.00     0.031 C 
ATOM     60  C   UNL A   1      44.079  31.887  31.332  1.00  0.00     0.029 A 
ATOM     61  C   UNL A   1      44.518  30.620  30.943  1.00  0.00     0.049 A 
ATOM     62  H   UNL A   1      44.766  29.018  32.291  1.00  0.00     0.167 HD
ATOM     63  C   UNL A   1      45.012  28.808  29.305  1.00  0.00     0.074 A 
ATOM     64  C   UNL A   1      44.557  27.598  29.993  1.00  0.00     0.031 C 
ATOM     65  C   UNL A   1      45.034  30.120  29.685  1.00  0.00     0.031 A 
BRANCH  52  66
ATOM     66  C   UNL A   1      42.443  28.311  34.067  1.00  0.00    -0.014 A 
ATOM     67  C   UNL A   1      42.471  28.546  35.455  1.00  0.00     0.010 A 
ATOM     68  C   UNL A   1      42.946  27.070  33.619  1.00  0.00     0.010 A 
ATOM     69  C   UNL A   1      43.041  27.617  36.336  1.00  0.00     0.020 A 
ATOM     70  C   UNL A   1      43.472  26.118  34.491  1.00  0.00     0.020 A 
ATOM     71  C   UNL A   1      43.548  26.414  35.843  1.00  0.00     0.054 A 
BRANCH  71  72
ATOM     72  S   UNL A   1      44.369  25.266  36.972  1.00  0.00     0.124 S 
ATOM     73  O   UNL A   1      44.240  24.000  36.257  1.00  0.00    -0.237 OA
ATOM     74  O   UNL A   1      45.717  25.821  37.048  1.00  0.00    -0.237 OA
ATOM     75  O   UNL A   1      43.586  25.375  38.201  1.00  0.00    -0.744 OA
ENDBRANCH  71  72
ENDBRANCH  52  66
BRANCH  53  76
ATOM     76  C   UNL A   1      43.642  25.697  26.018  1.00  0.00    -0.014 A 
ATOM     77  C   UNL A   1      44.781  25.377  25.251  1.00  0.00     0.010 A 
ATOM     78  C   UNL A   1      42.746  24.652  26.319  1.00  0.00     0.010 A 
ATOM     79  C   UNL A   1      45.052  24.050  24.870  1.00  0.00     0.020 A 
ATOM     80  C   UNL A   1      43.006  23.328  25.937  1.00  0.00     0.020 A 
ATOM     81  C   UNL A   1      44.173  23.028  25.239  1.00  0.00     0.054 A 
BRANCH  81  82
ATOM     82  S   UNL A   1      44.625  21.294  24.923  1.00  0.00     0.124 S 
ATOM     83  O   UNL A   1      45.899  21.170  25.625  1.00  0.00    -0.237 OA
ATOM     84  O   UNL A   1      43.506  20.561  25.509  1.00  0.00    -0.237 OA
ATOM     85  O   UNL A   1      44.712  21.221  23.465  1.00  0.00    -0.744 OA
ENDBRANCH  81  82
ENDBRANCH  53  76
BRANCH  65  86
ATOM     86  C   UNL A   1      45.427  31.158  28.656  1.00  0.00    -0.014 A 
ATOM     87  C   UNL A   1      44.613  31.549  27.573  1.00  0.00     0.010 A 
ATOM     88  C   UNL A   1      46.625  31.857  28.875  1.00  0.00     0.010 A 
ATOM     89  C   UNL A   1      45.012  32.585  26.712  1.00  0.00     0.020 A 
ATOM     90  C   UNL A   1      47.019  32.901  28.034  1.00  0.00     0.020 A 
ATOM     91  C   UNL A   1      46.219  33.250  26.947  1.00  0.00     0.054 A 
BRANCH  91  92
ATOM     92  S   UNL A   1      46.737  34.592  25.838  1.00  0.00     0.124 S 
ATOM     93  O   UNL A   1      45.745  34.520  24.768  1.00  0.00    -0.237 OA
ATOM     94  O   UNL A   1      46.653  35.772  26.695  1.00  0.00    -0.237 OA
ATOM     95  O   UNL A   1      48.095  34.216  25.446  1.00  0.00    -0.744 OA
ENDBRANCH  91  92
ENDBRANCH  65  86
ENDBRANCH  39  40
ENDBRANCH  32  34
ENDBRANCH  31  32
ENDBRANCH  30  31
ENDBRANCH   1  30
TORSDOF 19
ENDMDL
