MODEL 1
REMARK VINA RESULT:      -8.8      0.000      0.000
REMARK SMILES CCC[C@@H](C[NH2+]C(C)C)C(=O)OCCOC(=O)c1ccc(-c2c3nc(c(-c4ccc(S(=O)(=O)[O-])cc4)c4ccc([nH]4)c(-c4ccc(S(=O)(=O)[O-])cc4)c4nc(c(-c5ccc(S(=O)(=O)[O-])cc5)c5ccc2[nH]5)C=C4)C=C3)cc1
REMARK SMILES IDX 13 1 12 2 10 3 11 4 4 5 3 6 2 7 1 8 5 9 6 10 7 13 8 14 9 15
REMARK SMILES IDX 14 16 15 17 16 18 17 19 18 20 19 21 77 22 20 23 76 24 21 25
REMARK SMILES IDX 22 26 23 27 70 28 24 29 75 30 69 31 71 32 25 33 74 34 68 35
REMARK SMILES IDX 67 36 26 38 56 39 37 40 55 41 38 42 41 43 54 44 72 45 39 46
REMARK SMILES IDX 40 47 53 49 73 50 42 51 27 52 28 53 36 54 29 55 35 56 30 57
REMARK SMILES IDX 31 58 32 59 33 60 34 61 57 62 58 63 66 64 59 65 65 66 60 67
REMARK SMILES IDX 61 68 62 69 63 70 64 71 43 72 44 73 52 74 45 75 51 76 46 77
REMARK SMILES IDX 47 78 48 79 49 80 50 81
REMARK H PARENT 6 11 6 12 71 37 41 48
REMARK Flexibility Score: inf
ROOT
ATOM      1  C   UNL A   1      34.851  32.525  30.936  1.00  0.00     0.274 C 
ENDROOT
BRANCH   1   2
ATOM      2  O   UNL A   1      35.245  32.638  32.315  1.00  0.00    -0.462 OA
BRANCH   2   3
ATOM      3  C   UNL A   1      34.386  33.306  33.128  1.00  0.00     0.314 C 
ATOM      4  O   UNL A   1      33.198  33.032  33.262  1.00  0.00    -0.252 OA
BRANCH   3   5
ATOM      5  C   UNL A   1      35.036  34.461  33.874  1.00  0.00     0.154 C 
BRANCH   5   6
ATOM      6  C   UNL A   1      36.535  34.259  34.167  1.00  0.00     0.021 C 
BRANCH   6   7
ATOM      7  C   UNL A   1      36.849  33.552  35.491  1.00  0.00    -0.002 C 
ATOM      8  C   UNL A   1      38.179  33.969  36.104  1.00  0.00     0.004 C 
ENDBRANCH   6   7
ENDBRANCH   5   6
BRANCH   5   9
ATOM      9  C   UNL A   1      34.669  35.781  33.183  1.00  0.00     0.276 C 
BRANCH   9  10
ATOM     10  N   UNL A   1      33.361  36.301  33.589  1.00  0.00    -0.344 N 
ATOM     11  H   UNL A   1      33.502  37.173  34.099  1.00  0.00     0.346 HD
ATOM     12  H   UNL A   1      32.916  35.590  34.169  1.00  0.00     0.346 HD
BRANCH  10  13
ATOM     13  C   UNL A   1      32.473  36.562  32.452  1.00  0.00     0.176 C 
ATOM     14  C   UNL A   1      33.087  36.121  31.122  1.00  0.00     0.075 C 
ATOM     15  C   UNL A   1      31.169  35.806  32.704  1.00  0.00     0.075 C 
ENDBRANCH  10  13
ENDBRANCH   9  10
ENDBRANCH   5   9
ENDBRANCH   3   5
ENDBRANCH   2   3
ENDBRANCH   1   2
BRANCH   1  16
ATOM     16  C   UNL A   1      36.057  32.312  30.018  1.00  0.00     0.275 C 
BRANCH  16  17
ATOM     17  O   UNL A   1      36.108  30.966  29.511  1.00  0.00    -0.458 OA
BRANCH  17  18
ATOM     18  C   UNL A   1      36.829  30.108  30.269  1.00  0.00     0.338 C 
ATOM     19  O   UNL A   1      36.411  29.344  31.122  1.00  0.00    -0.246 OA
BRANCH  18  20
ATOM     20  C   UNL A   1      38.236  30.119  29.844  1.00  0.00     0.060 A 
ATOM     21  C   UNL A   1      38.510  29.910  28.490  1.00  0.00     0.016 A 
ATOM     22  C   UNL A   1      39.274  30.195  30.775  1.00  0.00     0.016 A 
ATOM     23  C   UNL A   1      39.821  29.745  28.057  1.00  0.00     0.010 A 
ATOM     24  C   UNL A   1      40.592  30.023  30.340  1.00  0.00     0.010 A 
ATOM     25  C   UNL A   1      40.869  29.768  28.985  1.00  0.00    -0.014 A 
BRANCH  25  26
ATOM     26  C   UNL A   1      42.232  29.387  28.545  1.00  0.00     0.031 A 
ATOM     27  C   UNL A   1      42.490  27.972  28.105  1.00  0.00     0.074 A 
ATOM     28  C   UNL A   1      43.212  30.305  28.483  1.00  0.00     0.049 A 
ATOM     29  N   UNL A   1      43.612  27.414  27.732  1.00  0.00    -0.248 NA
ATOM     30  C   UNL A   1      41.329  27.066  28.083  1.00  0.00     0.031 C 
ATOM     31  C   UNL A   1      43.067  31.722  28.819  1.00  0.00     0.029 A 
ATOM     32  N   UNL A   1      44.525  30.181  28.107  1.00  0.00    -0.354 N 
ATOM     33  C   UNL A   1      43.300  26.089  27.454  1.00  0.00     0.074 A 
ATOM     34  C   UNL A   1      41.885  25.923  27.709  1.00  0.00     0.031 C 
ATOM     35  C   UNL A   1      44.246  32.338  28.629  1.00  0.00     0.029 A 
ATOM     36  C   UNL A   1      45.235  31.354  28.196  1.00  0.00     0.049 A 
ATOM     37  H   UNL A   1      44.921  29.333  27.802  1.00  0.00     0.167 HD
ATOM     38  C   UNL A   1      44.118  25.097  27.027  1.00  0.00     0.031 A 
ATOM     39  C   UNL A   1      46.541  31.600  27.971  1.00  0.00     0.031 A 
ATOM     40  C   UNL A   1      45.523  25.264  26.770  1.00  0.00     0.049 A 
ATOM     41  C   UNL A   1      47.439  30.475  27.537  1.00  0.00     0.074 A 
ATOM     42  C   UNL A   1      46.442  24.317  26.355  1.00  0.00     0.029 A 
ATOM     43  N   UNL A   1      46.210  26.461  26.896  1.00  0.00    -0.354 N 
ATOM     44  N   UNL A   1      47.135  29.218  27.312  1.00  0.00    -0.248 NA
ATOM     45  C   UNL A   1      48.856  30.801  27.325  1.00  0.00     0.031 C 
ATOM     46  C   UNL A   1      47.694  24.936  26.257  1.00  0.00     0.029 A 
ATOM     47  C   UNL A   1      47.543  26.277  26.573  1.00  0.00     0.049 A 
ATOM     48  H   UNL A   1      45.809  27.316  27.175  1.00  0.00     0.167 HD
ATOM     49  C   UNL A   1      48.320  28.608  26.915  1.00  0.00     0.074 A 
ATOM     50  C   UNL A   1      49.342  29.635  26.918  1.00  0.00     0.031 C 
ATOM     51  C   UNL A   1      48.542  27.314  26.579  1.00  0.00     0.031 A 
BRANCH  38  52
ATOM     52  C   UNL A   1      43.511  23.733  26.856  1.00  0.00    -0.014 A 
ATOM     53  C   UNL A   1      43.154  23.247  25.587  1.00  0.00     0.010 A 
ATOM     54  C   UNL A   1      43.300  22.922  27.986  1.00  0.00     0.010 A 
ATOM     55  C   UNL A   1      42.558  21.989  25.454  1.00  0.00     0.020 A 
ATOM     56  C   UNL A   1      42.725  21.656  27.856  1.00  0.00     0.020 A 
ATOM     57  C   UNL A   1      42.339  21.206  26.591  1.00  0.00     0.054 A 
BRANCH  57  58
ATOM     58  S   UNL A   1      41.566  19.575  26.398  1.00  0.00     0.124 S 
ATOM     59  O   UNL A   1      42.325  19.014  25.283  1.00  0.00    -0.237 OA
ATOM     60  O   UNL A   1      41.804  18.949  27.696  1.00  0.00    -0.237 OA
ATOM     61  O   UNL A   1      40.169  19.887  26.108  1.00  0.00    -0.744 OA
ENDBRANCH  57  58
ENDBRANCH  38  52
BRANCH  39  62
ATOM     62  C   UNL A   1      47.081  32.971  28.177  1.00  0.00    -0.014 A 
ATOM     63  C   UNL A   1      47.580  33.363  29.429  1.00  0.00     0.010 A 
ATOM     64  C   UNL A   1      47.106  33.888  27.110  1.00  0.00     0.010 A 
ATOM     65  C   UNL A   1      48.086  34.653  29.616  1.00  0.00     0.020 A 
ATOM     66  C   UNL A   1      47.632  35.170  27.286  1.00  0.00     0.020 A 
ATOM     67  C   UNL A   1      48.109  35.549  28.543  1.00  0.00     0.054 A 
BRANCH  67  68
ATOM     68  S   UNL A   1      48.825  37.199  28.784  1.00  0.00     0.124 S 
ATOM     69  O   UNL A   1      50.195  37.006  28.322  1.00  0.00    -0.237 OA
ATOM     70  O   UNL A   1      47.983  38.040  27.936  1.00  0.00    -0.237 OA
ATOM     71  O   UNL A   1      48.672  37.428  30.219  1.00  0.00    -0.744 OA
ENDBRANCH  67  68
ENDBRANCH  39  62
BRANCH  51  72
ATOM     72  C   UNL A   1      49.936  26.944  26.152  1.00  0.00    -0.014 A 
ATOM     73  C   UNL A   1      50.337  27.053  24.809  1.00  0.00     0.010 A 
ATOM     74  C   UNL A   1      50.870  26.530  27.119  1.00  0.00     0.010 A 
ATOM     75  C   UNL A   1      51.643  26.724  24.436  1.00  0.00     0.020 A 
ATOM     76  C   UNL A   1      52.181  26.219  26.752  1.00  0.00     0.020 A 
ATOM     77  C   UNL A   1      52.556  26.305  25.408  1.00  0.00     0.054 A 
BRANCH  77  78
ATOM     78  S   UNL A   1      54.258  25.922  24.912  1.00  0.00     0.124 S 
ATOM     79  O   UNL A   1      54.284  24.466  25.022  1.00  0.00    -0.237 OA
ATOM     80  O   UNL A   1      54.327  26.450  23.551  1.00  0.00    -0.237 OA
ATOM     81  O   UNL A   1      55.072  26.637  25.892  1.00  0.00    -0.744 OA
ENDBRANCH  77  78
ENDBRANCH  51  72
ENDBRANCH  25  26
ENDBRANCH  18  20
ENDBRANCH  17  18
ENDBRANCH  16  17
ENDBRANCH   1  16
TORSDOF 19
ENDMDL
MODEL 2
REMARK VINA RESULT:      -8.7      4.919     10.656
REMARK SMILES CCC[C@@H](C[NH2+]C(C)C)C(=O)OCCOC(=O)c1ccc(-c2c3nc(c(-c4ccc(S(=O)(=O)[O-])cc4)c4ccc([nH]4)c(-c4ccc(S(=O)(=O)[O-])cc4)c4nc(c(-c5ccc(S(=O)(=O)[O-])cc5)c5ccc2[nH]5)C=C4)C=C3)cc1
REMARK SMILES IDX 13 1 12 2 10 3 11 4 4 5 3 6 2 7 1 8 5 9 6 10 7 13 8 14 9 15
REMARK SMILES IDX 14 16 15 17 16 18 17 19 18 20 19 21 77 22 20 23 76 24 21 25
REMARK SMILES IDX 22 26 23 27 70 28 24 29 75 30 69 31 71 32 25 33 74 34 68 35
REMARK SMILES IDX 67 36 26 38 56 39 37 40 55 41 38 42 41 43 54 44 72 45 39 46
REMARK SMILES IDX 40 47 53 49 73 50 42 51 27 52 28 53 36 54 29 55 35 56 30 57
REMARK SMILES IDX 31 58 32 59 33 60 34 61 57 62 58 63 66 64 59 65 65 66 60 67
REMARK SMILES IDX 61 68 62 69 63 70 64 71 43 72 44 73 52 74 45 75 51 76 46 77
REMARK SMILES IDX 47 78 48 79 49 80 50 81
REMARK H PARENT 6 11 6 12 71 37 41 48
REMARK Flexibility Score: inf
ROOT
ATOM      1  C   UNL A   1      31.914  29.959  26.146  1.00  0.00     0.274 C 
ENDROOT
BRANCH   1   2
ATOM      2  O   UNL A   1      32.806  29.140  25.370  1.00  0.00    -0.462 OA
BRANCH   2   3
ATOM      3  C   UNL A   1      32.497  29.003  24.054  1.00  0.00     0.314 C 
ATOM      4  O   UNL A   1      33.276  29.215  23.130  1.00  0.00    -0.252 OA
BRANCH   3   5
ATOM      5  C   UNL A   1      31.062  28.561  23.814  1.00  0.00     0.154 C 
BRANCH   5   6
ATOM      6  C   UNL A   1      30.371  29.269  22.634  1.00  0.00     0.021 C 
BRANCH   6   7
ATOM      7  C   UNL A   1      28.859  29.473  22.793  1.00  0.00    -0.002 C 
ATOM      8  C   UNL A   1      28.201  30.116  21.581  1.00  0.00     0.004 C 
ENDBRANCH   6   7
ENDBRANCH   5   6
BRANCH   5   9
ATOM      9  C   UNL A   1      31.003  27.027  23.791  1.00  0.00     0.276 C 
BRANCH   9  10
ATOM     10  N   UNL A   1      32.317  26.396  23.935  1.00  0.00    -0.344 N 
ATOM     11  H   UNL A   1      32.372  25.965  24.857  1.00  0.00     0.346 HD
ATOM     12  H   UNL A   1      33.021  27.125  23.813  1.00  0.00     0.346 HD
BRANCH  10  13
ATOM     13  C   UNL A   1      32.569  25.367  22.921  1.00  0.00     0.176 C 
ATOM     14  C   UNL A   1      32.060  23.990  23.351  1.00  0.00     0.075 C 
ATOM     15  C   UNL A   1      31.867  25.806  21.636  1.00  0.00     0.075 C 
ENDBRANCH  10  13
ENDBRANCH   9  10
ENDBRANCH   5   9
ENDBRANCH   3   5
ENDBRANCH   2   3
ENDBRANCH   1   2
BRANCH   1  16
ATOM     16  C   UNL A   1      32.670  30.809  27.171  1.00  0.00     0.275 C 
BRANCH  16  17
ATOM     17  O   UNL A   1      34.084  30.543  27.141  1.00  0.00    -0.458 OA
BRANCH  17  18
ATOM     18  C   UNL A   1      34.761  30.983  28.228  1.00  0.00     0.338 C 
ATOM     19  O   UNL A   1      34.371  31.770  29.073  1.00  0.00    -0.246 OA
BRANCH  18  20
ATOM     20  C   UNL A   1      36.046  30.278  28.340  1.00  0.00     0.060 A 
ATOM     21  C   UNL A   1      36.402  29.769  29.591  1.00  0.00     0.016 A 
ATOM     22  C   UNL A   1      36.947  30.240  27.274  1.00  0.00     0.016 A 
ATOM     23  C   UNL A   1      37.673  29.242  29.797  1.00  0.00     0.010 A 
ATOM     24  C   UNL A   1      38.227  29.716  27.483  1.00  0.00     0.010 A 
ATOM     25  C   UNL A   1      38.605  29.242  28.753  1.00  0.00    -0.014 A 
BRANCH  25  26
ATOM     26  C   UNL A   1      40.011  28.872  29.039  1.00  0.00     0.031 A 
ATOM     27  C   UNL A   1      40.903  29.867  29.729  1.00  0.00     0.074 A 
ATOM     28  C   UNL A   1      40.469  27.644  28.740  1.00  0.00     0.049 A 
ATOM     29  N   UNL A   1      42.172  29.770  30.028  1.00  0.00    -0.248 NA
ATOM     30  C   UNL A   1      40.283  31.139  30.136  1.00  0.00     0.031 C 
ATOM     31  C   UNL A   1      39.681  26.571  28.130  1.00  0.00     0.029 A 
ATOM     32  N   UNL A   1      41.711  27.090  28.917  1.00  0.00    -0.354 N 
ATOM     33  C   UNL A   1      42.509  30.974  30.636  1.00  0.00     0.074 A 
ATOM     34  C   UNL A   1      41.314  31.789  30.655  1.00  0.00     0.031 C 
ATOM     35  C   UNL A   1      40.460  25.485  27.989  1.00  0.00     0.029 A 
ATOM     36  C   UNL A   1      41.807  25.798  28.461  1.00  0.00     0.049 A 
ATOM     37  H   UNL A   1      42.463  27.573  29.331  1.00  0.00     0.167 HD
ATOM     38  C   UNL A   1      43.707  31.367  31.131  1.00  0.00     0.031 A 
ATOM     39  C   UNL A   1      42.867  24.967  28.412  1.00  0.00     0.031 A 
ATOM     40  C   UNL A   1      44.894  30.555  31.115  1.00  0.00     0.049 A 
ATOM     41  C   UNL A   1      44.197  25.440  28.930  1.00  0.00     0.074 A 
ATOM     42  C   UNL A   1      46.161  30.870  31.572  1.00  0.00     0.029 A 
ATOM     43  N   UNL A   1      44.956  29.261  30.621  1.00  0.00    -0.354 N 
ATOM     44  N   UNL A   1      44.508  26.596  29.470  1.00  0.00    -0.248 NA
ATOM     45  C   UNL A   1      45.320  24.497  28.834  1.00  0.00     0.031 C 
ATOM     46  C   UNL A   1      46.998  29.774  31.329  1.00  0.00     0.029 A 
ATOM     47  C   UNL A   1      46.240  28.765  30.756  1.00  0.00     0.049 A 
ATOM     48  H   UNL A   1      44.198  28.768  30.231  1.00  0.00     0.167 HD
ATOM     49  C   UNL A   1      45.858  26.510  29.793  1.00  0.00     0.074 A 
ATOM     50  C   UNL A   1      46.301  25.188  29.401  1.00  0.00     0.031 C 
ATOM     51  C   UNL A   1      46.659  27.444  30.363  1.00  0.00     0.031 A 
BRANCH  38  52
ATOM     52  C   UNL A   1      43.794  32.759  31.690  1.00  0.00    -0.014 A 
ATOM     53  C   UNL A   1      43.583  33.010  33.057  1.00  0.00     0.010 A 
ATOM     54  C   UNL A   1      44.099  33.832  30.834  1.00  0.00     0.010 A 
ATOM     55  C   UNL A   1      43.634  34.317  33.551  1.00  0.00     0.020 A 
ATOM     56  C   UNL A   1      44.172  35.138  31.327  1.00  0.00     0.020 A 
ATOM     57  C   UNL A   1      43.919  35.374  32.681  1.00  0.00     0.054 A 
BRANCH  57  58
ATOM     58  S   UNL A   1      43.983  37.062  33.340  1.00  0.00     0.124 S 
ATOM     59  O   UNL A   1      43.960  37.863  32.118  1.00  0.00    -0.237 OA
ATOM     60  O   UNL A   1      42.776  37.136  34.160  1.00  0.00    -0.237 OA
ATOM     61  O   UNL A   1      45.239  37.096  34.084  1.00  0.00    -0.744 OA
ENDBRANCH  57  58
ENDBRANCH  38  52
BRANCH  39  62
ATOM     62  C   UNL A   1      42.716  23.608  27.828  1.00  0.00    -0.014 A 
ATOM     63  C   UNL A   1      42.405  22.508  28.643  1.00  0.00     0.010 A 
ATOM     64  C   UNL A   1      42.872  23.414  26.443  1.00  0.00     0.010 A 
ATOM     65  C   UNL A   1      42.265  21.233  28.087  1.00  0.00     0.020 A 
ATOM     66  C   UNL A   1      42.710  22.145  25.880  1.00  0.00     0.020 A 
ATOM     67  C   UNL A   1      42.418  21.060  26.708  1.00  0.00     0.054 A 
BRANCH  67  68
ATOM     68  S   UNL A   1      42.172  19.410  25.993  1.00  0.00     0.124 S 
ATOM     69  O   UNL A   1      40.740  19.410  25.717  1.00  0.00    -0.237 OA
ATOM     70  O   UNL A   1      43.042  19.438  24.819  1.00  0.00    -0.237 OA
ATOM     71  O   UNL A   1      42.607  18.510  27.058  1.00  0.00    -0.744 OA
ENDBRANCH  67  68
ENDBRANCH  39  62
BRANCH  51  72
ATOM     72  C   UNL A   1      48.087  27.055  30.629  1.00  0.00    -0.014 A 
ATOM     73  C   UNL A   1      49.103  27.346  29.703  1.00  0.00     0.010 A 
ATOM     74  C   UNL A   1      48.421  26.434  31.847  1.00  0.00     0.010 A 
ATOM     75  C   UNL A   1      50.428  26.996  29.978  1.00  0.00     0.020 A 
ATOM     76  C   UNL A   1      49.746  26.100  32.132  1.00  0.00     0.020 A 
ATOM     77  C   UNL A   1      50.741  26.371  31.189  1.00  0.00     0.054 A 
BRANCH  77  78
ATOM     78  S   UNL A   1      52.471  25.960  31.546  1.00  0.00     0.124 S 
ATOM     79  O   UNL A   1      52.841  27.009  32.492  1.00  0.00    -0.237 OA
ATOM     80  O   UNL A   1      52.377  24.613  32.106  1.00  0.00    -0.237 OA
ATOM     81  O   UNL A   1      53.120  26.040  30.240  1.00  0.00    -0.744 OA
ENDBRANCH  77  78
ENDBRANCH  51  72
ENDBRANCH  25  26
ENDBRANCH  18  20
ENDBRANCH  17  18
ENDBRANCH  16  17
ENDBRANCH   1  16
TORSDOF 19
ENDMDL
MODEL 3
REMARK VINA RESULT:      -8.5      5.838     12.101
REMARK SMILES CCC[C@@H](C[NH2+]C(C)C)C(=O)OCCOC(=O)c1ccc(-c2c3nc(c(-c4ccc(S(=O)(=O)[O-])cc4)c4ccc([nH]4)c(-c4ccc(S(=O)(=O)[O-])cc4)c4nc(c(-c5ccc(S(=O)(=O)[O-])cc5)c5ccc2[nH]5)C=C4)C=C3)cc1
REMARK SMILES IDX 13 1 12 2 10 3 11 4 4 5 3 6 2 7 1 8 5 9 6 10 7 13 8 14 9 15
REMARK SMILES IDX 14 16 15 17 16 18 17 19 18 20 19 21 77 22 20 23 76 24 21 25
REMARK SMILES IDX 22 26 23 27 70 28 24 29 75 30 69 31 71 32 25 33 74 34 68 35
REMARK SMILES IDX 67 36 26 38 56 39 37 40 55 41 38 42 41 43 54 44 72 45 39 46
REMARK SMILES IDX 40 47 53 49 73 50 42 51 27 52 28 53 36 54 29 55 35 56 30 57
REMARK SMILES IDX 31 58 32 59 33 60 34 61 57 62 58 63 66 64 59 65 65 66 60 67
REMARK SMILES IDX 61 68 62 69 63 70 64 71 43 72 44 73 52 74 45 75 51 76 46 77
REMARK SMILES IDX 47 78 48 79 49 80 50 81
REMARK H PARENT 6 11 6 12 71 37 41 48
REMARK Flexibility Score: inf
ROOT
ATOM      1  C   UNL A   1      36.723  21.749  24.325  1.00  0.00     0.274 C 
ENDROOT
BRANCH   1   2
ATOM      2  O   UNL A   1      35.534  21.328  25.016  1.00  0.00    -0.462 OA
BRANCH   2   3
ATOM      3  C   UNL A   1      34.607  22.294  25.250  1.00  0.00     0.314 C 
ATOM      4  O   UNL A   1      34.855  23.395  25.730  1.00  0.00    -0.252 OA
BRANCH   3   5
ATOM      5  C   UNL A   1      33.195  21.881  24.865  1.00  0.00     0.154 C 
BRANCH   5   6
ATOM      6  C   UNL A   1      32.838  22.151  23.391  1.00  0.00     0.021 C 
BRANCH   6   7
ATOM      7  C   UNL A   1      31.546  22.947  23.170  1.00  0.00    -0.002 C 
ATOM      8  C   UNL A   1      31.130  23.779  24.375  1.00  0.00     0.004 C 
ENDBRANCH   6   7
ENDBRANCH   5   6
BRANCH   5   9
ATOM      9  C   UNL A   1      32.934  20.451  25.357  1.00  0.00     0.276 C 
BRANCH   9  10
ATOM     10  N   UNL A   1      32.436  19.559  24.307  1.00  0.00    -0.344 N 
ATOM     11  H   UNL A   1      32.587  20.006  23.403  1.00  0.00     0.346 HD
ATOM     12  H   UNL A   1      31.446  19.396  24.489  1.00  0.00     0.346 HD
BRANCH  10  13
ATOM     13  C   UNL A   1      33.104  18.254  24.303  1.00  0.00     0.176 C 
ATOM     14  C   UNL A   1      32.558  17.318  25.381  1.00  0.00     0.075 C 
ATOM     15  C   UNL A   1      32.897  17.637  22.920  1.00  0.00     0.075 C 
ENDBRANCH  10  13
ENDBRANCH   9  10
ENDBRANCH   5   9
ENDBRANCH   3   5
ENDBRANCH   2   3
ENDBRANCH   1   2
BRANCH   1  16
ATOM     16  C   UNL A   1      37.983  21.485  25.153  1.00  0.00     0.275 C 
BRANCH  16  17
ATOM     17  O   UNL A   1      38.173  22.488  26.167  1.00  0.00    -0.458 OA
BRANCH  17  18
ATOM     18  C   UNL A   1      39.462  22.849  26.366  1.00  0.00     0.338 C 
ATOM     19  O   UNL A   1      40.461  22.232  26.039  1.00  0.00    -0.246 OA
BRANCH  18  20
ATOM     20  C   UNL A   1      39.524  24.196  26.950  1.00  0.00     0.060 A 
ATOM     21  C   UNL A   1      40.259  25.169  26.269  1.00  0.00     0.016 A 
ATOM     22  C   UNL A   1      38.989  24.463  28.212  1.00  0.00     0.016 A 
ATOM     23  C   UNL A   1      40.491  26.409  26.854  1.00  0.00     0.010 A 
ATOM     24  C   UNL A   1      39.228  25.708  28.803  1.00  0.00     0.010 A 
ATOM     25  C   UNL A   1      40.005  26.676  28.139  1.00  0.00    -0.014 A 
BRANCH  25  26
ATOM     26  C   UNL A   1      40.432  27.914  28.831  1.00  0.00     0.031 A 
ATOM     27  C   UNL A   1      41.834  28.006  29.368  1.00  0.00     0.074 A 
ATOM     28  C   UNL A   1      39.599  28.965  28.927  1.00  0.00     0.049 A 
ATOM     29  N   UNL A   1      42.397  28.971  30.047  1.00  0.00    -0.248 NA
ATOM     30  C   UNL A   1      42.718  26.859  29.105  1.00  0.00     0.031 C 
ATOM     31  C   UNL A   1      38.239  29.021  28.388  1.00  0.00     0.029 A 
ATOM     32  N   UNL A   1      39.780  30.193  29.509  1.00  0.00    -0.354 N 
ATOM     33  C   UNL A   1      43.691  28.540  30.313  1.00  0.00     0.074 A 
ATOM     34  C   UNL A   1      43.828  27.223  29.730  1.00  0.00     0.031 C 
ATOM     35  C   UNL A   1      37.711  30.226  28.661  1.00  0.00     0.029 A 
ATOM     36  C   UNL A   1      38.678  31.010  29.426  1.00  0.00     0.049 A 
ATOM     37  H   UNL A   1      40.620  30.465  29.946  1.00  0.00     0.167 HD
ATOM     38  C   UNL A   1      44.677  29.181  30.985  1.00  0.00     0.031 A 
ATOM     39  C   UNL A   1      38.468  32.243  29.926  1.00  0.00     0.031 A 
ATOM     40  C   UNL A   1      44.542  30.492  31.560  1.00  0.00     0.049 A 
ATOM     41  C   UNL A   1      39.562  32.920  30.704  1.00  0.00     0.074 A 
ATOM     42  C   UNL A   1      45.474  31.219  32.279  1.00  0.00     0.029 A 
ATOM     43  N   UNL A   1      43.401  31.275  31.476  1.00  0.00    -0.354 N 
ATOM     44  N   UNL A   1      40.770  32.483  30.977  1.00  0.00    -0.248 NA
ATOM     45  C   UNL A   1      39.268  34.256  31.240  1.00  0.00     0.031 C 
ATOM     46  C   UNL A   1      44.886  32.434  32.653  1.00  0.00     0.029 A 
ATOM     47  C   UNL A   1      43.603  32.476  32.133  1.00  0.00     0.049 A 
ATOM     48  H   UNL A   1      42.570  31.015  31.016  1.00  0.00     0.167 HD
ATOM     49  C   UNL A   1      41.384  33.499  31.702  1.00  0.00     0.074 A 
ATOM     50  C   UNL A   1      40.421  34.575  31.814  1.00  0.00     0.031 C 
ATOM     51  C   UNL A   1      42.632  33.536  32.229  1.00  0.00     0.031 A 
BRANCH  38  52
ATOM     52  C   UNL A   1      45.974  28.444  31.167  1.00  0.00    -0.014 A 
ATOM     53  C   UNL A   1      46.189  27.612  32.280  1.00  0.00     0.010 A 
ATOM     54  C   UNL A   1      46.991  28.583  30.206  1.00  0.00     0.010 A 
ATOM     55  C   UNL A   1      47.416  26.964  32.449  1.00  0.00     0.020 A 
ATOM     56  C   UNL A   1      48.211  27.921  30.360  1.00  0.00     0.020 A 
ATOM     57  C   UNL A   1      48.423  27.130  31.493  1.00  0.00     0.054 A 
BRANCH  57  58
ATOM     58  S   UNL A   1      50.008  26.279  31.729  1.00  0.00     0.124 S 
ATOM     59  O   UNL A   1      49.872  25.765  33.090  1.00  0.00    -0.237 OA
ATOM     60  O   UNL A   1      49.994  25.269  30.674  1.00  0.00    -0.237 OA
ATOM     61  O   UNL A   1      50.998  27.339  31.559  1.00  0.00    -0.744 OA
ENDBRANCH  57  58
ENDBRANCH  38  52
BRANCH  39  62
ATOM     62  C   UNL A   1      37.153  32.908  29.725  1.00  0.00    -0.014 A 
ATOM     63  C   UNL A   1      36.170  32.872  30.728  1.00  0.00     0.010 A 
ATOM     64  C   UNL A   1      36.884  33.593  28.525  1.00  0.00     0.010 A 
ATOM     65  C   UNL A   1      34.936  33.499  30.531  1.00  0.00     0.020 A 
ATOM     66  C   UNL A   1      35.660  34.240  28.334  1.00  0.00     0.020 A 
ATOM     67  C   UNL A   1      34.689  34.180  29.336  1.00  0.00     0.054 A 
BRANCH  67  68
ATOM     68  S   UNL A   1      33.106  35.041  29.120  1.00  0.00     0.124 S 
ATOM     69  O   UNL A   1      32.530  34.954  30.457  1.00  0.00    -0.237 OA
ATOM     70  O   UNL A   1      33.523  36.375  28.696  1.00  0.00    -0.237 OA
ATOM     71  O   UNL A   1      32.429  34.253  28.092  1.00  0.00    -0.744 OA
ENDBRANCH  67  68
ENDBRANCH  39  62
BRANCH  51  72
ATOM     72  C   UNL A   1      43.040  34.795  32.942  1.00  0.00    -0.014 A 
ATOM     73  C   UNL A   1      42.876  34.927  34.332  1.00  0.00     0.010 A 
ATOM     74  C   UNL A   1      43.642  35.839  32.217  1.00  0.00     0.010 A 
ATOM     75  C   UNL A   1      43.281  36.097  34.980  1.00  0.00     0.020 A 
ATOM     76  C   UNL A   1      44.065  37.001  32.865  1.00  0.00     0.020 A 
ATOM     77  C   UNL A   1      43.869  37.129  34.242  1.00  0.00     0.054 A 
BRANCH  77  78
ATOM     78  S   UNL A   1      44.426  38.623  35.107  1.00  0.00     0.124 S 
ATOM     79  O   UNL A   1      44.020  38.346  36.482  1.00  0.00    -0.237 OA
ATOM     80  O   UNL A   1      45.867  38.622  34.865  1.00  0.00    -0.237 OA
ATOM     81  O   UNL A   1      43.691  39.698  34.444  1.00  0.00    -0.744 OA
ENDBRANCH  77  78
ENDBRANCH  51  72
ENDBRANCH  25  26
ENDBRANCH  18  20
ENDBRANCH  17  18
ENDBRANCH  16  17
ENDBRANCH   1  16
TORSDOF 19
ENDMDL
