MODEL 1
REMARK VINA RESULT:     -10.4      0.000      0.000
REMARK SMILES COC(=O)C1=C(C)NC(C)=C(C(=O)OC)C1c1ccc(C(=O)OCCOC(=O)c2ccc(-c3c4nc(c(-c5ccc(S(=O)(=O)[O-])cc5)c5ccc([nH]5)c(-c5ccc(S(=O)(=O)[O-])cc5)c5nc(c(-c6ccc(S(=O)(=O)[O-])cc6)c6ccc3[nH]6)C=C5)C=C4)cc2)cc1
REMARK SMILES IDX 24 1 23 2 21 3 22 4 20 5 17 6 18 7 90 8 19 9 89 10 16 11
REMARK SMILES IDX 5 12 6 13 7 14 8 15 11 16 9 17 10 19 3 20 4 21 2 22 1 23
REMARK SMILES IDX 12 24 13 25 14 26 15 27 25 28 26 29 27 30 28 31 29 32 30 33
REMARK SMILES IDX 88 34 31 35 87 36 32 37 33 38 34 39 81 40 35 41 86 42 80 43
REMARK SMILES IDX 82 44 36 45 85 46 79 47 78 48 37 50 67 51 48 52 66 53 49 54
REMARK SMILES IDX 52 55 65 56 83 57 50 58 51 59 64 61 84 62 53 63 38 64 39 65
REMARK SMILES IDX 47 66 40 67 46 68 41 69 42 70 43 71 44 72 45 73 68 74 69 75
REMARK SMILES IDX 77 76 70 77 76 78 71 79 72 80 73 81 74 82 75 83 54 84 55 85
REMARK SMILES IDX 63 86 56 87 62 88 57 89 58 90 59 91 60 92 61 93
REMARK H PARENT 8 18 82 49 52 60
REMARK Flexibility Score: inf
ROOT
ATOM      1  C   UNL A   1      34.912  32.096  28.601  1.00  0.00     0.275 C 
ENDROOT
BRANCH   1   2
ATOM      2  O   UNL A   1      34.057  31.029  28.149  1.00  0.00    -0.458 OA
BRANCH   2   3
ATOM      3  C   UNL A   1      34.704  29.864  27.881  1.00  0.00     0.338 C 
ATOM      4  O   UNL A   1      35.843  29.592  28.209  1.00  0.00    -0.246 OA
BRANCH   3   5
ATOM      5  C   UNL A   1      33.820  28.888  27.191  1.00  0.00     0.060 A 
ATOM      6  C   UNL A   1      32.300  26.969  25.798  1.00  0.00    -0.035 A 
ATOM      7  C   UNL A   1      33.686  27.041  25.616  1.00  0.00     0.005 A 
ATOM      8  C   UNL A   1      31.685  27.868  26.696  1.00  0.00     0.005 A 
ATOM      9  C   UNL A   1      34.434  27.994  26.301  1.00  0.00     0.016 A 
ATOM     10  C   UNL A   1      32.440  28.822  27.389  1.00  0.00     0.016 A 
BRANCH   6  11
ATOM     11  C   UNL A   1      31.440  26.037  24.940  1.00  0.00     0.098 C 
ATOM     12  C   UNL A   1      31.552  26.415  23.460  1.00  0.00     0.068 C 
ATOM     13  C   UNL A   1      31.563  25.480  22.485  1.00  0.00     0.023 C 
ATOM     14  C   UNL A   1      31.704  25.769  21.013  1.00  0.00     0.065 C 
ATOM     15  N   UNL A   1      31.510  24.143  22.831  1.00  0.00    -0.362 N 
ATOM     16  C   UNL A   1      31.673  24.532  25.169  1.00  0.00     0.068 C 
ATOM     17  C   UNL A   1      31.675  23.666  24.123  1.00  0.00     0.023 C 
ATOM     18  H   UNL A   1      31.344  23.487  22.115  1.00  0.00     0.166 HD
ATOM     19  C   UNL A   1      31.891  22.173  24.212  1.00  0.00     0.065 C 
BRANCH  12  20
ATOM     20  C   UNL A   1      31.821  27.813  23.084  1.00  0.00     0.336 C 
ATOM     21  O   UNL A   1      32.867  28.190  22.580  1.00  0.00    -0.246 OA
BRANCH  20  22
ATOM     22  O   UNL A   1      30.717  28.569  23.300  1.00  0.00    -0.466 OA
ATOM     23  C   UNL A   1      30.316  29.345  22.167  1.00  0.00     0.282 C 
ENDBRANCH  20  22
ENDBRANCH  12  20
BRANCH  16  24
ATOM     24  C   UNL A   1      32.020  24.049  26.529  1.00  0.00     0.336 C 
ATOM     25  O   UNL A   1      31.187  23.729  27.363  1.00  0.00    -0.246 OA
BRANCH  24  26
ATOM     26  O   UNL A   1      33.363  23.945  26.679  1.00  0.00    -0.466 OA
ATOM     27  C   UNL A   1      33.787  22.673  27.183  1.00  0.00     0.282 C 
ENDBRANCH  24  26
ENDBRANCH  16  24
ENDBRANCH   6  11
ENDBRANCH   3   5
ENDBRANCH   2   3
ENDBRANCH   1   2
BRANCH   1  28
ATOM     28  C   UNL A   1      34.951  32.170  30.128  1.00  0.00     0.275 C 
BRANCH  28  29
ATOM     29  O   UNL A   1      36.304  32.143  30.622  1.00  0.00    -0.458 OA
BRANCH  29  30
ATOM     30  C   UNL A   1      36.754  30.924  30.998  1.00  0.00     0.338 C 
ATOM     31  O   UNL A   1      36.114  30.029  31.528  1.00  0.00    -0.246 OA
BRANCH  30  32
ATOM     32  C   UNL A   1      38.173  30.765  30.642  1.00  0.00     0.060 A 
ATOM     33  C   UNL A   1      38.544  30.911  29.309  1.00  0.00     0.016 A 
ATOM     34  C   UNL A   1      39.093  30.292  31.576  1.00  0.00     0.016 A 
ATOM     35  C   UNL A   1      39.810  30.511  28.884  1.00  0.00     0.010 A 
ATOM     36  C   UNL A   1      40.393  29.968  31.161  1.00  0.00     0.010 A 
ATOM     37  C   UNL A   1      40.758  30.036  29.802  1.00  0.00    -0.014 A 
BRANCH  37  38
ATOM     38  C   UNL A   1      42.098  29.567  29.333  1.00  0.00     0.031 A 
ATOM     39  C   UNL A   1      43.282  30.506  29.332  1.00  0.00     0.074 A 
ATOM     40  C   UNL A   1      42.274  28.294  28.922  1.00  0.00     0.049 A 
ATOM     41  N   UNL A   1      44.480  30.329  28.832  1.00  0.00    -0.248 NA
ATOM     42  C   UNL A   1      43.089  31.823  29.960  1.00  0.00     0.031 C 
ATOM     43  C   UNL A   1      41.240  27.257  28.901  1.00  0.00     0.029 A 
ATOM     44  N   UNL A   1      43.394  27.648  28.451  1.00  0.00    -0.354 N 
ATOM     45  C   UNL A   1      45.160  31.528  29.028  1.00  0.00     0.074 A 
ATOM     46  C   UNL A   1      44.238  32.427  29.688  1.00  0.00     0.031 C 
ATOM     47  C   UNL A   1      41.780  26.102  28.486  1.00  0.00     0.029 A 
ATOM     48  C   UNL A   1      43.175  26.330  28.125  1.00  0.00     0.049 A 
ATOM     49  H   UNL A   1      44.269  28.089  28.355  1.00  0.00     0.167 HD
ATOM     50  C   UNL A   1      46.432  31.853  28.687  1.00  0.00     0.031 A 
ATOM     51  C   UNL A   1      43.983  25.410  27.560  1.00  0.00     0.031 A 
ATOM     52  C   UNL A   1      47.366  30.943  28.074  1.00  0.00     0.049 A 
ATOM     53  C   UNL A   1      45.384  25.796  27.178  1.00  0.00     0.074 A 
ATOM     54  C   UNL A   1      48.684  31.175  27.718  1.00  0.00     0.029 A 
ATOM     55  N   UNL A   1      47.090  29.625  27.741  1.00  0.00    -0.354 N 
ATOM     56  N   UNL A   1      45.993  26.948  27.331  1.00  0.00    -0.248 NA
ATOM     57  C   UNL A   1      46.203  24.761  26.531  1.00  0.00     0.031 C 
ATOM     58  C   UNL A   1      49.190  30.012  27.124  1.00  0.00     0.029 A 
ATOM     59  C   UNL A   1      48.206  29.039  27.165  1.00  0.00     0.049 A 
ATOM     60  H   UNL A   1      46.228  29.173  27.892  1.00  0.00     0.167 HD
ATOM     61  C   UNL A   1      47.269  26.773  26.810  1.00  0.00     0.074 A 
ATOM     62  C   UNL A   1      47.354  25.399  26.360  1.00  0.00     0.031 C 
ATOM     63  C   UNL A   1      48.279  27.673  26.711  1.00  0.00     0.031 A 
BRANCH  50  64
ATOM     64  C   UNL A   1      46.881  33.273  28.925  1.00  0.00    -0.014 A 
ATOM     65  C   UNL A   1      46.686  34.283  27.968  1.00  0.00     0.010 A 
ATOM     66  C   UNL A   1      47.475  33.608  30.158  1.00  0.00     0.010 A 
ATOM     67  C   UNL A   1      47.116  35.591  28.220  1.00  0.00     0.020 A 
ATOM     68  C   UNL A   1      47.879  34.919  30.426  1.00  0.00     0.020 A 
ATOM     69  C   UNL A   1      47.715  35.899  29.446  1.00  0.00     0.054 A 
BRANCH  69  70
ATOM     70  S   UNL A   1      48.252  37.604  29.754  1.00  0.00     0.124 S 
ATOM     71  O   UNL A   1      48.282  38.159  28.403  1.00  0.00    -0.237 OA
ATOM     72  O   UNL A   1      47.196  38.123  30.621  1.00  0.00    -0.237 OA
ATOM     73  O   UNL A   1      49.557  37.448  30.393  1.00  0.00    -0.744 OA
ENDBRANCH  69  70
ENDBRANCH  50  64
BRANCH  51  74
ATOM     74  C   UNL A   1      43.461  24.044  27.277  1.00  0.00    -0.014 A 
ATOM     75  C   UNL A   1      43.377  23.079  28.294  1.00  0.00     0.010 A 
ATOM     76  C   UNL A   1      43.016  23.714  25.983  1.00  0.00     0.010 A 
ATOM     77  C   UNL A   1      42.863  21.807  28.022  1.00  0.00     0.020 A 
ATOM     78  C   UNL A   1      42.470  22.456  25.715  1.00  0.00     0.020 A 
ATOM     79  C   UNL A   1      42.406  21.506  26.735  1.00  0.00     0.054 A 
BRANCH  79  80
ATOM     80  S   UNL A   1      41.673  19.875  26.420  1.00  0.00     0.124 S 
ATOM     81  O   UNL A   1      42.020  19.147  27.635  1.00  0.00    -0.237 OA
ATOM     82  O   UNL A   1      40.256  20.191  26.253  1.00  0.00    -0.237 OA
ATOM     83  O   UNL A   1      42.350  19.427  25.205  1.00  0.00    -0.744 OA
ENDBRANCH  79  80
ENDBRANCH  51  74
BRANCH  63  84
ATOM     84  C   UNL A   1      49.575  27.191  26.115  1.00  0.00    -0.014 A 
ATOM     85  C   UNL A   1      50.570  26.600  26.914  1.00  0.00     0.010 A 
ATOM     86  C   UNL A   1      49.787  27.306  24.730  1.00  0.00     0.010 A 
ATOM     87  C   UNL A   1      51.770  26.167  26.343  1.00  0.00     0.020 A 
ATOM     88  C   UNL A   1      50.974  26.849  24.151  1.00  0.00     0.020 A 
ATOM     89  C   UNL A   1      51.966  26.298  24.964  1.00  0.00     0.054 A 
BRANCH  89  90
ATOM     90  S   UNL A   1      53.520  25.706  24.241  1.00  0.00     0.124 S 
ATOM     91  O   UNL A   1      53.545  24.311  24.672  1.00  0.00    -0.237 OA
ATOM     92  O   UNL A   1      53.311  25.917  22.810  1.00  0.00    -0.237 OA
ATOM     93  O   UNL A   1      54.535  26.564  24.848  1.00  0.00    -0.744 OA
ENDBRANCH  89  90
ENDBRANCH  63  84
ENDBRANCH  37  38
ENDBRANCH  30  32
ENDBRANCH  29  30
ENDBRANCH  28  29
ENDBRANCH   1  28
TORSDOF 19
ENDMDL
MODEL 2
REMARK VINA RESULT:     -10.4      1.721      2.498
REMARK SMILES COC(=O)C1=C(C)NC(C)=C(C(=O)OC)C1c1ccc(C(=O)OCCOC(=O)c2ccc(-c3c4nc(c(-c5ccc(S(=O)(=O)[O-])cc5)c5ccc([nH]5)c(-c5ccc(S(=O)(=O)[O-])cc5)c5nc(c(-c6ccc(S(=O)(=O)[O-])cc6)c6ccc3[nH]6)C=C5)C=C4)cc2)cc1
REMARK SMILES IDX 24 1 23 2 21 3 22 4 20 5 17 6 18 7 90 8 19 9 89 10 16 11
REMARK SMILES IDX 5 12 6 13 7 14 8 15 11 16 9 17 10 19 3 20 4 21 2 22 1 23
REMARK SMILES IDX 12 24 13 25 14 26 15 27 25 28 26 29 27 30 28 31 29 32 30 33
REMARK SMILES IDX 88 34 31 35 87 36 32 37 33 38 34 39 81 40 35 41 86 42 80 43
REMARK SMILES IDX 82 44 36 45 85 46 79 47 78 48 37 50 67 51 48 52 66 53 49 54
REMARK SMILES IDX 52 55 65 56 83 57 50 58 51 59 64 61 84 62 53 63 38 64 39 65
REMARK SMILES IDX 47 66 40 67 46 68 41 69 42 70 43 71 44 72 45 73 68 74 69 75
REMARK SMILES IDX 77 76 70 77 76 78 71 79 72 80 73 81 74 82 75 83 54 84 55 85
REMARK SMILES IDX 63 86 56 87 62 88 57 89 58 90 59 91 60 92 61 93
REMARK H PARENT 8 18 82 49 52 60
REMARK Flexibility Score: inf
ROOT
ATOM      1  C   UNL A   1      34.170  31.326  27.914  1.00  0.00     0.275 C 
ENDROOT
BRANCH   1   2
ATOM      2  O   UNL A   1      33.893  30.039  27.331  1.00  0.00    -0.458 OA
BRANCH   2   3
ATOM      3  C   UNL A   1      32.646  29.916  26.805  1.00  0.00     0.338 C 
ATOM      4  O   UNL A   1      31.795  30.784  26.784  1.00  0.00    -0.246 OA
BRANCH   3   5
ATOM      5  C   UNL A   1      32.446  28.589  26.162  1.00  0.00     0.060 A 
ATOM      6  C   UNL A   1      31.897  26.137  24.892  1.00  0.00    -0.035 A 
ATOM      7  C   UNL A   1      30.945  27.163  24.889  1.00  0.00     0.005 A 
ATOM      8  C   UNL A   1      33.134  26.359  25.534  1.00  0.00     0.005 A 
ATOM      9  C   UNL A   1      31.217  28.372  25.523  1.00  0.00     0.016 A 
ATOM     10  C   UNL A   1      33.408  27.578  26.166  1.00  0.00     0.016 A 
BRANCH   6  11
ATOM     11  C   UNL A   1      31.561  24.749  24.339  1.00  0.00     0.098 C 
ATOM     12  C   UNL A   1      32.341  24.482  23.048  1.00  0.00     0.068 C 
ATOM     13  C   UNL A   1      32.830  23.259  22.751  1.00  0.00     0.023 C 
ATOM     14  C   UNL A   1      33.634  22.926  21.521  1.00  0.00     0.065 C 
ATOM     15  N   UNL A   1      32.656  22.225  23.651  1.00  0.00    -0.362 N 
ATOM     16  C   UNL A   1      31.699  23.590  25.345  1.00  0.00     0.068 C 
ATOM     17  C   UNL A   1      32.212  22.395  24.955  1.00  0.00     0.023 C 
ATOM     18  H   UNL A   1      32.861  21.310  23.349  1.00  0.00     0.166 HD
ATOM     19  C   UNL A   1      32.401  21.183  25.838  1.00  0.00     0.065 C 
BRANCH  12  20
ATOM     20  C   UNL A   1      32.717  25.611  22.180  1.00  0.00     0.336 C 
ATOM     21  O   UNL A   1      33.815  26.143  22.199  1.00  0.00    -0.246 OA
BRANCH  20  22
ATOM     22  O   UNL A   1      31.706  25.889  21.321  1.00  0.00    -0.466 OA
ATOM     23  C   UNL A   1      32.042  25.687  19.945  1.00  0.00     0.282 C 
ENDBRANCH  20  22
ENDBRANCH  12  20
BRANCH  16  24
ATOM     24  C   UNL A   1      31.384  23.829  26.775  1.00  0.00     0.336 C 
ATOM     25  O   UNL A   1      32.236  23.911  27.647  1.00  0.00    -0.246 OA
BRANCH  24  26
ATOM     26  O   UNL A   1      30.054  24.013  26.955  1.00  0.00    -0.466 OA
ATOM     27  C   UNL A   1      29.325  22.794  27.139  1.00  0.00     0.282 C 
ENDBRANCH  24  26
ENDBRANCH  16  24
ENDBRANCH   6  11
ENDBRANCH   3   5
ENDBRANCH   2   3
ENDBRANCH   1   2
BRANCH   1  28
ATOM     28  C   UNL A   1      35.449  31.296  28.751  1.00  0.00     0.275 C 
BRANCH  28  29
ATOM     29  O   UNL A   1      36.333  30.243  28.322  1.00  0.00    -0.458 OA
BRANCH  29  30
ATOM     30  C   UNL A   1      36.925  29.546  29.320  1.00  0.00     0.338 C 
ATOM     31  O   UNL A   1      36.451  29.268  30.410  1.00  0.00    -0.246 OA
BRANCH  30  32
ATOM     32  C   UNL A   1      38.265  29.097  28.912  1.00  0.00     0.060 A 
ATOM     33  C   UNL A   1      39.129  28.611  29.889  1.00  0.00     0.016 A 
ATOM     34  C   UNL A   1      38.731  29.327  27.619  1.00  0.00     0.016 A 
ATOM     35  C   UNL A   1      40.481  28.428  29.603  1.00  0.00     0.010 A 
ATOM     36  C   UNL A   1      40.074  29.064  27.313  1.00  0.00     0.010 A 
ATOM     37  C   UNL A   1      40.977  28.648  28.311  1.00  0.00    -0.014 A 
BRANCH  37  38
ATOM     38  C   UNL A   1      42.436  28.493  28.023  1.00  0.00     0.031 A 
ATOM     39  C   UNL A   1      43.400  29.620  28.316  1.00  0.00     0.074 A 
ATOM     40  C   UNL A   1      42.916  27.339  27.516  1.00  0.00     0.049 A 
ATOM     41  N   UNL A   1      44.668  29.728  28.005  1.00  0.00    -0.248 NA
ATOM     42  C   UNL A   1      42.864  30.785  29.038  1.00  0.00     0.031 C 
ATOM     43  C   UNL A   1      42.120  26.146  27.216  1.00  0.00     0.029 A 
ATOM     44  N   UNL A   1      44.197  26.972  27.171  1.00  0.00    -0.354 N 
ATOM     45  C   UNL A   1      45.064  30.991  28.435  1.00  0.00     0.074 A 
ATOM     46  C   UNL A   1      43.898  31.615  29.025  1.00  0.00     0.031 C 
ATOM     47  C   UNL A   1      42.931  25.172  26.777  1.00  0.00     0.029 A 
ATOM     48  C   UNL A   1      44.290  25.692  26.677  1.00  0.00     0.049 A 
ATOM     49  H   UNL A   1      44.972  27.571  27.268  1.00  0.00     0.167 HD
ATOM     50  C   UNL A   1      46.282  31.580  28.345  1.00  0.00     0.031 A 
ATOM     51  C   UNL A   1      45.335  25.015  26.160  1.00  0.00     0.031 A 
ATOM     52  C   UNL A   1      47.455  30.942  27.802  1.00  0.00     0.049 A 
ATOM     53  C   UNL A   1      46.673  25.692  26.056  1.00  0.00     0.074 A 
ATOM     54  C   UNL A   1      48.739  31.451  27.694  1.00  0.00     0.029 A 
ATOM     55  N   UNL A   1      47.494  29.653  27.292  1.00  0.00    -0.354 N 
ATOM     56  N   UNL A   1      47.015  26.903  26.428  1.00  0.00    -0.248 NA
ATOM     57  C   UNL A   1      47.763  24.916  25.449  1.00  0.00     0.031 C 
ATOM     58  C   UNL A   1      49.543  30.487  27.074  1.00  0.00     0.029 A 
ATOM     59  C   UNL A   1      48.774  29.358  26.850  1.00  0.00     0.049 A 
ATOM     60  H   UNL A   1      46.726  29.039  27.250  1.00  0.00     0.167 HD
ATOM     61  C   UNL A   1      48.362  27.030  26.110  1.00  0.00     0.074 A 
ATOM     62  C   UNL A   1      48.778  25.765  25.538  1.00  0.00     0.031 C 
ATOM     63  C   UNL A   1      49.178  28.100  26.273  1.00  0.00     0.031 A 
BRANCH  50  64
ATOM     64  C   UNL A   1      46.404  33.013  28.801  1.00  0.00    -0.014 A 
ATOM     65  C   UNL A   1      46.788  33.344  30.112  1.00  0.00     0.010 A 
ATOM     66  C   UNL A   1      46.169  34.050  27.877  1.00  0.00     0.010 A 
ATOM     67  C   UNL A   1      46.891  34.684  30.503  1.00  0.00     0.020 A 
ATOM     68  C   UNL A   1      46.299  35.390  28.255  1.00  0.00     0.020 A 
ATOM     69  C   UNL A   1      46.641  35.698  29.573  1.00  0.00     0.054 A 
BRANCH  69  70
ATOM     70  S   UNL A   1      46.793  37.427  30.101  1.00  0.00     0.124 S 
ATOM     71  O   UNL A   1      47.868  37.347  31.086  1.00  0.00    -0.237 OA
ATOM     72  O   UNL A   1      47.133  38.115  28.857  1.00  0.00    -0.237 OA
ATOM     73  O   UNL A   1      45.474  37.743  30.642  1.00  0.00    -0.744 OA
ENDBRANCH  69  70
ENDBRANCH  50  64
BRANCH  51  74
ATOM     74  C   UNL A   1      45.138  23.628  25.653  1.00  0.00    -0.014 A 
ATOM     75  C   UNL A   1      44.769  23.395  24.317  1.00  0.00     0.010 A 
ATOM     76  C   UNL A   1      45.350  22.529  26.505  1.00  0.00     0.010 A 
ATOM     77  C   UNL A   1      44.610  22.088  23.845  1.00  0.00     0.020 A 
ATOM     78  C   UNL A   1      45.225  21.221  26.028  1.00  0.00     0.020 A 
ATOM     79  C   UNL A   1      44.846  21.009  24.703  1.00  0.00     0.054 A 
BRANCH  79  80
ATOM     80  S   UNL A   1      44.707  19.320  24.051  1.00  0.00     0.124 S 
ATOM     81  O   UNL A   1      44.689  19.551  22.611  1.00  0.00    -0.237 OA
ATOM     82  O   UNL A   1      45.911  18.678  24.574  1.00  0.00    -0.237 OA
ATOM     83  O   UNL A   1      43.454  18.836  24.626  1.00  0.00    -0.744 OA
ENDBRANCH  79  80
ENDBRANCH  51  74
BRANCH  63  84
ATOM     84  C   UNL A   1      50.615  27.941  25.852  1.00  0.00    -0.014 A 
ATOM     85  C   UNL A   1      51.590  27.467  26.748  1.00  0.00     0.010 A 
ATOM     86  C   UNL A   1      50.988  28.245  24.531  1.00  0.00     0.010 A 
ATOM     87  C   UNL A   1      52.920  27.335  26.340  1.00  0.00     0.020 A 
ATOM     88  C   UNL A   1      52.312  28.088  24.111  1.00  0.00     0.020 A 
ATOM     89  C   UNL A   1      53.274  27.650  25.024  1.00  0.00     0.054 A 
BRANCH  89  90
ATOM     90  S   UNL A   1      55.001  27.447  24.510  1.00  0.00     0.124 S 
ATOM     91  O   UNL A   1      54.864  26.649  23.294  1.00  0.00    -0.237 OA
ATOM     92  O   UNL A   1      55.443  28.826  24.311  1.00  0.00    -0.237 OA
ATOM     93  O   UNL A   1      55.621  26.758  25.640  1.00  0.00    -0.744 OA
ENDBRANCH  89  90
ENDBRANCH  63  84
ENDBRANCH  37  38
ENDBRANCH  30  32
ENDBRANCH  29  30
ENDBRANCH  28  29
ENDBRANCH   1  28
TORSDOF 19
ENDMDL
MODEL 3
REMARK VINA RESULT:     -10.4      2.490      8.356
REMARK SMILES COC(=O)C1=C(C)NC(C)=C(C(=O)OC)C1c1ccc(C(=O)OCCOC(=O)c2ccc(-c3c4nc(c(-c5ccc(S(=O)(=O)[O-])cc5)c5ccc([nH]5)c(-c5ccc(S(=O)(=O)[O-])cc5)c5nc(c(-c6ccc(S(=O)(=O)[O-])cc6)c6ccc3[nH]6)C=C5)C=C4)cc2)cc1
REMARK SMILES IDX 24 1 23 2 21 3 22 4 20 5 17 6 18 7 90 8 19 9 89 10 16 11
REMARK SMILES IDX 5 12 6 13 7 14 8 15 11 16 9 17 10 19 3 20 4 21 2 22 1 23
REMARK SMILES IDX 12 24 13 25 14 26 15 27 25 28 26 29 27 30 28 31 29 32 30 33
REMARK SMILES IDX 88 34 31 35 87 36 32 37 33 38 34 39 81 40 35 41 86 42 80 43
REMARK SMILES IDX 82 44 36 45 85 46 79 47 78 48 37 50 67 51 48 52 66 53 49 54
REMARK SMILES IDX 52 55 65 56 83 57 50 58 51 59 64 61 84 62 53 63 38 64 39 65
REMARK SMILES IDX 47 66 40 67 46 68 41 69 42 70 43 71 44 72 45 73 68 74 69 75
REMARK SMILES IDX 77 76 70 77 76 78 71 79 72 80 73 81 74 82 75 83 54 84 55 85
REMARK SMILES IDX 63 86 56 87 62 88 57 89 58 90 59 91 60 92 61 93
REMARK H PARENT 8 18 82 49 52 60
REMARK Flexibility Score: inf
ROOT
ATOM      1  C   UNL A   1      35.400  21.845  24.905  1.00  0.00     0.275 C 
ENDROOT
BRANCH   1   2
ATOM      2  O   UNL A   1      34.218  21.609  25.693  1.00  0.00    -0.458 OA
BRANCH   2   3
ATOM      3  C   UNL A   1      34.009  22.517  26.682  1.00  0.00     0.338 C 
ATOM      4  O   UNL A   1      34.129  22.308  27.874  1.00  0.00    -0.246 OA
BRANCH   3   5
ATOM      5  C   UNL A   1      33.685  23.862  26.138  1.00  0.00     0.060 A 
ATOM      6  C   UNL A   1      33.245  26.414  25.031  1.00  0.00    -0.035 A 
ATOM      7  C   UNL A   1      34.470  25.763  24.843  1.00  0.00     0.005 A 
ATOM      8  C   UNL A   1      32.237  25.764  25.776  1.00  0.00     0.005 A 
ATOM      9  C   UNL A   1      34.686  24.505  25.396  1.00  0.00     0.016 A 
ATOM     10  C   UNL A   1      32.455  24.495  26.327  1.00  0.00     0.016 A 
BRANCH   6  11
ATOM     11  C   UNL A   1      33.040  27.858  24.567  1.00  0.00     0.098 C 
ATOM     12  C   UNL A   1      31.947  27.928  23.495  1.00  0.00     0.068 C 
ATOM     13  C   UNL A   1      31.078  28.959  23.431  1.00  0.00     0.023 C 
ATOM     14  C   UNL A   1      29.957  29.083  22.431  1.00  0.00     0.065 C 
ATOM     15  N   UNL A   1      31.148  29.962  24.378  1.00  0.00    -0.362 N 
ATOM     16  C   UNL A   1      32.808  28.884  25.693  1.00  0.00     0.068 C 
ATOM     17  C   UNL A   1      31.903  29.884  25.540  1.00  0.00     0.023 C 
ATOM     18  H   UNL A   1      30.630  30.785  24.219  1.00  0.00     0.166 HD
ATOM     19  C   UNL A   1      31.581  30.950  26.563  1.00  0.00     0.065 C 
BRANCH  12  20
ATOM     20  C   UNL A   1      31.722  26.773  22.611  1.00  0.00     0.336 C 
ATOM     21  O   UNL A   1      30.752  26.036  22.692  1.00  0.00    -0.246 OA
BRANCH  20  22
ATOM     22  O   UNL A   1      32.691  26.720  21.663  1.00  0.00    -0.466 OA
ATOM     23  C   UNL A   1      32.711  25.497  20.923  1.00  0.00     0.282 C 
ENDBRANCH  20  22
ENDBRANCH  12  20
BRANCH  16  24
ATOM     24  C   UNL A   1      33.490  28.697  26.997  1.00  0.00     0.336 C 
ATOM     25  O   UNL A   1      32.932  28.261  27.993  1.00  0.00    -0.246 OA
BRANCH  24  26
ATOM     26  O   UNL A   1      34.808  29.000  26.904  1.00  0.00    -0.466 OA
ATOM     27  C   UNL A   1      35.121  30.333  27.324  1.00  0.00     0.282 C 
ENDBRANCH  24  26
ENDBRANCH  16  24
ENDBRANCH   6  11
ENDBRANCH   3   5
ENDBRANCH   2   3
ENDBRANCH   1   2
BRANCH   1  28
ATOM     28  C   UNL A   1      36.663  21.413  25.651  1.00  0.00     0.275 C 
BRANCH  28  29
ATOM     29  O   UNL A   1      37.701  22.405  25.547  1.00  0.00    -0.458 OA
BRANCH  29  30
ATOM     30  C   UNL A   1      38.854  22.101  26.186  1.00  0.00     0.338 C 
ATOM     31  O   UNL A   1      39.423  21.020  26.211  1.00  0.00    -0.246 OA
BRANCH  30  32
ATOM     32  C   UNL A   1      39.406  23.290  26.852  1.00  0.00     0.060 A 
ATOM     33  C   UNL A   1      39.008  24.547  26.405  1.00  0.00     0.016 A 
ATOM     34  C   UNL A   1      40.442  23.173  27.776  1.00  0.00     0.016 A 
ATOM     35  C   UNL A   1      39.695  25.689  26.815  1.00  0.00     0.010 A 
ATOM     36  C   UNL A   1      41.078  24.330  28.250  1.00  0.00     0.010 A 
ATOM     37  C   UNL A   1      40.739  25.602  27.746  1.00  0.00    -0.014 A 
BRANCH  37  38
ATOM     38  C   UNL A   1      41.500  26.824  28.148  1.00  0.00     0.031 A 
ATOM     39  C   UNL A   1      40.788  27.996  28.785  1.00  0.00     0.074 A 
ATOM     40  C   UNL A   1      42.835  26.892  27.966  1.00  0.00     0.049 A 
ATOM     41  N   UNL A   1      41.247  29.191  29.067  1.00  0.00    -0.248 NA
ATOM     42  C   UNL A   1      39.372  27.806  29.134  1.00  0.00     0.031 C 
ATOM     43  C   UNL A   1      43.671  25.830  27.400  1.00  0.00     0.029 A 
ATOM     44  N   UNL A   1      43.731  27.898  28.247  1.00  0.00    -0.354 N 
ATOM     45  C   UNL A   1      40.165  29.910  29.567  1.00  0.00     0.074 A 
ATOM     46  C   UNL A   1      39.025  29.019  29.543  1.00  0.00     0.031 C 
ATOM     47  C   UNL A   1      44.954  26.220  27.418  1.00  0.00     0.029 A 
ATOM     48  C   UNL A   1      45.029  27.591  27.910  1.00  0.00     0.049 A 
ATOM     49  H   UNL A   1      43.467  28.756  28.650  1.00  0.00     0.167 HD
ATOM     50  C   UNL A   1      40.123  31.194  30.001  1.00  0.00     0.031 A 
ATOM     51  C   UNL A   1      46.153  28.334  27.948  1.00  0.00     0.031 A 
ATOM     52  C   UNL A   1      41.267  32.067  30.070  1.00  0.00     0.049 A 
ATOM     53  C   UNL A   1      46.081  29.759  28.419  1.00  0.00     0.074 A 
ATOM     54  C   UNL A   1      41.325  33.375  30.522  1.00  0.00     0.029 A 
ATOM     55  N   UNL A   1      42.557  31.719  29.696  1.00  0.00    -0.354 N 
ATOM     56  N   UNL A   1      45.039  30.433  28.844  1.00  0.00    -0.248 NA
ATOM     57  C   UNL A   1      47.333  30.528  28.401  1.00  0.00     0.031 C 
ATOM     58  C   UNL A   1      42.640  33.833  30.374  1.00  0.00     0.029 A 
ATOM     59  C   UNL A   1      43.412  32.792  29.886  1.00  0.00     0.049 A 
ATOM     60  H   UNL A   1      42.824  30.838  29.345  1.00  0.00     0.167 HD
ATOM     61  C   UNL A   1      45.513  31.703  29.155  1.00  0.00     0.074 A 
ATOM     62  C   UNL A   1      46.937  31.695  28.892  1.00  0.00     0.031 C 
ATOM     63  C   UNL A   1      44.827  32.779  29.613  1.00  0.00     0.031 A 
BRANCH  50  64
ATOM     64  C   UNL A   1      38.779  31.758  30.393  1.00  0.00    -0.014 A 
ATOM     65  C   UNL A   1      38.328  31.744  31.724  1.00  0.00     0.010 A 
ATOM     66  C   UNL A   1      37.971  32.355  29.406  1.00  0.00     0.010 A 
ATOM     67  C   UNL A   1      37.076  32.274  32.053  1.00  0.00     0.020 A 
ATOM     68  C   UNL A   1      36.732  32.913  29.735  1.00  0.00     0.020 A 
ATOM     69  C   UNL A   1      36.283  32.851  31.055  1.00  0.00     0.054 A 
BRANCH  69  70
ATOM     70  S   UNL A   1      34.670  33.543  31.511  1.00  0.00     0.124 S 
ATOM     71  O   UNL A   1      34.054  32.428  32.224  1.00  0.00    -0.237 OA
ATOM     72  O   UNL A   1      35.034  34.692  32.338  1.00  0.00    -0.237 OA
ATOM     73  O   UNL A   1      34.058  33.875  30.226  1.00  0.00    -0.744 OA
ENDBRANCH  69  70
ENDBRANCH  50  64
BRANCH  51  74
ATOM     74  C   UNL A   1      47.439  27.749  27.474  1.00  0.00    -0.014 A 
ATOM     75  C   UNL A   1      47.858  27.912  26.143  1.00  0.00     0.010 A 
ATOM     76  C   UNL A   1      48.267  27.047  28.370  1.00  0.00     0.010 A 
ATOM     77  C   UNL A   1      49.079  27.380  25.715  1.00  0.00     0.020 A 
ATOM     78  C   UNL A   1      49.503  26.544  27.955  1.00  0.00     0.020 A 
ATOM     79  C   UNL A   1      49.897  26.704  26.627  1.00  0.00     0.054 A 
BRANCH  79  80
ATOM     80  S   UNL A   1      51.511  26.086  26.071  1.00  0.00     0.124 S 
ATOM     81  O   UNL A   1      51.486  24.706  26.544  1.00  0.00    -0.237 OA
ATOM     82  O   UNL A   1      51.435  26.260  24.622  1.00  0.00    -0.237 OA
ATOM     83  O   UNL A   1      52.463  26.964  26.747  1.00  0.00    -0.744 OA
ENDBRANCH  79  80
ENDBRANCH  51  74
BRANCH  63  84
ATOM     84  C   UNL A   1      45.614  34.033  29.886  1.00  0.00    -0.014 A 
ATOM     85  C   UNL A   1      46.214  34.260  31.137  1.00  0.00     0.010 A 
ATOM     86  C   UNL A   1      45.779  34.985  28.864  1.00  0.00     0.010 A 
ATOM     87  C   UNL A   1      46.934  35.434  31.374  1.00  0.00     0.020 A 
ATOM     88  C   UNL A   1      46.521  36.148  29.087  1.00  0.00     0.020 A 
ATOM     89  C   UNL A   1      47.080  36.373  30.347  1.00  0.00     0.054 A 
BRANCH  89  90
ATOM     90  S   UNL A   1      48.039  37.878  30.668  1.00  0.00     0.124 S 
ATOM     91  O   UNL A   1      49.137  37.371  31.487  1.00  0.00    -0.237 OA
ATOM     92  O   UNL A   1      48.409  38.318  29.324  1.00  0.00    -0.237 OA
ATOM     93  O   UNL A   1      47.095  38.751  31.363  1.00  0.00    -0.744 OA
ENDBRANCH  89  90
ENDBRANCH  63  84
ENDBRANCH  37  38
ENDBRANCH  30  32
ENDBRANCH  29  30
ENDBRANCH  28  29
ENDBRANCH   1  28
TORSDOF 19
ENDMDL
