MODEL 1
REMARK VINA RESULT:      -9.8      0.000      0.000
REMARK SMILES C[C@@H](CCO)SCc1cccc(/C=C/C(=O)OCCOC(=O)c2ccc(-c3c4nc(c(-c5ccc(S(=O)(=O)[O-])cc5)c5ccc([nH]5)c(-c5ccc(S(=O)(=O)[O-])cc5)c5nc(c(-c6ccc(S(=O)(=O)[O-])cc6)c6ccc3[nH]6)C=C5)C=C4)cc2)c1
REMARK SMILES IDX 15 1 16 2 14 3 13 4 12 5 8 6 9 7 83 8 10 9 11 10 7 11 6 12
REMARK SMILES IDX 2 13 1 14 3 15 4 16 5 17 17 19 18 20 19 21 20 22 21 23 22 24
REMARK SMILES IDX 23 25 24 26 82 27 25 28 81 29 26 30 27 31 28 32 75 33 29 34
REMARK SMILES IDX 80 35 74 36 76 37 30 38 79 39 73 40 72 41 31 43 61 44 42 45
REMARK SMILES IDX 60 46 43 47 46 48 59 49 77 50 44 51 45 52 58 54 78 55 47 56
REMARK SMILES IDX 32 57 33 58 41 59 34 60 40 61 35 62 36 63 37 64 38 65 39 66
REMARK SMILES IDX 62 67 63 68 71 69 64 70 70 71 65 72 66 73 67 74 68 75 69 76
REMARK SMILES IDX 48 77 49 78 57 79 50 80 56 81 51 82 52 83 53 84 54 85 55 86
REMARK H PARENT 5 18 76 42 46 53
REMARK Flexibility Score: inf
ROOT
ATOM      1  C   UNL A   1      40.549  21.196  26.492  1.00  0.00     0.330 C 
ATOM      2  O   UNL A   1      40.687  20.392  27.403  1.00  0.00    -0.247 OA
ENDROOT
BRANCH   1   3
ATOM      3  C   UNL A   1      39.225  21.773  26.181  1.00  0.00     0.094 C 
ATOM      4  C   UNL A   1      38.229  21.140  25.541  1.00  0.00     0.015 C 
BRANCH   4   5
ATOM      5  C   UNL A   1      37.001  21.828  25.117  1.00  0.00    -0.025 A 
ATOM      6  C   UNL A   1      34.652  21.729  24.414  1.00  0.00    -0.037 A 
ATOM      7  C   UNL A   1      34.693  23.108  24.170  1.00  0.00     0.004 A 
ATOM      8  C   UNL A   1      35.843  21.093  24.829  1.00  0.00     0.012 A 
ATOM      9  C   UNL A   1      35.840  23.849  24.447  1.00  0.00     0.001 A 
ATOM     10  C   UNL A   1      36.982  23.214  24.928  1.00  0.00     0.008 A 
BRANCH   6  11
ATOM     11  C   UNL A   1      33.414  20.887  24.196  1.00  0.00     0.105 C 
BRANCH  11  12
ATOM     12  S   UNL A   1      33.132  19.493  25.338  1.00  0.00    -0.154 SA
BRANCH  12  13
ATOM     13  C   UNL A   1      33.642  18.003  24.367  1.00  0.00     0.046 C 
ATOM     14  C   UNL A   1      35.131  17.704  24.499  1.00  0.00     0.019 C 
BRANCH  13  15
ATOM     15  C   UNL A   1      32.669  16.812  24.444  1.00  0.00     0.042 C 
BRANCH  15  16
ATOM     16  C   UNL A   1      32.864  15.729  25.503  1.00  0.00     0.157 C 
BRANCH  16  17
ATOM     17  O   UNL A   1      31.795  14.807  25.585  1.00  0.00    -0.396 OA
ATOM     18  H   UNL A   1      31.608  14.450  24.702  1.00  0.00     0.210 HD
ENDBRANCH  16  17
ENDBRANCH  15  16
ENDBRANCH  13  15
ENDBRANCH  12  13
ENDBRANCH  11  12
ENDBRANCH   6  11
ENDBRANCH   4   5
ENDBRANCH   1   3
BRANCH   1  19
ATOM     19  O   UNL A   1      41.536  21.713  25.725  1.00  0.00    -0.459 OA
BRANCH  19  20
ATOM     20  C   UNL A   1      42.757  22.042  26.414  1.00  0.00     0.275 C 
BRANCH  20  21
ATOM     21  C   UNL A   1      42.618  23.359  27.185  1.00  0.00     0.275 C 
BRANCH  21  22
ATOM     22  O   UNL A   1      42.424  24.483  26.306  1.00  0.00    -0.458 OA
BRANCH  22  23
ATOM     23  C   UNL A   1      41.218  25.093  26.411  1.00  0.00     0.338 C 
ATOM     24  O   UNL A   1      40.234  24.896  25.718  1.00  0.00    -0.246 OA
BRANCH  23  25
ATOM     25  C   UNL A   1      41.203  25.986  27.583  1.00  0.00     0.060 A 
ATOM     26  C   UNL A   1      40.151  25.853  28.493  1.00  0.00     0.016 A 
ATOM     27  C   UNL A   1      42.158  26.992  27.749  1.00  0.00     0.016 A 
ATOM     28  C   UNL A   1      40.041  26.734  29.568  1.00  0.00     0.010 A 
ATOM     29  C   UNL A   1      42.048  27.875  28.831  1.00  0.00     0.010 A 
ATOM     30  C   UNL A   1      40.981  27.761  29.739  1.00  0.00    -0.014 A 
BRANCH  30  31
ATOM     31  C   UNL A   1      40.818  28.728  30.853  1.00  0.00     0.031 A 
ATOM     32  C   UNL A   1      41.704  28.640  32.065  1.00  0.00     0.074 A 
ATOM     33  C   UNL A   1      39.894  29.702  30.766  1.00  0.00     0.049 A 
ATOM     34  N   UNL A   1      41.711  29.390  33.138  1.00  0.00    -0.248 NA
ATOM     35  C   UNL A   1      42.715  27.571  32.071  1.00  0.00     0.031 C 
ATOM     36  C   UNL A   1      38.992  29.910  29.631  1.00  0.00     0.029 A 
ATOM     37  N   UNL A   1      39.560  30.701  31.646  1.00  0.00    -0.354 N 
ATOM     38  C   UNL A   1      42.714  28.880  33.953  1.00  0.00     0.074 A 
ATOM     39  C   UNL A   1      43.282  27.742  33.259  1.00  0.00     0.031 C 
ATOM     40  C   UNL A   1      38.214  30.976  29.881  1.00  0.00     0.029 A 
ATOM     41  C   UNL A   1      38.534  31.503  31.205  1.00  0.00     0.049 A 
ATOM     42  H   UNL A   1      40.014  30.831  32.510  1.00  0.00     0.167 HD
ATOM     43  C   UNL A   1      43.130  29.320  35.165  1.00  0.00     0.031 A 
ATOM     44  C   UNL A   1      37.910  32.536  31.805  1.00  0.00     0.031 A 
ATOM     45  C   UNL A   1      42.560  30.445  35.859  1.00  0.00     0.049 A 
ATOM     46  C   UNL A   1      38.354  32.973  33.175  1.00  0.00     0.074 A 
ATOM     47  C   UNL A   1      42.926  30.975  37.085  1.00  0.00     0.029 A 
ATOM     48  N   UNL A   1      41.501  31.210  35.395  1.00  0.00    -0.354 N 
ATOM     49  N   UNL A   1      39.321  32.492  33.919  1.00  0.00    -0.248 NA
ATOM     50  C   UNL A   1      37.624  34.094  33.783  1.00  0.00     0.031 C 
ATOM     51  C   UNL A   1      42.056  32.031  37.384  1.00  0.00     0.029 A 
ATOM     52  C   UNL A   1      41.183  32.191  36.320  1.00  0.00     0.049 A 
ATOM     53  H   UNL A   1      41.041  31.075  34.535  1.00  0.00     0.167 HD
ATOM     54  C   UNL A   1      39.329  33.266  35.075  1.00  0.00     0.074 A 
ATOM     55  C   UNL A   1      38.280  34.254  34.924  1.00  0.00     0.031 C 
ATOM     56  C   UNL A   1      40.134  33.166  36.162  1.00  0.00     0.031 A 
BRANCH  43  57
ATOM     57  C   UNL A   1      44.239  28.555  35.839  1.00  0.00    -0.014 A 
ATOM     58  C   UNL A   1      45.578  28.971  35.734  1.00  0.00     0.010 A 
ATOM     59  C   UNL A   1      43.931  27.423  36.615  1.00  0.00     0.010 A 
ATOM     60  C   UNL A   1      46.594  28.244  36.362  1.00  0.00     0.020 A 
ATOM     61  C   UNL A   1      44.942  26.707  37.263  1.00  0.00     0.020 A 
ATOM     62  C   UNL A   1      46.270  27.113  37.117  1.00  0.00     0.054 A 
BRANCH  62  63
ATOM     63  S   UNL A   1      47.606  26.191  37.927  1.00  0.00     0.124 S 
ATOM     64  O   UNL A   1      48.346  25.667  36.783  1.00  0.00    -0.237 OA
ATOM     65  O   UNL A   1      48.291  27.227  38.697  1.00  0.00    -0.237 OA
ATOM     66  O   UNL A   1      46.903  25.190  38.725  1.00  0.00    -0.744 OA
ENDBRANCH  62  63
ENDBRANCH  43  57
BRANCH  44  67
ATOM     67  C   UNL A   1      36.783  33.219  31.114  1.00  0.00    -0.014 A 
ATOM     68  C   UNL A   1      36.995  33.920  29.916  1.00  0.00     0.010 A 
ATOM     69  C   UNL A   1      35.484  33.156  31.651  1.00  0.00     0.010 A 
ATOM     70  C   UNL A   1      35.929  34.556  29.271  1.00  0.00     0.020 A 
ATOM     71  C   UNL A   1      34.412  33.767  30.996  1.00  0.00     0.020 A 
ATOM     72  C   UNL A   1      34.644  34.473  29.814  1.00  0.00     0.054 A 
BRANCH  72  73
ATOM     73  S   UNL A   1      33.265  35.252  28.930  1.00  0.00     0.124 S 
ATOM     74  O   UNL A   1      32.410  35.693  30.028  1.00  0.00    -0.237 OA
ATOM     75  O   UNL A   1      33.929  36.315  28.178  1.00  0.00    -0.237 OA
ATOM     76  O   UNL A   1      32.726  34.166  28.114  1.00  0.00    -0.744 OA
ENDBRANCH  72  73
ENDBRANCH  44  67
BRANCH  56  77
ATOM     77  C   UNL A   1      39.931  34.169  37.266  1.00  0.00    -0.014 A 
ATOM     78  C   UNL A   1      40.463  35.467  37.178  1.00  0.00     0.010 A 
ATOM     79  C   UNL A   1      39.154  33.820  38.387  1.00  0.00     0.010 A 
ATOM     80  C   UNL A   1      40.247  36.390  38.206  1.00  0.00     0.020 A 
ATOM     81  C   UNL A   1      38.917  34.748  39.404  1.00  0.00     0.020 A 
ATOM     82  C   UNL A   1      39.477  36.023  39.314  1.00  0.00     0.054 A 
BRANCH  82  83
ATOM     83  S   UNL A   1      39.176  37.250  40.617  1.00  0.00     0.124 S 
ATOM     84  O   UNL A   1      38.633  36.424  41.692  1.00  0.00    -0.237 OA
ATOM     85  O   UNL A   1      40.509  37.799  40.858  1.00  0.00    -0.237 OA
ATOM     86  O   UNL A   1      38.229  38.179  40.005  1.00  0.00    -0.744 OA
ENDBRANCH  82  83
ENDBRANCH  56  77
ENDBRANCH  30  31
ENDBRANCH  23  25
ENDBRANCH  22  23
ENDBRANCH  21  22
ENDBRANCH  20  21
ENDBRANCH  19  20
ENDBRANCH   1  19
TORSDOF 21
ENDMDL
MODEL 2
REMARK VINA RESULT:      -9.8      0.670      8.358
REMARK SMILES C[C@@H](CCO)SCc1cccc(/C=C/C(=O)OCCOC(=O)c2ccc(-c3c4nc(c(-c5ccc(S(=O)(=O)[O-])cc5)c5ccc([nH]5)c(-c5ccc(S(=O)(=O)[O-])cc5)c5nc(c(-c6ccc(S(=O)(=O)[O-])cc6)c6ccc3[nH]6)C=C5)C=C4)cc2)c1
REMARK SMILES IDX 15 1 16 2 14 3 13 4 12 5 8 6 9 7 83 8 10 9 11 10 7 11 6 12
REMARK SMILES IDX 2 13 1 14 3 15 4 16 5 17 17 19 18 20 19 21 20 22 21 23 22 24
REMARK SMILES IDX 23 25 24 26 82 27 25 28 81 29 26 30 27 31 28 32 75 33 29 34
REMARK SMILES IDX 80 35 74 36 76 37 30 38 79 39 73 40 72 41 31 43 61 44 42 45
REMARK SMILES IDX 60 46 43 47 46 48 59 49 77 50 44 51 45 52 58 54 78 55 47 56
REMARK SMILES IDX 32 57 33 58 41 59 34 60 40 61 35 62 36 63 37 64 38 65 39 66
REMARK SMILES IDX 62 67 63 68 71 69 64 70 70 71 65 72 66 73 67 74 68 75 69 76
REMARK SMILES IDX 48 77 49 78 57 79 50 80 56 81 51 82 52 83 53 84 54 85 55 86
REMARK H PARENT 5 18 76 42 46 53
REMARK Flexibility Score: inf
ROOT
ATOM      1  C   UNL A   1      40.421  20.441  26.225  1.00  0.00     0.330 C 
ATOM      2  O   UNL A   1      41.002  19.381  26.043  1.00  0.00    -0.247 OA
ENDROOT
BRANCH   1   3
ATOM      3  C   UNL A   1      39.151  20.742  25.532  1.00  0.00     0.094 C 
ATOM      4  C   UNL A   1      38.435  21.869  25.670  1.00  0.00     0.015 C 
BRANCH   4   5
ATOM      5  C   UNL A   1      37.098  22.031  25.081  1.00  0.00    -0.025 A 
ATOM      6  C   UNL A   1      34.750  21.336  24.934  1.00  0.00    -0.037 A 
ATOM      7  C   UNL A   1      34.578  22.228  23.868  1.00  0.00     0.004 A 
ATOM      8  C   UNL A   1      36.042  21.205  25.489  1.00  0.00     0.012 A 
ATOM      9  C   UNL A   1      35.621  23.051  23.450  1.00  0.00     0.001 A 
ATOM     10  C   UNL A   1      36.870  22.960  24.060  1.00  0.00     0.008 A 
BRANCH   6  11
ATOM     11  C   UNL A   1      33.633  20.468  25.475  1.00  0.00     0.105 C 
BRANCH  11  12
ATOM     12  S   UNL A   1      32.574  19.609  24.263  1.00  0.00    -0.154 SA
BRANCH  12  13
ATOM     13  C   UNL A   1      33.195  17.866  24.276  1.00  0.00     0.046 C 
ATOM     14  C   UNL A   1      34.713  17.791  24.400  1.00  0.00     0.019 C 
BRANCH  13  15
ATOM     15  C   UNL A   1      32.365  16.886  25.123  1.00  0.00     0.042 C 
BRANCH  15  16
ATOM     16  C   UNL A   1      32.818  15.437  25.287  1.00  0.00     0.157 C 
BRANCH  16  17
ATOM     17  O   UNL A   1      32.061  14.699  26.225  1.00  0.00    -0.396 OA
ATOM     18  H   UNL A   1      31.231  15.167  26.410  1.00  0.00     0.210 HD
ENDBRANCH  16  17
ENDBRANCH  15  16
ENDBRANCH  13  15
ENDBRANCH  12  13
ENDBRANCH  11  12
ENDBRANCH   6  11
ENDBRANCH   4   5
ENDBRANCH   1   3
BRANCH   1  19
ATOM     19  O   UNL A   1      40.783  21.413  27.094  1.00  0.00    -0.459 OA
BRANCH  19  20
ATOM     20  C   UNL A   1      42.142  21.878  26.982  1.00  0.00     0.275 C 
BRANCH  20  21
ATOM     21  C   UNL A   1      42.213  23.189  26.193  1.00  0.00     0.275 C 
BRANCH  21  22
ATOM     22  O   UNL A   1      41.147  24.093  26.546  1.00  0.00    -0.458 OA
BRANCH  22  23
ATOM     23  C   UNL A   1      41.336  25.380  26.166  1.00  0.00     0.338 C 
ATOM     24  O   UNL A   1      41.599  25.782  25.044  1.00  0.00    -0.246 OA
BRANCH  23  25
ATOM     25  C   UNL A   1      41.069  26.286  27.296  1.00  0.00     0.060 A 
ATOM     26  C   UNL A   1      41.888  27.410  27.441  1.00  0.00     0.016 A 
ATOM     27  C   UNL A   1      40.086  26.002  28.247  1.00  0.00     0.016 A 
ATOM     28  C   UNL A   1      41.736  28.248  28.544  1.00  0.00     0.010 A 
ATOM     29  C   UNL A   1      39.933  26.846  29.353  1.00  0.00     0.010 A 
ATOM     30  C   UNL A   1      40.766  27.967  29.516  1.00  0.00    -0.014 A 
BRANCH  30  31
ATOM     31  C   UNL A   1      40.655  28.834  30.717  1.00  0.00     0.031 A 
ATOM     32  C   UNL A   1      39.618  29.922  30.769  1.00  0.00     0.074 A 
ATOM     33  C   UNL A   1      41.466  28.628  31.770  1.00  0.00     0.049 A 
ATOM     34  N   UNL A   1      39.371  30.781  31.725  1.00  0.00    -0.248 NA
ATOM     35  C   UNL A   1      38.744  30.061  29.593  1.00  0.00     0.031 C 
ATOM     36  C   UNL A   1      42.494  27.588  31.852  1.00  0.00     0.029 A 
ATOM     37  N   UNL A   1      41.554  29.281  32.974  1.00  0.00    -0.354 N 
ATOM     38  C   UNL A   1      38.323  31.570  31.267  1.00  0.00     0.074 A 
ATOM     39  C   UNL A   1      37.995  31.102  29.936  1.00  0.00     0.031 C 
ATOM     40  C   UNL A   1      43.102  27.669  33.048  1.00  0.00     0.029 A 
ATOM     41  C   UNL A   1      42.536  28.786  33.799  1.00  0.00     0.049 A 
ATOM     42  H   UNL A   1      40.968  30.032  33.222  1.00  0.00     0.167 HD
ATOM     43  C   UNL A   1      37.690  32.589  31.896  1.00  0.00     0.031 A 
ATOM     44  C   UNL A   1      42.946  29.196  35.015  1.00  0.00     0.031 A 
ATOM     45  C   UNL A   1      38.022  33.061  33.215  1.00  0.00     0.049 A 
ATOM     46  C   UNL A   1      42.261  30.363  35.672  1.00  0.00     0.074 A 
ATOM     47  C   UNL A   1      37.424  34.077  33.941  1.00  0.00     0.029 A 
ATOM     48  N   UNL A   1      39.044  32.556  34.004  1.00  0.00    -0.354 N 
ATOM     49  N   UNL A   1      41.257  31.083  35.232  1.00  0.00    -0.248 NA
ATOM     50  C   UNL A   1      42.764  30.771  36.991  1.00  0.00     0.031 C 
ATOM     51  C   UNL A   1      38.117  34.219  35.150  1.00  0.00     0.029 A 
ATOM     52  C   UNL A   1      39.111  33.255  35.198  1.00  0.00     0.049 A 
ATOM     53  H   UNL A   1      39.636  31.811  33.752  1.00  0.00     0.167 HD
ATOM     54  C   UNL A   1      40.994  32.016  36.229  1.00  0.00     0.074 A 
ATOM     55  C   UNL A   1      41.935  31.759  37.301  1.00  0.00     0.031 C 
ATOM     56  C   UNL A   1      40.056  32.995  36.255  1.00  0.00     0.031 A 
BRANCH  43  57
ATOM     57  C   UNL A   1      36.588  33.290  31.145  1.00  0.00    -0.014 A 
ATOM     58  C   UNL A   1      36.842  33.956  29.933  1.00  0.00     0.010 A 
ATOM     59  C   UNL A   1      35.273  33.251  31.644  1.00  0.00     0.010 A 
ATOM     60  C   UNL A   1      35.806  34.605  29.254  1.00  0.00     0.020 A 
ATOM     61  C   UNL A   1      34.231  33.880  30.956  1.00  0.00     0.020 A 
ATOM     62  C   UNL A   1      34.509  34.569  29.774  1.00  0.00     0.054 A 
BRANCH  62  63
ATOM     63  S   UNL A   1      33.182  35.413  28.869  1.00  0.00     0.124 S 
ATOM     64  O   UNL A   1      33.931  36.366  28.056  1.00  0.00    -0.237 OA
ATOM     65  O   UNL A   1      32.548  34.322  28.134  1.00  0.00    -0.237 OA
ATOM     66  O   UNL A   1      32.364  36.004  29.925  1.00  0.00    -0.744 OA
ENDBRANCH  62  63
ENDBRANCH  43  57
BRANCH  44  67
ATOM     67  C   UNL A   1      44.077  28.499  35.686  1.00  0.00    -0.014 A 
ATOM     68  C   UNL A   1      45.405  28.884  35.438  1.00  0.00     0.010 A 
ATOM     69  C   UNL A   1      43.824  27.451  36.590  1.00  0.00     0.010 A 
ATOM     70  C   UNL A   1      46.462  28.226  36.076  1.00  0.00     0.020 A 
ATOM     71  C   UNL A   1      44.876  26.809  37.249  1.00  0.00     0.020 A 
ATOM     72  C   UNL A   1      46.190  27.195  36.979  1.00  0.00     0.054 A 
BRANCH  72  73
ATOM     73  S   UNL A   1      47.572  26.396  37.842  1.00  0.00     0.124 S 
ATOM     74  O   UNL A   1      47.143  25.001  37.877  1.00  0.00    -0.237 OA
ATOM     75  O   UNL A   1      48.705  26.689  36.967  1.00  0.00    -0.237 OA
ATOM     76  O   UNL A   1      47.603  27.074  39.136  1.00  0.00    -0.744 OA
ENDBRANCH  72  73
ENDBRANCH  44  67
BRANCH  56  77
ATOM     77  C   UNL A   1      39.982  33.849  37.492  1.00  0.00    -0.014 A 
ATOM     78  C   UNL A   1      40.588  35.117  37.540  1.00  0.00     0.010 A 
ATOM     79  C   UNL A   1      39.251  33.395  38.606  1.00  0.00     0.010 A 
ATOM     80  C   UNL A   1      40.491  35.903  38.691  1.00  0.00     0.020 A 
ATOM     81  C   UNL A   1      39.133  34.189  39.750  1.00  0.00     0.020 A 
ATOM     82  C   UNL A   1      39.765  35.433  39.791  1.00  0.00     0.054 A 
BRANCH  82  83
ATOM     83  S   UNL A   1      39.619  36.487  41.260  1.00  0.00     0.124 S 
ATOM     84  O   UNL A   1      39.877  37.814  40.709  1.00  0.00    -0.237 OA
ATOM     85  O   UNL A   1      38.245  36.244  41.696  1.00  0.00    -0.237 OA
ATOM     86  O   UNL A   1      40.650  35.973  42.159  1.00  0.00    -0.744 OA
ENDBRANCH  82  83
ENDBRANCH  56  77
ENDBRANCH  30  31
ENDBRANCH  23  25
ENDBRANCH  22  23
ENDBRANCH  21  22
ENDBRANCH  20  21
ENDBRANCH  19  20
ENDBRANCH   1  19
TORSDOF 21
ENDMDL
MODEL 3
REMARK VINA RESULT:      -9.7      1.719      2.604
REMARK SMILES C[C@@H](CCO)SCc1cccc(/C=C/C(=O)OCCOC(=O)c2ccc(-c3c4nc(c(-c5ccc(S(=O)(=O)[O-])cc5)c5ccc([nH]5)c(-c5ccc(S(=O)(=O)[O-])cc5)c5nc(c(-c6ccc(S(=O)(=O)[O-])cc6)c6ccc3[nH]6)C=C5)C=C4)cc2)c1
REMARK SMILES IDX 15 1 16 2 14 3 13 4 12 5 8 6 9 7 83 8 10 9 11 10 7 11 6 12
REMARK SMILES IDX 2 13 1 14 3 15 4 16 5 17 17 19 18 20 19 21 20 22 21 23 22 24
REMARK SMILES IDX 23 25 24 26 82 27 25 28 81 29 26 30 27 31 28 32 75 33 29 34
REMARK SMILES IDX 80 35 74 36 76 37 30 38 79 39 73 40 72 41 31 43 61 44 42 45
REMARK SMILES IDX 60 46 43 47 46 48 59 49 77 50 44 51 45 52 58 54 78 55 47 56
REMARK SMILES IDX 32 57 33 58 41 59 34 60 40 61 35 62 36 63 37 64 38 65 39 66
REMARK SMILES IDX 62 67 63 68 71 69 64 70 70 71 65 72 66 73 67 74 68 75 69 76
REMARK SMILES IDX 48 77 49 78 57 79 50 80 56 81 51 82 52 83 53 84 54 85 55 86
REMARK H PARENT 5 18 76 42 46 53
REMARK Flexibility Score: inf
ROOT
ATOM      1  C   UNL A   1      40.447  21.326  26.659  1.00  0.00     0.330 C 
ATOM      2  O   UNL A   1      40.551  21.329  27.877  1.00  0.00    -0.247 OA
ENDROOT
BRANCH   1   3
ATOM      3  C   UNL A   1      39.139  21.538  26.006  1.00  0.00     0.094 C 
ATOM      4  C   UNL A   1      38.421  22.672  26.047  1.00  0.00     0.015 C 
BRANCH   4   5
ATOM      5  C   UNL A   1      37.052  22.758  25.516  1.00  0.00    -0.025 A 
ATOM      6  C   UNL A   1      34.987  24.039  25.181  1.00  0.00    -0.037 A 
ATOM      7  C   UNL A   1      34.393  22.894  24.637  1.00  0.00     0.004 A 
ATOM      8  C   UNL A   1      36.305  23.933  25.677  1.00  0.00     0.012 A 
ATOM      9  C   UNL A   1      35.124  21.718  24.476  1.00  0.00     0.001 A 
ATOM     10  C   UNL A   1      36.448  21.655  24.903  1.00  0.00     0.008 A 
BRANCH   6  11
ATOM     11  C   UNL A   1      34.262  25.361  25.317  1.00  0.00     0.105 C 
BRANCH  11  12
ATOM     12  S   UNL A   1      32.950  25.730  24.105  1.00  0.00    -0.154 SA
BRANCH  12  13
ATOM     13  C   UNL A   1      31.387  25.644  25.091  1.00  0.00     0.046 C 
ATOM     14  C   UNL A   1      30.154  25.467  24.212  1.00  0.00     0.019 C 
BRANCH  13  15
ATOM     15  C   UNL A   1      31.473  24.796  26.373  1.00  0.00     0.042 C 
BRANCH  15  16
ATOM     16  C   UNL A   1      30.937  23.366  26.386  1.00  0.00     0.157 C 
BRANCH  16  17
ATOM     17  O   UNL A   1      31.316  22.621  27.526  1.00  0.00    -0.396 OA
ATOM     18  H   UNL A   1      31.887  23.163  28.092  1.00  0.00     0.210 HD
ENDBRANCH  16  17
ENDBRANCH  15  16
ENDBRANCH  13  15
ENDBRANCH  12  13
ENDBRANCH  11  12
ENDBRANCH   6  11
ENDBRANCH   4   5
ENDBRANCH   1   3
BRANCH   1  19
ATOM     19  O   UNL A   1      41.461  21.215  25.770  1.00  0.00    -0.459 OA
BRANCH  19  20
ATOM     20  C   UNL A   1      42.688  21.876  26.135  1.00  0.00     0.275 C 
BRANCH  20  21
ATOM     21  C   UNL A   1      42.737  23.299  25.568  1.00  0.00     0.275 C 
BRANCH  21  22
ATOM     22  O   UNL A   1      41.947  24.219  26.346  1.00  0.00    -0.458 OA
BRANCH  22  23
ATOM     23  C   UNL A   1      42.027  25.515  25.958  1.00  0.00     0.338 C 
ATOM     24  O   UNL A   1      42.280  25.931  24.839  1.00  0.00    -0.246 OA
BRANCH  23  25
ATOM     25  C   UNL A   1      41.652  26.402  27.073  1.00  0.00     0.060 A 
ATOM     26  C   UNL A   1      42.344  27.609  27.211  1.00  0.00     0.016 A 
ATOM     27  C   UNL A   1      40.694  26.025  28.018  1.00  0.00     0.016 A 
ATOM     28  C   UNL A   1      42.089  28.439  28.300  1.00  0.00     0.010 A 
ATOM     29  C   UNL A   1      40.438  26.862  29.111  1.00  0.00     0.010 A 
ATOM     30  C   UNL A   1      41.144  28.068  29.267  1.00  0.00    -0.014 A 
BRANCH  30  31
ATOM     31  C   UNL A   1      40.927  28.933  30.454  1.00  0.00     0.031 A 
ATOM     32  C   UNL A   1      41.807  28.788  31.665  1.00  0.00     0.074 A 
ATOM     33  C   UNL A   1      39.957  29.865  30.435  1.00  0.00     0.049 A 
ATOM     34  N   UNL A   1      41.770  29.447  32.795  1.00  0.00    -0.248 NA
ATOM     35  C   UNL A   1      42.868  27.771  31.596  1.00  0.00     0.031 C 
ATOM     36  C   UNL A   1      39.055  30.122  29.311  1.00  0.00     0.029 A 
ATOM     37  N   UNL A   1      39.569  30.773  31.389  1.00  0.00    -0.354 N 
ATOM     38  C   UNL A   1      42.790  28.921  33.577  1.00  0.00     0.074 A 
ATOM     39  C   UNL A   1      43.417  27.871  32.799  1.00  0.00     0.031 C 
ATOM     40  C   UNL A   1      38.225  31.127  29.637  1.00  0.00     0.029 A 
ATOM     41  C   UNL A   1      38.510  31.559  31.004  1.00  0.00     0.049 A 
ATOM     42  H   UNL A   1      40.010  30.853  32.267  1.00  0.00     0.167 HD
ATOM     43  C   UNL A   1      43.175  29.279  34.826  1.00  0.00     0.031 A 
ATOM     44  C   UNL A   1      37.832  32.508  31.679  1.00  0.00     0.031 A 
ATOM     45  C   UNL A   1      42.547  30.316  35.602  1.00  0.00     0.049 A 
ATOM     46  C   UNL A   1      38.244  32.852  33.084  1.00  0.00     0.074 A 
ATOM     47  C   UNL A   1      42.878  30.761  36.871  1.00  0.00     0.029 A 
ATOM     48  N   UNL A   1      41.455  31.066  35.190  1.00  0.00    -0.354 N 
ATOM     49  N   UNL A   1      39.228  32.359  33.798  1.00  0.00    -0.248 NA
ATOM     50  C   UNL A   1      37.457  33.884  33.772  1.00  0.00     0.031 C 
ATOM     51  C   UNL A   1      41.956  31.747  37.245  1.00  0.00     0.029 A 
ATOM     52  C   UNL A   1      41.084  31.952  36.187  1.00  0.00     0.049 A 
ATOM     53  H   UNL A   1      41.010  30.979  34.316  1.00  0.00     0.167 HD
ATOM     54  C   UNL A   1      39.190  33.036  35.013  1.00  0.00     0.074 A 
ATOM     55  C   UNL A   1      38.096  33.982  34.930  1.00  0.00     0.031 C 
ATOM     56  C   UNL A   1      39.991  32.886  36.097  1.00  0.00     0.031 A 
BRANCH  43  57
ATOM     57  C   UNL A   1      44.315  28.515  35.447  1.00  0.00    -0.014 A 
ATOM     58  C   UNL A   1      44.095  27.303  36.126  1.00  0.00     0.010 A 
ATOM     59  C   UNL A   1      45.629  29.001  35.319  1.00  0.00     0.010 A 
ATOM     60  C   UNL A   1      45.166  26.612  36.701  1.00  0.00     0.020 A 
ATOM     61  C   UNL A   1      46.704  28.300  35.873  1.00  0.00     0.020 A 
ATOM     62  C   UNL A   1      46.463  27.118  36.576  1.00  0.00     0.054 A 
BRANCH  62  63
ATOM     63  S   UNL A   1      47.835  26.198  37.324  1.00  0.00     0.124 S 
ATOM     64  O   UNL A   1      48.936  27.149  37.203  1.00  0.00    -0.237 OA
ATOM     65  O   UNL A   1      47.359  25.959  38.685  1.00  0.00    -0.237 OA
ATOM     66  O   UNL A   1      47.948  25.005  36.490  1.00  0.00    -0.744 OA
ENDBRANCH  62  63
ENDBRANCH  43  57
BRANCH  44  67
ATOM     67  C   UNL A   1      36.679  33.191  31.033  1.00  0.00    -0.014 A 
ATOM     68  C   UNL A   1      36.812  33.780  29.764  1.00  0.00     0.010 A 
ATOM     69  C   UNL A   1      35.433  33.242  31.684  1.00  0.00     0.010 A 
ATOM     70  C   UNL A   1      35.721  34.416  29.162  1.00  0.00     0.020 A 
ATOM     71  C   UNL A   1      34.335  33.854  31.076  1.00  0.00     0.020 A 
ATOM     72  C   UNL A   1      34.489  34.446  29.821  1.00  0.00     0.054 A 
BRANCH  72  73
ATOM     73  S   UNL A   1      33.071  35.223  28.997  1.00  0.00     0.124 S 
ATOM     74  O   UNL A   1      32.150  35.433  30.110  1.00  0.00    -0.237 OA
ATOM     75  O   UNL A   1      33.659  36.431  28.424  1.00  0.00    -0.237 OA
ATOM     76  O   UNL A   1      32.654  34.220  28.020  1.00  0.00    -0.744 OA
ENDBRANCH  72  73
ENDBRANCH  44  67
BRANCH  56  77
ATOM     77  C   UNL A   1      39.732  33.784  37.276  1.00  0.00    -0.014 A 
ATOM     78  C   UNL A   1      38.896  33.379  38.331  1.00  0.00     0.010 A 
ATOM     79  C   UNL A   1      40.376  35.034  37.352  1.00  0.00     0.010 A 
ATOM     80  C   UNL A   1      38.684  34.220  39.427  1.00  0.00     0.020 A 
ATOM     81  C   UNL A   1      40.185  35.867  38.458  1.00  0.00     0.020 A 
ATOM     82  C   UNL A   1      39.328  35.460  39.483  1.00  0.00     0.054 A 
BRANCH  82  83
ATOM     83  S   UNL A   1      39.070  36.518  40.934  1.00  0.00     0.124 S 
ATOM     84  O   UNL A   1      38.626  37.768  40.324  1.00  0.00    -0.237 OA
ATOM     85  O   UNL A   1      38.050  35.790  41.687  1.00  0.00    -0.237 OA
ATOM     86  O   UNL A   1      40.386  36.565  41.566  1.00  0.00    -0.744 OA
ENDBRANCH  82  83
ENDBRANCH  56  77
ENDBRANCH  30  31
ENDBRANCH  23  25
ENDBRANCH  22  23
ENDBRANCH  21  22
ENDBRANCH  20  21
ENDBRANCH  19  20
ENDBRANCH   1  19
TORSDOF 21
ENDMDL
