MODEL 1
REMARK VINA RESULT:     -10.5      0.000      0.000
REMARK SMILES CC[C@H](CNC(=O)[C@H]1CSc2ccccc21)C(=O)OCCOC(=O)c1ccc(-c2c3nc(c(-c4ccc(S(=O)(=O)[O-])cc4)c4ccc([nH]4)c(-c4ccc(S(=O)(=O)[O-])cc4)c4nc(c(-c5ccc(S(=O)(=O)[O-])cc5)c5ccc2[nH]5)C=C4)C=C3)cc1
REMARK SMILES IDX 20 1 19 2 17 3 18 4 3 5 2 6 1 7 4 8 5 9 6 10 7 12 8 13 9 14
REMARK SMILES IDX 16 15 10 16 11 17 15 18 12 19 14 20 13 21 21 22 22 23 23 24
REMARK SMILES IDX 24 25 25 26 26 27 84 28 27 29 83 30 28 31 29 32 30 33 77 34
REMARK SMILES IDX 31 35 82 36 76 37 78 38 32 39 81 40 75 41 74 42 33 44 63 45
REMARK SMILES IDX 44 46 62 47 45 48 48 49 61 50 79 51 46 52 47 53 60 55 80 56
REMARK SMILES IDX 49 57 34 58 35 59 43 60 36 61 42 62 37 63 38 64 39 65 40 66
REMARK SMILES IDX 41 67 64 68 65 69 73 70 66 71 72 72 67 73 68 74 69 75 70 76
REMARK SMILES IDX 71 77 50 78 51 79 59 80 52 81 58 82 53 83 54 84 55 85 56 86
REMARK SMILES IDX 57 87
REMARK H PARENT 5 11 78 43 48 54
REMARK Flexibility Score: inf
ROOT
ATOM      1  C   UNL A   1      33.073  29.296  25.234  1.00  0.00     0.274 C 
ENDROOT
BRANCH   1   2
ATOM      2  O   UNL A   1      31.726  28.781  25.160  1.00  0.00    -0.462 OA
BRANCH   2   3
ATOM      3  C   UNL A   1      31.357  28.248  23.966  1.00  0.00     0.310 C 
ATOM      4  O   UNL A   1      30.900  28.900  23.034  1.00  0.00    -0.252 OA
BRANCH   3   5
ATOM      5  C   UNL A   1      31.535  26.734  23.883  1.00  0.00     0.118 C 
BRANCH   5   6
ATOM      6  C   UNL A   1      30.845  26.119  25.114  1.00  0.00     0.014 C 
ATOM      7  C   UNL A   1      29.340  25.956  24.966  1.00  0.00     0.005 C 
ENDBRANCH   5   6
BRANCH   5   8
ATOM      8  C   UNL A   1      32.997  26.304  23.691  1.00  0.00     0.131 C 
BRANCH   8   9
ATOM      9  N   UNL A   1      33.215  25.515  22.478  1.00  0.00    -0.355 N 
ATOM     10  C   UNL A   1      33.237  24.160  22.288  1.00  0.00     0.228 C 
ATOM     11  H   UNL A   1      33.373  26.047  21.665  1.00  0.00     0.163 HD
ATOM     12  O   UNL A   1      33.296  23.760  21.122  1.00  0.00    -0.274 OA
BRANCH  10  13
ATOM     13  C   UNL A   1      33.207  23.207  23.472  1.00  0.00     0.120 C 
ATOM     14  C   UNL A   1      32.318  21.990  23.175  1.00  0.00     0.093 C 
ATOM     15  C   UNL A   1      34.547  22.605  23.835  1.00  0.00    -0.021 A 
ATOM     16  S   UNL A   1      32.769  20.756  24.442  1.00  0.00    -0.125 SA
ATOM     17  C   UNL A   1      34.437  21.357  24.464  1.00  0.00     0.011 A 
ATOM     18  C   UNL A   1      35.797  23.184  23.663  1.00  0.00     0.006 A 
ATOM     19  C   UNL A   1      35.545  20.697  24.970  1.00  0.00     0.015 A 
ATOM     20  C   UNL A   1      36.923  22.507  24.134  1.00  0.00     0.000 A 
ATOM     21  C   UNL A   1      36.798  21.284  24.805  1.00  0.00     0.001 A 
ENDBRANCH  10  13
ENDBRANCH   8   9
ENDBRANCH   5   8
ENDBRANCH   3   5
ENDBRANCH   2   3
ENDBRANCH   1   2
BRANCH   1  22
ATOM     22  C   UNL A   1      33.759  28.948  26.563  1.00  0.00     0.275 C 
BRANCH  22  23
ATOM     23  O   UNL A   1      33.427  29.869  27.620  1.00  0.00    -0.458 OA
BRANCH  23  24
ATOM     24  C   UNL A   1      34.349  30.837  27.831  1.00  0.00     0.338 C 
ATOM     25  O   UNL A   1      34.130  32.034  27.914  1.00  0.00    -0.246 OA
BRANCH  24  26
ATOM     26  C   UNL A   1      35.669  30.246  28.107  1.00  0.00     0.060 A 
ATOM     27  C   UNL A   1      36.721  30.354  27.197  1.00  0.00     0.016 A 
ATOM     28  C   UNL A   1      35.878  29.674  29.364  1.00  0.00     0.016 A 
ATOM     29  C   UNL A   1      37.990  29.887  27.560  1.00  0.00     0.010 A 
ATOM     30  C   UNL A   1      37.146  29.239  29.734  1.00  0.00     0.010 A 
ATOM     31  C   UNL A   1      38.216  29.338  28.834  1.00  0.00    -0.014 A 
BRANCH  31  32
ATOM     32  C   UNL A   1      39.562  28.882  29.258  1.00  0.00     0.031 A 
ATOM     33  C   UNL A   1      40.449  29.792  30.058  1.00  0.00     0.074 A 
ATOM     34  C   UNL A   1      40.020  27.678  28.861  1.00  0.00     0.049 A 
ATOM     35  N   UNL A   1      41.623  29.540  30.576  1.00  0.00    -0.248 NA
ATOM     36  C   UNL A   1      39.962  31.159  30.305  1.00  0.00     0.031 C 
ATOM     37  C   UNL A   1      39.273  26.726  28.044  1.00  0.00     0.029 A 
ATOM     38  N   UNL A   1      41.222  27.053  29.082  1.00  0.00    -0.354 N 
ATOM     39  C   UNL A   1      42.000  30.702  31.234  1.00  0.00     0.074 A 
ATOM     40  C   UNL A   1      40.972  31.687  30.982  1.00  0.00     0.031 C 
ATOM     41  C   UNL A   1      40.032  25.642  27.820  1.00  0.00     0.029 A 
ATOM     42  C   UNL A   1      41.312  25.810  28.500  1.00  0.00     0.049 A 
ATOM     43  H   UNL A   1      41.951  27.456  29.609  1.00  0.00     0.167 HD
ATOM     44  C   UNL A   1      43.085  30.913  32.015  1.00  0.00     0.031 A 
ATOM     45  C   UNL A   1      42.295  24.887  28.537  1.00  0.00     0.031 A 
ATOM     46  C   UNL A   1      44.107  29.929  32.250  1.00  0.00     0.049 A 
ATOM     47  C   UNL A   1      43.506  25.145  29.386  1.00  0.00     0.074 A 
ATOM     48  C   UNL A   1      45.206  30.018  33.085  1.00  0.00     0.029 A 
ATOM     49  N   UNL A   1      44.162  28.684  31.641  1.00  0.00    -0.354 N 
ATOM     50  N   UNL A   1      43.784  26.201  30.113  1.00  0.00    -0.248 NA
ATOM     51  C   UNL A   1      44.514  24.079  29.458  1.00  0.00     0.031 C 
ATOM     52  C   UNL A   1      45.958  28.849  32.937  1.00  0.00     0.029 A 
ATOM     53  C   UNL A   1      45.296  28.007  32.055  1.00  0.00     0.049 A 
ATOM     54  H   UNL A   1      43.496  28.335  31.008  1.00  0.00     0.167 HD
ATOM     55  C   UNL A   1      44.983  25.916  30.753  1.00  0.00     0.074 A 
ATOM     56  C   UNL A   1      45.378  24.588  30.330  1.00  0.00     0.031 C 
ATOM     57  C   UNL A   1      45.683  26.686  31.623  1.00  0.00     0.031 A 
BRANCH  44  58
ATOM     58  C   UNL A   1      43.201  32.249  32.700  1.00  0.00    -0.014 A 
ATOM     59  C   UNL A   1      42.540  32.482  33.919  1.00  0.00     0.010 A 
ATOM     60  C   UNL A   1      43.924  33.297  32.101  1.00  0.00     0.010 A 
ATOM     61  C   UNL A   1      42.602  33.738  34.528  1.00  0.00     0.020 A 
ATOM     62  C   UNL A   1      44.011  34.546  32.720  1.00  0.00     0.020 A 
ATOM     63  C   UNL A   1      43.337  34.763  33.923  1.00  0.00     0.054 A 
BRANCH  63  64
ATOM     64  S   UNL A   1      43.440  36.379  34.743  1.00  0.00     0.124 S 
ATOM     65  O   UNL A   1      42.065  36.859  34.649  1.00  0.00    -0.237 OA
ATOM     66  O   UNL A   1      43.898  36.032  36.085  1.00  0.00    -0.237 OA
ATOM     67  O   UNL A   1      44.414  37.107  33.934  1.00  0.00    -0.744 OA
ENDBRANCH  63  64
ENDBRANCH  44  58
BRANCH  45  68
ATOM     68  C   UNL A   1      42.086  23.593  27.834  1.00  0.00    -0.014 A 
ATOM     69  C   UNL A   1      41.332  22.564  28.428  1.00  0.00     0.010 A 
ATOM     70  C   UNL A   1      42.755  23.340  26.623  1.00  0.00     0.010 A 
ATOM     71  C   UNL A   1      41.294  21.291  27.851  1.00  0.00     0.020 A 
ATOM     72  C   UNL A   1      42.704  22.073  26.035  1.00  0.00     0.020 A 
ATOM     73  C   UNL A   1      41.999  21.049  26.669  1.00  0.00     0.054 A 
BRANCH  73  74
ATOM     74  S   UNL A   1      42.013  19.367  25.986  1.00  0.00     0.124 S 
ATOM     75  O   UNL A   1      40.606  19.169  25.651  1.00  0.00    -0.237 OA
ATOM     76  O   UNL A   1      42.921  19.492  24.848  1.00  0.00    -0.237 OA
ATOM     77  O   UNL A   1      42.512  18.552  27.091  1.00  0.00    -0.744 OA
ENDBRANCH  73  74
ENDBRANCH  45  68
BRANCH  57  78
ATOM     78  C   UNL A   1      46.964  26.135  32.188  1.00  0.00    -0.014 A 
ATOM     79  C   UNL A   1      48.157  26.257  31.451  1.00  0.00     0.010 A 
ATOM     80  C   UNL A   1      46.957  25.365  33.363  1.00  0.00     0.010 A 
ATOM     81  C   UNL A   1      49.309  25.577  31.852  1.00  0.00     0.020 A 
ATOM     82  C   UNL A   1      48.115  24.704  33.780  1.00  0.00     0.020 A 
ATOM     83  C   UNL A   1      49.275  24.790  33.006  1.00  0.00     0.054 A 
BRANCH  83  84
ATOM     84  S   UNL A   1      50.759  23.861  33.477  1.00  0.00     0.124 S 
ATOM     85  O   UNL A   1      51.735  24.926  33.682  1.00  0.00    -0.237 OA
ATOM     86  O   UNL A   1      50.331  23.159  34.685  1.00  0.00    -0.237 OA
ATOM     87  O   UNL A   1      51.005  23.000  32.322  1.00  0.00    -0.744 OA
ENDBRANCH  83  84
ENDBRANCH  57  78
ENDBRANCH  31  32
ENDBRANCH  24  26
ENDBRANCH  23  24
ENDBRANCH  22  23
ENDBRANCH   1  22
TORSDOF 18
ENDMDL
MODEL 2
REMARK VINA RESULT:     -10.4      2.990      9.455
REMARK SMILES CC[C@H](CNC(=O)[C@H]1CSc2ccccc21)C(=O)OCCOC(=O)c1ccc(-c2c3nc(c(-c4ccc(S(=O)(=O)[O-])cc4)c4ccc([nH]4)c(-c4ccc(S(=O)(=O)[O-])cc4)c4nc(c(-c5ccc(S(=O)(=O)[O-])cc5)c5ccc2[nH]5)C=C4)C=C3)cc1
REMARK SMILES IDX 20 1 19 2 17 3 18 4 3 5 2 6 1 7 4 8 5 9 6 10 7 12 8 13 9 14
REMARK SMILES IDX 16 15 10 16 11 17 15 18 12 19 14 20 13 21 21 22 22 23 23 24
REMARK SMILES IDX 24 25 25 26 26 27 84 28 27 29 83 30 28 31 29 32 30 33 77 34
REMARK SMILES IDX 31 35 82 36 76 37 78 38 32 39 81 40 75 41 74 42 33 44 63 45
REMARK SMILES IDX 44 46 62 47 45 48 48 49 61 50 79 51 46 52 47 53 60 55 80 56
REMARK SMILES IDX 49 57 34 58 35 59 43 60 36 61 42 62 37 63 38 64 39 65 40 66
REMARK SMILES IDX 41 67 64 68 65 69 73 70 66 71 72 72 67 73 68 74 69 75 70 76
REMARK SMILES IDX 71 77 50 78 51 79 59 80 52 81 58 82 53 83 54 84 55 85 56 86
REMARK SMILES IDX 57 87
REMARK H PARENT 5 11 78 43 48 54
REMARK Flexibility Score: inf
ROOT
ATOM      1  C   UNL A   1      35.409  23.635  26.228  1.00  0.00     0.274 C 
ENDROOT
BRANCH   1   2
ATOM      2  O   UNL A   1      34.115  23.600  25.590  1.00  0.00    -0.462 OA
BRANCH   2   3
ATOM      3  C   UNL A   1      33.153  22.886  26.232  1.00  0.00     0.310 C 
ATOM      4  O   UNL A   1      33.012  22.864  27.451  1.00  0.00    -0.252 OA
BRANCH   3   5
ATOM      5  C   UNL A   1      32.256  22.077  25.300  1.00  0.00     0.118 C 
BRANCH   5   6
ATOM      6  C   UNL A   1      33.156  21.454  24.218  1.00  0.00     0.014 C 
ATOM      7  C   UNL A   1      33.765  20.118  24.611  1.00  0.00     0.005 C 
ENDBRANCH   5   6
BRANCH   5   8
ATOM      8  C   UNL A   1      31.066  22.880  24.753  1.00  0.00     0.131 C 
BRANCH   8   9
ATOM      9  N   UNL A   1      30.332  23.608  25.788  1.00  0.00    -0.355 N 
ATOM     10  C   UNL A   1      30.041  24.941  25.904  1.00  0.00     0.228 C 
ATOM     11  H   UNL A   1      29.991  23.047  26.521  1.00  0.00     0.163 HD
ATOM     12  O   UNL A   1      29.271  25.268  26.811  1.00  0.00    -0.274 OA
BRANCH  10  13
ATOM     13  C   UNL A   1      30.663  25.958  24.961  1.00  0.00     0.120 C 
ATOM     14  C   UNL A   1      29.653  26.405  23.893  1.00  0.00     0.093 C 
ATOM     15  C   UNL A   1      31.099  27.248  25.620  1.00  0.00    -0.021 A 
ATOM     16  S   UNL A   1      30.363  27.928  23.181  1.00  0.00    -0.125 SA
ATOM     17  C   UNL A   1      31.095  28.342  24.742  1.00  0.00     0.011 A 
ATOM     18  C   UNL A   1      31.538  27.413  26.926  1.00  0.00     0.006 A 
ATOM     19  C   UNL A   1      31.568  29.586  25.128  1.00  0.00     0.015 A 
ATOM     20  C   UNL A   1      31.978  28.673  27.335  1.00  0.00     0.000 A 
ATOM     21  C   UNL A   1      32.017  29.747  26.437  1.00  0.00     0.001 A 
ENDBRANCH  10  13
ENDBRANCH   8   9
ENDBRANCH   5   8
ENDBRANCH   3   5
ENDBRANCH   2   3
ENDBRANCH   1   2
BRANCH   1  22
ATOM     22  C   UNL A   1      36.438  22.749  25.510  1.00  0.00     0.275 C 
BRANCH  22  23
ATOM     23  O   UNL A   1      37.687  23.428  25.270  1.00  0.00    -0.458 OA
BRANCH  23  24
ATOM     24  C   UNL A   1      38.696  23.053  26.090  1.00  0.00     0.338 C 
ATOM     25  O   UNL A   1      39.162  21.930  26.191  1.00  0.00    -0.246 OA
BRANCH  24  26
ATOM     26  C   UNL A   1      39.284  24.224  26.760  1.00  0.00     0.060 A 
ATOM     27  C   UNL A   1      40.071  25.143  26.065  1.00  0.00     0.016 A 
ATOM     28  C   UNL A   1      38.933  24.459  28.092  1.00  0.00     0.016 A 
ATOM     29  C   UNL A   1      40.501  26.306  26.715  1.00  0.00     0.010 A 
ATOM     30  C   UNL A   1      39.335  25.630  28.727  1.00  0.00     0.010 A 
ATOM     31  C   UNL A   1      40.126  26.564  28.046  1.00  0.00    -0.014 A 
BRANCH  31  32
ATOM     32  C   UNL A   1      40.529  27.813  28.739  1.00  0.00     0.031 A 
ATOM     33  C   UNL A   1      41.893  27.927  29.355  1.00  0.00     0.074 A 
ATOM     34  C   UNL A   1      39.642  28.817  28.882  1.00  0.00     0.049 A 
ATOM     35  N   UNL A   1      42.442  28.962  29.936  1.00  0.00    -0.248 NA
ATOM     36  C   UNL A   1      42.748  26.731  29.321  1.00  0.00     0.031 C 
ATOM     37  C   UNL A   1      38.274  28.806  28.371  1.00  0.00     0.029 A 
ATOM     38  N   UNL A   1      39.753  30.036  29.504  1.00  0.00    -0.354 N 
ATOM     39  C   UNL A   1      43.715  28.552  30.308  1.00  0.00     0.074 A 
ATOM     40  C   UNL A   1      43.828  27.152  29.964  1.00  0.00     0.031 C 
ATOM     41  C   UNL A   1      37.665  29.954  28.706  1.00  0.00     0.029 A 
ATOM     42  C   UNL A   1      38.607  30.796  29.435  1.00  0.00     0.049 A 
ATOM     43  H   UNL A   1      40.574  30.339  29.956  1.00  0.00     0.167 HD
ATOM     44  C   UNL A   1      44.713  29.289  30.846  1.00  0.00     0.031 A 
ATOM     45  C   UNL A   1      38.350  32.045  29.873  1.00  0.00     0.031 A 
ATOM     46  C   UNL A   1      44.586  30.679  31.194  1.00  0.00     0.049 A 
ATOM     47  C   UNL A   1      39.460  32.844  30.493  1.00  0.00     0.074 A 
ATOM     48  C   UNL A   1      45.560  31.535  31.675  1.00  0.00     0.029 A 
ATOM     49  N   UNL A   1      43.410  31.411  31.111  1.00  0.00    -0.354 N 
ATOM     50  N   UNL A   1      40.701  32.482  30.716  1.00  0.00    -0.248 NA
ATOM     51  C   UNL A   1      39.154  34.227  30.884  1.00  0.00     0.031 C 
ATOM     52  C   UNL A   1      44.960  32.770  31.937  1.00  0.00     0.029 A 
ATOM     53  C   UNL A   1      43.625  32.701  31.564  1.00  0.00     0.049 A 
ATOM     54  H   UNL A   1      42.551  31.065  30.780  1.00  0.00     0.167 HD
ATOM     55  C   UNL A   1      41.334  33.600  31.243  1.00  0.00     0.074 A 
ATOM     56  C   UNL A   1      40.339  34.653  31.306  1.00  0.00     0.031 C 
ATOM     57  C   UNL A   1      42.626  33.740  31.627  1.00  0.00     0.031 A 
BRANCH  44  58
ATOM     58  C   UNL A   1      46.042  28.614  31.059  1.00  0.00    -0.014 A 
ATOM     59  C   UNL A   1      46.345  28.015  32.295  1.00  0.00     0.010 A 
ATOM     60  C   UNL A   1      47.017  28.624  30.045  1.00  0.00     0.010 A 
ATOM     61  C   UNL A   1      47.599  27.437  32.511  1.00  0.00     0.020 A 
ATOM     62  C   UNL A   1      48.262  28.024  30.248  1.00  0.00     0.020 A 
ATOM     63  C   UNL A   1      48.550  27.446  31.486  1.00  0.00     0.054 A 
BRANCH  63  64
ATOM     64  S   UNL A   1      50.161  26.659  31.768  1.00  0.00     0.124 S 
ATOM     65  O   UNL A   1      50.533  27.182  33.079  1.00  0.00    -0.237 OA
ATOM     66  O   UNL A   1      49.837  25.236  31.724  1.00  0.00    -0.237 OA
ATOM     67  O   UNL A   1      50.971  27.137  30.650  1.00  0.00    -0.744 OA
ENDBRANCH  63  64
ENDBRANCH  44  58
BRANCH  45  68
ATOM     68  C   UNL A   1      37.008  32.632  29.611  1.00  0.00    -0.014 A 
ATOM     69  C   UNL A   1      36.745  33.320  28.413  1.00  0.00     0.010 A 
ATOM     70  C   UNL A   1      36.030  32.616  30.621  1.00  0.00     0.010 A 
ATOM     71  C   UNL A   1      35.549  34.027  28.250  1.00  0.00     0.020 A 
ATOM     72  C   UNL A   1      34.826  33.306  30.454  1.00  0.00     0.020 A 
ATOM     73  C   UNL A   1      34.606  34.032  29.282  1.00  0.00     0.054 A 
BRANCH  73  74
ATOM     74  S   UNL A   1      33.102  35.029  29.089  1.00  0.00     0.124 S 
ATOM     75  O   UNL A   1      32.545  34.993  30.439  1.00  0.00    -0.237 OA
ATOM     76  O   UNL A   1      33.629  36.321  28.658  1.00  0.00    -0.237 OA
ATOM     77  O   UNL A   1      32.336  34.303  28.079  1.00  0.00    -0.744 OA
ENDBRANCH  73  74
ENDBRANCH  45  68
BRANCH  57  78
ATOM     78  C   UNL A   1      43.069  35.074  32.165  1.00  0.00    -0.014 A 
ATOM     79  C   UNL A   1      43.637  36.021  31.292  1.00  0.00     0.010 A 
ATOM     80  C   UNL A   1      43.069  35.326  33.548  1.00  0.00     0.010 A 
ATOM     81  C   UNL A   1      44.243  37.173  31.795  1.00  0.00     0.020 A 
ATOM     82  C   UNL A   1      43.652  36.491  34.052  1.00  0.00     0.020 A 
ATOM     83  C   UNL A   1      44.262  37.392  33.175  1.00  0.00     0.054 A 
BRANCH  83  84
ATOM     84  S   UNL A   1      45.110  38.861  33.818  1.00  0.00     0.124 S 
ATOM     85  O   UNL A   1      44.274  39.944  33.312  1.00  0.00    -0.237 OA
ATOM     86  O   UNL A   1      45.064  38.653  35.264  1.00  0.00    -0.237 OA
ATOM     87  O   UNL A   1      46.444  38.771  33.228  1.00  0.00    -0.744 OA
ENDBRANCH  83  84
ENDBRANCH  57  78
ENDBRANCH  31  32
ENDBRANCH  24  26
ENDBRANCH  23  24
ENDBRANCH  22  23
ENDBRANCH   1  22
TORSDOF 18
ENDMDL
MODEL 3
REMARK VINA RESULT:     -10.0      2.874      8.414
REMARK SMILES CC[C@H](CNC(=O)[C@H]1CSc2ccccc21)C(=O)OCCOC(=O)c1ccc(-c2c3nc(c(-c4ccc(S(=O)(=O)[O-])cc4)c4ccc([nH]4)c(-c4ccc(S(=O)(=O)[O-])cc4)c4nc(c(-c5ccc(S(=O)(=O)[O-])cc5)c5ccc2[nH]5)C=C4)C=C3)cc1
REMARK SMILES IDX 20 1 19 2 17 3 18 4 3 5 2 6 1 7 4 8 5 9 6 10 7 12 8 13 9 14
REMARK SMILES IDX 16 15 10 16 11 17 15 18 12 19 14 20 13 21 21 22 22 23 23 24
REMARK SMILES IDX 24 25 25 26 26 27 84 28 27 29 83 30 28 31 29 32 30 33 77 34
REMARK SMILES IDX 31 35 82 36 76 37 78 38 32 39 81 40 75 41 74 42 33 44 63 45
REMARK SMILES IDX 44 46 62 47 45 48 48 49 61 50 79 51 46 52 47 53 60 55 80 56
REMARK SMILES IDX 49 57 34 58 35 59 43 60 36 61 42 62 37 63 38 64 39 65 40 66
REMARK SMILES IDX 41 67 64 68 65 69 73 70 66 71 72 72 67 73 68 74 69 75 70 76
REMARK SMILES IDX 71 77 50 78 51 79 59 80 52 81 58 82 53 83 54 84 55 85 56 86
REMARK SMILES IDX 57 87
REMARK H PARENT 5 11 78 43 48 54
REMARK Flexibility Score: inf
ROOT
ATOM      1  C   UNL A   1      35.096  23.778  25.795  1.00  0.00     0.274 C 
ENDROOT
BRANCH   1   2
ATOM      2  O   UNL A   1      34.090  23.150  24.971  1.00  0.00    -0.462 OA
BRANCH   2   3
ATOM      3  C   UNL A   1      32.804  23.289  25.389  1.00  0.00     0.310 C 
ATOM      4  O   UNL A   1      32.474  23.882  26.411  1.00  0.00    -0.252 OA
BRANCH   3   5
ATOM      5  C   UNL A   1      31.781  22.613  24.481  1.00  0.00     0.118 C 
BRANCH   5   6
ATOM      6  C   UNL A   1      32.430  21.333  23.925  1.00  0.00     0.014 C 
ATOM      7  C   UNL A   1      32.153  21.086  22.451  1.00  0.00     0.005 C 
ENDBRANCH   5   6
BRANCH   5   8
ATOM      8  C   UNL A   1      31.206  23.552  23.409  1.00  0.00     0.131 C 
BRANCH   8   9
ATOM      9  N   UNL A   1      30.176  24.455  23.921  1.00  0.00    -0.355 N 
ATOM     10  C   UNL A   1      30.213  25.801  24.169  1.00  0.00     0.228 C 
ATOM     11  H   UNL A   1      29.313  24.025  24.120  1.00  0.00     0.163 HD
ATOM     12  O   UNL A   1      29.146  26.346  24.461  1.00  0.00    -0.274 OA
BRANCH  10  13
ATOM     13  C   UNL A   1      31.524  26.568  24.101  1.00  0.00     0.120 C 
ATOM     14  C   UNL A   1      31.543  27.515  22.891  1.00  0.00     0.093 C 
ATOM     15  C   UNL A   1      31.790  27.475  25.283  1.00  0.00    -0.021 A 
ATOM     16  S   UNL A   1      32.913  28.675  23.221  1.00  0.00    -0.125 SA
ATOM     17  C   UNL A   1      32.614  28.565  24.965  1.00  0.00     0.011 A 
ATOM     18  C   UNL A   1      31.361  27.291  26.590  1.00  0.00     0.006 A 
ATOM     19  C   UNL A   1      33.060  29.445  25.937  1.00  0.00     0.015 A 
ATOM     20  C   UNL A   1      31.774  28.198  27.567  1.00  0.00     0.000 A 
ATOM     21  C   UNL A   1      32.637  29.254  27.251  1.00  0.00     0.001 A 
ENDBRANCH  10  13
ENDBRANCH   8   9
ENDBRANCH   5   8
ENDBRANCH   3   5
ENDBRANCH   2   3
ENDBRANCH   1   2
BRANCH   1  22
ATOM     22  C   UNL A   1      36.467  23.099  25.662  1.00  0.00     0.275 C 
BRANCH  22  23
ATOM     23  O   UNL A   1      37.557  24.041  25.658  1.00  0.00    -0.458 OA
BRANCH  23  24
ATOM     24  C   UNL A   1      38.676  23.606  26.284  1.00  0.00     0.338 C 
ATOM     25  O   UNL A   1      39.198  22.512  26.146  1.00  0.00    -0.246 OA
BRANCH  24  26
ATOM     26  C   UNL A   1      39.293  24.693  27.060  1.00  0.00     0.060 A 
ATOM     27  C   UNL A   1      40.154  25.617  26.466  1.00  0.00     0.016 A 
ATOM     28  C   UNL A   1      38.900  24.849  28.392  1.00  0.00     0.016 A 
ATOM     29  C   UNL A   1      40.613  26.706  27.216  1.00  0.00     0.010 A 
ATOM     30  C   UNL A   1      39.333  25.948  29.126  1.00  0.00     0.010 A 
ATOM     31  C   UNL A   1      40.198  26.887  28.547  1.00  0.00    -0.014 A 
BRANCH  31  32
ATOM     32  C   UNL A   1      40.632  28.059  29.346  1.00  0.00     0.031 A 
ATOM     33  C   UNL A   1      39.758  29.275  29.438  1.00  0.00     0.074 A 
ATOM     34  C   UNL A   1      41.847  28.061  29.929  1.00  0.00     0.049 A 
ATOM     35  N   UNL A   1      39.940  30.361  30.144  1.00  0.00    -0.248 NA
ATOM     36  C   UNL A   1      38.526  29.280  28.632  1.00  0.00     0.031 C 
ATOM     37  C   UNL A   1      42.806  26.961  29.872  1.00  0.00     0.029 A 
ATOM     38  N   UNL A   1      42.488  29.019  30.674  1.00  0.00    -0.354 N 
ATOM     39  C   UNL A   1      38.834  31.161  29.893  1.00  0.00     0.074 A 
ATOM     40  C   UNL A   1      38.028  30.477  28.907  1.00  0.00     0.031 C 
ATOM     41  C   UNL A   1      43.917  27.304  30.542  1.00  0.00     0.029 A 
ATOM     42  C   UNL A   1      43.741  28.641  31.099  1.00  0.00     0.049 A 
ATOM     43  H   UNL A   1      42.089  29.895  30.886  1.00  0.00     0.167 HD
ATOM     44  C   UNL A   1      38.501  32.340  30.467  1.00  0.00     0.031 A 
ATOM     45  C   UNL A   1      44.637  29.278  31.880  1.00  0.00     0.031 A 
ATOM     46  C   UNL A   1      39.316  33.017  31.440  1.00  0.00     0.049 A 
ATOM     47  C   UNL A   1      44.265  30.598  32.490  1.00  0.00     0.074 A 
ATOM     48  C   UNL A   1      39.033  34.177  32.137  1.00  0.00     0.029 A 
ATOM     49  N   UNL A   1      40.578  32.603  31.841  1.00  0.00    -0.354 N 
ATOM     50  N   UNL A   1      43.154  31.280  32.346  1.00  0.00    -0.248 NA
ATOM     51  C   UNL A   1      45.242  31.217  33.397  1.00  0.00     0.031 C 
ATOM     52  C   UNL A   1      40.147  34.496  32.918  1.00  0.00     0.029 A 
ATOM     53  C   UNL A   1      41.102  33.503  32.753  1.00  0.00     0.049 A 
ATOM     54  H   UNL A   1      41.033  31.791  31.524  1.00  0.00     0.167 HD
ATOM     55  C   UNL A   1      43.283  32.393  33.168  1.00  0.00     0.074 A 
ATOM     56  C   UNL A   1      44.580  32.293  33.807  1.00  0.00     0.031 C 
ATOM     57  C   UNL A   1      42.397  33.397  33.379  1.00  0.00     0.031 A 
BRANCH  44  58
ATOM     58  C   UNL A   1      37.181  32.954  30.084  1.00  0.00    -0.014 A 
ATOM     59  C   UNL A   1      37.096  33.829  28.986  1.00  0.00     0.010 A 
ATOM     60  C   UNL A   1      36.028  32.705  30.852  1.00  0.00     0.010 A 
ATOM     61  C   UNL A   1      35.882  34.442  28.663  1.00  0.00     0.020 A 
ATOM     62  C   UNL A   1      34.808  33.295  30.516  1.00  0.00     0.020 A 
ATOM     63  C   UNL A   1      34.746  34.172  29.431  1.00  0.00     0.054 A 
BRANCH  63  64
ATOM     64  S   UNL A   1      33.168  34.946  28.979  1.00  0.00     0.124 S 
ATOM     65  O   UNL A   1      33.603  36.213  28.398  1.00  0.00    -0.237 OA
ATOM     66  O   UNL A   1      32.594  33.985  28.042  1.00  0.00    -0.237 OA
ATOM     67  O   UNL A   1      32.464  35.051  30.255  1.00  0.00    -0.744 OA
ENDBRANCH  63  64
ENDBRANCH  44  58
BRANCH  45  68
ATOM     68  C   UNL A   1      45.914  28.588  32.210  1.00  0.00    -0.014 A 
ATOM     69  C   UNL A   1      47.040  28.722  31.378  1.00  0.00     0.010 A 
ATOM     70  C   UNL A   1      45.963  27.689  33.290  1.00  0.00     0.010 A 
ATOM     71  C   UNL A   1      48.174  27.930  31.588  1.00  0.00     0.020 A 
ATOM     72  C   UNL A   1      47.102  26.910  33.513  1.00  0.00     0.020 A 
ATOM     73  C   UNL A   1      48.187  27.014  32.643  1.00  0.00     0.054 A 
BRANCH  73  74
ATOM     74  S   UNL A   1      49.630  25.931  32.843  1.00  0.00     0.124 S 
ATOM     75  O   UNL A   1      50.692  26.895  33.118  1.00  0.00    -0.237 OA
ATOM     76  O   UNL A   1      49.240  25.084  33.968  1.00  0.00    -0.237 OA
ATOM     77  O   UNL A   1      49.727  25.246  31.556  1.00  0.00    -0.744 OA
ENDBRANCH  73  74
ENDBRANCH  45  68
BRANCH  57  78
ATOM     78  C   UNL A   1      42.780  34.494  34.335  1.00  0.00    -0.014 A 
ATOM     79  C   UNL A   1      43.514  35.600  33.866  1.00  0.00     0.010 A 
ATOM     80  C   UNL A   1      42.553  34.354  35.715  1.00  0.00     0.010 A 
ATOM     81  C   UNL A   1      44.058  36.520  34.764  1.00  0.00     0.020 A 
ATOM     82  C   UNL A   1      43.075  35.288  36.614  1.00  0.00     0.020 A 
ATOM     83  C   UNL A   1      43.849  36.347  36.135  1.00  0.00     0.054 A 
BRANCH  83  84
ATOM     84  S   UNL A   1      44.616  37.514  37.292  1.00  0.00     0.124 S 
ATOM     85  O   UNL A   1      43.500  37.858  38.166  1.00  0.00    -0.237 OA
ATOM     86  O   UNL A   1      45.673  36.713  37.906  1.00  0.00    -0.237 OA
ATOM     87  O   UNL A   1      45.089  38.593  36.427  1.00  0.00    -0.744 OA
ENDBRANCH  83  84
ENDBRANCH  57  78
ENDBRANCH  31  32
ENDBRANCH  24  26
ENDBRANCH  23  24
ENDBRANCH  22  23
ENDBRANCH   1  22
TORSDOF 18
ENDMDL
