MODEL 1
REMARK VINA RESULT:      -8.4      0.000      0.000
REMARK SMILES C[C@@H](C(=O)OCCOC(=O)c1ccc(-c2c3nc(c(-c4ccc(S(=O)(=O)[O-])cc4)c4ccc([nH]4)c(-c4ccc(S(=O)(=O)[O-])cc4)c4nc(c(-c5ccc(S(=O)(=O)[O-])cc5)c5ccc2[nH]5)C=C4)C=C3)cc1)c1ccc(Cc2ccoc2)cc1F
REMARK SMILES IDX 6 1 5 2 3 3 4 4 2 5 1 6 71 7 72 8 82 9 73 10 81 11 83 12
REMARK SMILES IDX 74 13 75 14 76 15 77 16 80 17 78 18 79 19 7 20 8 21 9 22
REMARK SMILES IDX 10 23 11 24 12 25 70 26 13 27 69 28 14 29 15 30 16 31 63 32
REMARK SMILES IDX 17 33 68 34 62 35 64 36 18 37 67 38 61 39 60 40 19 42 49 43
REMARK SMILES IDX 30 44 48 45 31 46 34 47 47 48 65 49 32 50 33 51 46 53 66 54
REMARK SMILES IDX 35 55 20 56 21 57 29 58 22 59 28 60 23 61 24 62 25 63 26 64
REMARK SMILES IDX 27 65 50 66 51 67 59 68 52 69 58 70 53 71 54 72 55 73 56 74
REMARK SMILES IDX 57 75 36 76 37 77 45 78 38 79 44 80 39 81 40 82 41 83 42 84
REMARK SMILES IDX 43 85
REMARK H PARENT 64 41 34 52
REMARK Flexibility Score: inf
ROOT
ATOM      1  C   UNL A   1      33.500  33.086  28.257  1.00  0.00     0.274 C 
ENDROOT
BRANCH   1   2
ATOM      2  O   UNL A   1      34.828  32.923  28.794  1.00  0.00    -0.462 OA
BRANCH   2   3
ATOM      3  C   UNL A   1      35.068  33.529  29.992  1.00  0.00     0.313 C 
ATOM      4  O   UNL A   1      34.172  33.901  30.741  1.00  0.00    -0.252 OA
BRANCH   3   5
ATOM      5  C   UNL A   1      36.574  33.752  30.246  1.00  0.00     0.129 C 
ATOM      6  C   UNL A   1      37.410  33.465  28.989  1.00  0.00     0.025 C 
BRANCH   5   7
ATOM      7  C   UNL A   1      37.067  33.008  31.489  1.00  0.00     0.002 A 
ATOM      8  C   UNL A   1      36.543  31.780  31.916  1.00  0.00     0.008 A 
ATOM      9  C   UNL A   1      38.082  33.567  32.275  1.00  0.00     0.127 A 
ATOM     10  C   UNL A   1      37.016  31.153  33.080  1.00  0.00     0.004 A 
ATOM     11  C   UNL A   1      38.508  32.977  33.470  1.00  0.00     0.043 A 
ATOM     12  F   UNL A   1      38.688  34.693  31.873  1.00  0.00    -0.207 F 
ATOM     13  C   UNL A   1      37.970  31.756  33.909  1.00  0.00    -0.041 A 
BRANCH  13  14
ATOM     14  C   UNL A   1      38.583  31.079  35.118  1.00  0.00     0.074 C 
BRANCH  14  15
ATOM     15  C   UNL A   1      39.839  30.320  34.820  1.00  0.00    -0.005 A 
ATOM     16  C   UNL A   1      41.004  30.066  35.608  1.00  0.00     0.046 A 
ATOM     17  C   UNL A   1      40.018  29.532  33.693  1.00  0.00     0.198 A 
ATOM     18  C   UNL A   1      41.756  29.136  34.932  1.00  0.00     0.195 A 
ATOM     19  O   UNL A   1      41.160  28.810  33.764  1.00  0.00    -0.472 OA
ENDBRANCH  14  15
ENDBRANCH  13  14
ENDBRANCH   5   7
ENDBRANCH   3   5
ENDBRANCH   2   3
ENDBRANCH   1   2
BRANCH   1  20
ATOM     20  C   UNL A   1      33.015  31.830  27.531  1.00  0.00     0.275 C 
BRANCH  20  21
ATOM     21  O   UNL A   1      34.114  31.055  27.017  1.00  0.00    -0.458 OA
BRANCH  21  22
ATOM     22  C   UNL A   1      34.313  29.856  27.613  1.00  0.00     0.338 C 
ATOM     23  O   UNL A   1      33.524  28.929  27.685  1.00  0.00    -0.246 OA
BRANCH  22  24
ATOM     24  C   UNL A   1      35.701  29.764  28.092  1.00  0.00     0.060 A 
ATOM     25  C   UNL A   1      36.711  30.057  27.182  1.00  0.00     0.016 A 
ATOM     26  C   UNL A   1      36.021  29.279  29.359  1.00  0.00     0.016 A 
ATOM     27  C   UNL A   1      38.041  29.823  27.509  1.00  0.00     0.010 A 
ATOM     28  C   UNL A   1      37.370  29.087  29.706  1.00  0.00     0.010 A 
ATOM     29  C   UNL A   1      38.392  29.333  28.772  1.00  0.00    -0.014 A 
BRANCH  29  30
ATOM     30  C   UNL A   1      39.826  29.026  29.038  1.00  0.00     0.031 A 
ATOM     31  C   UNL A   1      40.665  29.975  29.855  1.00  0.00     0.074 A 
ATOM     32  C   UNL A   1      40.335  27.828  28.679  1.00  0.00     0.049 A 
ATOM     33  N   UNL A   1      41.918  29.866  30.222  1.00  0.00    -0.248 NA
ATOM     34  C   UNL A   1      40.011  31.204  30.332  1.00  0.00     0.031 C 
ATOM     35  C   UNL A   1      39.609  26.788  27.945  1.00  0.00     0.029 A 
ATOM     36  N   UNL A   1      41.561  27.260  28.927  1.00  0.00    -0.354 N 
ATOM     37  C   UNL A   1      42.185  30.980  31.007  1.00  0.00     0.074 A 
ATOM     38  C   UNL A   1      40.995  31.803  30.988  1.00  0.00     0.031 C 
ATOM     39  C   UNL A   1      40.379  25.692  27.858  1.00  0.00     0.029 A 
ATOM     40  C   UNL A   1      41.674  25.966  28.475  1.00  0.00     0.049 A 
ATOM     41  H   UNL A   1      42.291  27.736  29.385  1.00  0.00     0.167 HD
ATOM     42  C   UNL A   1      43.291  31.264  31.736  1.00  0.00     0.031 A 
ATOM     43  C   UNL A   1      42.701  25.094  28.542  1.00  0.00     0.031 A 
ATOM     44  C   UNL A   1      44.459  30.430  31.810  1.00  0.00     0.049 A 
ATOM     45  C   UNL A   1      43.985  25.520  29.198  1.00  0.00     0.074 A 
ATOM     46  C   UNL A   1      45.648  30.670  32.479  1.00  0.00     0.029 A 
ATOM     47  N   UNL A   1      44.578  29.182  31.220  1.00  0.00    -0.354 N 
ATOM     48  N   UNL A   1      44.240  26.611  29.877  1.00  0.00    -0.248 NA
ATOM     49  C   UNL A   1      45.127  24.602  29.080  1.00  0.00     0.031 C 
ATOM     50  C   UNL A   1      46.505  29.588  32.252  1.00  0.00     0.029 A 
ATOM     51  C   UNL A   1      45.838  28.660  31.469  1.00  0.00     0.049 A 
ATOM     52  H   UNL A   1      43.873  28.732  30.701  1.00  0.00     0.167 HD
ATOM     53  C   UNL A   1      45.568  26.511  30.270  1.00  0.00     0.074 A 
ATOM     54  C   UNL A   1      46.059  25.241  29.776  1.00  0.00     0.031 C 
ATOM     55  C   UNL A   1      46.318  27.399  30.968  1.00  0.00     0.031 A 
BRANCH  42  56
ATOM     56  C   UNL A   1      43.282  32.541  32.528  1.00  0.00    -0.014 A 
ATOM     57  C   UNL A   1      43.642  33.760  31.927  1.00  0.00     0.010 A 
ATOM     58  C   UNL A   1      42.879  32.528  33.874  1.00  0.00     0.010 A 
ATOM     59  C   UNL A   1      43.630  34.943  32.669  1.00  0.00     0.020 A 
ATOM     60  C   UNL A   1      42.850  33.712  34.616  1.00  0.00     0.020 A 
ATOM     61  C   UNL A   1      43.242  34.910  34.013  1.00  0.00     0.054 A 
BRANCH  61  62
ATOM     62  S   UNL A   1      43.231  36.461  34.953  1.00  0.00     0.124 S 
ATOM     63  O   UNL A   1      44.596  36.506  35.473  1.00  0.00    -0.237 OA
ATOM     64  O   UNL A   1      42.917  37.456  33.930  1.00  0.00    -0.237 OA
ATOM     65  O   UNL A   1      42.190  36.252  35.955  1.00  0.00    -0.744 OA
ENDBRANCH  61  62
ENDBRANCH  42  56
BRANCH  43  66
ATOM     66  C   UNL A   1      42.579  23.742  27.930  1.00  0.00    -0.014 A 
ATOM     67  C   UNL A   1      42.980  23.515  26.602  1.00  0.00     0.010 A 
ATOM     68  C   UNL A   1      42.042  22.675  28.673  1.00  0.00     0.010 A 
ATOM     69  C   UNL A   1      42.835  22.248  26.026  1.00  0.00     0.020 A 
ATOM     70  C   UNL A   1      41.921  21.403  28.110  1.00  0.00     0.020 A 
ATOM     71  C   UNL A   1      42.306  21.200  26.784  1.00  0.00     0.054 A 
BRANCH  71  72
ATOM     72  S   UNL A   1      42.170  19.549  26.043  1.00  0.00     0.124 S 
ATOM     73  O   UNL A   1      43.013  19.678  24.859  1.00  0.00    -0.237 OA
ATOM     74  O   UNL A   1      42.687  18.680  27.096  1.00  0.00    -0.237 OA
ATOM     75  O   UNL A   1      40.738  19.414  25.783  1.00  0.00    -0.744 OA
ENDBRANCH  71  72
ENDBRANCH  43  66
BRANCH  55  76
ATOM     76  C   UNL A   1      47.752  27.032  31.233  1.00  0.00    -0.014 A 
ATOM     77  C   UNL A   1      48.792  27.683  30.547  1.00  0.00     0.010 A 
ATOM     78  C   UNL A   1      48.068  26.068  32.207  1.00  0.00     0.010 A 
ATOM     79  C   UNL A   1      50.125  27.363  30.815  1.00  0.00     0.020 A 
ATOM     80  C   UNL A   1      49.402  25.760  32.492  1.00  0.00     0.020 A 
ATOM     81  C   UNL A   1      50.422  26.400  31.785  1.00  0.00     0.054 A 
BRANCH  81  82
ATOM     82  S   UNL A   1      52.161  26.036  32.154  1.00  0.00     0.124 S 
ATOM     83  O   UNL A   1      52.330  26.657  33.464  1.00  0.00    -0.237 OA
ATOM     84  O   UNL A   1      52.197  24.575  32.141  1.00  0.00    -0.237 OA
ATOM     85  O   UNL A   1      52.888  26.678  31.060  1.00  0.00    -0.744 OA
ENDBRANCH  81  82
ENDBRANCH  55  76
ENDBRANCH  29  30
ENDBRANCH  22  24
ENDBRANCH  21  22
ENDBRANCH  20  21
ENDBRANCH   1  20
TORSDOF 17
ENDMDL
MODEL 2
REMARK VINA RESULT:      -8.3      4.141      6.733
REMARK SMILES C[C@@H](C(=O)OCCOC(=O)c1ccc(-c2c3nc(c(-c4ccc(S(=O)(=O)[O-])cc4)c4ccc([nH]4)c(-c4ccc(S(=O)(=O)[O-])cc4)c4nc(c(-c5ccc(S(=O)(=O)[O-])cc5)c5ccc2[nH]5)C=C4)C=C3)cc1)c1ccc(Cc2ccoc2)cc1F
REMARK SMILES IDX 6 1 5 2 3 3 4 4 2 5 1 6 71 7 72 8 82 9 73 10 81 11 83 12
REMARK SMILES IDX 74 13 75 14 76 15 77 16 80 17 78 18 79 19 7 20 8 21 9 22
REMARK SMILES IDX 10 23 11 24 12 25 70 26 13 27 69 28 14 29 15 30 16 31 63 32
REMARK SMILES IDX 17 33 68 34 62 35 64 36 18 37 67 38 61 39 60 40 19 42 49 43
REMARK SMILES IDX 30 44 48 45 31 46 34 47 47 48 65 49 32 50 33 51 46 53 66 54
REMARK SMILES IDX 35 55 20 56 21 57 29 58 22 59 28 60 23 61 24 62 25 63 26 64
REMARK SMILES IDX 27 65 50 66 51 67 59 68 52 69 58 70 53 71 54 72 55 73 56 74
REMARK SMILES IDX 57 75 36 76 37 77 45 78 38 79 44 80 39 81 40 82 41 83 42 84
REMARK SMILES IDX 43 85
REMARK H PARENT 64 41 34 52
REMARK Flexibility Score: inf
ROOT
ATOM      1  C   UNL A   1      31.560  30.119  25.516  1.00  0.00     0.274 C 
ENDROOT
BRANCH   1   2
ATOM      2  O   UNL A   1      31.291  28.751  25.148  1.00  0.00    -0.462 OA
BRANCH   2   3
ATOM      3  C   UNL A   1      31.781  28.349  23.940  1.00  0.00     0.313 C 
ATOM      4  O   UNL A   1      31.066  28.146  22.967  1.00  0.00    -0.252 OA
BRANCH   3   5
ATOM      5  C   UNL A   1      33.306  28.111  23.974  1.00  0.00     0.129 C 
ATOM      6  C   UNL A   1      33.985  28.596  22.685  1.00  0.00     0.025 C 
BRANCH   5   7
ATOM      7  C   UNL A   1      33.657  26.668  24.344  1.00  0.00     0.002 A 
ATOM      8  C   UNL A   1      33.897  25.662  23.398  1.00  0.00     0.008 A 
ATOM      9  C   UNL A   1      33.733  26.296  25.692  1.00  0.00     0.127 A 
ATOM     10  C   UNL A   1      34.191  24.348  23.793  1.00  0.00     0.004 A 
ATOM     11  C   UNL A   1      33.960  24.973  26.087  1.00  0.00     0.043 A 
ATOM     12  F   UNL A   1      33.605  27.229  26.646  1.00  0.00    -0.207 F 
ATOM     13  C   UNL A   1      34.182  23.960  25.139  1.00  0.00    -0.041 A 
BRANCH  13  14
ATOM     14  C   UNL A   1      34.588  22.583  25.621  1.00  0.00     0.074 C 
BRANCH  14  15
ATOM     15  C   UNL A   1      33.697  21.481  25.140  1.00  0.00    -0.005 A 
ATOM     16  C   UNL A   1      33.959  20.336  24.325  1.00  0.00     0.046 A 
ATOM     17  C   UNL A   1      32.397  21.287  25.583  1.00  0.00     0.198 A 
ATOM     18  C   UNL A   1      32.840  19.539  24.373  1.00  0.00     0.195 A 
ATOM     19  O   UNL A   1      31.886  20.117  25.136  1.00  0.00    -0.472 OA
ENDBRANCH  14  15
ENDBRANCH  13  14
ENDBRANCH   5   7
ENDBRANCH   3   5
ENDBRANCH   2   3
ENDBRANCH   1   2
BRANCH   1  20
ATOM     20  C   UNL A   1      32.200  30.226  26.902  1.00  0.00     0.275 C 
BRANCH  20  21
ATOM     21  O   UNL A   1      33.633  30.346  26.817  1.00  0.00    -0.458 OA
BRANCH  21  22
ATOM     22  C   UNL A   1      34.173  31.384  27.497  1.00  0.00     0.338 C 
ATOM     23  O   UNL A   1      33.637  32.444  27.773  1.00  0.00    -0.246 OA
BRANCH  22  24
ATOM     24  C   UNL A   1      35.513  31.016  27.981  1.00  0.00     0.060 A 
ATOM     25  C   UNL A   1      35.702  29.704  28.400  1.00  0.00     0.016 A 
ATOM     26  C   UNL A   1      36.529  31.956  28.144  1.00  0.00     0.016 A 
ATOM     27  C   UNL A   1      36.884  29.330  29.029  1.00  0.00     0.010 A 
ATOM     28  C   UNL A   1      37.742  31.566  28.738  1.00  0.00     0.010 A 
ATOM     29  C   UNL A   1      37.920  30.254  29.211  1.00  0.00    -0.014 A 
BRANCH  29  30
ATOM     30  C   UNL A   1      39.131  29.819  29.963  1.00  0.00     0.031 A 
ATOM     31  C   UNL A   1      39.316  30.226  31.402  1.00  0.00     0.074 A 
ATOM     32  C   UNL A   1      39.988  28.935  29.406  1.00  0.00     0.049 A 
ATOM     33  N   UNL A   1      40.282  29.919  32.232  1.00  0.00    -0.248 NA
ATOM     34  C   UNL A   1      38.274  31.082  31.993  1.00  0.00     0.031 C 
ATOM     35  C   UNL A   1      39.887  28.406  28.043  1.00  0.00     0.029 A 
ATOM     36  N   UNL A   1      41.079  28.288  29.931  1.00  0.00    -0.354 N 
ATOM     37  C   UNL A   1      39.942  30.501  33.447  1.00  0.00     0.074 A 
ATOM     38  C   UNL A   1      38.729  31.259  33.226  1.00  0.00     0.031 C 
ATOM     39  C   UNL A   1      40.835  27.472  27.864  1.00  0.00     0.029 A 
ATOM     40  C   UNL A   1      41.649  27.376  29.072  1.00  0.00     0.049 A 
ATOM     41  H   UNL A   1      41.423  28.460  30.838  1.00  0.00     0.167 HD
ATOM     42  C   UNL A   1      40.541  30.364  34.655  1.00  0.00     0.031 A 
ATOM     43  C   UNL A   1      42.708  26.557  29.231  1.00  0.00     0.031 A 
ATOM     44  C   UNL A   1      41.712  29.570  34.902  1.00  0.00     0.049 A 
ATOM     45  C   UNL A   1      43.464  26.575  30.530  1.00  0.00     0.074 A 
ATOM     46  C   UNL A   1      42.418  29.423  36.085  1.00  0.00     0.029 A 
ATOM     47  N   UNL A   1      42.337  28.767  33.961  1.00  0.00    -0.354 N 
ATOM     48  N   UNL A   1      43.164  27.189  31.648  1.00  0.00    -0.248 NA
ATOM     49  C   UNL A   1      44.714  25.802  30.582  1.00  0.00     0.031 C 
ATOM     50  C   UNL A   1      43.500  28.567  35.845  1.00  0.00     0.029 A 
ATOM     51  C   UNL A   1      43.448  28.157  34.523  1.00  0.00     0.049 A 
ATOM     52  H   UNL A   1      42.036  28.646  33.032  1.00  0.00     0.167 HD
ATOM     53  C   UNL A   1      44.183  26.875  32.538  1.00  0.00     0.074 A 
ATOM     54  C   UNL A   1      45.097  25.996  31.838  1.00  0.00     0.031 C 
ATOM     55  C   UNL A   1      44.353  27.289  33.817  1.00  0.00     0.031 A 
BRANCH  42  56
ATOM     56  C   UNL A   1      39.921  31.091  35.814  1.00  0.00    -0.014 A 
ATOM     57  C   UNL A   1      40.615  32.127  36.464  1.00  0.00     0.010 A 
ATOM     58  C   UNL A   1      38.622  30.760  36.235  1.00  0.00     0.010 A 
ATOM     59  C   UNL A   1      40.031  32.799  37.541  1.00  0.00     0.020 A 
ATOM     60  C   UNL A   1      38.028  31.442  37.302  1.00  0.00     0.020 A 
ATOM     61  C   UNL A   1      38.744  32.446  37.959  1.00  0.00     0.054 A 
BRANCH  61  62
ATOM     62  S   UNL A   1      38.008  33.337  39.357  1.00  0.00     0.124 S 
ATOM     63  O   UNL A   1      38.420  34.713  39.085  1.00  0.00    -0.237 OA
ATOM     64  O   UNL A   1      36.582  33.067  39.196  1.00  0.00    -0.237 OA
ATOM     65  O   UNL A   1      38.629  32.722  40.527  1.00  0.00    -0.744 OA
ENDBRANCH  61  62
ENDBRANCH  42  56
BRANCH  43  66
ATOM     66  C   UNL A   1      43.152  25.679  28.113  1.00  0.00    -0.014 A 
ATOM     67  C   UNL A   1      42.671  24.364  27.995  1.00  0.00     0.010 A 
ATOM     68  C   UNL A   1      44.079  26.153  27.167  1.00  0.00     0.010 A 
ATOM     69  C   UNL A   1      43.115  23.537  26.958  1.00  0.00     0.020 A 
ATOM     70  C   UNL A   1      44.506  25.340  26.115  1.00  0.00     0.020 A 
ATOM     71  C   UNL A   1      44.031  24.031  26.024  1.00  0.00     0.054 A 
BRANCH  71  72
ATOM     72  S   UNL A   1      44.563  22.966  24.654  1.00  0.00     0.124 S 
ATOM     73  O   UNL A   1      45.534  23.814  23.972  1.00  0.00    -0.237 OA
ATOM     74  O   UNL A   1      45.114  21.803  25.345  1.00  0.00    -0.237 OA
ATOM     75  O   UNL A   1      43.324  22.714  23.922  1.00  0.00    -0.744 OA
ENDBRANCH  71  72
ENDBRANCH  43  66
BRANCH  55  76
ATOM     76  C   UNL A   1      45.577  26.803  34.542  1.00  0.00    -0.014 A 
ATOM     77  C   UNL A   1      45.552  25.588  35.249  1.00  0.00     0.010 A 
ATOM     78  C   UNL A   1      46.776  27.536  34.478  1.00  0.00     0.010 A 
ATOM     79  C   UNL A   1      46.698  25.123  35.898  1.00  0.00     0.020 A 
ATOM     80  C   UNL A   1      47.930  27.063  35.109  1.00  0.00     0.020 A 
ATOM     81  C   UNL A   1      47.881  25.866  35.826  1.00  0.00     0.054 A 
BRANCH  81  82
ATOM     82  S   UNL A   1      49.371  25.218  36.633  1.00  0.00     0.124 S 
ATOM     83  O   UNL A   1      50.384  25.405  35.597  1.00  0.00    -0.237 OA
ATOM     84  O   UNL A   1      49.506  26.078  37.806  1.00  0.00    -0.237 OA
ATOM     85  O   UNL A   1      49.029  23.828  36.926  1.00  0.00    -0.744 OA
ENDBRANCH  81  82
ENDBRANCH  55  76
ENDBRANCH  29  30
ENDBRANCH  22  24
ENDBRANCH  21  22
ENDBRANCH  20  21
ENDBRANCH   1  20
TORSDOF 17
ENDMDL
MODEL 3
REMARK VINA RESULT:      -8.2      5.644     11.680
REMARK SMILES C[C@@H](C(=O)OCCOC(=O)c1ccc(-c2c3nc(c(-c4ccc(S(=O)(=O)[O-])cc4)c4ccc([nH]4)c(-c4ccc(S(=O)(=O)[O-])cc4)c4nc(c(-c5ccc(S(=O)(=O)[O-])cc5)c5ccc2[nH]5)C=C4)C=C3)cc1)c1ccc(Cc2ccoc2)cc1F
REMARK SMILES IDX 6 1 5 2 3 3 4 4 2 5 1 6 71 7 72 8 82 9 73 10 81 11 83 12
REMARK SMILES IDX 74 13 75 14 76 15 77 16 80 17 78 18 79 19 7 20 8 21 9 22
REMARK SMILES IDX 10 23 11 24 12 25 70 26 13 27 69 28 14 29 15 30 16 31 63 32
REMARK SMILES IDX 17 33 68 34 62 35 64 36 18 37 67 38 61 39 60 40 19 42 49 43
REMARK SMILES IDX 30 44 48 45 31 46 34 47 47 48 65 49 32 50 33 51 46 53 66 54
REMARK SMILES IDX 35 55 20 56 21 57 29 58 22 59 28 60 23 61 24 62 25 63 26 64
REMARK SMILES IDX 27 65 50 66 51 67 59 68 52 69 58 70 53 71 54 72 55 73 56 74
REMARK SMILES IDX 57 75 36 76 37 77 45 78 38 79 44 80 39 81 40 82 41 83 42 84
REMARK SMILES IDX 43 85
REMARK H PARENT 64 41 34 52
REMARK Flexibility Score: inf
ROOT
ATOM      1  C   UNL A   1      37.711  23.172  25.217  1.00  0.00     0.274 C 
ENDROOT
BRANCH   1   2
ATOM      2  O   UNL A   1      36.437  23.845  25.197  1.00  0.00    -0.462 OA
BRANCH   2   3
ATOM      3  C   UNL A   1      35.637  23.581  24.123  1.00  0.00     0.313 C 
ATOM      4  O   UNL A   1      36.068  23.479  22.982  1.00  0.00    -0.252 OA
BRANCH   3   5
ATOM      5  C   UNL A   1      34.144  23.505  24.508  1.00  0.00     0.129 C 
ATOM      6  C   UNL A   1      33.828  24.380  25.732  1.00  0.00     0.025 C 
BRANCH   5   7
ATOM      7  C   UNL A   1      33.655  22.062  24.647  1.00  0.00     0.002 A 
ATOM      8  C   UNL A   1      33.891  21.269  25.778  1.00  0.00     0.008 A 
ATOM      9  C   UNL A   1      32.947  21.465  23.596  1.00  0.00     0.127 A 
ATOM     10  C   UNL A   1      33.441  19.941  25.843  1.00  0.00     0.004 A 
ATOM     11  C   UNL A   1      32.556  20.122  23.631  1.00  0.00     0.043 A 
ATOM     12  F   UNL A   1      32.609  22.196  22.524  1.00  0.00    -0.207 F 
ATOM     13  C   UNL A   1      32.808  19.322  24.757  1.00  0.00    -0.041 A 
BRANCH  13  14
ATOM     14  C   UNL A   1      32.218  17.928  24.810  1.00  0.00     0.074 C 
BRANCH  14  15
ATOM     15  C   UNL A   1      33.239  16.834  24.865  1.00  0.00    -0.005 A 
ATOM     16  C   UNL A   1      34.658  16.852  24.699  1.00  0.00     0.046 A 
ATOM     17  C   UNL A   1      32.967  15.541  25.288  1.00  0.00     0.198 A 
ATOM     18  C   UNL A   1      35.125  15.612  25.066  1.00  0.00     0.195 A 
ATOM     19  O   UNL A   1      34.098  14.811  25.423  1.00  0.00    -0.472 OA
ENDBRANCH  14  15
ENDBRANCH  13  14
ENDBRANCH   5   7
ENDBRANCH   3   5
ENDBRANCH   2   3
ENDBRANCH   1   2
BRANCH   1  20
ATOM     20  C   UNL A   1      38.522  23.514  26.469  1.00  0.00     0.275 C 
BRANCH  20  21
ATOM     21  O   UNL A   1      38.828  24.919  26.536  1.00  0.00    -0.458 OA
BRANCH  21  22
ATOM     22  C   UNL A   1      40.145  25.230  26.552  1.00  0.00     0.338 C 
ATOM     23  O   UNL A   1      40.982  24.935  25.716  1.00  0.00    -0.246 OA
BRANCH  22  24
ATOM     24  C   UNL A   1      40.435  26.102  27.701  1.00  0.00     0.060 A 
ATOM     25  C   UNL A   1      39.552  26.060  28.773  1.00  0.00     0.016 A 
ATOM     26  C   UNL A   1      41.471  27.036  27.684  1.00  0.00     0.016 A 
ATOM     27  C   UNL A   1      39.663  26.976  29.812  1.00  0.00     0.010 A 
ATOM     28  C   UNL A   1      41.610  27.932  28.758  1.00  0.00     0.010 A 
ATOM     29  C   UNL A   1      40.690  27.928  29.820  1.00  0.00    -0.014 A 
BRANCH  29  30
ATOM     30  C   UNL A   1      40.711  28.936  30.918  1.00  0.00     0.031 A 
ATOM     31  C   UNL A   1      39.745  30.092  30.903  1.00  0.00     0.074 A 
ATOM     32  C   UNL A   1      41.491  28.734  32.002  1.00  0.00     0.049 A 
ATOM     33  N   UNL A   1      39.586  31.050  31.782  1.00  0.00    -0.248 NA
ATOM     34  C   UNL A   1      38.826  30.181  29.755  1.00  0.00     0.031 C 
ATOM     35  C   UNL A   1      42.423  27.617  32.175  1.00  0.00     0.029 A 
ATOM     36  N   UNL A   1      41.586  29.428  33.183  1.00  0.00    -0.354 N 
ATOM     37  C   UNL A   1      38.526  31.822  31.321  1.00  0.00     0.074 A 
ATOM     38  C   UNL A   1      38.138  31.279  30.037  1.00  0.00     0.031 C 
ATOM     39  C   UNL A   1      42.945  27.668  33.411  1.00  0.00     0.029 A 
ATOM     40  C   UNL A   1      42.435  28.850  34.098  1.00  0.00     0.049 A 
ATOM     41  H   UNL A   1      41.093  30.263  33.359  1.00  0.00     0.167 HD
ATOM     42  C   UNL A   1      37.885  32.844  31.937  1.00  0.00     0.031 A 
ATOM     43  C   UNL A   1      42.773  29.227  35.349  1.00  0.00     0.031 A 
ATOM     44  C   UNL A   1      38.222  33.357  33.236  1.00  0.00     0.049 A 
ATOM     45  C   UNL A   1      42.177  30.481  35.926  1.00  0.00     0.074 A 
ATOM     46  C   UNL A   1      37.660  34.429  33.910  1.00  0.00     0.029 A 
ATOM     47  N   UNL A   1      39.187  32.820  34.073  1.00  0.00    -0.354 N 
ATOM     48  N   UNL A   1      41.224  31.237  35.441  1.00  0.00    -0.248 NA
ATOM     49  C   UNL A   1      42.718  30.942  37.213  1.00  0.00     0.031 C 
ATOM     50  C   UNL A   1      38.322  34.571  35.135  1.00  0.00     0.029 A 
ATOM     51  C   UNL A   1      39.271  33.568  35.238  1.00  0.00     0.049 A 
ATOM     52  H   UNL A   1      39.732  32.026  33.871  1.00  0.00     0.167 HD
ATOM     53  C   UNL A   1      41.047  32.261  36.363  1.00  0.00     0.074 A 
ATOM     54  C   UNL A   1      41.974  32.015  37.448  1.00  0.00     0.031 C 
ATOM     55  C   UNL A   1      40.200  33.318  36.308  1.00  0.00     0.031 A 
BRANCH  42  56
ATOM     56  C   UNL A   1      36.734  33.473  31.204  1.00  0.00    -0.014 A 
ATOM     57  C   UNL A   1      36.921  34.043  29.933  1.00  0.00     0.010 A 
ATOM     58  C   UNL A   1      35.450  33.463  31.775  1.00  0.00     0.010 A 
ATOM     59  C   UNL A   1      35.846  34.625  29.256  1.00  0.00     0.020 A 
ATOM     60  C   UNL A   1      34.369  34.030  31.094  1.00  0.00     0.020 A 
ATOM     61  C   UNL A   1      34.577  34.623  29.846  1.00  0.00     0.054 A 
BRANCH  61  62
ATOM     62  S   UNL A   1      33.198  35.381  28.945  1.00  0.00     0.124 S 
ATOM     63  O   UNL A   1      32.641  34.234  28.229  1.00  0.00    -0.237 OA
ATOM     64  O   UNL A   1      32.364  35.913  30.020  1.00  0.00    -0.237 OA
ATOM     65  O   UNL A   1      33.843  36.385  28.104  1.00  0.00    -0.744 OA
ENDBRANCH  61  62
ENDBRANCH  42  56
BRANCH  43  66
ATOM     66  C   UNL A   1      43.763  28.434  36.130  1.00  0.00    -0.014 A 
ATOM     67  C   UNL A   1      43.349  27.357  36.933  1.00  0.00     0.010 A 
ATOM     68  C   UNL A   1      45.129  28.768  36.087  1.00  0.00     0.010 A 
ATOM     69  C   UNL A   1      44.281  26.636  37.686  1.00  0.00     0.020 A 
ATOM     70  C   UNL A   1      46.066  28.033  36.816  1.00  0.00     0.020 A 
ATOM     71  C   UNL A   1      45.635  26.979  37.623  1.00  0.00     0.054 A 
BRANCH  71  72
ATOM     72  S   UNL A   1      46.843  26.006  38.565  1.00  0.00     0.124 S 
ATOM     73  O   UNL A   1      46.055  25.577  39.715  1.00  0.00    -0.237 OA
ATOM     74  O   UNL A   1      47.213  24.953  37.623  1.00  0.00    -0.237 OA
ATOM     75  O   UNL A   1      47.902  26.971  38.853  1.00  0.00    -0.744 OA
ENDBRANCH  71  72
ENDBRANCH  43  66
BRANCH  55  76
ATOM     76  C   UNL A   1      40.242  34.294  37.451  1.00  0.00    -0.014 A 
ATOM     77  C   UNL A   1      39.589  34.003  38.661  1.00  0.00     0.010 A 
ATOM     78  C   UNL A   1      40.978  35.487  37.337  1.00  0.00     0.010 A 
ATOM     79  C   UNL A   1      39.652  34.897  39.732  1.00  0.00     0.020 A 
ATOM     80  C   UNL A   1      41.060  36.375  38.413  1.00  0.00     0.020 A 
ATOM     81  C   UNL A   1      40.386  36.080  39.601  1.00  0.00     0.054 A 
BRANCH  81  82
ATOM     82  S   UNL A   1      40.498  37.204  41.022  1.00  0.00     0.124 S 
ATOM     83  O   UNL A   1      41.580  38.098  40.618  1.00  0.00    -0.237 OA
ATOM     84  O   UNL A   1      39.168  37.807  41.065  1.00  0.00    -0.237 OA
ATOM     85  O   UNL A   1      40.808  36.316  42.140  1.00  0.00    -0.744 OA
ENDBRANCH  81  82
ENDBRANCH  55  76
ENDBRANCH  29  30
ENDBRANCH  22  24
ENDBRANCH  21  22
ENDBRANCH  20  21
ENDBRANCH   1  20
TORSDOF 17
ENDMDL
