MODEL 1
REMARK VINA RESULT:     -12.4      0.000      0.000
REMARK SMILES C[C@H]1CC[C@H]([NH2+]Cc2c(C(=O)OCCOC(=O)c3ccc(-c4c5nc(c(-c6ccc(S(=O)(=O)[O-])cc6)c6ccc([nH]6)c(-c6ccc(S(=O)(=O)[O-])cc6)c6nc(c(-c7ccc(S(=O)(=O)[O-])cc7)c7ccc4[nH]7)C=C6)C=C5)cc3)n(Cc3ccccc3F)c3ccccc23)CC1
REMARK SMILES IDX 13 1 12 2 10 3 11 4 9 5 8 6 92 7 78 8 87 9 91 10 88 11 90 12
REMARK SMILES IDX 89 13 7 14 6 15 5 18 1 19 2 20 3 21 94 22 4 23 93 24 79 25
REMARK SMILES IDX 80 26 81 27 85 28 82 29 84 30 86 31 83 32 14 33 15 34 16 35
REMARK SMILES IDX 17 36 18 37 19 38 77 39 20 40 76 41 21 42 22 43 23 44 70 45
REMARK SMILES IDX 24 46 75 47 69 48 71 49 25 50 74 51 68 52 67 53 26 55 56 56
REMARK SMILES IDX 37 57 55 58 38 59 41 60 54 61 72 62 39 63 40 64 53 66 73 67
REMARK SMILES IDX 42 68 27 69 28 70 36 71 29 72 35 73 30 74 31 75 32 76 33 77
REMARK SMILES IDX 34 78 57 79 58 80 66 81 59 82 65 83 60 84 61 85 62 86 63 87
REMARK SMILES IDX 64 88 43 89 44 90 52 91 45 92 51 93 46 94 47 95 48 96 49 97
REMARK SMILES IDX 50 98
REMARK H PARENT 6 16 6 17 71 54 41 65
REMARK Flexibility Score: inf
ROOT
ATOM      1  C   UNL A   1      37.163  21.459  25.621  1.00  0.00     0.275 C 
ENDROOT
BRANCH   1   2
ATOM      2  O   UNL A   1      36.551  22.761  25.366  1.00  0.00    -0.457 OA
BRANCH   2   3
ATOM      3  C   UNL A   1      35.508  22.789  24.498  1.00  0.00     0.355 C 
ATOM      4  O   UNL A   1      35.651  22.570  23.306  1.00  0.00    -0.244 OA
BRANCH   3   5
ATOM      5  C   UNL A   1      34.232  23.165  25.088  1.00  0.00     0.137 A 
ATOM      6  C   UNL A   1      33.444  24.316  24.889  1.00  0.00     0.047 A 
ATOM      7  C   UNL A   1      32.236  24.125  25.664  1.00  0.00     0.009 A 
ATOM      8  N   UNL A   1      33.456  22.259  25.850  1.00  0.00    -0.330 N 
ATOM      9  C   UNL A   1      32.218  22.816  26.131  1.00  0.00     0.050 A 
ATOM     10  C   UNL A   1      31.096  24.932  25.900  1.00  0.00     0.011 A 
ATOM     11  C   UNL A   1      31.054  22.260  26.695  1.00  0.00     0.027 A 
ATOM     12  C   UNL A   1      29.969  24.404  26.540  1.00  0.00     0.001 A 
ATOM     13  C   UNL A   1      29.941  23.071  26.908  1.00  0.00     0.002 A 
BRANCH   6  14
ATOM     14  C   UNL A   1      33.582  25.560  24.016  1.00  0.00     0.300 C 
BRANCH  14  15
ATOM     15  N   UNL A   1      33.897  26.832  24.660  1.00  0.00    -0.340 N 
ATOM     16  H   UNL A   1      34.560  26.638  25.410  1.00  0.00     0.346 HD
ATOM     17  H   UNL A   1      34.248  27.423  23.905  1.00  0.00     0.346 HD
BRANCH  15  18
ATOM     18  C   UNL A   1      32.781  27.603  25.247  1.00  0.00     0.182 C 
ATOM     19  C   UNL A   1      31.409  31.629  26.596  1.00  0.00     0.007 C 
ATOM     20  C   UNL A   1      32.154  30.405  26.074  1.00  0.00    -0.014 C 
ATOM     21  C   UNL A   1      31.392  29.744  24.928  1.00  0.00     0.009 C 
ATOM     22  C   UNL A   1      32.381  29.341  27.148  1.00  0.00     0.009 C 
ATOM     23  C   UNL A   1      32.262  28.671  24.291  1.00  0.00     0.065 C 
ATOM     24  C   UNL A   1      33.225  28.172  26.616  1.00  0.00     0.065 C 
ENDBRANCH  15  18
ENDBRANCH  14  15
ENDBRANCH   6  14
BRANCH   8  25
ATOM     25  C   UNL A   1      33.695  20.811  25.995  1.00  0.00     0.161 C 
BRANCH  25  26
ATOM     26  C   UNL A   1      33.622  19.889  24.795  1.00  0.00     0.008 A 
ATOM     27  C   UNL A   1      34.373  18.703  24.721  1.00  0.00     0.008 A 
ATOM     28  C   UNL A   1      32.599  20.051  23.852  1.00  0.00     0.128 A 
ATOM     29  C   UNL A   1      34.081  17.709  23.778  1.00  0.00     0.001 A 
ATOM     30  C   UNL A   1      32.291  19.057  22.918  1.00  0.00     0.039 A 
ATOM     31  F   UNL A   1      31.823  21.142  23.885  1.00  0.00    -0.207 F 
ATOM     32  C   UNL A   1      33.027  17.876  22.888  1.00  0.00     0.003 A 
ENDBRANCH  25  26
ENDBRANCH   8  25
ENDBRANCH   3   5
ENDBRANCH   2   3
ENDBRANCH   1   2
BRANCH   1  33
ATOM     33  C   UNL A   1      38.697  21.334  25.689  1.00  0.00     0.275 C 
BRANCH  33  34
ATOM     34  O   UNL A   1      39.240  22.635  26.011  1.00  0.00    -0.458 OA
BRANCH  34  35
ATOM     35  C   UNL A   1      40.375  22.626  26.762  1.00  0.00     0.338 C 
ATOM     36  O   UNL A   1      41.369  21.954  26.544  1.00  0.00    -0.246 OA
BRANCH  35  37
ATOM     37  C   UNL A   1      40.319  23.805  27.669  1.00  0.00     0.060 A 
ATOM     38  C   UNL A   1      39.175  24.600  27.789  1.00  0.00     0.016 A 
ATOM     39  C   UNL A   1      41.541  24.275  28.157  1.00  0.00     0.016 A 
ATOM     40  C   UNL A   1      39.293  25.924  28.228  1.00  0.00     0.010 A 
ATOM     41  C   UNL A   1      41.647  25.597  28.591  1.00  0.00     0.010 A 
ATOM     42  C   UNL A   1      40.549  26.469  28.525  1.00  0.00    -0.014 A 
BRANCH  42  43
ATOM     43  C   UNL A   1      40.694  27.898  28.859  1.00  0.00     0.031 A 
ATOM     44  C   UNL A   1      41.855  28.620  28.312  1.00  0.00     0.074 A 
ATOM     45  C   UNL A   1      39.850  28.728  29.506  1.00  0.00     0.049 A 
ATOM     46  N   UNL A   1      43.013  28.714  28.865  1.00  0.00    -0.248 NA
ATOM     47  C   UNL A   1      41.735  29.287  27.011  1.00  0.00     0.031 C 
ATOM     48  C   UNL A   1      38.427  28.571  29.737  1.00  0.00     0.029 A 
ATOM     49  N   UNL A   1      40.120  29.958  30.050  1.00  0.00    -0.354 N 
ATOM     50  C   UNL A   1      43.740  29.576  28.065  1.00  0.00     0.074 A 
ATOM     51  C   UNL A   1      42.971  29.766  26.856  1.00  0.00     0.031 C 
ATOM     52  C   UNL A   1      37.919  29.697  30.293  1.00  0.00     0.029 A 
ATOM     53  C   UNL A   1      39.015  30.609  30.580  1.00  0.00     0.049 A 
ATOM     54  H   UNL A   1      41.025  30.347  30.064  1.00  0.00     0.167 HD
ATOM     55  C   UNL A   1      44.841  30.220  28.531  1.00  0.00     0.031 A 
ATOM     56  C   UNL A   1      39.008  31.801  31.225  1.00  0.00     0.031 A 
ATOM     57  C   UNL A   1      45.149  29.860  29.892  1.00  0.00     0.049 A 
ATOM     58  C   UNL A   1      40.359  32.022  31.797  1.00  0.00     0.074 A 
ATOM     59  C   UNL A   1      45.560  28.712  30.533  1.00  0.00     0.029 A 
ATOM     60  N   UNL A   1      44.635  30.693  30.860  1.00  0.00    -0.354 N 
ATOM     61  N   UNL A   1      40.882  31.263  32.720  1.00  0.00    -0.248 NA
ATOM     62  C   UNL A   1      41.285  32.963  31.179  1.00  0.00     0.031 C 
ATOM     63  C   UNL A   1      44.968  28.758  31.832  1.00  0.00     0.029 A 
ATOM     64  C   UNL A   1      44.221  29.934  31.932  1.00  0.00     0.049 A 
ATOM     65  H   UNL A   1      44.572  31.674  30.795  1.00  0.00     0.167 HD
ATOM     66  C   UNL A   1      42.246  31.329  32.504  1.00  0.00     0.074 A 
ATOM     67  C   UNL A   1      42.438  32.517  31.688  1.00  0.00     0.031 C 
ATOM     68  C   UNL A   1      43.051  30.253  32.743  1.00  0.00     0.031 A 
BRANCH  55  69
ATOM     69  C   UNL A   1      45.492  31.380  27.850  1.00  0.00    -0.014 A 
ATOM     70  C   UNL A   1      44.855  32.623  27.668  1.00  0.00     0.010 A 
ATOM     71  C   UNL A   1      46.849  31.282  27.494  1.00  0.00     0.010 A 
ATOM     72  C   UNL A   1      45.513  33.698  27.071  1.00  0.00     0.020 A 
ATOM     73  C   UNL A   1      47.531  32.369  26.936  1.00  0.00     0.020 A 
ATOM     74  C   UNL A   1      46.849  33.564  26.704  1.00  0.00     0.054 A 
BRANCH  74  75
ATOM     75  S   UNL A   1      47.703  34.994  25.997  1.00  0.00     0.124 S 
ATOM     76  O   UNL A   1      46.590  35.770  25.460  1.00  0.00    -0.237 OA
ATOM     77  O   UNL A   1      48.373  35.573  27.159  1.00  0.00    -0.237 OA
ATOM     78  O   UNL A   1      48.593  34.401  25.002  1.00  0.00    -0.744 OA
ENDBRANCH  74  75
ENDBRANCH  55  69
BRANCH  56  79
ATOM     79  C   UNL A   1      37.948  32.836  31.291  1.00  0.00    -0.014 A 
ATOM     80  C   UNL A   1      37.581  33.381  32.537  1.00  0.00     0.010 A 
ATOM     81  C   UNL A   1      37.101  33.076  30.191  1.00  0.00     0.010 A 
ATOM     82  C   UNL A   1      36.370  34.064  32.700  1.00  0.00     0.020 A 
ATOM     83  C   UNL A   1      35.882  33.757  30.348  1.00  0.00     0.020 A 
ATOM     84  C   UNL A   1      35.508  34.211  31.613  1.00  0.00     0.054 A 
BRANCH  84  85
ATOM     85  S   UNL A   1      33.860  34.914  31.907  1.00  0.00     0.124 S 
ATOM     86  O   UNL A   1      34.183  36.271  32.342  1.00  0.00    -0.237 OA
ATOM     87  O   UNL A   1      33.231  34.812  30.592  1.00  0.00    -0.237 OA
ATOM     88  O   UNL A   1      33.290  34.048  32.936  1.00  0.00    -0.744 OA
ENDBRANCH  84  85
ENDBRANCH  56  79
BRANCH  68  89
ATOM     89  C   UNL A   1      42.550  29.175  33.684  1.00  0.00    -0.014 A 
ATOM     90  C   UNL A   1      43.079  29.133  34.988  1.00  0.00     0.010 A 
ATOM     91  C   UNL A   1      41.687  28.135  33.286  1.00  0.00     0.010 A 
ATOM     92  C   UNL A   1      42.790  28.071  35.852  1.00  0.00     0.020 A 
ATOM     93  C   UNL A   1      41.370  27.082  34.156  1.00  0.00     0.020 A 
ATOM     94  C   UNL A   1      41.948  27.042  35.424  1.00  0.00     0.054 A 
BRANCH  94  95
ATOM     95  S   UNL A   1      41.637  25.648  36.543  1.00  0.00     0.124 S 
ATOM     96  O   UNL A   1      41.463  26.317  37.830  1.00  0.00    -0.237 OA
ATOM     97  O   UNL A   1      40.430  25.043  35.986  1.00  0.00    -0.237 OA
ATOM     98  O   UNL A   1      42.844  24.830  36.430  1.00  0.00    -0.744 OA
ENDBRANCH  94  95
ENDBRANCH  68  89
ENDBRANCH  42  43
ENDBRANCH  35  37
ENDBRANCH  34  35
ENDBRANCH  33  34
ENDBRANCH   1  33
TORSDOF 19
ENDMDL
MODEL 2
REMARK VINA RESULT:     -11.9      3.108      9.744
REMARK SMILES C[C@H]1CC[C@H]([NH2+]Cc2c(C(=O)OCCOC(=O)c3ccc(-c4c5nc(c(-c6ccc(S(=O)(=O)[O-])cc6)c6ccc([nH]6)c(-c6ccc(S(=O)(=O)[O-])cc6)c6nc(c(-c7ccc(S(=O)(=O)[O-])cc7)c7ccc4[nH]7)C=C6)C=C5)cc3)n(Cc3ccccc3F)c3ccccc23)CC1
REMARK SMILES IDX 13 1 12 2 10 3 11 4 9 5 8 6 92 7 78 8 87 9 91 10 88 11 90 12
REMARK SMILES IDX 89 13 7 14 6 15 5 18 1 19 2 20 3 21 94 22 4 23 93 24 79 25
REMARK SMILES IDX 80 26 81 27 85 28 82 29 84 30 86 31 83 32 14 33 15 34 16 35
REMARK SMILES IDX 17 36 18 37 19 38 77 39 20 40 76 41 21 42 22 43 23 44 70 45
REMARK SMILES IDX 24 46 75 47 69 48 71 49 25 50 74 51 68 52 67 53 26 55 56 56
REMARK SMILES IDX 37 57 55 58 38 59 41 60 54 61 72 62 39 63 40 64 53 66 73 67
REMARK SMILES IDX 42 68 27 69 28 70 36 71 29 72 35 73 30 74 31 75 32 76 33 77
REMARK SMILES IDX 34 78 57 79 58 80 66 81 59 82 65 83 60 84 61 85 62 86 63 87
REMARK SMILES IDX 64 88 43 89 44 90 52 91 45 92 51 93 46 94 47 95 48 96 49 97
REMARK SMILES IDX 50 98
REMARK H PARENT 6 16 6 17 71 54 41 65
REMARK Flexibility Score: inf
ROOT
ATOM      1  C   UNL A   1      32.725  30.780  26.907  1.00  0.00     0.275 C 
ENDROOT
BRANCH   1   2
ATOM      2  O   UNL A   1      32.581  29.911  25.741  1.00  0.00    -0.457 OA
BRANCH   2   3
ATOM      3  C   UNL A   1      32.046  28.681  25.955  1.00  0.00     0.355 C 
ATOM      4  O   UNL A   1      31.348  28.438  26.927  1.00  0.00    -0.244 OA
BRANCH   3   5
ATOM      5  C   UNL A   1      32.426  27.672  24.978  1.00  0.00     0.137 A 
ATOM      6  C   UNL A   1      32.878  26.351  25.167  1.00  0.00     0.047 A 
ATOM      7  C   UNL A   1      33.023  25.775  23.846  1.00  0.00     0.009 A 
ATOM      8  N   UNL A   1      32.181  27.832  23.593  1.00  0.00    -0.330 N 
ATOM      9  C   UNL A   1      32.472  26.654  22.922  1.00  0.00     0.050 A 
ATOM     10  C   UNL A   1      33.473  24.514  23.381  1.00  0.00     0.011 A 
ATOM     11  C   UNL A   1      32.233  26.258  21.592  1.00  0.00     0.027 A 
ATOM     12  C   UNL A   1      33.315  24.153  22.039  1.00  0.00     0.001 A 
ATOM     13  C   UNL A   1      32.675  25.008  21.159  1.00  0.00     0.002 A 
BRANCH   6  14
ATOM     14  C   UNL A   1      33.127  25.478  26.394  1.00  0.00     0.300 C 
BRANCH  14  15
ATOM     15  N   UNL A   1      32.015  24.699  26.932  1.00  0.00    -0.340 N 
ATOM     16  H   UNL A   1      31.904  24.961  27.911  1.00  0.00     0.346 HD
ATOM     17  H   UNL A   1      31.226  24.923  26.325  1.00  0.00     0.346 HD
BRANCH  15  18
ATOM     18  C   UNL A   1      32.117  23.226  26.879  1.00  0.00     0.182 C 
ATOM     19  C   UNL A   1      33.880  19.741  24.718  1.00  0.00     0.007 C 
ATOM     20  C   UNL A   1      33.424  21.105  25.230  1.00  0.00    -0.014 C 
ATOM     21  C   UNL A   1      33.816  21.304  26.691  1.00  0.00     0.009 C 
ATOM     22  C   UNL A   1      31.911  21.304  25.129  1.00  0.00     0.009 C 
ATOM     23  C   UNL A   1      33.547  22.745  27.097  1.00  0.00     0.065 C 
ATOM     24  C   UNL A   1      31.500  22.723  25.551  1.00  0.00     0.065 C 
ENDBRANCH  15  18
ENDBRANCH  14  15
ENDBRANCH   6  14
BRANCH   8  25
ATOM     25  C   UNL A   1      31.367  28.889  22.966  1.00  0.00     0.161 C 
BRANCH  25  26
ATOM     26  C   UNL A   1      29.867  28.730  22.821  1.00  0.00     0.008 A 
ATOM     27  C   UNL A   1      29.174  27.647  23.389  1.00  0.00     0.008 A 
ATOM     28  C   UNL A   1      29.094  29.802  22.355  1.00  0.00     0.128 A 
ATOM     29  C   UNL A   1      27.781  27.659  23.525  1.00  0.00     0.001 A 
ATOM     30  C   UNL A   1      27.704  29.828  22.501  1.00  0.00     0.039 A 
ATOM     31  F   UNL A   1      29.690  30.881  21.832  1.00  0.00    -0.207 F 
ATOM     32  C   UNL A   1      27.044  28.758  23.098  1.00  0.00     0.003 A 
ENDBRANCH  25  26
ENDBRANCH   8  25
ENDBRANCH   3   5
ENDBRANCH   2   3
ENDBRANCH   1   2
BRANCH   1  33
ATOM     33  C   UNL A   1      34.114  31.330  27.284  1.00  0.00     0.275 C 
BRANCH  33  34
ATOM     34  O   UNL A   1      34.324  31.089  28.695  1.00  0.00    -0.458 OA
BRANCH  34  35
ATOM     35  C   UNL A   1      35.316  31.821  29.271  1.00  0.00     0.338 C 
ATOM     36  O   UNL A   1      35.168  32.658  30.145  1.00  0.00    -0.246 OA
BRANCH  35  37
ATOM     37  C   UNL A   1      36.612  31.188  28.900  1.00  0.00     0.060 A 
ATOM     38  C   UNL A   1      36.703  29.845  28.520  1.00  0.00     0.016 A 
ATOM     39  C   UNL A   1      37.770  31.888  29.246  1.00  0.00     0.016 A 
ATOM     40  C   UNL A   1      37.919  29.165  28.661  1.00  0.00     0.010 A 
ATOM     41  C   UNL A   1      38.975  31.200  29.385  1.00  0.00     0.010 A 
ATOM     42  C   UNL A   1      39.038  29.809  29.203  1.00  0.00    -0.014 A 
BRANCH  42  43
ATOM     43  C   UNL A   1      40.280  29.063  29.478  1.00  0.00     0.031 A 
ATOM     44  C   UNL A   1      40.680  28.883  30.883  1.00  0.00     0.074 A 
ATOM     45  C   UNL A   1      41.088  28.383  28.638  1.00  0.00     0.049 A 
ATOM     46  N   UNL A   1      41.406  29.692  31.571  1.00  0.00    -0.248 NA
ATOM     47  C   UNL A   1      40.212  27.699  31.614  1.00  0.00     0.031 C 
ATOM     48  C   UNL A   1      40.793  27.879  27.311  1.00  0.00     0.029 A 
ATOM     49  N   UNL A   1      42.369  27.947  28.860  1.00  0.00    -0.354 N 
ATOM     50  C   UNL A   1      41.622  29.063  32.783  1.00  0.00     0.074 A 
ATOM     51  C   UNL A   1      40.734  27.924  32.821  1.00  0.00     0.031 C 
ATOM     52  C   UNL A   1      41.823  27.120  26.863  1.00  0.00     0.029 A 
ATOM     53  C   UNL A   1      42.911  27.197  27.826  1.00  0.00     0.049 A 
ATOM     54  H   UNL A   1      42.864  28.149  29.687  1.00  0.00     0.167 HD
ATOM     55  C   UNL A   1      42.650  29.419  33.595  1.00  0.00     0.031 A 
ATOM     56  C   UNL A   1      44.168  26.695  27.758  1.00  0.00     0.031 A 
ATOM     57  C   UNL A   1      43.416  30.516  33.059  1.00  0.00     0.049 A 
ATOM     58  C   UNL A   1      45.040  27.526  28.625  1.00  0.00     0.074 A 
ATOM     59  C   UNL A   1      43.171  31.847  32.800  1.00  0.00     0.029 A 
ATOM     60  N   UNL A   1      44.526  30.166  32.325  1.00  0.00    -0.354 N 
ATOM     61  N   UNL A   1      45.284  28.788  28.401  1.00  0.00    -0.248 NA
ATOM     62  C   UNL A   1      45.484  27.037  29.924  1.00  0.00     0.031 C 
ATOM     63  C   UNL A   1      43.952  32.169  31.649  1.00  0.00     0.029 A 
ATOM     64  C   UNL A   1      44.644  31.023  31.253  1.00  0.00     0.049 A 
ATOM     65  H   UNL A   1      45.137  29.422  32.532  1.00  0.00     0.167 HD
ATOM     66  C   UNL A   1      45.512  29.333  29.650  1.00  0.00     0.074 A 
ATOM     67  C   UNL A   1      45.809  28.195  30.506  1.00  0.00     0.031 C 
ATOM     68  C   UNL A   1      45.135  30.612  29.942  1.00  0.00     0.031 A 
BRANCH  55  69
ATOM     69  C   UNL A   1      43.134  28.605  34.751  1.00  0.00    -0.014 A 
ATOM     70  C   UNL A   1      43.854  27.404  34.600  1.00  0.00     0.010 A 
ATOM     71  C   UNL A   1      42.989  29.122  36.051  1.00  0.00     0.010 A 
ATOM     72  C   UNL A   1      44.331  26.697  35.704  1.00  0.00     0.020 A 
ATOM     73  C   UNL A   1      43.503  28.442  37.161  1.00  0.00     0.020 A 
ATOM     74  C   UNL A   1      44.150  27.220  36.981  1.00  0.00     0.054 A 
BRANCH  74  75
ATOM     75  S   UNL A   1      44.840  26.322  38.393  1.00  0.00     0.124 S 
ATOM     76  O   UNL A   1      43.847  26.587  39.429  1.00  0.00    -0.237 OA
ATOM     77  O   UNL A   1      44.889  24.947  37.903  1.00  0.00    -0.237 OA
ATOM     78  O   UNL A   1      46.141  26.954  38.595  1.00  0.00    -0.744 OA
ENDBRANCH  74  75
ENDBRANCH  55  69
BRANCH  56  79
ATOM     79  C   UNL A   1      44.663  25.468  27.090  1.00  0.00    -0.014 A 
ATOM     80  C   UNL A   1      44.762  25.429  25.686  1.00  0.00     0.010 A 
ATOM     81  C   UNL A   1      44.758  24.249  27.792  1.00  0.00     0.010 A 
ATOM     82  C   UNL A   1      44.863  24.213  25.000  1.00  0.00     0.020 A 
ATOM     83  C   UNL A   1      44.856  23.025  27.110  1.00  0.00     0.020 A 
ATOM     84  C   UNL A   1      44.866  23.015  25.716  1.00  0.00     0.054 A 
BRANCH  84  85
ATOM     85  S   UNL A   1      44.786  21.456  24.788  1.00  0.00     0.124 S 
ATOM     86  O   UNL A   1      44.694  21.929  23.409  1.00  0.00    -0.237 OA
ATOM     87  O   UNL A   1      46.047  20.809  25.145  1.00  0.00    -0.237 OA
ATOM     88  O   UNL A   1      43.586  20.803  25.306  1.00  0.00    -0.744 OA
ENDBRANCH  84  85
ENDBRANCH  56  79
BRANCH  68  89
ATOM     89  C   UNL A   1      44.924  31.579  28.792  1.00  0.00    -0.014 A 
ATOM     90  C   UNL A   1      43.918  31.283  27.853  1.00  0.00     0.010 A 
ATOM     91  C   UNL A   1      45.764  32.681  28.539  1.00  0.00     0.010 A 
ATOM     92  C   UNL A   1      43.779  32.037  26.681  1.00  0.00     0.020 A 
ATOM     93  C   UNL A   1      45.613  33.458  27.382  1.00  0.00     0.020 A 
ATOM     94  C   UNL A   1      44.639  33.112  26.445  1.00  0.00     0.054 A 
BRANCH  94  95
ATOM     95  S   UNL A   1      44.475  34.034  24.891  1.00  0.00     0.124 S 
ATOM     96  O   UNL A   1      45.797  34.639  24.751  1.00  0.00    -0.237 OA
ATOM     97  O   UNL A   1      44.163  32.987  23.921  1.00  0.00    -0.237 OA
ATOM     98  O   UNL A   1      43.389  34.975  25.154  1.00  0.00    -0.744 OA
ENDBRANCH  94  95
ENDBRANCH  68  89
ENDBRANCH  42  43
ENDBRANCH  35  37
ENDBRANCH  34  35
ENDBRANCH  33  34
ENDBRANCH   1  33
TORSDOF 19
ENDMDL
MODEL 3
REMARK VINA RESULT:     -11.8      7.013     12.355
REMARK SMILES C[C@H]1CC[C@H]([NH2+]Cc2c(C(=O)OCCOC(=O)c3ccc(-c4c5nc(c(-c6ccc(S(=O)(=O)[O-])cc6)c6ccc([nH]6)c(-c6ccc(S(=O)(=O)[O-])cc6)c6nc(c(-c7ccc(S(=O)(=O)[O-])cc7)c7ccc4[nH]7)C=C6)C=C5)cc3)n(Cc3ccccc3F)c3ccccc23)CC1
REMARK SMILES IDX 13 1 12 2 10 3 11 4 9 5 8 6 92 7 78 8 87 9 91 10 88 11 90 12
REMARK SMILES IDX 89 13 7 14 6 15 5 18 1 19 2 20 3 21 94 22 4 23 93 24 79 25
REMARK SMILES IDX 80 26 81 27 85 28 82 29 84 30 86 31 83 32 14 33 15 34 16 35
REMARK SMILES IDX 17 36 18 37 19 38 77 39 20 40 76 41 21 42 22 43 23 44 70 45
REMARK SMILES IDX 24 46 75 47 69 48 71 49 25 50 74 51 68 52 67 53 26 55 56 56
REMARK SMILES IDX 37 57 55 58 38 59 41 60 54 61 72 62 39 63 40 64 53 66 73 67
REMARK SMILES IDX 42 68 27 69 28 70 36 71 29 72 35 73 30 74 31 75 32 76 33 77
REMARK SMILES IDX 34 78 57 79 58 80 66 81 59 82 65 83 60 84 61 85 62 86 63 87
REMARK SMILES IDX 64 88 43 89 44 90 52 91 45 92 51 93 46 94 47 95 48 96 49 97
REMARK SMILES IDX 50 98
REMARK H PARENT 6 16 6 17 71 54 41 65
REMARK Flexibility Score: inf
ROOT
ATOM      1  C   UNL A   1      39.054  31.426  31.808  1.00  0.00     0.275 C 
ENDROOT
BRANCH   1   2
ATOM      2  O   UNL A   1      38.299  32.060  30.730  1.00  0.00    -0.457 OA
BRANCH   2   3
ATOM      3  C   UNL A   1      37.002  31.686  30.585  1.00  0.00     0.355 C 
ATOM      4  O   UNL A   1      36.679  30.520  30.423  1.00  0.00    -0.244 OA
BRANCH   3   5
ATOM      5  C   UNL A   1      36.047  32.783  30.573  1.00  0.00     0.137 A 
ATOM      6  C   UNL A   1      35.340  33.359  29.499  1.00  0.00     0.047 A 
ATOM      7  C   UNL A   1      34.464  34.359  30.073  1.00  0.00     0.009 A 
ATOM      8  N   UNL A   1      35.509  33.330  31.763  1.00  0.00    -0.330 N 
ATOM      9  C   UNL A   1      34.497  34.227  31.456  1.00  0.00     0.050 A 
ATOM     10  C   UNL A   1      33.550  35.285  29.513  1.00  0.00     0.011 A 
ATOM     11  C   UNL A   1      33.558  34.885  32.273  1.00  0.00     0.027 A 
ATOM     12  C   UNL A   1      32.674  36.005  30.333  1.00  0.00     0.001 A 
ATOM     13  C   UNL A   1      32.661  35.784  31.699  1.00  0.00     0.002 A 
BRANCH   6  14
ATOM     14  C   UNL A   1      35.272  33.079  28.000  1.00  0.00     0.300 C 
BRANCH  14  15
ATOM     15  N   UNL A   1      35.452  31.706  27.538  1.00  0.00    -0.340 N 
ATOM     16  H   UNL A   1      35.603  31.740  26.530  1.00  0.00     0.346 HD
ATOM     17  H   UNL A   1      36.235  31.350  28.088  1.00  0.00     0.346 HD
BRANCH  15  18
ATOM     18  C   UNL A   1      34.356  30.746  27.787  1.00  0.00     0.182 C 
ATOM     19  C   UNL A   1      31.446  27.928  25.915  1.00  0.00     0.007 C 
ATOM     20  C   UNL A   1      32.526  28.952  26.252  1.00  0.00    -0.014 C 
ATOM     21  C   UNL A   1      33.556  28.370  27.214  1.00  0.00     0.009 C 
ATOM     22  C   UNL A   1      31.964  30.222  26.893  1.00  0.00     0.009 C 
ATOM     23  C   UNL A   1      34.726  29.333  27.351  1.00  0.00     0.065 C 
ATOM     24  C   UNL A   1      33.062  31.272  27.120  1.00  0.00     0.065 C 
ENDBRANCH  15  18
ENDBRANCH  14  15
ENDBRANCH   6  14
BRANCH   8  25
ATOM     25  C   UNL A   1      35.658  32.780  33.122  1.00  0.00     0.161 C 
BRANCH  25  26
ATOM     26  C   UNL A   1      36.773  33.254  34.033  1.00  0.00     0.008 A 
ATOM     27  C   UNL A   1      37.330  32.424  35.021  1.00  0.00     0.008 A 
ATOM     28  C   UNL A   1      37.467  34.433  33.731  1.00  0.00     0.128 A 
ATOM     29  C   UNL A   1      38.546  32.739  35.642  1.00  0.00     0.001 A 
ATOM     30  C   UNL A   1      38.688  34.747  34.335  1.00  0.00     0.039 A 
ATOM     31  F   UNL A   1      37.010  35.254  32.776  1.00  0.00    -0.207 F 
ATOM     32  C   UNL A   1      39.237  33.891  35.285  1.00  0.00     0.003 A 
ENDBRANCH  25  26
ENDBRANCH   8  25
ENDBRANCH   3   5
ENDBRANCH   2   3
ENDBRANCH   1   2
BRANCH   1  33
ATOM     33  C   UNL A   1      40.276  32.144  32.412  1.00  0.00     0.275 C 
BRANCH  33  34
ATOM     34  O   UNL A   1      40.538  33.327  31.622  1.00  0.00    -0.458 OA
BRANCH  34  35
ATOM     35  C   UNL A   1      41.546  33.215  30.716  1.00  0.00     0.338 C 
ATOM     36  O   UNL A   1      41.958  32.173  30.234  1.00  0.00    -0.246 OA
BRANCH  35  37
ATOM     37  C   UNL A   1      41.816  34.575  30.175  1.00  0.00     0.060 A 
ATOM     38  C   UNL A   1      41.268  35.018  28.967  1.00  0.00     0.016 A 
ATOM     39  C   UNL A   1      42.877  35.277  30.751  1.00  0.00     0.016 A 
ATOM     40  C   UNL A   1      41.898  36.046  28.255  1.00  0.00     0.010 A 
ATOM     41  C   UNL A   1      43.498  36.299  30.031  1.00  0.00     0.010 A 
ATOM     42  C   UNL A   1      43.085  36.618  28.728  1.00  0.00    -0.014 A 
BRANCH  42  43
ATOM     43  C   UNL A   1      43.825  37.605  27.919  1.00  0.00     0.031 A 
ATOM     44  C   UNL A   1      45.247  37.345  27.643  1.00  0.00     0.074 A 
ATOM     45  C   UNL A   1      43.378  38.692  27.256  1.00  0.00     0.049 A 
ATOM     46  N   UNL A   1      46.236  37.704  28.382  1.00  0.00    -0.248 NA
ATOM     47  C   UNL A   1      45.616  36.591  26.439  1.00  0.00     0.031 C 
ATOM     48  C   UNL A   1      42.025  39.005  26.841  1.00  0.00     0.029 A 
ATOM     49  N   UNL A   1      44.108  39.741  26.757  1.00  0.00    -0.354 N 
ATOM     50  C   UNL A   1      47.374  37.359  27.677  1.00  0.00     0.074 A 
ATOM     51  C   UNL A   1      46.942  36.532  26.574  1.00  0.00     0.031 C 
ATOM     52  C   UNL A   1      42.021  40.119  26.068  1.00  0.00     0.029 A 
ATOM     53  C   UNL A   1      43.366  40.674  26.046  1.00  0.00     0.049 A 
ATOM     54  H   UNL A   1      45.080  39.825  26.892  1.00  0.00     0.167 HD
ATOM     55  C   UNL A   1      48.577  37.929  27.945  1.00  0.00     0.031 A 
ATOM     56  C   UNL A   1      43.821  41.827  25.500  1.00  0.00     0.031 A 
ATOM     57  C   UNL A   1      48.507  38.864  29.040  1.00  0.00     0.049 A 
ATOM     58  C   UNL A   1      45.037  42.239  26.245  1.00  0.00     0.074 A 
ATOM     59  C   UNL A   1      48.258  38.773  30.392  1.00  0.00     0.029 A 
ATOM     60  N   UNL A   1      48.310  40.181  28.688  1.00  0.00    -0.354 N 
ATOM     61  N   UNL A   1      45.029  42.570  27.506  1.00  0.00    -0.248 NA
ATOM     62  C   UNL A   1      46.362  42.062  25.665  1.00  0.00     0.031 C 
ATOM     63  C   UNL A   1      47.590  39.984  30.748  1.00  0.00     0.029 A 
ATOM     64  C   UNL A   1      47.459  40.767  29.599  1.00  0.00     0.049 A 
ATOM     65  H   UNL A   1      48.712  40.631  27.910  1.00  0.00     0.167 HD
ATOM     66  C   UNL A   1      46.286  42.232  27.970  1.00  0.00     0.074 A 
ATOM     67  C   UNL A   1      47.106  42.111  26.775  1.00  0.00     0.031 C 
ATOM     68  C   UNL A   1      46.471  41.779  29.245  1.00  0.00     0.031 A 
BRANCH  55  69
ATOM     69  C   UNL A   1      49.769  37.847  27.048  1.00  0.00    -0.014 A 
ATOM     70  C   UNL A   1      51.053  38.279  27.433  1.00  0.00     0.010 A 
ATOM     71  C   UNL A   1      49.644  37.185  25.814  1.00  0.00     0.010 A 
ATOM     72  C   UNL A   1      52.153  38.141  26.584  1.00  0.00     0.020 A 
ATOM     73  C   UNL A   1      50.749  37.002  24.976  1.00  0.00     0.020 A 
ATOM     74  C   UNL A   1      51.993  37.505  25.357  1.00  0.00     0.054 A 
BRANCH  74  75
ATOM     75  S   UNL A   1      53.446  37.274  24.304  1.00  0.00     0.124 S 
ATOM     76  O   UNL A   1      54.468  36.912  25.282  1.00  0.00    -0.237 OA
ATOM     77  O   UNL A   1      53.024  36.201  23.407  1.00  0.00    -0.237 OA
ATOM     78  O   UNL A   1      53.619  38.578  23.670  1.00  0.00    -0.744 OA
ENDBRANCH  74  75
ENDBRANCH  55  69
BRANCH  56  79
ATOM     79  C   UNL A   1      43.355  42.552  24.293  1.00  0.00    -0.014 A 
ATOM     80  C   UNL A   1      42.092  42.255  23.745  1.00  0.00     0.010 A 
ATOM     81  C   UNL A   1      44.249  43.313  23.515  1.00  0.00     0.010 A 
ATOM     82  C   UNL A   1      41.766  42.625  22.435  1.00  0.00     0.020 A 
ATOM     83  C   UNL A   1      43.930  43.685  22.199  1.00  0.00     0.020 A 
ATOM     84  C   UNL A   1      42.705  43.302  21.655  1.00  0.00     0.054 A 
BRANCH  84  85
ATOM     85  S   UNL A   1      42.329  43.581  19.900  1.00  0.00     0.124 S 
ATOM     86  O   UNL A   1      40.908  43.920  19.946  1.00  0.00    -0.237 OA
ATOM     87  O   UNL A   1      43.224  44.682  19.554  1.00  0.00    -0.237 OA
ATOM     88  O   UNL A   1      42.645  42.302  19.269  1.00  0.00    -0.744 OA
ENDBRANCH  84  85
ENDBRANCH  56  79
BRANCH  68  89
ATOM     89  C   UNL A   1      45.414  42.105  30.283  1.00  0.00    -0.014 A 
ATOM     90  C   UNL A   1      45.663  43.166  31.174  1.00  0.00     0.010 A 
ATOM     91  C   UNL A   1      44.261  41.322  30.490  1.00  0.00     0.010 A 
ATOM     92  C   UNL A   1      44.813  43.413  32.258  1.00  0.00     0.020 A 
ATOM     93  C   UNL A   1      43.390  41.582  31.557  1.00  0.00     0.020 A 
ATOM     94  C   UNL A   1      43.689  42.608  32.452  1.00  0.00     0.054 A 
BRANCH  94  95
ATOM     95  S   UNL A   1      42.638  42.914  33.900  1.00  0.00     0.124 S 
ATOM     96  O   UNL A   1      41.973  44.164  33.540  1.00  0.00    -0.237 OA
ATOM     97  O   UNL A   1      41.774  41.736  33.932  1.00  0.00    -0.237 OA
ATOM     98  O   UNL A   1      43.585  43.013  35.008  1.00  0.00    -0.744 OA
ENDBRANCH  94  95
ENDBRANCH  68  89
ENDBRANCH  42  43
ENDBRANCH  35  37
ENDBRANCH  34  35
ENDBRANCH  33  34
ENDBRANCH   1  33
TORSDOF 19
ENDMDL
