MODEL 1
REMARK VINA RESULT:     -13.5      0.000      0.000
REMARK SMILES COc1ccc(NC(=O)N[C@@H]2C=C[C@H](C(=O)OCCOC(=O)c3ccc(-c4c5nc(c(-c6ccc(S(=O)(=O)[O-])cc6)c6ccc([nH]6)c(-c6ccc(S(=O)(=O)[O-])cc6)c6nc(c(-c7ccc(S(=O)(=O)[O-])cc7)c7ccc4[nH]7)C=C6)C=C5)cc3)C2)c(C)c1
REMARK SMILES IDX 18 1 17 2 15 3 16 4 14 5 11 6 12 7 83 8 13 9 10 10 7 11 8 12
REMARK SMILES IDX 9 14 6 16 3 17 4 18 86 19 5 20 84 21 85 22 2 23 1 24 19 25
REMARK SMILES IDX 20 26 21 27 22 28 23 29 24 30 82 31 25 32 81 33 26 34 27 35
REMARK SMILES IDX 28 36 75 37 29 38 80 39 74 40 76 41 30 42 79 43 73 44 72 45
REMARK SMILES IDX 31 47 61 48 42 49 60 50 43 51 46 52 59 53 77 54 44 55 45 56
REMARK SMILES IDX 58 58 78 59 47 60 32 61 33 62 41 63 34 64 40 65 35 66 36 67
REMARK SMILES IDX 37 68 38 69 39 70 62 71 63 72 71 73 64 74 70 75 65 76 66 77
REMARK SMILES IDX 67 78 68 79 69 80 48 81 49 82 57 83 50 84 56 85 51 86 52 87
REMARK SMILES IDX 53 88 54 89 55 90
REMARK H PARENT 7 13 10 15 76 46 46 57
REMARK Flexibility Score: inf
ROOT
ATOM      1  C   UNL A   1      33.844  32.611  27.939  1.00  0.00     0.274 C 
ENDROOT
BRANCH   1   2
ATOM      2  O   UNL A   1      34.008  31.205  27.739  1.00  0.00    -0.462 OA
BRANCH   2   3
ATOM      3  C   UNL A   1      32.876  30.496  27.167  1.00  0.00     0.312 C 
ATOM      4  O   UNL A   1      32.016  31.393  26.965  1.00  0.00    -0.252 OA
BRANCH   3   5
ATOM      5  C   UNL A   1      32.822  28.311  26.896  1.00  0.00     0.124 C 
ATOM      6  C   UNL A   1      33.141  26.237  25.171  1.00  0.00     0.107 C 
ATOM      7  C   UNL A   1      31.757  26.287  25.663  1.00  0.00    -0.006 C 
ATOM      8  C   UNL A   1      33.924  27.249  25.995  1.00  0.00     0.048 C 
ATOM      9  C   UNL A   1      31.592  27.186  26.632  1.00  0.00    -0.014 C 
BRANCH   6  10
ATOM     10  N   UNL A   1      33.211  26.339  23.732  1.00  0.00    -0.332 N 
ATOM     11  N   UNL A   1      34.044  24.221  22.989  1.00  0.00    -0.308 N 
ATOM     12  C   UNL A   1      33.616  25.486  22.759  1.00  0.00     0.319 C 
ATOM     13  H   UNL A   1      34.764  23.924  22.386  1.00  0.00     0.171 HD
ATOM     14  O   UNL A   1      33.660  25.917  21.604  1.00  0.00    -0.248 OA
ATOM     15  H   UNL A   1      32.903  27.208  23.387  1.00  0.00     0.165 HD
BRANCH  11  16
ATOM     16  C   UNL A   1      33.649  23.259  23.930  1.00  0.00     0.046 A 
ATOM     17  C   UNL A   1      33.239  20.862  25.297  1.00  0.00     0.119 A 
ATOM     18  C   UNL A   1      34.384  21.609  25.526  1.00  0.00     0.048 A 
ATOM     19  C   UNL A   1      32.196  21.449  24.573  1.00  0.00     0.052 A 
ATOM     20  C   UNL A   1      34.535  22.848  24.914  1.00  0.00     0.030 A 
ATOM     21  C   UNL A   1      32.376  22.676  23.901  1.00  0.00    -0.024 A 
ATOM     22  C   UNL A   1      31.173  23.361  23.314  1.00  0.00     0.047 C 
BRANCH  17  23
ATOM     23  O   UNL A   1      33.024  19.598  25.772  1.00  0.00    -0.497 OA
ATOM     24  C   UNL A   1      32.590  18.643  24.803  1.00  0.00     0.278 C 
ENDBRANCH  17  23
ENDBRANCH  11  16
ENDBRANCH   6  10
ENDBRANCH   3   5
ENDBRANCH   2   3
ENDBRANCH   1   2
BRANCH   1  25
ATOM     25  C   UNL A   1      34.666  33.002  29.175  1.00  0.00     0.275 C 
BRANCH  25  26
ATOM     26  O   UNL A   1      35.283  31.869  29.853  1.00  0.00    -0.458 OA
BRANCH  26  27
ATOM     27  C   UNL A   1      36.634  31.682  29.787  1.00  0.00     0.338 C 
ATOM     28  O   UNL A   1      37.481  32.451  30.212  1.00  0.00    -0.246 OA
BRANCH  27  29
ATOM     29  C   UNL A   1      36.953  30.292  29.395  1.00  0.00     0.060 A 
ATOM     30  C   UNL A   1      37.154  29.002  30.632  1.00  0.00     0.016 A 
ATOM     31  C   UNL A   1      37.964  30.309  27.934  1.00  0.00     0.016 A 
ATOM     32  C   UNL A   1      38.500  27.793  30.456  1.00  0.00     0.010 A 
ATOM     33  C   UNL A   1      39.283  29.104  27.737  1.00  0.00     0.010 A 
ATOM     34  C   UNL A   1      39.643  27.929  29.050  1.00  0.00    -0.014 A 
BRANCH  34  35
ATOM     35  C   UNL A   1      41.085  27.631  29.136  1.00  0.00     0.031 A 
ATOM     36  C   UNL A   1      41.514  26.339  28.560  1.00  0.00     0.074 A 
ATOM     37  C   UNL A   1      41.983  28.514  29.635  1.00  0.00     0.049 A 
ATOM     38  N   UNL A   1      42.163  25.436  29.218  1.00  0.00    -0.248 NA
ATOM     39  C   UNL A   1      41.110  25.885  27.229  1.00  0.00     0.031 C 
ATOM     40  C   UNL A   1      43.445  28.429  29.570  1.00  0.00     0.029 A 
ATOM     41  N   UNL A   1      41.802  29.674  30.375  1.00  0.00    -0.354 N 
ATOM     42  C   UNL A   1      42.425  24.427  28.306  1.00  0.00     0.074 A 
ATOM     43  C   UNL A   1      41.558  24.640  27.193  1.00  0.00     0.031 C 
ATOM     44  C   UNL A   1      43.976  29.274  30.475  1.00  0.00     0.029 A 
ATOM     45  C   UNL A   1      42.882  29.854  31.233  1.00  0.00     0.049 A 
ATOM     46  H   UNL A   1      41.026  30.277  30.304  1.00  0.00     0.167 HD
ATOM     47  C   UNL A   1      43.568  23.696  28.324  1.00  0.00     0.031 A 
ATOM     48  C   UNL A   1      42.763  29.811  32.594  1.00  0.00     0.031 A 
ATOM     49  C   UNL A   1      44.502  24.328  29.238  1.00  0.00     0.049 A 
ATOM     50  C   UNL A   1      43.434  28.560  33.159  1.00  0.00     0.074 A 
ATOM     51  C   UNL A   1      45.445  25.322  29.034  1.00  0.00     0.029 A 
ATOM     52  N   UNL A   1      44.189  24.358  30.583  1.00  0.00    -0.354 N 
ATOM     53  N   UNL A   1      43.766  27.516  32.442  1.00  0.00    -0.248 NA
ATOM     54  C   UNL A   1      43.806  28.394  34.559  1.00  0.00     0.031 C 
ATOM     55  C   UNL A   1      45.691  25.953  30.288  1.00  0.00     0.029 A 
ATOM     56  C   UNL A   1      44.940  25.304  31.253  1.00  0.00     0.049 A 
ATOM     57  H   UNL A   1      43.515  23.780  31.010  1.00  0.00     0.167 HD
ATOM     58  C   UNL A   1      44.389  26.570  33.223  1.00  0.00     0.074 A 
ATOM     59  C   UNL A   1      44.373  27.172  34.547  1.00  0.00     0.031 C 
ATOM     60  C   UNL A   1      44.856  25.385  32.709  1.00  0.00     0.031 A 
BRANCH  47  61
ATOM     61  C   UNL A   1      43.908  22.732  27.208  1.00  0.00    -0.014 A 
ATOM     62  C   UNL A   1      42.985  21.756  26.803  1.00  0.00     0.010 A 
ATOM     63  C   UNL A   1      45.149  22.745  26.524  1.00  0.00     0.010 A 
ATOM     64  C   UNL A   1      43.321  20.780  25.848  1.00  0.00     0.020 A 
ATOM     65  C   UNL A   1      45.524  21.736  25.623  1.00  0.00     0.020 A 
ATOM     66  C   UNL A   1      44.601  20.754  25.289  1.00  0.00     0.054 A 
BRANCH  66  67
ATOM     67  S   UNL A   1      45.024  19.447  24.105  1.00  0.00     0.124 S 
ATOM     68  O   UNL A   1      46.483  19.410  24.182  1.00  0.00    -0.237 OA
ATOM     69  O   UNL A   1      44.335  18.286  24.661  1.00  0.00    -0.237 OA
ATOM     70  O   UNL A   1      44.490  19.936  22.836  1.00  0.00    -0.744 OA
ENDBRANCH  66  67
ENDBRANCH  47  61
BRANCH  48  71
ATOM     71  C   UNL A   1      41.536  30.500  33.103  1.00  0.00    -0.014 A 
ATOM     72  C   UNL A   1      40.389  29.687  33.293  1.00  0.00     0.010 A 
ATOM     73  C   UNL A   1      41.579  31.740  33.756  1.00  0.00     0.010 A 
ATOM     74  C   UNL A   1      39.427  30.002  34.258  1.00  0.00     0.020 A 
ATOM     75  C   UNL A   1      40.583  32.082  34.696  1.00  0.00     0.020 A 
ATOM     76  C   UNL A   1      39.546  31.185  34.982  1.00  0.00     0.054 A 
BRANCH  76  77
ATOM     77  S   UNL A   1      38.392  31.460  36.367  1.00  0.00     0.124 S 
ATOM     78  O   UNL A   1      38.084  30.100  36.797  1.00  0.00    -0.237 OA
ATOM     79  O   UNL A   1      39.187  32.243  37.309  1.00  0.00    -0.237 OA
ATOM     80  O   UNL A   1      37.284  32.186  35.750  1.00  0.00    -0.744 OA
ENDBRANCH  76  77
ENDBRANCH  48  71
BRANCH  60  81
ATOM     81  C   UNL A   1      45.333  24.155  33.482  1.00  0.00    -0.014 A 
ATOM     82  C   UNL A   1      44.583  22.997  33.695  1.00  0.00     0.010 A 
ATOM     83  C   UNL A   1      46.648  24.136  34.032  1.00  0.00     0.010 A 
ATOM     84  C   UNL A   1      45.104  21.896  34.391  1.00  0.00     0.020 A 
ATOM     85  C   UNL A   1      47.197  23.037  34.693  1.00  0.00     0.020 A 
ATOM     86  C   UNL A   1      46.408  21.921  34.880  1.00  0.00     0.054 A 
BRANCH  86  87
ATOM     87  S   UNL A   1      47.029  20.496  35.791  1.00  0.00     0.124 S 
ATOM     88  O   UNL A   1      48.445  20.825  35.936  1.00  0.00    -0.237 OA
ATOM     89  O   UNL A   1      46.242  20.549  37.021  1.00  0.00    -0.237 OA
ATOM     90  O   UNL A   1      46.738  19.363  34.917  1.00  0.00    -0.744 OA
ENDBRANCH  86  87
ENDBRANCH  60  81
ENDBRANCH  34  35
ENDBRANCH  27  29
ENDBRANCH  26  27
ENDBRANCH  25  26
ENDBRANCH   1  25
TORSDOF 17
ENDMDL
MODEL 2
REMARK VINA RESULT:     -13.5      4.806     11.781
REMARK SMILES COc1ccc(NC(=O)N[C@@H]2C=C[C@H](C(=O)OCCOC(=O)c3ccc(-c4c5nc(c(-c6ccc(S(=O)(=O)[O-])cc6)c6ccc([nH]6)c(-c6ccc(S(=O)(=O)[O-])cc6)c6nc(c(-c7ccc(S(=O)(=O)[O-])cc7)c7ccc4[nH]7)C=C6)C=C5)cc3)C2)c(C)c1
REMARK SMILES IDX 18 1 17 2 15 3 16 4 14 5 11 6 12 7 83 8 13 9 10 10 7 11 8 12
REMARK SMILES IDX 9 14 6 16 3 17 4 18 86 19 5 20 84 21 85 22 2 23 1 24 19 25
REMARK SMILES IDX 20 26 21 27 22 28 23 29 24 30 82 31 25 32 81 33 26 34 27 35
REMARK SMILES IDX 28 36 75 37 29 38 80 39 74 40 76 41 30 42 79 43 73 44 72 45
REMARK SMILES IDX 31 47 61 48 42 49 60 50 43 51 46 52 59 53 77 54 44 55 45 56
REMARK SMILES IDX 58 58 78 59 47 60 32 61 33 62 41 63 34 64 40 65 35 66 36 67
REMARK SMILES IDX 37 68 38 69 39 70 62 71 63 72 71 73 64 74 70 75 65 76 66 77
REMARK SMILES IDX 67 78 68 79 69 80 48 81 49 82 57 83 50 84 56 85 51 86 52 87
REMARK SMILES IDX 53 88 54 89 55 90
REMARK H PARENT 7 13 10 15 76 46 46 57
REMARK Flexibility Score: inf
ROOT
ATOM      1  C   UNL A   1      39.293  21.154  25.850  1.00  0.00     0.274 C 
ENDROOT
BRANCH   1   2
ATOM      2  O   UNL A   1      38.544  22.167  25.174  1.00  0.00    -0.462 OA
BRANCH   2   3
ATOM      3  C   UNL A   1      37.128  21.907  24.985  1.00  0.00     0.312 C 
ATOM      4  O   UNL A   1      37.017  20.661  25.125  1.00  0.00    -0.252 OA
BRANCH   3   5
ATOM      5  C   UNL A   1      35.665  23.468  24.460  1.00  0.00     0.124 C 
ATOM      6  C   UNL A   1      33.250  24.584  25.014  1.00  0.00     0.107 C 
ATOM      7  C   UNL A   1      33.259  24.028  23.653  1.00  0.00    -0.006 C 
ATOM      8  C   UNL A   1      34.686  24.510  25.514  1.00  0.00     0.048 C 
ATOM      9  C   UNL A   1      34.469  23.615  23.279  1.00  0.00    -0.014 C 
BRANCH   6  10
ATOM     10  N   UNL A   1      32.219  23.997  25.835  1.00  0.00    -0.332 N 
ATOM     11  N   UNL A   1      30.812  25.824  26.482  1.00  0.00    -0.308 N 
ATOM     12  C   UNL A   1      31.155  24.513  26.501  1.00  0.00     0.319 C 
ATOM     13  H   UNL A   1      30.440  26.155  27.332  1.00  0.00     0.171 HD
ATOM     14  O   UNL A   1      30.507  23.750  27.220  1.00  0.00    -0.248 OA
ATOM     15  H   UNL A   1      32.305  23.022  25.933  1.00  0.00     0.165 HD
BRANCH  11  16
ATOM     16  C   UNL A   1      30.890  26.794  25.472  1.00  0.00     0.046 A 
ATOM     17  C   UNL A   1      30.481  29.064  23.903  1.00  0.00     0.119 A 
ATOM     18  C   UNL A   1      31.392  29.093  24.947  1.00  0.00     0.048 A 
ATOM     19  C   UNL A   1      29.969  27.827  23.500  1.00  0.00     0.052 A 
ATOM     20  C   UNL A   1      31.661  27.930  25.662  1.00  0.00     0.030 A 
ATOM     21  C   UNL A   1      30.193  26.662  24.264  1.00  0.00    -0.024 A 
ATOM     22  C   UNL A   1      29.801  25.331  23.685  1.00  0.00     0.047 C 
BRANCH  17  23
ATOM     23  O   UNL A   1      30.073  30.160  23.193  1.00  0.00    -0.497 OA
ATOM     24  C   UNL A   1      29.153  29.898  22.134  1.00  0.00     0.278 C 
ENDBRANCH  17  23
ENDBRANCH  11  16
ENDBRANCH   6  10
ENDBRANCH   3   5
ENDBRANCH   2   3
ENDBRANCH   1   2
BRANCH   1  25
ATOM     25  C   UNL A   1      40.108  21.839  26.955  1.00  0.00     0.275 C 
BRANCH  25  26
ATOM     26  O   UNL A   1      41.119  22.762  26.453  1.00  0.00    -0.458 OA
BRANCH  26  27
ATOM     27  C   UNL A   1      41.501  23.836  27.205  1.00  0.00     0.338 C 
ATOM     28  O   UNL A   1      42.575  23.966  27.767  1.00  0.00    -0.246 OA
BRANCH  27  29
ATOM     29  C   UNL A   1      40.563  24.965  27.020  1.00  0.00     0.060 A 
ATOM     30  C   UNL A   1      41.016  26.395  26.027  1.00  0.00     0.016 A 
ATOM     31  C   UNL A   1      39.578  25.158  28.486  1.00  0.00     0.016 A 
ATOM     32  C   UNL A   1      40.586  28.063  26.608  1.00  0.00     0.010 A 
ATOM     33  C   UNL A   1      39.126  26.801  29.058  1.00  0.00     0.010 A 
ATOM     34  C   UNL A   1      39.736  28.261  28.202  1.00  0.00    -0.014 A 
BRANCH  34  35
ATOM     35  C   UNL A   1      39.995  29.372  29.135  1.00  0.00     0.031 A 
ATOM     36  C   UNL A   1      38.914  30.371  29.267  1.00  0.00     0.074 A 
ATOM     37  C   UNL A   1      41.117  29.442  29.892  1.00  0.00     0.049 A 
ATOM     38  N   UNL A   1      39.073  31.638  29.065  1.00  0.00    -0.248 NA
ATOM     39  C   UNL A   1      37.513  30.008  29.488  1.00  0.00     0.031 C 
ATOM     40  C   UNL A   1      41.385  30.362  31.002  1.00  0.00     0.029 A 
ATOM     41  N   UNL A   1      42.312  28.743  29.810  1.00  0.00    -0.354 N 
ATOM     42  C   UNL A   1      37.850  32.218  29.356  1.00  0.00     0.074 A 
ATOM     43  C   UNL A   1      36.885  31.167  29.368  1.00  0.00     0.031 C 
ATOM     44  C   UNL A   1      42.709  30.375  31.253  1.00  0.00     0.029 A 
ATOM     45  C   UNL A   1      43.356  29.552  30.247  1.00  0.00     0.049 A 
ATOM     46  H   UNL A   1      42.407  27.816  29.492  1.00  0.00     0.167 HD
ATOM     47  C   UNL A   1      37.732  33.441  29.932  1.00  0.00     0.031 A 
ATOM     48  C   UNL A   1      44.363  29.971  29.423  1.00  0.00     0.031 A 
ATOM     49  C   UNL A   1      39.042  33.854  30.402  1.00  0.00     0.049 A 
ATOM     50  C   UNL A   1      44.257  31.471  29.154  1.00  0.00     0.074 A 
ATOM     51  C   UNL A   1      39.690  33.633  31.607  1.00  0.00     0.029 A 
ATOM     52  N   UNL A   1      40.030  34.098  29.467  1.00  0.00    -0.354 N 
ATOM     53  N   UNL A   1      43.183  32.185  29.382  1.00  0.00    -0.248 NA
ATOM     54  C   UNL A   1      45.347  32.288  28.634  1.00  0.00     0.031 C 
ATOM     55  C   UNL A   1      41.091  33.747  31.375  1.00  0.00     0.029 A 
ATOM     56  C   UNL A   1      41.283  34.091  30.047  1.00  0.00     0.049 A 
ATOM     57  H   UNL A   1      39.863  34.256  28.510  1.00  0.00     0.167 HD
ATOM     58  C   UNL A   1      43.407  33.508  29.078  1.00  0.00     0.074 A 
ATOM     59  C   UNL A   1      44.781  33.509  28.601  1.00  0.00     0.031 C 
ATOM     60  C   UNL A   1      42.445  34.473  29.248  1.00  0.00     0.031 A 
BRANCH  47  61
ATOM     61  C   UNL A   1      36.395  33.967  30.408  1.00  0.00    -0.014 A 
ATOM     62  C   UNL A   1      35.434  34.408  29.485  1.00  0.00     0.010 A 
ATOM     63  C   UNL A   1      36.039  34.056  31.777  1.00  0.00     0.010 A 
ATOM     64  C   UNL A   1      34.232  35.004  29.907  1.00  0.00     0.020 A 
ATOM     65  C   UNL A   1      34.878  34.713  32.213  1.00  0.00     0.020 A 
ATOM     66  C   UNL A   1      33.976  35.185  31.268  1.00  0.00     0.054 A 
BRANCH  66  67
ATOM     67  S   UNL A   1      32.445  36.011  31.779  1.00  0.00     0.124 S 
ATOM     68  O   UNL A   1      31.786  34.986  32.585  1.00  0.00    -0.237 OA
ATOM     69  O   UNL A   1      32.944  37.167  32.517  1.00  0.00    -0.237 OA
ATOM     70  O   UNL A   1      31.775  36.322  30.517  1.00  0.00    -0.744 OA
ENDBRANCH  66  67
ENDBRANCH  47  61
BRANCH  48  71
ATOM     71  C   UNL A   1      44.846  28.906  28.490  1.00  0.00    -0.014 A 
ATOM     72  C   UNL A   1      44.241  28.869  27.208  1.00  0.00     0.010 A 
ATOM     73  C   UNL A   1      46.077  28.254  28.655  1.00  0.00     0.010 A 
ATOM     74  C   UNL A   1      44.932  28.387  26.091  1.00  0.00     0.020 A 
ATOM     75  C   UNL A   1      46.756  27.725  27.536  1.00  0.00     0.020 A 
ATOM     76  C   UNL A   1      46.204  27.847  26.254  1.00  0.00     0.054 A 
BRANCH  76  77
ATOM     77  S   UNL A   1      47.151  27.421  24.756  1.00  0.00     0.124 S 
ATOM     78  O   UNL A   1      46.733  26.047  24.497  1.00  0.00    -0.237 OA
ATOM     79  O   UNL A   1      46.687  28.404  23.780  1.00  0.00    -0.237 OA
ATOM     80  O   UNL A   1      48.543  27.583  25.173  1.00  0.00    -0.744 OA
ENDBRANCH  76  77
ENDBRANCH  48  71
BRANCH  60  81
ATOM     81  C   UNL A   1      42.463  35.912  28.729  1.00  0.00    -0.014 A 
ATOM     82  C   UNL A   1      43.004  37.005  29.408  1.00  0.00     0.010 A 
ATOM     83  C   UNL A   1      41.911  36.205  27.448  1.00  0.00     0.010 A 
ATOM     84  C   UNL A   1      43.009  38.293  28.850  1.00  0.00     0.020 A 
ATOM     85  C   UNL A   1      41.941  37.470  26.860  1.00  0.00     0.020 A 
ATOM     86  C   UNL A   1      42.483  38.515  27.579  1.00  0.00     0.054 A 
BRANCH  86  87
ATOM     87  S   UNL A   1      42.486  40.189  26.911  1.00  0.00     0.124 S 
ATOM     88  O   UNL A   1      42.842  40.980  28.086  1.00  0.00    -0.237 OA
ATOM     89  O   UNL A   1      43.512  40.105  25.875  1.00  0.00    -0.237 OA
ATOM     90  O   UNL A   1      41.124  40.377  26.422  1.00  0.00    -0.744 OA
ENDBRANCH  86  87
ENDBRANCH  60  81
ENDBRANCH  34  35
ENDBRANCH  27  29
ENDBRANCH  26  27
ENDBRANCH  25  26
ENDBRANCH   1  25
TORSDOF 17
ENDMDL
MODEL 3
REMARK VINA RESULT:     -12.8      4.831     11.856
REMARK SMILES COc1ccc(NC(=O)N[C@@H]2C=C[C@H](C(=O)OCCOC(=O)c3ccc(-c4c5nc(c(-c6ccc(S(=O)(=O)[O-])cc6)c6ccc([nH]6)c(-c6ccc(S(=O)(=O)[O-])cc6)c6nc(c(-c7ccc(S(=O)(=O)[O-])cc7)c7ccc4[nH]7)C=C6)C=C5)cc3)C2)c(C)c1
REMARK SMILES IDX 18 1 17 2 15 3 16 4 14 5 11 6 12 7 83 8 13 9 10 10 7 11 8 12
REMARK SMILES IDX 9 14 6 16 3 17 4 18 86 19 5 20 84 21 85 22 2 23 1 24 19 25
REMARK SMILES IDX 20 26 21 27 22 28 23 29 24 30 82 31 25 32 81 33 26 34 27 35
REMARK SMILES IDX 28 36 75 37 29 38 80 39 74 40 76 41 30 42 79 43 73 44 72 45
REMARK SMILES IDX 31 47 61 48 42 49 60 50 43 51 46 52 59 53 77 54 44 55 45 56
REMARK SMILES IDX 58 58 78 59 47 60 32 61 33 62 41 63 34 64 40 65 35 66 36 67
REMARK SMILES IDX 37 68 38 69 39 70 62 71 63 72 71 73 64 74 70 75 65 76 66 77
REMARK SMILES IDX 67 78 68 79 69 80 48 81 49 82 57 83 50 84 56 85 51 86 52 87
REMARK SMILES IDX 53 88 54 89 55 90
REMARK H PARENT 7 13 10 15 76 46 46 57
REMARK Flexibility Score: inf
ROOT
ATOM      1  C   UNL A   1      41.373  21.431  26.497  1.00  0.00     0.274 C 
ENDROOT
BRANCH   1   2
ATOM      2  O   UNL A   1      40.138  20.881  26.963  1.00  0.00    -0.462 OA
BRANCH   2   3
ATOM      3  C   UNL A   1      39.166  20.521  25.945  1.00  0.00     0.312 C 
ATOM      4  O   UNL A   1      39.622  19.463  25.438  1.00  0.00    -0.252 OA
BRANCH   3   5
ATOM      5  C   UNL A   1      37.402  21.748  25.462  1.00  0.00     0.124 C 
ATOM      6  C   UNL A   1      34.708  21.798  25.109  1.00  0.00     0.107 C 
ATOM      7  C   UNL A   1      35.396  22.159  23.862  1.00  0.00    -0.006 C 
ATOM      8  C   UNL A   1      35.781  21.745  26.188  1.00  0.00     0.048 C 
ATOM      9  C   UNL A   1      36.710  22.306  24.027  1.00  0.00    -0.014 C 
BRANCH   6  10
ATOM     10  N   UNL A   1      33.858  20.643  24.947  1.00  0.00    -0.332 N 
ATOM     11  N   UNL A   1      31.665  21.385  25.556  1.00  0.00    -0.308 N 
ATOM     12  C   UNL A   1      32.534  20.428  25.150  1.00  0.00     0.319 C 
ATOM     13  H   UNL A   1      30.954  21.055  26.154  1.00  0.00     0.171 HD
ATOM     14  O   UNL A   1      32.116  19.275  25.022  1.00  0.00    -0.248 OA
ATOM     15  H   UNL A   1      34.338  19.846  24.624  1.00  0.00     0.165 HD
BRANCH  11  16
ATOM     16  C   UNL A   1      31.592  22.757  25.279  1.00  0.00     0.046 A 
ATOM     17  C   UNL A   1      30.690  25.375  24.935  1.00  0.00     0.119 A 
ATOM     18  C   UNL A   1      31.149  24.952  26.173  1.00  0.00     0.048 A 
ATOM     19  C   UNL A   1      30.922  24.557  23.825  1.00  0.00     0.052 A 
ATOM     20  C   UNL A   1      31.686  23.677  26.312  1.00  0.00     0.030 A 
ATOM     21  C   UNL A   1      31.408  23.241  23.978  1.00  0.00    -0.024 A 
ATOM     22  C   UNL A   1      31.833  22.481  22.753  1.00  0.00     0.047 C 
BRANCH  17  23
ATOM     23  O   UNL A   1      30.064  26.568  24.701  1.00  0.00    -0.497 OA
ATOM     24  C   UNL A   1      28.826  26.484  23.995  1.00  0.00     0.278 C 
ENDBRANCH  17  23
ENDBRANCH  11  16
ENDBRANCH   6  10
ENDBRANCH   3   5
ENDBRANCH   2   3
ENDBRANCH   1   2
BRANCH   1  25
ATOM     25  C   UNL A   1      41.133  22.915  26.191  1.00  0.00     0.275 C 
BRANCH  25  26
ATOM     26  O   UNL A   1      42.354  23.666  25.927  1.00  0.00    -0.458 OA
BRANCH  26  27
ATOM     27  C   UNL A   1      42.655  24.771  26.672  1.00  0.00     0.338 C 
ATOM     28  O   UNL A   1      43.777  25.184  26.911  1.00  0.00    -0.246 OA
BRANCH  27  29
ATOM     29  C   UNL A   1      41.444  25.583  26.919  1.00  0.00     0.060 A 
ATOM     30  C   UNL A   1      41.118  27.077  25.971  1.00  0.00     0.016 A 
ATOM     31  C   UNL A   1      41.016  25.495  28.640  1.00  0.00     0.016 A 
ATOM     32  C   UNL A   1      40.483  28.555  26.816  1.00  0.00     0.010 A 
ATOM     33  C   UNL A   1      40.364  26.943  29.483  1.00  0.00     0.010 A 
ATOM     34  C   UNL A   1      40.219  28.511  28.613  1.00  0.00    -0.014 A 
BRANCH  34  35
ATOM     35  C   UNL A   1      40.476  29.656  29.506  1.00  0.00     0.031 A 
ATOM     36  C   UNL A   1      39.360  30.612  29.668  1.00  0.00     0.074 A 
ATOM     37  C   UNL A   1      41.629  29.792  30.205  1.00  0.00     0.049 A 
ATOM     38  N   UNL A   1      39.456  31.878  29.429  1.00  0.00    -0.248 NA
ATOM     39  C   UNL A   1      37.989  30.196  29.966  1.00  0.00     0.031 C 
ATOM     40  C   UNL A   1      41.911  30.750  31.278  1.00  0.00     0.029 A 
ATOM     41  N   UNL A   1      42.848  29.141  30.081  1.00  0.00    -0.354 N 
ATOM     42  C   UNL A   1      38.224  32.415  29.767  1.00  0.00     0.074 A 
ATOM     43  C   UNL A   1      37.307  31.325  29.850  1.00  0.00     0.031 C 
ATOM     44  C   UNL A   1      43.244  30.824  31.463  1.00  0.00     0.029 A 
ATOM     45  C   UNL A   1      43.876  30.004  30.446  1.00  0.00     0.049 A 
ATOM     46  H   UNL A   1      42.967  28.211  29.780  1.00  0.00     0.167 HD
ATOM     47  C   UNL A   1      38.082  33.646  30.319  1.00  0.00     0.031 A 
ATOM     48  C   UNL A   1      44.823  30.444  29.564  1.00  0.00     0.031 A 
ATOM     49  C   UNL A   1      39.394  34.125  30.713  1.00  0.00     0.049 A 
ATOM     50  C   UNL A   1      44.640  31.930  29.264  1.00  0.00     0.074 A 
ATOM     51  C   UNL A   1      40.109  33.962  31.889  1.00  0.00     0.029 A 
ATOM     52  N   UNL A   1      40.325  34.386  29.725  1.00  0.00    -0.354 N 
ATOM     53  N   UNL A   1      43.548  32.604  29.529  1.00  0.00    -0.248 NA
ATOM     54  C   UNL A   1      45.668  32.778  28.672  1.00  0.00     0.031 C 
ATOM     55  C   UNL A   1      41.491  34.128  31.585  1.00  0.00     0.029 A 
ATOM     56  C   UNL A   1      41.603  34.446  30.242  1.00  0.00     0.049 A 
ATOM     57  H   UNL A   1      40.104  34.512  28.773  1.00  0.00     0.167 HD
ATOM     58  C   UNL A   1      43.701  33.927  29.183  1.00  0.00     0.074 A 
ATOM     59  C   UNL A   1      45.049  33.974  28.638  1.00  0.00     0.031 C 
ATOM     60  C   UNL A   1      42.707  34.856  29.377  1.00  0.00     0.031 A 
BRANCH  47  61
ATOM     61  C   UNL A   1      36.748  34.128  30.847  1.00  0.00    -0.014 A 
ATOM     62  C   UNL A   1      35.629  34.194  30.004  1.00  0.00     0.010 A 
ATOM     63  C   UNL A   1      36.549  34.541  32.188  1.00  0.00     0.010 A 
ATOM     64  C   UNL A   1      34.411  34.743  30.442  1.00  0.00     0.020 A 
ATOM     65  C   UNL A   1      35.364  35.157  32.619  1.00  0.00     0.020 A 
ATOM     66  C   UNL A   1      34.296  35.254  31.737  1.00  0.00     0.054 A 
BRANCH  66  67
ATOM     67  S   UNL A   1      32.731  36.011  32.254  1.00  0.00     0.124 S 
ATOM     68  O   UNL A   1      33.146  36.873  33.358  1.00  0.00    -0.237 OA
ATOM     69  O   UNL A   1      32.302  36.703  31.042  1.00  0.00    -0.237 OA
ATOM     70  O   UNL A   1      31.902  34.873  32.645  1.00  0.00    -0.744 OA
ENDBRANCH  66  67
ENDBRANCH  47  61
BRANCH  48  71
ATOM     71  C   UNL A   1      45.306  29.376  28.633  1.00  0.00    -0.014 A 
ATOM     72  C   UNL A   1      44.509  29.132  27.485  1.00  0.00     0.010 A 
ATOM     73  C   UNL A   1      46.634  28.925  28.619  1.00  0.00     0.010 A 
ATOM     74  C   UNL A   1      45.072  28.652  26.297  1.00  0.00     0.020 A 
ATOM     75  C   UNL A   1      47.192  28.396  27.435  1.00  0.00     0.020 A 
ATOM     76  C   UNL A   1      46.422  28.317  26.267  1.00  0.00     0.054 A 
BRANCH  76  77
ATOM     77  S   UNL A   1      47.161  27.893  24.655  1.00  0.00     0.124 S 
ATOM     78  O   UNL A   1      48.591  27.943  24.940  1.00  0.00    -0.237 OA
ATOM     79  O   UNL A   1      46.629  26.559  24.388  1.00  0.00    -0.237 OA
ATOM     80  O   UNL A   1      46.664  28.940  23.764  1.00  0.00    -0.744 OA
ENDBRANCH  76  77
ENDBRANCH  48  71
BRANCH  60  81
ATOM     81  C   UNL A   1      42.639  36.280  28.825  1.00  0.00    -0.014 A 
ATOM     82  C   UNL A   1      43.117  37.419  29.474  1.00  0.00     0.010 A 
ATOM     83  C   UNL A   1      42.065  36.509  27.540  1.00  0.00     0.010 A 
ATOM     84  C   UNL A   1      43.044  38.691  28.886  1.00  0.00     0.020 A 
ATOM     85  C   UNL A   1      42.018  37.759  26.923  1.00  0.00     0.020 A 
ATOM     86  C   UNL A   1      42.501  38.852  27.614  1.00  0.00     0.054 A 
BRANCH  86  87
ATOM     87  S   UNL A   1      42.402  40.506  26.906  1.00  0.00     0.124 S 
ATOM     88  O   UNL A   1      40.962  40.673  26.731  1.00  0.00    -0.237 OA
ATOM     89  O   UNL A   1      43.007  41.326  27.954  1.00  0.00    -0.237 OA
ATOM     90  O   UNL A   1      43.174  40.409  25.671  1.00  0.00    -0.744 OA
ENDBRANCH  86  87
ENDBRANCH  60  81
ENDBRANCH  34  35
ENDBRANCH  27  29
ENDBRANCH  26  27
ENDBRANCH  25  26
ENDBRANCH   1  25
TORSDOF 17
ENDMDL
