MODEL 1
REMARK VINA RESULT:     -11.9      0.000      0.000
REMARK SMILES CC(C)(C)c1cc(Nc2ccccc2C(=O)OCCOC(=O)c2ccc(-c3c4nc(c(-c5ccc(S(=O)(=O)[O-])cc5)c5ccc([nH]5)c(-c5ccc(S(=O)(=O)[O-])cc5)c5nc(c(-c6ccc(S(=O)(=O)[O-])cc6)c6ccc3[nH]6)C=C5)C=C4)cc2)cc2c1OCC2(C)C
REMARK SMILES IDX 18 1 17 2 15 3 16 4 14 5 9 6 10 7 11 8 13 9 12 10 8 11 7 13
REMARK SMILES IDX 5 14 6 15 85 16 84 17 86 18 83 19 88 20 87 21 89 22 90 23
REMARK SMILES IDX 2 24 1 25 3 26 4 27 19 28 20 29 21 30 22 31 23 32 24 33
REMARK SMILES IDX 82 34 25 35 81 36 26 37 27 38 28 39 75 40 29 41 80 42 74 43
REMARK SMILES IDX 76 44 30 45 79 46 73 47 72 48 31 50 61 51 42 52 60 53 43 54
REMARK SMILES IDX 46 55 59 56 77 57 44 58 45 59 58 61 78 62 47 63 32 64 33 65
REMARK SMILES IDX 41 66 34 67 40 68 35 69 36 70 37 71 38 72 39 73 62 74 63 75
REMARK SMILES IDX 71 76 64 77 70 78 65 79 66 80 67 81 68 82 69 83 48 84 49 85
REMARK SMILES IDX 57 86 50 87 56 88 51 89 52 90 53 91 54 92 55 93
REMARK H PARENT 8 12 76 49 46 60
REMARK Flexibility Score: inf
ROOT
ATOM      1  C   UNL A   1      31.990  28.149  27.404  1.00  0.00     0.275 C 
ENDROOT
BRANCH   1   2
ATOM      2  O   UNL A   1      31.224  27.800  26.234  1.00  0.00    -0.458 OA
BRANCH   2   3
ATOM      3  C   UNL A   1      31.015  26.478  25.997  1.00  0.00     0.340 C 
ATOM      4  O   UNL A   1      30.682  25.655  26.826  1.00  0.00    -0.246 OA
BRANCH   3   5
ATOM      5  C   UNL A   1      31.163  26.153  24.545  1.00  0.00     0.083 A 
ATOM      6  C   UNL A   1      31.505  24.882  24.045  1.00  0.00     0.053 A 
ATOM      7  C   UNL A   1      31.684  24.746  22.651  1.00  0.00     0.027 A 
ATOM      8  C   UNL A   1      31.590  25.836  21.785  1.00  0.00     0.002 A 
ATOM      9  C   UNL A   1      30.992  27.228  23.650  1.00  0.00     0.018 A 
ATOM     10  C   UNL A   1      31.247  27.082  22.286  1.00  0.00     0.001 A 
BRANCH   6  11
ATOM     11  N   UNL A   1      31.769  23.780  24.889  1.00  0.00    -0.355 N 
ATOM     12  H   UNL A   1      31.195  23.703  25.686  1.00  0.00     0.167 HD
BRANCH  11  13
ATOM     13  C   UNL A   1      32.746  22.777  24.738  1.00  0.00     0.039 A 
ATOM     14  C   UNL A   1      35.148  22.134  24.775  1.00  0.00     0.002 A 
ATOM     15  C   UNL A   1      34.112  23.106  24.832  1.00  0.00     0.034 A 
ATOM     16  C   UNL A   1      34.722  20.809  24.683  1.00  0.00     0.127 A 
ATOM     17  C   UNL A   1      33.380  20.474  24.575  1.00  0.00     0.006 A 
ATOM     18  O   UNL A   1      35.525  19.700  24.727  1.00  0.00    -0.492 OA
ATOM     19  C   UNL A   1      32.396  21.441  24.569  1.00  0.00     0.034 A 
ATOM     20  C   UNL A   1      33.183  18.999  24.551  1.00  0.00     0.028 C 
ATOM     21  C   UNL A   1      34.656  18.560  24.515  1.00  0.00     0.240 C 
ATOM     22  C   UNL A   1      32.472  18.535  25.829  1.00  0.00     0.020 C 
ATOM     23  C   UNL A   1      32.414  18.523  23.316  1.00  0.00     0.020 C 
BRANCH  14  24
ATOM     24  C   UNL A   1      36.614  22.593  24.823  1.00  0.00    -0.009 C 
ATOM     25  C   UNL A   1      36.754  23.767  25.817  1.00  0.00     0.016 C 
ATOM     26  C   UNL A   1      37.052  23.070  23.417  1.00  0.00     0.016 C 
ATOM     27  C   UNL A   1      37.628  21.511  25.250  1.00  0.00     0.016 C 
ENDBRANCH  14  24
ENDBRANCH  11  13
ENDBRANCH   6  11
ENDBRANCH   3   5
ENDBRANCH   2   3
ENDBRANCH   1   2
BRANCH   1  28
ATOM     28  C   UNL A   1      33.493  28.120  27.112  1.00  0.00     0.275 C 
BRANCH  28  29
ATOM     29  O   UNL A   1      33.930  29.394  26.604  1.00  0.00    -0.458 OA
BRANCH  29  30
ATOM     30  C   UNL A   1      34.270  30.311  27.538  1.00  0.00     0.338 C 
ATOM     31  O   UNL A   1      33.557  31.170  28.032  1.00  0.00    -0.246 OA
BRANCH  30  32
ATOM     32  C   UNL A   1      35.619  29.994  28.026  1.00  0.00     0.060 A 
ATOM     33  C   UNL A   1      35.861  29.574  29.332  1.00  0.00     0.016 A 
ATOM     34  C   UNL A   1      36.665  30.092  27.109  1.00  0.00     0.016 A 
ATOM     35  C   UNL A   1      37.176  29.278  29.716  1.00  0.00     0.010 A 
ATOM     36  C   UNL A   1      37.968  29.790  27.486  1.00  0.00     0.010 A 
ATOM     37  C   UNL A   1      38.241  29.383  28.796  1.00  0.00    -0.014 A 
BRANCH  37  38
ATOM     38  C   UNL A   1      39.624  28.989  29.172  1.00  0.00     0.031 A 
ATOM     39  C   UNL A   1      40.516  29.911  29.958  1.00  0.00     0.074 A 
ATOM     40  C   UNL A   1      40.096  27.801  28.746  1.00  0.00     0.049 A 
ATOM     41  N   UNL A   1      41.719  29.685  30.423  1.00  0.00    -0.248 NA
ATOM     42  C   UNL A   1      40.011  31.265  30.240  1.00  0.00     0.031 C 
ATOM     43  C   UNL A   1      39.357  26.862  27.899  1.00  0.00     0.029 A 
ATOM     44  N   UNL A   1      41.295  27.172  28.973  1.00  0.00    -0.354 N 
ATOM     45  C   UNL A   1      42.110  30.858  31.058  1.00  0.00     0.074 A 
ATOM     46  C   UNL A   1      41.044  31.816  30.866  1.00  0.00     0.031 C 
ATOM     47  C   UNL A   1      40.093  25.754  27.727  1.00  0.00     0.029 A 
ATOM     48  C   UNL A   1      41.366  25.912  28.424  1.00  0.00     0.049 A 
ATOM     49  H   UNL A   1      42.032  27.583  29.479  1.00  0.00     0.167 HD
ATOM     50  C   UNL A   1      43.241  31.099  31.763  1.00  0.00     0.031 A 
ATOM     51  C   UNL A   1      42.334  24.975  28.492  1.00  0.00     0.031 A 
ATOM     52  C   UNL A   1      44.290  30.129  31.959  1.00  0.00     0.049 A 
ATOM     53  C   UNL A   1      43.566  25.252  29.304  1.00  0.00     0.074 A 
ATOM     54  C   UNL A   1      45.435  30.251  32.727  1.00  0.00     0.029 A 
ATOM     55  N   UNL A   1      44.325  28.866  31.389  1.00  0.00    -0.354 N 
ATOM     56  N   UNL A   1      43.872  26.327  29.990  1.00  0.00    -0.248 NA
ATOM     57  C   UNL A   1      44.578  24.188  29.369  1.00  0.00     0.031 C 
ATOM     58  C   UNL A   1      46.193  29.090  32.569  1.00  0.00     0.029 A 
ATOM     59  C   UNL A   1      45.488  28.211  31.762  1.00  0.00     0.049 A 
ATOM     60  H   UNL A   1      43.628  28.488  30.806  1.00  0.00     0.167 HD
ATOM     61  C   UNL A   1      45.106  26.068  30.576  1.00  0.00     0.074 A 
ATOM     62  C   UNL A   1      45.478  24.723  30.186  1.00  0.00     0.031 C 
ATOM     63  C   UNL A   1      45.860  26.876  31.361  1.00  0.00     0.031 A 
BRANCH  50  64
ATOM     64  C   UNL A   1      43.407  32.445  32.427  1.00  0.00    -0.014 A 
ATOM     65  C   UNL A   1      42.838  32.684  33.692  1.00  0.00     0.010 A 
ATOM     66  C   UNL A   1      43.997  33.517  31.733  1.00  0.00     0.010 A 
ATOM     67  C   UNL A   1      42.824  33.973  34.235  1.00  0.00     0.020 A 
ATOM     68  C   UNL A   1      44.012  34.802  32.285  1.00  0.00     0.020 A 
ATOM     69  C   UNL A   1      43.401  35.027  33.521  1.00  0.00     0.054 A 
BRANCH  69  70
ATOM     70  S   UNL A   1      43.333  36.701  34.216  1.00  0.00     0.124 S 
ATOM     71  O   UNL A   1      43.474  37.535  33.027  1.00  0.00    -0.237 OA
ATOM     72  O   UNL A   1      42.019  36.729  34.855  1.00  0.00    -0.237 OA
ATOM     73  O   UNL A   1      44.464  36.734  35.140  1.00  0.00    -0.744 OA
ENDBRANCH  69  70
ENDBRANCH  50  64
BRANCH  51  74
ATOM     74  C   UNL A   1      42.110  23.661  27.827  1.00  0.00    -0.014 A 
ATOM     75  C   UNL A   1      41.430  22.627  28.498  1.00  0.00     0.010 A 
ATOM     76  C   UNL A   1      42.675  23.402  26.567  1.00  0.00     0.010 A 
ATOM     77  C   UNL A   1      41.375  21.343  27.949  1.00  0.00     0.020 A 
ATOM     78  C   UNL A   1      42.596  22.126  26.000  1.00  0.00     0.020 A 
ATOM     79  C   UNL A   1      41.975  21.096  26.712  1.00  0.00     0.054 A 
BRANCH  79  80
ATOM     80  S   UNL A   1      41.956  19.405  26.055  1.00  0.00     0.124 S 
ATOM     81  O   UNL A   1      42.834  19.526  24.894  1.00  0.00    -0.237 OA
ATOM     82  O   UNL A   1      42.489  18.624  27.167  1.00  0.00    -0.237 OA
ATOM     83  O   UNL A   1      40.547  19.171  25.752  1.00  0.00    -0.744 OA
ENDBRANCH  79  80
ENDBRANCH  51  74
BRANCH  63  84
ATOM     84  C   UNL A   1      47.188  26.356  31.849  1.00  0.00    -0.014 A 
ATOM     85  C   UNL A   1      48.347  26.559  31.077  1.00  0.00     0.010 A 
ATOM     86  C   UNL A   1      47.263  25.549  32.997  1.00  0.00     0.010 A 
ATOM     87  C   UNL A   1      49.547  25.932  31.421  1.00  0.00     0.020 A 
ATOM     88  C   UNL A   1      48.470  24.945  33.363  1.00  0.00     0.020 A 
ATOM     89  C   UNL A   1      49.597  25.118  32.556  1.00  0.00     0.054 A 
BRANCH  89  90
ATOM     90  S   UNL A   1      51.153  24.278  32.964  1.00  0.00     0.124 S 
ATOM     91  O   UNL A   1      52.149  25.271  32.572  1.00  0.00    -0.237 OA
ATOM     92  O   UNL A   1      51.026  24.046  34.401  1.00  0.00    -0.237 OA
ATOM     93  O   UNL A   1      51.116  23.071  32.140  1.00  0.00    -0.744 OA
ENDBRANCH  89  90
ENDBRANCH  63  84
ENDBRANCH  37  38
ENDBRANCH  30  32
ENDBRANCH  29  30
ENDBRANCH  28  29
ENDBRANCH   1  28
TORSDOF 17
ENDMDL
MODEL 2
REMARK VINA RESULT:     -11.7      4.325     10.112
REMARK SMILES CC(C)(C)c1cc(Nc2ccccc2C(=O)OCCOC(=O)c2ccc(-c3c4nc(c(-c5ccc(S(=O)(=O)[O-])cc5)c5ccc([nH]5)c(-c5ccc(S(=O)(=O)[O-])cc5)c5nc(c(-c6ccc(S(=O)(=O)[O-])cc6)c6ccc3[nH]6)C=C5)C=C4)cc2)cc2c1OCC2(C)C
REMARK SMILES IDX 18 1 17 2 15 3 16 4 14 5 9 6 10 7 11 8 13 9 12 10 8 11 7 13
REMARK SMILES IDX 5 14 6 15 85 16 84 17 86 18 83 19 88 20 87 21 89 22 90 23
REMARK SMILES IDX 2 24 1 25 3 26 4 27 19 28 20 29 21 30 22 31 23 32 24 33
REMARK SMILES IDX 82 34 25 35 81 36 26 37 27 38 28 39 75 40 29 41 80 42 74 43
REMARK SMILES IDX 76 44 30 45 79 46 73 47 72 48 31 50 61 51 42 52 60 53 43 54
REMARK SMILES IDX 46 55 59 56 77 57 44 58 45 59 58 61 78 62 47 63 32 64 33 65
REMARK SMILES IDX 41 66 34 67 40 68 35 69 36 70 37 71 38 72 39 73 62 74 63 75
REMARK SMILES IDX 71 76 64 77 70 78 65 79 66 80 67 81 68 82 69 83 48 84 49 85
REMARK SMILES IDX 57 86 50 87 56 88 51 89 52 90 53 91 54 92 55 93
REMARK H PARENT 8 12 76 49 46 60
REMARK Flexibility Score: inf
ROOT
ATOM      1  C   UNL A   1      42.284  19.135  26.816  1.00  0.00     0.275 C 
ENDROOT
BRANCH   1   2
ATOM      2  O   UNL A   1      41.653  20.362  26.398  1.00  0.00    -0.458 OA
BRANCH   2   3
ATOM      3  C   UNL A   1      40.325  20.317  26.116  1.00  0.00     0.340 C 
ATOM      4  O   UNL A   1      39.714  19.335  25.741  1.00  0.00    -0.246 OA
BRANCH   3   5
ATOM      5  C   UNL A   1      39.659  21.624  26.406  1.00  0.00     0.083 A 
ATOM      6  C   UNL A   1      38.421  22.024  25.866  1.00  0.00     0.053 A 
ATOM      7  C   UNL A   1      37.956  23.320  26.171  1.00  0.00     0.027 A 
ATOM      8  C   UNL A   1      38.710  24.217  26.929  1.00  0.00     0.002 A 
ATOM      9  C   UNL A   1      40.373  22.511  27.236  1.00  0.00     0.018 A 
ATOM     10  C   UNL A   1      39.924  23.812  27.461  1.00  0.00     0.001 A 
BRANCH   6  11
ATOM     11  N   UNL A   1      37.691  21.218  24.964  1.00  0.00    -0.355 N 
ATOM     12  H   UNL A   1      38.227  20.638  24.376  1.00  0.00     0.167 HD
BRANCH  11  13
ATOM     13  C   UNL A   1      36.295  21.138  24.797  1.00  0.00     0.039 A 
ATOM     14  C   UNL A   1      34.253  19.726  24.665  1.00  0.00     0.002 A 
ATOM     15  C   UNL A   1      35.664  19.880  24.746  1.00  0.00     0.034 A 
ATOM     16  C   UNL A   1      33.517  20.910  24.704  1.00  0.00     0.127 A 
ATOM     17  C   UNL A   1      34.128  22.155  24.738  1.00  0.00     0.006 A 
ATOM     18  O   UNL A   1      32.152  21.008  24.753  1.00  0.00    -0.492 OA
ATOM     19  C   UNL A   1      35.502  22.280  24.752  1.00  0.00     0.034 A 
ATOM     20  C   UNL A   1      33.129  23.254  24.835  1.00  0.00     0.028 C 
ATOM     21  C   UNL A   1      31.843  22.423  24.699  1.00  0.00     0.240 C 
ATOM     22  C   UNL A   1      33.229  23.947  26.200  1.00  0.00     0.020 C 
ATOM     23  C   UNL A   1      33.268  24.281  23.708  1.00  0.00     0.020 C 
BRANCH  14  24
ATOM     24  C   UNL A   1      33.656  18.313  24.551  1.00  0.00    -0.009 C 
ATOM     25  C   UNL A   1      32.762  18.232  23.295  1.00  0.00     0.016 C 
ATOM     26  C   UNL A   1      32.794  18.014  25.802  1.00  0.00     0.016 C 
ATOM     27  C   UNL A   1      34.688  17.170  24.451  1.00  0.00     0.016 C 
ENDBRANCH  14  24
ENDBRANCH  11  13
ENDBRANCH   6  11
ENDBRANCH   3   5
ENDBRANCH   2   3
ENDBRANCH   1   2
BRANCH   1  28
ATOM     28  C   UNL A   1      43.200  18.582  25.721  1.00  0.00     0.275 C 
BRANCH  28  29
ATOM     29  O   UNL A   1      43.392  19.561  24.684  1.00  0.00    -0.458 OA
BRANCH  29  30
ATOM     30  C   UNL A   1      44.679  19.821  24.357  1.00  0.00     0.338 C 
ATOM     31  O   UNL A   1      45.441  19.117  23.714  1.00  0.00    -0.246 OA
BRANCH  30  32
ATOM     32  C   UNL A   1      44.982  21.206  24.742  1.00  0.00     0.060 A 
ATOM     33  C   UNL A   1      44.872  22.271  23.849  1.00  0.00     0.016 A 
ATOM     34  C   UNL A   1      45.353  21.430  26.067  1.00  0.00     0.016 A 
ATOM     35  C   UNL A   1      45.166  23.565  24.299  1.00  0.00     0.010 A 
ATOM     36  C   UNL A   1      45.635  22.715  26.517  1.00  0.00     0.010 A 
ATOM     37  C   UNL A   1      45.550  23.798  25.636  1.00  0.00    -0.014 A 
BRANCH  37  38
ATOM     38  C   UNL A   1      45.780  25.177  26.142  1.00  0.00     0.031 A 
ATOM     39  C   UNL A   1      47.152  25.796  26.135  1.00  0.00     0.074 A 
ATOM     40  C   UNL A   1      44.741  25.856  26.665  1.00  0.00     0.049 A 
ATOM     41  N   UNL A   1      47.503  27.010  26.474  1.00  0.00    -0.248 NA
ATOM     42  C   UNL A   1      48.278  24.944  25.719  1.00  0.00     0.031 C 
ATOM     43  C   UNL A   1      43.384  25.325  26.811  1.00  0.00     0.029 A 
ATOM     44  N   UNL A   1      44.654  27.134  27.157  1.00  0.00    -0.354 N 
ATOM     45  C   UNL A   1      48.881  27.073  26.305  1.00  0.00     0.074 A 
ATOM     46  C   UNL A   1      49.314  25.756  25.893  1.00  0.00     0.031 C 
ATOM     47  C   UNL A   1      42.587  26.287  27.300  1.00  0.00     0.029 A 
ATOM     48  C   UNL A   1      43.379  27.493  27.530  1.00  0.00     0.049 A 
ATOM     49  H   UNL A   1      45.428  27.736  27.236  1.00  0.00     0.167 HD
ATOM     50  C   UNL A   1      49.702  28.140  26.451  1.00  0.00     0.031 A 
ATOM     51  C   UNL A   1      42.890  28.665  27.983  1.00  0.00     0.031 A 
ATOM     52  C   UNL A   1      49.254  29.452  26.848  1.00  0.00     0.049 A 
ATOM     53  C   UNL A   1      43.812  29.845  28.107  1.00  0.00     0.074 A 
ATOM     54  C   UNL A   1      49.996  30.616  26.942  1.00  0.00     0.029 A 
ATOM     55  N   UNL A   1      47.957  29.775  27.216  1.00  0.00    -0.354 N 
ATOM     56  N   UNL A   1      45.094  29.915  27.838  1.00  0.00    -0.248 NA
ATOM     57  C   UNL A   1      43.225  31.107  28.579  1.00  0.00     0.031 C 
ATOM     58  C   UNL A   1      49.165  31.627  27.428  1.00  0.00     0.029 A 
ATOM     59  C   UNL A   1      47.885  31.113  27.568  1.00  0.00     0.049 A 
ATOM     60  H   UNL A   1      47.199  29.148  27.225  1.00  0.00     0.167 HD
ATOM     61  C   UNL A   1      45.466  31.229  28.098  1.00  0.00     0.074 A 
ATOM     62  C   UNL A   1      44.268  31.927  28.520  1.00  0.00     0.031 C 
ATOM     63  C   UNL A   1      46.691  31.800  27.999  1.00  0.00     0.031 A 
BRANCH  50  64
ATOM     64  C   UNL A   1      51.169  27.972  26.137  1.00  0.00    -0.014 A 
ATOM     65  C   UNL A   1      51.617  28.022  24.803  1.00  0.00     0.010 A 
ATOM     66  C   UNL A   1      52.081  27.617  27.148  1.00  0.00     0.010 A 
ATOM     67  C   UNL A   1      52.936  27.686  24.482  1.00  0.00     0.020 A 
ATOM     68  C   UNL A   1      53.409  27.309  26.834  1.00  0.00     0.020 A 
ATOM     69  C   UNL A   1      53.821  27.319  25.500  1.00  0.00     0.054 A 
BRANCH  69  70
ATOM     70  S   UNL A   1      55.515  26.841  25.063  1.00  0.00     0.124 S 
ATOM     71  O   UNL A   1      56.263  27.229  26.255  1.00  0.00    -0.237 OA
ATOM     72  O   UNL A   1      55.393  25.403  24.835  1.00  0.00    -0.237 OA
ATOM     73  O   UNL A   1      55.796  27.630  23.866  1.00  0.00    -0.744 OA
ENDBRANCH  69  70
ENDBRANCH  50  64
BRANCH  51  74
ATOM     74  C   UNL A   1      41.432  28.776  28.265  1.00  0.00    -0.014 A 
ATOM     75  C   UNL A   1      40.518  29.019  27.222  1.00  0.00     0.010 A 
ATOM     76  C   UNL A   1      40.965  28.753  29.590  1.00  0.00     0.010 A 
ATOM     77  C   UNL A   1      39.178  29.299  27.504  1.00  0.00     0.020 A 
ATOM     78  C   UNL A   1      39.618  29.002  29.874  1.00  0.00     0.020 A 
ATOM     79  C   UNL A   1      38.741  29.307  28.831  1.00  0.00     0.054 A 
BRANCH  79  80
ATOM     80  S   UNL A   1      37.016  29.747  29.178  1.00  0.00     0.124 S 
ATOM     81  O   UNL A   1      37.095  31.201  29.289  1.00  0.00    -0.237 OA
ATOM     82  O   UNL A   1      36.314  29.244  28.001  1.00  0.00    -0.237 OA
ATOM     83  O   UNL A   1      36.726  29.040  30.423  1.00  0.00    -0.744 OA
ENDBRANCH  79  80
ENDBRANCH  51  74
BRANCH  63  84
ATOM     84  C   UNL A   1      46.832  33.253  28.372  1.00  0.00    -0.014 A 
ATOM     85  C   UNL A   1      46.703  34.247  27.384  1.00  0.00     0.010 A 
ATOM     86  C   UNL A   1      47.231  33.625  29.668  1.00  0.00     0.010 A 
ATOM     87  C   UNL A   1      47.008  35.579  27.672  1.00  0.00     0.020 A 
ATOM     88  C   UNL A   1      47.507  34.962  29.969  1.00  0.00     0.020 A 
ATOM     89  C   UNL A   1      47.421  35.926  28.962  1.00  0.00     0.054 A 
BRANCH  89  90
ATOM     90  S   UNL A   1      47.854  37.654  29.307  1.00  0.00     0.124 S 
ATOM     91  O   UNL A   1      49.039  37.511  30.147  1.00  0.00    -0.237 OA
ATOM     92  O   UNL A   1      48.090  38.199  27.972  1.00  0.00    -0.237 OA
ATOM     93  O   UNL A   1      46.668  38.175  29.983  1.00  0.00    -0.744 OA
ENDBRANCH  89  90
ENDBRANCH  63  84
ENDBRANCH  37  38
ENDBRANCH  30  32
ENDBRANCH  29  30
ENDBRANCH  28  29
ENDBRANCH   1  28
TORSDOF 17
ENDMDL
MODEL 3
REMARK VINA RESULT:     -11.6      0.513      2.148
REMARK SMILES CC(C)(C)c1cc(Nc2ccccc2C(=O)OCCOC(=O)c2ccc(-c3c4nc(c(-c5ccc(S(=O)(=O)[O-])cc5)c5ccc([nH]5)c(-c5ccc(S(=O)(=O)[O-])cc5)c5nc(c(-c6ccc(S(=O)(=O)[O-])cc6)c6ccc3[nH]6)C=C5)C=C4)cc2)cc2c1OCC2(C)C
REMARK SMILES IDX 18 1 17 2 15 3 16 4 14 5 9 6 10 7 11 8 13 9 12 10 8 11 7 13
REMARK SMILES IDX 5 14 6 15 85 16 84 17 86 18 83 19 88 20 87 21 89 22 90 23
REMARK SMILES IDX 2 24 1 25 3 26 4 27 19 28 20 29 21 30 22 31 23 32 24 33
REMARK SMILES IDX 82 34 25 35 81 36 26 37 27 38 28 39 75 40 29 41 80 42 74 43
REMARK SMILES IDX 76 44 30 45 79 46 73 47 72 48 31 50 61 51 42 52 60 53 43 54
REMARK SMILES IDX 46 55 59 56 77 57 44 58 45 59 58 61 78 62 47 63 32 64 33 65
REMARK SMILES IDX 41 66 34 67 40 68 35 69 36 70 37 71 38 72 39 73 62 74 63 75
REMARK SMILES IDX 71 76 64 77 70 78 65 79 66 80 67 81 68 82 69 83 48 84 49 85
REMARK SMILES IDX 57 86 50 87 56 88 51 89 52 90 53 91 54 92 55 93
REMARK H PARENT 8 12 76 49 46 60
REMARK Flexibility Score: inf
ROOT
ATOM      1  C   UNL A   1      32.285  28.085  27.524  1.00  0.00     0.275 C 
ENDROOT
BRANCH   1   2
ATOM      2  O   UNL A   1      31.356  27.510  26.583  1.00  0.00    -0.458 OA
BRANCH   2   3
ATOM      3  C   UNL A   1      31.551  26.213  26.226  1.00  0.00     0.340 C 
ATOM      4  O   UNL A   1      31.652  25.276  26.993  1.00  0.00    -0.246 OA
BRANCH   3   5
ATOM      5  C   UNL A   1      31.545  26.047  24.740  1.00  0.00     0.083 A 
ATOM      6  C   UNL A   1      31.591  24.806  24.078  1.00  0.00     0.053 A 
ATOM      7  C   UNL A   1      31.656  24.811  22.668  1.00  0.00     0.027 A 
ATOM      8  C   UNL A   1      31.736  25.997  21.937  1.00  0.00     0.002 A 
ATOM      9  C   UNL A   1      31.544  27.238  23.985  1.00  0.00     0.018 A 
ATOM     10  C   UNL A   1      31.683  27.214  22.597  1.00  0.00     0.001 A 
BRANCH   6  11
ATOM     11  N   UNL A   1      31.674  23.578  24.772  1.00  0.00    -0.355 N 
ATOM     12  H   UNL A   1      30.863  23.304  25.258  1.00  0.00     0.167 HD
BRANCH  11  13
ATOM     13  C   UNL A   1      32.768  22.695  24.858  1.00  0.00     0.039 A 
ATOM     14  C   UNL A   1      33.628  20.365  24.733  1.00  0.00     0.002 A 
ATOM     15  C   UNL A   1      32.563  21.306  24.740  1.00  0.00     0.034 A 
ATOM     16  C   UNL A   1      34.910  20.911  24.785  1.00  0.00     0.127 A 
ATOM     17  C   UNL A   1      35.125  22.275  24.916  1.00  0.00     0.006 A 
ATOM     18  O   UNL A   1      36.086  20.216  24.677  1.00  0.00    -0.492 OA
ATOM     19  C   UNL A   1      34.072  23.164  24.986  1.00  0.00     0.034 A 
ATOM     20  C   UNL A   1      36.575  22.608  24.888  1.00  0.00     0.028 C 
ATOM     21  C   UNL A   1      37.149  21.182  24.868  1.00  0.00     0.240 C 
ATOM     22  C   UNL A   1      36.919  23.389  23.613  1.00  0.00     0.020 C 
ATOM     23  C   UNL A   1      37.027  23.389  26.125  1.00  0.00     0.020 C 
BRANCH  14  24
ATOM     24  C   UNL A   1      33.304  18.864  24.663  1.00  0.00    -0.009 C 
ATOM     25  C   UNL A   1      34.599  18.070  24.387  1.00  0.00     0.016 C 
ATOM     26  C   UNL A   1      32.301  18.605  23.512  1.00  0.00     0.016 C 
ATOM     27  C   UNL A   1      32.667  18.269  25.936  1.00  0.00     0.016 C 
ENDBRANCH  14  24
ENDBRANCH  11  13
ENDBRANCH   6  11
ENDBRANCH   3   5
ENDBRANCH   2   3
ENDBRANCH   1   2
BRANCH   1  28
ATOM     28  C   UNL A   1      33.651  28.327  26.877  1.00  0.00     0.275 C 
BRANCH  28  29
ATOM     29  O   UNL A   1      33.818  29.721  26.561  1.00  0.00    -0.458 OA
BRANCH  29  30
ATOM     30  C   UNL A   1      34.301  30.494  27.560  1.00  0.00     0.338 C 
ATOM     31  O   UNL A   1      33.699  31.332  28.212  1.00  0.00    -0.246 OA
BRANCH  30  32
ATOM     32  C   UNL A   1      35.656  30.031  27.886  1.00  0.00     0.060 A 
ATOM     33  C   UNL A   1      36.703  30.075  26.968  1.00  0.00     0.016 A 
ATOM     34  C   UNL A   1      35.874  29.573  29.185  1.00  0.00     0.016 A 
ATOM     35  C   UNL A   1      37.971  29.627  27.362  1.00  0.00     0.010 A 
ATOM     36  C   UNL A   1      37.134  29.137  29.581  1.00  0.00     0.010 A 
ATOM     37  C   UNL A   1      38.197  29.154  28.672  1.00  0.00    -0.014 A 
BRANCH  37  38
ATOM     38  C   UNL A   1      39.557  28.758  29.123  1.00  0.00     0.031 A 
ATOM     39  C   UNL A   1      40.392  29.666  29.984  1.00  0.00     0.074 A 
ATOM     40  C   UNL A   1      40.063  27.584  28.699  1.00  0.00     0.049 A 
ATOM     41  N   UNL A   1      41.565  29.436  30.518  1.00  0.00    -0.248 NA
ATOM     42  C   UNL A   1      39.862  31.010  30.268  1.00  0.00     0.031 C 
ATOM     43  C   UNL A   1      39.384  26.662  27.785  1.00  0.00     0.029 A 
ATOM     44  N   UNL A   1      41.250  26.956  28.985  1.00  0.00    -0.354 N 
ATOM     45  C   UNL A   1      41.908  30.594  31.204  1.00  0.00     0.074 A 
ATOM     46  C   UNL A   1      40.850  31.551  30.969  1.00  0.00     0.031 C 
ATOM     47  C   UNL A   1      40.137  25.563  27.633  1.00  0.00     0.029 A 
ATOM     48  C   UNL A   1      41.364  25.711  28.411  1.00  0.00     0.049 A 
ATOM     49  H   UNL A   1      41.951  27.359  29.545  1.00  0.00     0.167 HD
ATOM     50  C   UNL A   1      42.992  30.824  31.983  1.00  0.00     0.031 A 
ATOM     51  C   UNL A   1      42.332  24.777  28.516  1.00  0.00     0.031 A 
ATOM     52  C   UNL A   1      44.033  29.856  32.221  1.00  0.00     0.049 A 
ATOM     53  C   UNL A   1      43.510  25.041  29.410  1.00  0.00     0.074 A 
ATOM     54  C   UNL A   1      45.128  29.965  33.061  1.00  0.00     0.029 A 
ATOM     55  N   UNL A   1      44.113  28.607  31.624  1.00  0.00    -0.354 N 
ATOM     56  N   UNL A   1      43.764  26.101  30.139  1.00  0.00    -0.248 NA
ATOM     57  C   UNL A   1      44.523  23.981  29.512  1.00  0.00     0.031 C 
ATOM     58  C   UNL A   1      45.903  28.812  32.923  1.00  0.00     0.029 A 
ATOM     59  C   UNL A   1      45.254  27.949  32.053  1.00  0.00     0.049 A 
ATOM     60  H   UNL A   1      43.455  28.240  30.990  1.00  0.00     0.167 HD
ATOM     61  C   UNL A   1      44.961  25.834  30.794  1.00  0.00     0.074 A 
ATOM     62  C   UNL A   1      45.367  24.501  30.397  1.00  0.00     0.031 C 
ATOM     63  C   UNL A   1      45.660  26.626  31.643  1.00  0.00     0.031 A 
BRANCH  50  64
ATOM     64  C   UNL A   1      43.107  32.155  32.689  1.00  0.00    -0.014 A 
ATOM     65  C   UNL A   1      43.762  33.233  32.064  1.00  0.00     0.010 A 
ATOM     66  C   UNL A   1      42.697  32.292  34.028  1.00  0.00     0.010 A 
ATOM     67  C   UNL A   1      44.036  34.406  32.773  1.00  0.00     0.020 A 
ATOM     68  C   UNL A   1      42.943  33.475  34.731  1.00  0.00     0.020 A 
ATOM     69  C   UNL A   1      43.635  34.515  34.108  1.00  0.00     0.054 A 
BRANCH  69  70
ATOM     70  S   UNL A   1      44.040  36.025  35.028  1.00  0.00     0.124 S 
ATOM     71  O   UNL A   1      44.185  35.526  36.392  1.00  0.00    -0.237 OA
ATOM     72  O   UNL A   1      45.274  36.471  34.384  1.00  0.00    -0.237 OA
ATOM     73  O   UNL A   1      42.883  36.887  34.797  1.00  0.00    -0.744 OA
ENDBRANCH  69  70
ENDBRANCH  50  64
BRANCH  51  74
ATOM     74  C   UNL A   1      42.159  23.479  27.808  1.00  0.00    -0.014 A 
ATOM     75  C   UNL A   1      41.399  22.445  28.386  1.00  0.00     0.010 A 
ATOM     76  C   UNL A   1      42.847  23.232  26.608  1.00  0.00     0.010 A 
ATOM     77  C   UNL A   1      41.382  21.171  27.810  1.00  0.00     0.020 A 
ATOM     78  C   UNL A   1      42.808  21.967  26.012  1.00  0.00     0.020 A 
ATOM     79  C   UNL A   1      42.102  20.935  26.637  1.00  0.00     0.054 A 
BRANCH  79  80
ATOM     80  S   UNL A   1      42.127  19.257  25.950  1.00  0.00     0.124 S 
ATOM     81  O   UNL A   1      40.715  19.036  25.650  1.00  0.00    -0.237 OA
ATOM     82  O   UNL A   1      43.001  19.399  24.789  1.00  0.00    -0.237 OA
ATOM     83  O   UNL A   1      42.670  18.449  27.040  1.00  0.00    -0.744 OA
ENDBRANCH  79  80
ENDBRANCH  51  74
BRANCH  63  84
ATOM     84  C   UNL A   1      46.959  26.103  32.201  1.00  0.00    -0.014 A 
ATOM     85  C   UNL A   1      48.148  26.250  31.464  1.00  0.00     0.010 A 
ATOM     86  C   UNL A   1      46.976  25.343  33.384  1.00  0.00     0.010 A 
ATOM     87  C   UNL A   1      49.323  25.615  31.877  1.00  0.00     0.020 A 
ATOM     88  C   UNL A   1      48.157  24.732  33.817  1.00  0.00     0.020 A 
ATOM     89  C   UNL A   1      49.315  24.849  33.046  1.00  0.00     0.054 A 
BRANCH  89  90
ATOM     90  S   UNL A   1      50.837  23.998  33.544  1.00  0.00     0.124 S 
ATOM     91  O   UNL A   1      51.809  25.087  33.554  1.00  0.00    -0.237 OA
ATOM     92  O   UNL A   1      50.487  23.453  34.854  1.00  0.00    -0.237 OA
ATOM     93  O   UNL A   1      51.030  22.998  32.494  1.00  0.00    -0.744 OA
ENDBRANCH  89  90
ENDBRANCH  63  84
ENDBRANCH  37  38
ENDBRANCH  30  32
ENDBRANCH  29  30
ENDBRANCH  28  29
ENDBRANCH   1  28
TORSDOF 17
ENDMDL
