MODEL 1
REMARK VINA RESULT:     -12.7      0.000      0.000
REMARK SMILES Cc1ccc(C(=O)OCCOC(=O)c2ccc(-c3c4nc(c(-c5ccc(S(=O)(=O)[O-])cc5)c5ccc([nH]5)c(-c5ccc(S(=O)(=O)[O-])cc5)c5nc(c(-c6ccc(S(=O)(=O)[O-])cc6)c6ccc3[nH]6)C=C5)C=C4)cc2)c(Oc2cccc(F)c2C(N)=O)c1
REMARK SMILES IDX 9 1 8 2 6 3 7 4 5 5 1 6 2 7 3 8 86 9 4 10 74 11 75 12 76 13
REMARK SMILES IDX 77 14 82 15 78 16 80 17 79 18 81 19 83 20 84 21 85 22 10 25
REMARK SMILES IDX 11 26 12 27 13 28 14 29 15 30 73 31 16 32 72 33 17 34 18 35
REMARK SMILES IDX 19 36 66 37 20 38 71 39 65 40 67 41 21 42 70 43 64 44 63 45
REMARK SMILES IDX 22 47 52 48 33 49 51 50 34 51 37 52 50 53 68 54 35 55 36 56
REMARK SMILES IDX 49 58 69 59 38 60 23 61 24 62 32 63 25 64 31 65 26 66 27 67
REMARK SMILES IDX 28 68 29 69 30 70 53 71 54 72 62 73 55 74 61 75 56 76 57 77
REMARK SMILES IDX 58 78 59 79 60 80 39 81 40 82 48 83 41 84 47 85 42 86 43 87
REMARK SMILES IDX 44 88 45 89 46 90
REMARK H PARENT 84 23 84 24 67 46 37 57
REMARK Flexibility Score: inf
ROOT
ATOM      1  C   UNL A   1      33.228  28.504  27.158  1.00  0.00     0.275 C 
ENDROOT
BRANCH   1   2
ATOM      2  O   UNL A   1      33.176  27.119  26.751  1.00  0.00    -0.458 OA
BRANCH   2   3
ATOM      3  C   UNL A   1      31.993  26.788  26.151  1.00  0.00     0.342 C 
ATOM      4  O   UNL A   1      30.982  26.544  26.758  1.00  0.00    -0.246 OA
BRANCH   3   5
ATOM      5  C   UNL A   1      32.132  26.562  24.683  1.00  0.00     0.102 A 
ATOM      6  C   UNL A   1      32.517  25.578  20.493  1.00  0.00     0.044 C 
ATOM      7  C   UNL A   1      32.399  25.929  21.948  1.00  0.00    -0.047 A 
ATOM      8  C   UNL A   1      32.092  27.236  22.357  1.00  0.00     0.004 A 
ATOM      9  C   UNL A   1      32.546  24.932  22.916  1.00  0.00     0.051 A 
ATOM     10  C   UNL A   1      31.980  27.560  23.719  1.00  0.00     0.020 A 
ATOM     11  C   UNL A   1      32.429  25.255  24.270  1.00  0.00     0.142 A 
BRANCH  11  12
ATOM     12  O   UNL A   1      32.511  24.276  25.220  1.00  0.00    -0.455 OA
BRANCH  12  13
ATOM     13  C   UNL A   1      33.578  23.415  25.258  1.00  0.00     0.143 A 
ATOM     14  C   UNL A   1      34.748  24.075  25.671  1.00  0.00     0.048 A 
ATOM     15  C   UNL A   1      33.640  22.058  24.916  1.00  0.00     0.117 A 
ATOM     16  C   UNL A   1      35.953  23.391  25.807  1.00  0.00     0.007 A 
ATOM     17  C   UNL A   1      34.851  21.377  25.080  1.00  0.00     0.139 A 
ATOM     18  C   UNL A   1      35.997  22.032  25.528  1.00  0.00     0.040 A 
ATOM     19  F   UNL A   1      34.957  20.076  24.767  1.00  0.00    -0.206 F 
BRANCH  15  20
ATOM     20  C   UNL A   1      32.534  21.265  24.351  1.00  0.00     0.255 C 
ATOM     21  N   UNL A   1      32.431  21.247  22.989  1.00  0.00    -0.365 N 
ATOM     22  O   UNL A   1      31.778  20.622  25.065  1.00  0.00    -0.269 OA
ATOM     23  H   UNL A   1      33.054  21.776  22.441  1.00  0.00     0.159 HD
ATOM     24  H   UNL A   1      31.731  20.706  22.555  1.00  0.00     0.159 HD
ENDBRANCH  15  20
ENDBRANCH  12  13
ENDBRANCH  11  12
ENDBRANCH   3   5
ENDBRANCH   2   3
ENDBRANCH   1   2
BRANCH   1  25
ATOM     25  C   UNL A   1      34.632  29.113  26.993  1.00  0.00     0.275 C 
BRANCH  25  26
ATOM     26  O   UNL A   1      35.217  29.678  28.183  1.00  0.00    -0.458 OA
BRANCH  26  27
ATOM     27  C   UNL A   1      36.348  30.409  27.980  1.00  0.00     0.338 C 
ATOM     28  O   UNL A   1      36.401  31.621  28.096  1.00  0.00    -0.246 OA
BRANCH  27  29
ATOM     29  C   UNL A   1      37.500  29.461  28.030  1.00  0.00     0.060 A 
ATOM     30  C   UNL A   1      38.498  29.536  27.048  1.00  0.00     0.016 A 
ATOM     31  C   UNL A   1      37.741  28.772  29.225  1.00  0.00     0.016 A 
ATOM     32  C   UNL A   1      39.775  29.035  27.307  1.00  0.00     0.010 A 
ATOM     33  C   UNL A   1      39.019  28.365  29.522  1.00  0.00     0.010 A 
ATOM     34  C   UNL A   1      40.034  28.485  28.563  1.00  0.00    -0.014 A 
BRANCH  34  35
ATOM     35  C   UNL A   1      41.208  27.680  28.869  1.00  0.00     0.031 A 
ATOM     36  C   UNL A   1      41.368  26.265  28.481  1.00  0.00     0.074 A 
ATOM     37  C   UNL A   1      42.186  28.430  29.425  1.00  0.00     0.049 A 
ATOM     38  N   UNL A   1      42.258  25.479  28.985  1.00  0.00    -0.248 NA
ATOM     39  C   UNL A   1      40.523  25.587  27.504  1.00  0.00     0.031 C 
ATOM     40  C   UNL A   1      43.586  28.133  29.653  1.00  0.00     0.029 A 
ATOM     41  N   UNL A   1      41.983  29.639  30.113  1.00  0.00    -0.354 N 
ATOM     42  C   UNL A   1      42.315  24.346  28.194  1.00  0.00     0.074 A 
ATOM     43  C   UNL A   1      41.144  24.409  27.361  1.00  0.00     0.031 C 
ATOM     44  C   UNL A   1      44.006  28.901  30.679  1.00  0.00     0.029 A 
ATOM     45  C   UNL A   1      42.826  29.582  31.213  1.00  0.00     0.049 A 
ATOM     46  H   UNL A   1      41.372  30.370  29.866  1.00  0.00     0.167 HD
ATOM     47  C   UNL A   1      43.446  23.583  28.213  1.00  0.00     0.031 A 
ATOM     48  C   UNL A   1      42.313  29.429  32.471  1.00  0.00     0.031 A 
ATOM     49  C   UNL A   1      44.353  24.061  29.251  1.00  0.00     0.049 A 
ATOM     50  C   UNL A   1      42.842  28.152  33.076  1.00  0.00     0.074 A 
ATOM     51  C   UNL A   1      45.437  24.922  29.205  1.00  0.00     0.029 A 
ATOM     52  N   UNL A   1      43.960  23.983  30.584  1.00  0.00    -0.354 N 
ATOM     53  N   UNL A   1      43.083  27.059  32.399  1.00  0.00    -0.248 NA
ATOM     54  C   UNL A   1      43.227  28.055  34.478  1.00  0.00     0.031 C 
ATOM     55  C   UNL A   1      45.594  25.481  30.500  1.00  0.00     0.029 A 
ATOM     56  C   UNL A   1      44.633  24.929  31.331  1.00  0.00     0.049 A 
ATOM     57  H   UNL A   1      43.299  23.347  30.939  1.00  0.00     0.167 HD
ATOM     58  C   UNL A   1      43.779  26.195  33.201  1.00  0.00     0.074 A 
ATOM     59  C   UNL A   1      43.790  26.836  34.507  1.00  0.00     0.031 C 
ATOM     60  C   UNL A   1      44.384  25.055  32.756  1.00  0.00     0.031 A 
BRANCH  47  61
ATOM     61  C   UNL A   1      43.874  22.665  27.085  1.00  0.00    -0.014 A 
ATOM     62  C   UNL A   1      42.983  21.653  26.659  1.00  0.00     0.010 A 
ATOM     63  C   UNL A   1      45.135  22.678  26.460  1.00  0.00     0.010 A 
ATOM     64  C   UNL A   1      43.356  20.655  25.747  1.00  0.00     0.020 A 
ATOM     65  C   UNL A   1      45.530  21.673  25.554  1.00  0.00     0.020 A 
ATOM     66  C   UNL A   1      44.642  20.654  25.218  1.00  0.00     0.054 A 
BRANCH  66  67
ATOM     67  S   UNL A   1      45.125  19.312  24.098  1.00  0.00     0.124 S 
ATOM     68  O   UNL A   1      44.529  19.729  22.832  1.00  0.00    -0.237 OA
ATOM     69  O   UNL A   1      46.583  19.361  24.154  1.00  0.00    -0.237 OA
ATOM     70  O   UNL A   1      44.523  18.123  24.701  1.00  0.00    -0.744 OA
ENDBRANCH  66  67
ENDBRANCH  47  61
BRANCH  48  71
ATOM     71  C   UNL A   1      40.942  29.998  32.716  1.00  0.00    -0.014 A 
ATOM     72  C   UNL A   1      40.685  31.329  32.305  1.00  0.00     0.010 A 
ATOM     73  C   UNL A   1      39.840  29.205  33.083  1.00  0.00     0.010 A 
ATOM     74  C   UNL A   1      39.378  31.817  32.167  1.00  0.00     0.020 A 
ATOM     75  C   UNL A   1      38.524  29.699  32.967  1.00  0.00     0.020 A 
ATOM     76  C   UNL A   1      38.302  30.992  32.482  1.00  0.00     0.054 A 
BRANCH  76  77
ATOM     77  S   UNL A   1      36.621  31.561  32.057  1.00  0.00     0.124 S 
ATOM     78  O   UNL A   1      36.885  32.572  31.040  1.00  0.00    -0.237 OA
ATOM     79  O   UNL A   1      35.995  30.331  31.577  1.00  0.00    -0.237 OA
ATOM     80  O   UNL A   1      36.105  32.061  33.329  1.00  0.00    -0.744 OA
ENDBRANCH  76  77
ENDBRANCH  48  71
BRANCH  60  81
ATOM     81  C   UNL A   1      44.933  23.977  33.648  1.00  0.00    -0.014 A 
ATOM     82  C   UNL A   1      44.203  22.834  34.004  1.00  0.00     0.010 A 
ATOM     83  C   UNL A   1      46.301  24.019  34.012  1.00  0.00     0.010 A 
ATOM     84  C   UNL A   1      44.792  21.810  34.752  1.00  0.00     0.020 A 
ATOM     85  C   UNL A   1      46.909  22.982  34.713  1.00  0.00     0.020 A 
ATOM     86  C   UNL A   1      46.141  21.893  35.103  1.00  0.00     0.054 A 
BRANCH  86  87
ATOM     87  S   UNL A   1      46.909  20.532  36.012  1.00  0.00     0.124 S 
ATOM     88  O   UNL A   1      47.294  21.189  37.259  1.00  0.00    -0.237 OA
ATOM     89  O   UNL A   1      45.825  19.559  36.124  1.00  0.00    -0.237 OA
ATOM     90  O   UNL A   1      48.015  20.126  35.148  1.00  0.00    -0.744 OA
ENDBRANCH  86  87
ENDBRANCH  60  81
ENDBRANCH  34  35
ENDBRANCH  27  29
ENDBRANCH  26  27
ENDBRANCH  25  26
ENDBRANCH   1  25
TORSDOF 17
ENDMDL
MODEL 2
REMARK VINA RESULT:     -12.5      2.180      3.497
REMARK SMILES Cc1ccc(C(=O)OCCOC(=O)c2ccc(-c3c4nc(c(-c5ccc(S(=O)(=O)[O-])cc5)c5ccc([nH]5)c(-c5ccc(S(=O)(=O)[O-])cc5)c5nc(c(-c6ccc(S(=O)(=O)[O-])cc6)c6ccc3[nH]6)C=C5)C=C4)cc2)c(Oc2cccc(F)c2C(N)=O)c1
REMARK SMILES IDX 9 1 8 2 6 3 7 4 5 5 1 6 2 7 3 8 86 9 4 10 74 11 75 12 76 13
REMARK SMILES IDX 77 14 82 15 78 16 80 17 79 18 81 19 83 20 84 21 85 22 10 25
REMARK SMILES IDX 11 26 12 27 13 28 14 29 15 30 73 31 16 32 72 33 17 34 18 35
REMARK SMILES IDX 19 36 66 37 20 38 71 39 65 40 67 41 21 42 70 43 64 44 63 45
REMARK SMILES IDX 22 47 52 48 33 49 51 50 34 51 37 52 50 53 68 54 35 55 36 56
REMARK SMILES IDX 49 58 69 59 38 60 23 61 24 62 32 63 25 64 31 65 26 66 27 67
REMARK SMILES IDX 28 68 29 69 30 70 53 71 54 72 62 73 55 74 61 75 56 76 57 77
REMARK SMILES IDX 58 78 59 79 60 80 39 81 40 82 48 83 41 84 47 85 42 86 43 87
REMARK SMILES IDX 44 88 45 89 46 90
REMARK H PARENT 84 23 84 24 67 46 37 57
REMARK Flexibility Score: inf
ROOT
ATOM      1  C   UNL A   1      33.580  28.238  27.243  1.00  0.00     0.275 C 
ENDROOT
BRANCH   1   2
ATOM      2  O   UNL A   1      33.875  27.395  26.108  1.00  0.00    -0.458 OA
BRANCH   2   3
ATOM      3  C   UNL A   1      32.847  26.551  25.794  1.00  0.00     0.342 C 
ATOM      4  O   UNL A   1      32.179  25.977  26.615  1.00  0.00    -0.246 OA
BRANCH   3   5
ATOM      5  C   UNL A   1      32.766  26.256  24.334  1.00  0.00     0.102 A 
ATOM      6  C   UNL A   1      32.250  25.578  20.098  1.00  0.00     0.044 C 
ATOM      7  C   UNL A   1      32.430  25.796  21.572  1.00  0.00    -0.047 A 
ATOM      8  C   UNL A   1      33.659  25.541  22.199  1.00  0.00     0.004 A 
ATOM      9  C   UNL A   1      31.374  26.308  22.331  1.00  0.00     0.051 A 
ATOM     10  C   UNL A   1      33.824  25.748  23.578  1.00  0.00     0.020 A 
ATOM     11  C   UNL A   1      31.543  26.518  23.702  1.00  0.00     0.142 A 
BRANCH  11  12
ATOM     12  O   UNL A   1      30.536  27.075  24.440  1.00  0.00    -0.455 OA
BRANCH  12  13
ATOM     13  C   UNL A   1      29.872  28.192  24.002  1.00  0.00     0.143 A 
ATOM     14  C   UNL A   1      28.721  27.845  23.274  1.00  0.00     0.048 A 
ATOM     15  C   UNL A   1      30.208  29.544  24.152  1.00  0.00     0.117 A 
ATOM     16  C   UNL A   1      27.876  28.821  22.752  1.00  0.00     0.007 A 
ATOM     17  C   UNL A   1      29.338  30.515  23.643  1.00  0.00     0.139 A 
ATOM     18  C   UNL A   1      28.179  30.161  22.955  1.00  0.00     0.040 A 
ATOM     19  F   UNL A   1      29.619  31.821  23.765  1.00  0.00    -0.206 F 
BRANCH  15  20
ATOM     20  C   UNL A   1      31.440  30.056  24.777  1.00  0.00     0.255 C 
ATOM     21  N   UNL A   1      32.618  29.703  24.182  1.00  0.00    -0.365 N 
ATOM     22  O   UNL A   1      31.404  30.796  25.751  1.00  0.00    -0.269 OA
ATOM     23  H   UNL A   1      32.615  29.106  23.400  1.00  0.00     0.159 HD
ATOM     24  H   UNL A   1      33.471  30.045  24.538  1.00  0.00     0.159 HD
ENDBRANCH  15  20
ENDBRANCH  12  13
ENDBRANCH  11  12
ENDBRANCH   3   5
ENDBRANCH   2   3
ENDBRANCH   1   2
BRANCH   1  25
ATOM     25  C   UNL A   1      34.434  29.518  27.262  1.00  0.00     0.275 C 
BRANCH  25  26
ATOM     26  O   UNL A   1      35.262  29.704  28.427  1.00  0.00    -0.458 OA
BRANCH  26  27
ATOM     27  C   UNL A   1      36.402  30.421  28.217  1.00  0.00     0.338 C 
ATOM     28  O   UNL A   1      36.476  31.629  28.354  1.00  0.00    -0.246 OA
BRANCH  27  29
ATOM     29  C   UNL A   1      37.539  29.453  28.231  1.00  0.00     0.060 A 
ATOM     30  C   UNL A   1      38.516  29.524  27.228  1.00  0.00     0.016 A 
ATOM     31  C   UNL A   1      37.796  28.747  29.412  1.00  0.00     0.016 A 
ATOM     32  C   UNL A   1      39.790  29.000  27.451  1.00  0.00     0.010 A 
ATOM     33  C   UNL A   1      39.074  28.317  29.676  1.00  0.00     0.010 A 
ATOM     34  C   UNL A   1      40.068  28.431  28.696  1.00  0.00    -0.014 A 
BRANCH  34  35
ATOM     35  C   UNL A   1      41.235  27.604  28.965  1.00  0.00     0.031 A 
ATOM     36  C   UNL A   1      41.360  26.189  28.565  1.00  0.00     0.074 A 
ATOM     37  C   UNL A   1      42.241  28.334  29.499  1.00  0.00     0.049 A 
ATOM     38  N   UNL A   1      42.250  25.385  29.041  1.00  0.00    -0.248 NA
ATOM     39  C   UNL A   1      40.478  25.532  27.607  1.00  0.00     0.031 C 
ATOM     40  C   UNL A   1      43.641  28.012  29.689  1.00  0.00     0.029 A 
ATOM     41  N   UNL A   1      42.077  29.541  30.199  1.00  0.00    -0.354 N 
ATOM     42  C   UNL A   1      42.266  24.256  28.243  1.00  0.00     0.074 A 
ATOM     43  C   UNL A   1      41.075  24.344  27.441  1.00  0.00     0.031 C 
ATOM     44  C   UNL A   1      44.101  28.765  30.708  1.00  0.00     0.029 A 
ATOM     45  C   UNL A   1      42.948  29.464  31.277  1.00  0.00     0.049 A 
ATOM     46  H   UNL A   1      41.473  30.285  29.973  1.00  0.00     0.167 HD
ATOM     47  C   UNL A   1      43.383  23.474  28.228  1.00  0.00     0.031 A 
ATOM     48  C   UNL A   1      42.465  29.312  32.547  1.00  0.00     0.031 A 
ATOM     49  C   UNL A   1      44.326  23.929  29.243  1.00  0.00     0.049 A 
ATOM     50  C   UNL A   1      42.988  28.022  33.130  1.00  0.00     0.074 A 
ATOM     51  C   UNL A   1      45.423  24.771  29.174  1.00  0.00     0.029 A 
ATOM     52  N   UNL A   1      43.967  23.850  30.586  1.00  0.00    -0.354 N 
ATOM     53  N   UNL A   1      43.191  26.930  32.441  1.00  0.00    -0.248 NA
ATOM     54  C   UNL A   1      43.407  27.909  34.521  1.00  0.00     0.031 C 
ATOM     55  C   UNL A   1      45.624  25.319  30.467  1.00  0.00     0.029 A 
ATOM     56  C   UNL A   1      44.676  24.779  31.321  1.00  0.00     0.049 A 
ATOM     57  H   UNL A   1      43.305  23.223  30.955  1.00  0.00     0.167 HD
ATOM     58  C   UNL A   1      43.894  26.048  33.220  1.00  0.00     0.074 A 
ATOM     59  C   UNL A   1      43.950  26.681  34.529  1.00  0.00     0.031 C 
ATOM     60  C   UNL A   1      44.466  24.900  32.753  1.00  0.00     0.031 A 
BRANCH  47  61
ATOM     61  C   UNL A   1      43.765  22.555  27.083  1.00  0.00    -0.014 A 
ATOM     62  C   UNL A   1      42.908  21.477  26.763  1.00  0.00     0.010 A 
ATOM     63  C   UNL A   1      44.960  22.632  26.343  1.00  0.00     0.010 A 
ATOM     64  C   UNL A   1      43.261  20.481  25.840  1.00  0.00     0.020 A 
ATOM     65  C   UNL A   1      45.335  21.631  25.424  1.00  0.00     0.020 A 
ATOM     66  C   UNL A   1      44.490  20.549  25.194  1.00  0.00     0.054 A 
BRANCH  66  67
ATOM     67  S   UNL A   1      44.955  19.211  24.061  1.00  0.00     0.124 S 
ATOM     68  O   UNL A   1      46.402  19.131  24.247  1.00  0.00    -0.237 OA
ATOM     69  O   UNL A   1      44.192  18.078  24.577  1.00  0.00    -0.237 OA
ATOM     70  O   UNL A   1      44.528  19.700  22.751  1.00  0.00    -0.744 OA
ENDBRANCH  66  67
ENDBRANCH  47  61
BRANCH  48  71
ATOM     71  C   UNL A   1      41.111  29.903  32.831  1.00  0.00    -0.014 A 
ATOM     72  C   UNL A   1      40.867  31.241  32.435  1.00  0.00     0.010 A 
ATOM     73  C   UNL A   1      40.006  29.127  33.222  1.00  0.00     0.010 A 
ATOM     74  C   UNL A   1      39.566  31.753  32.334  1.00  0.00     0.020 A 
ATOM     75  C   UNL A   1      38.696  29.644  33.144  1.00  0.00     0.020 A 
ATOM     76  C   UNL A   1      38.484  30.944  32.673  1.00  0.00     0.054 A 
BRANCH  76  77
ATOM     77  S   UNL A   1      36.803  31.545  32.296  1.00  0.00     0.124 S 
ATOM     78  O   UNL A   1      36.153  30.343  31.785  1.00  0.00    -0.237 OA
ATOM     79  O   UNL A   1      36.342  32.004  33.604  1.00  0.00    -0.237 OA
ATOM     80  O   UNL A   1      37.038  32.603  31.316  1.00  0.00    -0.744 OA
ENDBRANCH  76  77
ENDBRANCH  48  71
BRANCH  60  81
ATOM     81  C   UNL A   1      45.020  23.808  33.623  1.00  0.00    -0.014 A 
ATOM     82  C   UNL A   1      46.320  23.836  34.149  1.00  0.00     0.010 A 
ATOM     83  C   UNL A   1      44.152  22.788  34.080  1.00  0.00     0.010 A 
ATOM     84  C   UNL A   1      46.757  22.848  35.036  1.00  0.00     0.020 A 
ATOM     85  C   UNL A   1      44.561  21.829  35.003  1.00  0.00     0.020 A 
ATOM     86  C   UNL A   1      45.874  21.849  35.456  1.00  0.00     0.054 A 
BRANCH  86  87
ATOM     87  S   UNL A   1      46.428  20.617  36.655  1.00  0.00     0.124 S 
ATOM     88  O   UNL A   1      47.873  20.838  36.660  1.00  0.00    -0.237 OA
ATOM     89  O   UNL A   1      45.730  21.011  37.877  1.00  0.00    -0.237 OA
ATOM     90  O   UNL A   1      45.987  19.352  36.074  1.00  0.00    -0.744 OA
ENDBRANCH  86  87
ENDBRANCH  60  81
ENDBRANCH  34  35
ENDBRANCH  27  29
ENDBRANCH  26  27
ENDBRANCH  25  26
ENDBRANCH   1  25
TORSDOF 17
ENDMDL
MODEL 3
REMARK VINA RESULT:     -12.4      4.600     11.017
REMARK SMILES Cc1ccc(C(=O)OCCOC(=O)c2ccc(-c3c4nc(c(-c5ccc(S(=O)(=O)[O-])cc5)c5ccc([nH]5)c(-c5ccc(S(=O)(=O)[O-])cc5)c5nc(c(-c6ccc(S(=O)(=O)[O-])cc6)c6ccc3[nH]6)C=C5)C=C4)cc2)c(Oc2cccc(F)c2C(N)=O)c1
REMARK SMILES IDX 9 1 8 2 6 3 7 4 5 5 1 6 2 7 3 8 86 9 4 10 74 11 75 12 76 13
REMARK SMILES IDX 77 14 82 15 78 16 80 17 79 18 81 19 83 20 84 21 85 22 10 25
REMARK SMILES IDX 11 26 12 27 13 28 14 29 15 30 73 31 16 32 72 33 17 34 18 35
REMARK SMILES IDX 19 36 66 37 20 38 71 39 65 40 67 41 21 42 70 43 64 44 63 45
REMARK SMILES IDX 22 47 52 48 33 49 51 50 34 51 37 52 50 53 68 54 35 55 36 56
REMARK SMILES IDX 49 58 69 59 38 60 23 61 24 62 32 63 25 64 31 65 26 66 27 67
REMARK SMILES IDX 28 68 29 69 30 70 53 71 54 72 62 73 55 74 61 75 56 76 57 77
REMARK SMILES IDX 58 78 59 79 60 80 39 81 40 82 48 83 41 84 47 85 42 86 43 87
REMARK SMILES IDX 44 88 45 89 46 90
REMARK H PARENT 84 23 84 24 67 46 37 57
REMARK Flexibility Score: inf
ROOT
ATOM      1  C   UNL A   1      37.040  23.228  24.462  1.00  0.00     0.275 C 
ENDROOT
BRANCH   1   2
ATOM      2  O   UNL A   1      36.011  22.244  24.217  1.00  0.00    -0.458 OA
BRANCH   2   3
ATOM      3  C   UNL A   1      34.924  22.764  23.571  1.00  0.00     0.342 C 
ATOM      4  O   UNL A   1      34.983  23.307  22.498  1.00  0.00    -0.246 OA
BRANCH   3   5
ATOM      5  C   UNL A   1      33.697  22.771  24.418  1.00  0.00     0.102 A 
ATOM      6  C   UNL A   1      30.167  23.126  26.886  1.00  0.00     0.044 C 
ATOM      7  C   UNL A   1      31.401  22.992  26.041  1.00  0.00    -0.047 A 
ATOM      8  C   UNL A   1      31.681  21.803  25.349  1.00  0.00     0.004 A 
ATOM      9  C   UNL A   1      32.263  24.081  25.895  1.00  0.00     0.051 A 
ATOM     10  C   UNL A   1      32.835  21.682  24.558  1.00  0.00     0.020 A 
ATOM     11  C   UNL A   1      33.407  23.960  25.102  1.00  0.00     0.142 A 
BRANCH  11  12
ATOM     12  O   UNL A   1      34.224  25.039  24.906  1.00  0.00    -0.455 OA
BRANCH  12  13
ATOM     13  C   UNL A   1      33.704  26.285  24.667  1.00  0.00     0.143 A 
ATOM     14  C   UNL A   1      33.760  27.087  25.820  1.00  0.00     0.048 A 
ATOM     15  C   UNL A   1      33.127  26.801  23.499  1.00  0.00     0.117 A 
ATOM     16  C   UNL A   1      33.309  28.404  25.805  1.00  0.00     0.007 A 
ATOM     17  C   UNL A   1      32.701  28.134  23.491  1.00  0.00     0.139 A 
ATOM     18  C   UNL A   1      32.795  28.933  24.629  1.00  0.00     0.040 A 
ATOM     19  F   UNL A   1      32.144  28.671  22.395  1.00  0.00    -0.206 F 
BRANCH  15  20
ATOM     20  C   UNL A   1      32.887  26.047  22.257  1.00  0.00     0.255 C 
ATOM     21  N   UNL A   1      31.747  25.297  22.210  1.00  0.00    -0.365 N 
ATOM     22  O   UNL A   1      33.648  26.127  21.302  1.00  0.00    -0.269 OA
ATOM     23  H   UNL A   1      31.154  25.252  22.995  1.00  0.00     0.159 HD
ATOM     24  H   UNL A   1      31.518  24.799  21.392  1.00  0.00     0.159 HD
ENDBRANCH  15  20
ENDBRANCH  12  13
ENDBRANCH  11  12
ENDBRANCH   3   5
ENDBRANCH   2   3
ENDBRANCH   1   2
BRANCH   1  25
ATOM     25  C   UNL A   1      37.819  22.953  25.760  1.00  0.00     0.275 C 
BRANCH  25  26
ATOM     26  O   UNL A   1      38.277  24.117  26.476  1.00  0.00    -0.458 OA
BRANCH  26  27
ATOM     27  C   UNL A   1      39.476  23.973  27.107  1.00  0.00     0.338 C 
ATOM     28  O   UNL A   1      40.233  23.038  26.916  1.00  0.00    -0.246 OA
BRANCH  27  29
ATOM     29  C   UNL A   1      39.835  25.305  27.679  1.00  0.00     0.060 A 
ATOM     30  C   UNL A   1      40.255  26.332  26.823  1.00  0.00     0.016 A 
ATOM     31  C   UNL A   1      39.412  25.604  28.980  1.00  0.00     0.016 A 
ATOM     32  C   UNL A   1      40.136  27.666  27.217  1.00  0.00     0.010 A 
ATOM     33  C   UNL A   1      39.203  26.914  29.336  1.00  0.00     0.010 A 
ATOM     34  C   UNL A   1      39.572  27.946  28.463  1.00  0.00    -0.014 A 
BRANCH  34  35
ATOM     35  C   UNL A   1      39.649  29.246  29.113  1.00  0.00     0.031 A 
ATOM     36  C   UNL A   1      38.646  30.315  28.952  1.00  0.00     0.074 A 
ATOM     37  C   UNL A   1      40.677  29.295  29.990  1.00  0.00     0.049 A 
ATOM     38  N   UNL A   1      38.847  31.545  29.286  1.00  0.00    -0.248 NA
ATOM     39  C   UNL A   1      37.322  30.111  28.372  1.00  0.00     0.031 C 
ATOM     40  C   UNL A   1      40.984  30.260  31.027  1.00  0.00     0.029 A 
ATOM     41  N   UNL A   1      41.824  28.485  29.935  1.00  0.00    -0.354 N 
ATOM     42  C   UNL A   1      37.624  32.189  29.277  1.00  0.00     0.074 A 
ATOM     43  C   UNL A   1      36.730  31.292  28.594  1.00  0.00     0.031 C 
ATOM     44  C   UNL A   1      42.314  30.216  31.247  1.00  0.00     0.029 A 
ATOM     45  C   UNL A   1      42.886  29.327  30.234  1.00  0.00     0.049 A 
ATOM     46  H   UNL A   1      41.866  27.523  29.729  1.00  0.00     0.167 HD
ATOM     47  C   UNL A   1      37.471  33.329  30.012  1.00  0.00     0.031 A 
ATOM     48  C   UNL A   1      43.778  29.687  29.262  1.00  0.00     0.031 A 
ATOM     49  C   UNL A   1      38.758  33.746  30.559  1.00  0.00     0.049 A 
ATOM     50  C   UNL A   1      43.752  31.187  29.089  1.00  0.00     0.074 A 
ATOM     51  C   UNL A   1      39.351  33.529  31.791  1.00  0.00     0.029 A 
ATOM     52  N   UNL A   1      39.773  34.128  29.687  1.00  0.00    -0.354 N 
ATOM     53  N   UNL A   1      42.679  31.924  29.209  1.00  0.00    -0.248 NA
ATOM     54  C   UNL A   1      44.962  31.965  28.861  1.00  0.00     0.031 C 
ATOM     55  C   UNL A   1      40.755  33.635  31.614  1.00  0.00     0.029 A 
ATOM     56  C   UNL A   1      41.004  33.952  30.288  1.00  0.00     0.049 A 
ATOM     57  H   UNL A   1      39.633  34.473  28.776  1.00  0.00     0.167 HD
ATOM     58  C   UNL A   1      43.057  33.241  29.237  1.00  0.00     0.074 A 
ATOM     59  C   UNL A   1      44.484  33.217  28.955  1.00  0.00     0.031 C 
ATOM     60  C   UNL A   1      42.226  34.270  29.571  1.00  0.00     0.031 A 
BRANCH  47  61
ATOM     61  C   UNL A   1      36.139  33.843  30.521  1.00  0.00    -0.014 A 
ATOM     62  C   UNL A   1      35.259  34.468  29.608  1.00  0.00     0.010 A 
ATOM     63  C   UNL A   1      35.720  33.824  31.865  1.00  0.00     0.010 A 
ATOM     64  C   UNL A   1      34.088  35.123  30.017  1.00  0.00     0.020 A 
ATOM     65  C   UNL A   1      34.554  34.490  32.293  1.00  0.00     0.020 A 
ATOM     66  C   UNL A   1      33.755  35.155  31.366  1.00  0.00     0.054 A 
BRANCH  66  67
ATOM     67  S   UNL A   1      32.276  36.071  31.879  1.00  0.00     0.124 S 
ATOM     68  O   UNL A   1      32.841  37.170  32.660  1.00  0.00    -0.237 OA
ATOM     69  O   UNL A   1      31.678  36.450  30.602  1.00  0.00    -0.237 OA
ATOM     70  O   UNL A   1      31.513  35.094  32.655  1.00  0.00    -0.744 OA
ENDBRANCH  66  67
ENDBRANCH  47  61
BRANCH  48  71
ATOM     71  C   UNL A   1      44.011  28.694  28.157  1.00  0.00    -0.014 A 
ATOM     72  C   UNL A   1      44.641  27.467  28.481  1.00  0.00     0.010 A 
ATOM     73  C   UNL A   1      43.409  28.803  26.892  1.00  0.00     0.010 A 
ATOM     74  C   UNL A   1      44.584  26.361  27.621  1.00  0.00     0.020 A 
ATOM     75  C   UNL A   1      43.368  27.700  26.013  1.00  0.00     0.020 A 
ATOM     76  C   UNL A   1      43.931  26.479  26.397  1.00  0.00     0.054 A 
BRANCH  76  77
ATOM     77  S   UNL A   1      43.654  24.967  25.414  1.00  0.00     0.124 S 
ATOM     78  O   UNL A   1      43.439  23.960  26.448  1.00  0.00    -0.237 OA
ATOM     79  O   UNL A   1      42.477  25.325  24.627  1.00  0.00    -0.237 OA
ATOM     80  O   UNL A   1      44.892  24.834  24.649  1.00  0.00    -0.744 OA
ENDBRANCH  76  77
ENDBRANCH  48  71
BRANCH  60  81
ATOM     81  C   UNL A   1      42.546  35.725  29.370  1.00  0.00    -0.014 A 
ATOM     82  C   UNL A   1      43.412  36.439  30.211  1.00  0.00     0.010 A 
ATOM     83  C   UNL A   1      42.099  36.370  28.192  1.00  0.00     0.010 A 
ATOM     84  C   UNL A   1      43.759  37.763  29.925  1.00  0.00     0.020 A 
ATOM     85  C   UNL A   1      42.480  37.670  27.872  1.00  0.00     0.020 A 
ATOM     86  C   UNL A   1      43.289  38.370  28.758  1.00  0.00     0.054 A 
BRANCH  86  87
ATOM     87  S   UNL A   1      43.799  40.058  28.365  1.00  0.00     0.124 S 
ATOM     88  O   UNL A   1      42.631  40.827  28.787  1.00  0.00    -0.237 OA
ATOM     89  O   UNL A   1      44.997  40.238  29.183  1.00  0.00    -0.237 OA
ATOM     90  O   UNL A   1      44.037  40.015  26.925  1.00  0.00    -0.744 OA
ENDBRANCH  86  87
ENDBRANCH  60  81
ENDBRANCH  34  35
ENDBRANCH  27  29
ENDBRANCH  26  27
ENDBRANCH  25  26
ENDBRANCH   1  25
TORSDOF 17
ENDMDL
