MODEL 1
REMARK VINA RESULT:     -13.2      0.000      0.000
REMARK SMILES Cc1ccccc1/[NH+]=C1\S[C@@H](CC(=O)Nc2ccc(C(=O)OCCOC(=O)c3ccc(-c4c5nc(c(-c6ccc(S(=O)(=O)[O-])cc6)c6ccc([nH]6)c(-c6ccc(S(=O)(=O)[O-])cc6)c6nc(c(-c7ccc(S(=O)(=O)[O-])cc7)c7ccc4[nH]7)C=C6)C=C5)cc3)cc2)C(=O)N1C
REMARK SMILES IDX 23 1 22 2 20 3 21 4 19 5 16 6 17 7 89 8 18 9 88 10 15 11
REMARK SMILES IDX 13 12 14 13 12 15 11 16 8 17 9 18 10 20 92 21 90 22 93 23
REMARK SMILES IDX 91 24 7 25 1 26 2 27 3 28 4 29 6 30 5 31 24 32 25 33 26 34
REMARK SMILES IDX 27 35 28 36 29 37 87 38 30 39 86 40 31 41 32 42 33 43 80 44
REMARK SMILES IDX 34 45 85 46 79 47 81 48 35 49 84 50 78 51 77 52 36 54 66 55
REMARK SMILES IDX 47 56 65 57 48 58 51 59 64 60 82 61 49 62 50 63 63 65 83 66
REMARK SMILES IDX 52 67 37 68 38 69 46 70 39 71 45 72 40 73 41 74 42 75 43 76
REMARK SMILES IDX 44 77 67 78 68 79 76 80 69 81 75 82 70 83 71 84 72 85 73 86
REMARK SMILES IDX 74 87 53 88 54 89 62 90 55 91 61 92 56 93 57 94 58 95 59 96
REMARK SMILES IDX 60 97
REMARK H PARENT 15 14 8 19 81 53 51 64
REMARK Flexibility Score: inf
ROOT
ATOM      1  C   UNL A   1      34.305  28.867  26.122  1.00  0.00     0.275 C 
ENDROOT
BRANCH   1   2
ATOM      2  O   UNL A   1      32.947  28.523  26.414  1.00  0.00    -0.458 OA
BRANCH   2   3
ATOM      3  C   UNL A   1      32.032  29.258  25.731  1.00  0.00     0.338 C 
ATOM      4  O   UNL A   1      31.749  30.423  25.932  1.00  0.00    -0.246 OA
BRANCH   3   5
ATOM      5  C   UNL A   1      31.317  28.440  24.731  1.00  0.00     0.060 A 
ATOM      6  C   UNL A   1      30.977  26.497  22.824  1.00  0.00     0.041 A 
ATOM      7  C   UNL A   1      31.202  27.812  22.416  1.00  0.00     0.027 A 
ATOM      8  C   UNL A   1      30.624  26.207  24.134  1.00  0.00     0.027 A 
ATOM      9  C   UNL A   1      31.391  28.796  23.386  1.00  0.00     0.018 A 
ATOM     10  C   UNL A   1      30.852  27.173  25.102  1.00  0.00     0.018 A 
BRANCH   6  11
ATOM     11  N   UNL A   1      31.479  25.473  22.010  1.00  0.00    -0.326 N 
ATOM     12  C   UNL A   1      32.792  25.047  22.044  1.00  0.00     0.226 C 
ATOM     13  O   UNL A   1      33.210  24.329  21.131  1.00  0.00    -0.275 OA
ATOM     14  H   UNL A   1      30.862  25.035  21.380  1.00  0.00     0.169 HD
BRANCH  12  15
ATOM     15  C   UNL A   1      33.728  25.473  23.172  1.00  0.00     0.128 C 
BRANCH  15  16
ATOM     16  C   UNL A   1      34.201  24.346  24.073  1.00  0.00     0.183 C 
ATOM     17  N   UNL A   1      35.709  21.186  24.984  1.00  0.00    -0.234 N 
ATOM     18  C   UNL A   1      34.988  21.987  24.290  1.00  0.00     0.319 C 
ATOM     19  H   UNL A   1      35.195  20.505  25.477  1.00  0.00     0.313 HD
ATOM     20  S   UNL A   1      35.371  23.251  23.178  1.00  0.00    -0.022 SA
ATOM     21  N   UNL A   1      33.648  22.045  24.527  1.00  0.00    -0.193 N 
ATOM     22  C   UNL A   1      33.203  23.347  24.664  1.00  0.00     0.324 C 
ATOM     23  C   UNL A   1      32.891  20.897  24.988  1.00  0.00     0.301 C 
ATOM     24  O   UNL A   1      32.259  23.678  25.375  1.00  0.00    -0.245 OA
BRANCH  17  25
ATOM     25  C   UNL A   1      37.095  21.102  25.171  1.00  0.00     0.128 A 
ATOM     26  C   UNL A   1      37.613  23.451  26.141  1.00  0.00     0.049 C 
ATOM     27  C   UNL A   1      37.967  22.047  25.752  1.00  0.00    -0.004 A 
ATOM     28  C   UNL A   1      39.299  21.677  26.039  1.00  0.00     0.008 A 
ATOM     29  C   UNL A   1      39.747  20.373  25.863  1.00  0.00     0.001 A 
ATOM     30  C   UNL A   1      37.586  19.793  24.993  1.00  0.00     0.052 A 
ATOM     31  C   UNL A   1      38.882  19.422  25.351  1.00  0.00     0.004 A 
ENDBRANCH  17  25
ENDBRANCH  15  16
ENDBRANCH  12  15
ENDBRANCH   6  11
ENDBRANCH   3   5
ENDBRANCH   2   3
ENDBRANCH   1   2
BRANCH   1  32
ATOM     32  C   UNL A   1      35.082  29.245  27.396  1.00  0.00     0.275 C 
BRANCH  32  33
ATOM     33  O   UNL A   1      35.685  30.562  27.537  1.00  0.00    -0.458 OA
BRANCH  33  34
ATOM     34  C   UNL A   1      36.728  30.747  28.387  1.00  0.00     0.338 C 
ATOM     35  O   UNL A   1      36.697  31.581  29.288  1.00  0.00    -0.246 OA
BRANCH  34  36
ATOM     36  C   UNL A   1      37.727  29.659  28.242  1.00  0.00     0.060 A 
ATOM     37  C   UNL A   1      38.560  29.654  27.118  1.00  0.00     0.016 A 
ATOM     38  C   UNL A   1      38.054  28.911  29.374  1.00  0.00     0.016 A 
ATOM     39  C   UNL A   1      39.824  29.081  27.205  1.00  0.00     0.010 A 
ATOM     40  C   UNL A   1      39.344  28.473  29.516  1.00  0.00     0.010 A 
ATOM     41  C   UNL A   1      40.228  28.569  28.437  1.00  0.00    -0.014 A 
BRANCH  41  42
ATOM     42  C   UNL A   1      41.448  27.807  28.614  1.00  0.00     0.031 A 
ATOM     43  C   UNL A   1      41.507  26.379  28.218  1.00  0.00     0.074 A 
ATOM     44  C   UNL A   1      42.422  28.584  29.146  1.00  0.00     0.049 A 
ATOM     45  N   UNL A   1      42.095  25.457  28.899  1.00  0.00    -0.248 NA
ATOM     46  C   UNL A   1      40.852  25.839  27.014  1.00  0.00     0.031 C 
ATOM     47  C   UNL A   1      43.822  28.339  29.420  1.00  0.00     0.029 A 
ATOM     48  N   UNL A   1      42.258  29.861  29.698  1.00  0.00    -0.354 N 
ATOM     49  C   UNL A   1      42.244  24.374  28.047  1.00  0.00     0.074 A 
ATOM     50  C   UNL A   1      41.294  24.571  26.986  1.00  0.00     0.031 C 
ATOM     51  C   UNL A   1      44.207  29.188  30.401  1.00  0.00     0.029 A 
ATOM     52  C   UNL A   1      43.017  29.912  30.848  1.00  0.00     0.049 A 
ATOM     53  H   UNL A   1      41.703  30.588  29.333  1.00  0.00     0.167 HD
ATOM     54  C   UNL A   1      43.359  23.594  28.150  1.00  0.00     0.031 A 
ATOM     55  C   UNL A   1      42.434  29.825  32.085  1.00  0.00     0.031 A 
ATOM     56  C   UNL A   1      44.247  24.168  29.155  1.00  0.00     0.049 A 
ATOM     57  C   UNL A   1      42.913  28.559  32.762  1.00  0.00     0.074 A 
ATOM     58  C   UNL A   1      45.287  25.073  29.012  1.00  0.00     0.029 A 
ATOM     59  N   UNL A   1      43.861  24.201  30.486  1.00  0.00    -0.354 N 
ATOM     60  N   UNL A   1      43.092  27.417  32.149  1.00  0.00    -0.248 NA
ATOM     61  C   UNL A   1      43.374  28.546  34.144  1.00  0.00     0.031 C 
ATOM     62  C   UNL A   1      45.490  25.696  30.264  1.00  0.00     0.029 A 
ATOM     63  C   UNL A   1      44.555  25.193  31.152  1.00  0.00     0.049 A 
ATOM     64  H   UNL A   1      43.191  23.607  30.895  1.00  0.00     0.167 HD
ATOM     65  C   UNL A   1      43.818  26.586  32.971  1.00  0.00     0.074 A 
ATOM     66  C   UNL A   1      43.933  27.326  34.218  1.00  0.00     0.031 C 
ATOM     67  C   UNL A   1      44.362  25.395  32.576  1.00  0.00     0.031 A 
BRANCH  54  68
ATOM     68  C   UNL A   1      43.849  22.613  27.105  1.00  0.00    -0.014 A 
ATOM     69  C   UNL A   1      43.018  21.519  26.770  1.00  0.00     0.010 A 
ATOM     70  C   UNL A   1      45.068  22.709  26.409  1.00  0.00     0.010 A 
ATOM     71  C   UNL A   1      43.388  20.545  25.838  1.00  0.00     0.020 A 
ATOM     72  C   UNL A   1      45.454  21.730  25.463  1.00  0.00     0.020 A 
ATOM     73  C   UNL A   1      44.611  20.651  25.190  1.00  0.00     0.054 A 
BRANCH  73  74
ATOM     74  S   UNL A   1      45.042  19.366  23.982  1.00  0.00     0.124 S 
ATOM     75  O   UNL A   1      44.351  18.193  24.512  1.00  0.00    -0.237 OA
ATOM     76  O   UNL A   1      44.496  19.903  22.738  1.00  0.00    -0.237 OA
ATOM     77  O   UNL A   1      46.501  19.303  24.042  1.00  0.00    -0.744 OA
ENDBRANCH  73  74
ENDBRANCH  54  68
BRANCH  55  78
ATOM     78  C   UNL A   1      41.075  30.452  32.253  1.00  0.00    -0.014 A 
ATOM     79  C   UNL A   1      40.073  29.691  32.904  1.00  0.00     0.010 A 
ATOM     80  C   UNL A   1      40.789  31.806  31.996  1.00  0.00     0.010 A 
ATOM     81  C   UNL A   1      38.907  30.277  33.412  1.00  0.00     0.020 A 
ATOM     82  C   UNL A   1      39.597  32.397  32.477  1.00  0.00     0.020 A 
ATOM     83  C   UNL A   1      38.684  31.636  33.215  1.00  0.00     0.054 A 
BRANCH  83  84
ATOM     84  S   UNL A   1      37.304  32.415  34.120  1.00  0.00     0.124 S 
ATOM     85  O   UNL A   1      37.646  33.832  34.047  1.00  0.00    -0.237 OA
ATOM     86  O   UNL A   1      36.149  32.007  33.320  1.00  0.00    -0.237 OA
ATOM     87  O   UNL A   1      37.399  31.811  35.446  1.00  0.00    -0.744 OA
ENDBRANCH  83  84
ENDBRANCH  55  78
BRANCH  67  88
ATOM     88  C   UNL A   1      44.915  24.327  33.487  1.00  0.00    -0.014 A 
ATOM     89  C   UNL A   1      46.236  24.305  33.947  1.00  0.00     0.010 A 
ATOM     90  C   UNL A   1      44.031  23.360  34.034  1.00  0.00     0.010 A 
ATOM     91  C   UNL A   1      46.675  23.323  34.837  1.00  0.00     0.020 A 
ATOM     92  C   UNL A   1      44.439  22.421  34.978  1.00  0.00     0.020 A 
ATOM     93  C   UNL A   1      45.775  22.389  35.349  1.00  0.00     0.054 A 
BRANCH  93  94
ATOM     94  S   UNL A   1      46.361  21.171  36.541  1.00  0.00     0.124 S 
ATOM     95  O   UNL A   1      45.937  21.768  37.806  1.00  0.00    -0.237 OA
ATOM     96  O   UNL A   1      45.640  19.963  36.145  1.00  0.00    -0.237 OA
ATOM     97  O   UNL A   1      47.803  21.130  36.318  1.00  0.00    -0.744 OA
ENDBRANCH  93  94
ENDBRANCH  67  88
ENDBRANCH  41  42
ENDBRANCH  34  36
ENDBRANCH  33  34
ENDBRANCH  32  33
ENDBRANCH   1  32
TORSDOF 18
ENDMDL
MODEL 2
REMARK VINA RESULT:     -12.5      4.291     11.387
REMARK SMILES Cc1ccccc1/[NH+]=C1\S[C@@H](CC(=O)Nc2ccc(C(=O)OCCOC(=O)c3ccc(-c4c5nc(c(-c6ccc(S(=O)(=O)[O-])cc6)c6ccc([nH]6)c(-c6ccc(S(=O)(=O)[O-])cc6)c6nc(c(-c7ccc(S(=O)(=O)[O-])cc7)c7ccc4[nH]7)C=C6)C=C5)cc3)cc2)C(=O)N1C
REMARK SMILES IDX 23 1 22 2 20 3 21 4 19 5 16 6 17 7 89 8 18 9 88 10 15 11
REMARK SMILES IDX 13 12 14 13 12 15 11 16 8 17 9 18 10 20 92 21 90 22 93 23
REMARK SMILES IDX 91 24 7 25 1 26 2 27 3 28 4 29 6 30 5 31 24 32 25 33 26 34
REMARK SMILES IDX 27 35 28 36 29 37 87 38 30 39 86 40 31 41 32 42 33 43 80 44
REMARK SMILES IDX 34 45 85 46 79 47 81 48 35 49 84 50 78 51 77 52 36 54 66 55
REMARK SMILES IDX 47 56 65 57 48 58 51 59 64 60 82 61 49 62 50 63 63 65 83 66
REMARK SMILES IDX 52 67 37 68 38 69 46 70 39 71 45 72 40 73 41 74 42 75 43 76
REMARK SMILES IDX 44 77 67 78 68 79 76 80 69 81 75 82 70 83 71 84 72 85 73 86
REMARK SMILES IDX 74 87 53 88 54 89 62 90 55 91 61 92 56 93 57 94 58 95 59 96
REMARK SMILES IDX 60 97
REMARK H PARENT 15 14 8 19 81 53 51 64
REMARK Flexibility Score: inf
ROOT
ATOM      1  C   UNL A   1      37.330  23.775  24.825  1.00  0.00     0.275 C 
ENDROOT
BRANCH   1   2
ATOM      2  O   UNL A   1      36.772  22.507  24.466  1.00  0.00    -0.458 OA
BRANCH   2   3
ATOM      3  C   UNL A   1      35.501  22.577  23.996  1.00  0.00     0.338 C 
ATOM      4  O   UNL A   1      35.150  23.057  22.936  1.00  0.00    -0.246 OA
BRANCH   3   5
ATOM      5  C   UNL A   1      34.529  22.070  24.985  1.00  0.00     0.060 A 
ATOM      6  C   UNL A   1      32.247  22.041  26.509  1.00  0.00     0.041 A 
ATOM      7  C   UNL A   1      33.433  22.508  27.076  1.00  0.00     0.027 A 
ATOM      8  C   UNL A   1      32.259  21.323  25.322  1.00  0.00     0.027 A 
ATOM      9  C   UNL A   1      34.589  22.537  26.297  1.00  0.00     0.018 A 
ATOM     10  C   UNL A   1      33.394  21.389  24.529  1.00  0.00     0.018 A 
BRANCH   6  11
ATOM     11  N   UNL A   1      31.050  22.627  26.940  1.00  0.00    -0.326 N 
ATOM     12  C   UNL A   1      30.516  23.771  26.379  1.00  0.00     0.226 C 
ATOM     13  O   UNL A   1      29.608  24.359  26.973  1.00  0.00    -0.275 OA
ATOM     14  H   UNL A   1      30.564  22.201  27.683  1.00  0.00     0.169 HD
BRANCH  12  15
ATOM     15  C   UNL A   1      31.051  24.323  25.060  1.00  0.00     0.128 C 
BRANCH  15  16
ATOM     16  C   UNL A   1      31.181  25.835  25.002  1.00  0.00     0.183 C 
ATOM     17  N   UNL A   1      31.211  29.148  23.548  1.00  0.00    -0.234 N 
ATOM     18  C   UNL A   1      31.461  27.892  23.616  1.00  0.00     0.319 C 
ATOM     19  H   UNL A   1      32.008  29.722  23.618  1.00  0.00     0.313 HD
ATOM     20  S   UNL A   1      30.478  26.485  23.435  1.00  0.00    -0.022 SA
ATOM     21  N   UNL A   1      32.676  27.484  24.079  1.00  0.00    -0.193 N 
ATOM     22  C   UNL A   1      32.557  26.503  25.046  1.00  0.00     0.324 C 
ATOM     23  C   UNL A   1      33.881  28.268  23.889  1.00  0.00     0.301 C 
ATOM     24  O   UNL A   1      33.351  26.352  25.971  1.00  0.00    -0.245 OA
BRANCH  17  25
ATOM     25  C   UNL A   1      30.010  29.851  23.391  1.00  0.00     0.128 A 
ATOM     26  C   UNL A   1      30.295  31.729  25.158  1.00  0.00     0.049 C 
ATOM     27  C   UNL A   1      29.594  31.043  24.024  1.00  0.00    -0.004 A 
ATOM     28  C   UNL A   1      28.434  31.704  23.564  1.00  0.00     0.008 A 
ATOM     29  C   UNL A   1      27.748  31.272  22.436  1.00  0.00     0.001 A 
ATOM     30  C   UNL A   1      29.282  29.434  22.259  1.00  0.00     0.052 A 
ATOM     31  C   UNL A   1      28.182  30.139  21.771  1.00  0.00     0.004 A 
ENDBRANCH  17  25
ENDBRANCH  15  16
ENDBRANCH  12  15
ENDBRANCH   6  11
ENDBRANCH   3   5
ENDBRANCH   2   3
ENDBRANCH   1   2
BRANCH   1  32
ATOM     32  C   UNL A   1      38.086  23.705  26.165  1.00  0.00     0.275 C 
BRANCH  32  33
ATOM     33  O   UNL A   1      39.501  24.034  26.240  1.00  0.00    -0.458 OA
BRANCH  33  34
ATOM     34  C   UNL A   1      40.067  24.338  27.437  1.00  0.00     0.338 C 
ATOM     35  O   UNL A   1      40.991  23.680  27.908  1.00  0.00    -0.246 OA
BRANCH  34  36
ATOM     36  C   UNL A   1      39.613  25.668  27.914  1.00  0.00     0.060 A 
ATOM     37  C   UNL A   1      38.977  25.756  29.158  1.00  0.00     0.016 A 
ATOM     38  C   UNL A   1      40.149  26.803  27.306  1.00  0.00     0.016 A 
ATOM     39  C   UNL A   1      39.071  26.934  29.892  1.00  0.00     0.010 A 
ATOM     40  C   UNL A   1      40.370  27.914  28.076  1.00  0.00     0.010 A 
ATOM     41  C   UNL A   1      39.840  27.972  29.370  1.00  0.00    -0.014 A 
BRANCH  41  42
ATOM     42  C   UNL A   1      39.883  29.296  29.957  1.00  0.00     0.031 A 
ATOM     43  C   UNL A   1      38.782  30.261  29.718  1.00  0.00     0.074 A 
ATOM     44  C   UNL A   1      41.006  29.452  30.699  1.00  0.00     0.049 A 
ATOM     45  N   UNL A   1      38.951  31.519  29.493  1.00  0.00    -0.248 NA
ATOM     46  C   UNL A   1      37.361  29.878  29.661  1.00  0.00     0.031 C 
ATOM     47  C   UNL A   1      41.466  30.526  31.554  1.00  0.00     0.029 A 
ATOM     48  N   UNL A   1      42.113  28.594  30.723  1.00  0.00    -0.354 N 
ATOM     49  C   UNL A   1      37.717  32.120  29.684  1.00  0.00     0.074 A 
ATOM     50  C   UNL A   1      36.742  31.068  29.578  1.00  0.00     0.031 C 
ATOM     51  C   UNL A   1      42.816  30.447  31.627  1.00  0.00     0.029 A 
ATOM     52  C   UNL A   1      43.243  29.383  30.720  1.00  0.00     0.049 A 
ATOM     53  H   UNL A   1      42.088  27.610  30.738  1.00  0.00     0.167 HD
ATOM     54  C   UNL A   1      37.662  33.372  30.223  1.00  0.00     0.031 A 
ATOM     55  C   UNL A   1      43.994  29.541  29.584  1.00  0.00     0.031 A 
ATOM     56  C   UNL A   1      39.013  33.794  30.579  1.00  0.00     0.049 A 
ATOM     57  C   UNL A   1      43.933  30.992  29.158  1.00  0.00     0.074 A 
ATOM     58  C   UNL A   1      39.702  33.660  31.773  1.00  0.00     0.029 A 
ATOM     59  N   UNL A   1      39.958  34.006  29.586  1.00  0.00    -0.354 N 
ATOM     60  N   UNL A   1      42.859  31.737  29.226  1.00  0.00    -0.248 NA
ATOM     61  C   UNL A   1      45.125  31.739  28.779  1.00  0.00     0.031 C 
ATOM     62  C   UNL A   1      41.084  33.740  31.483  1.00  0.00     0.029 A 
ATOM     63  C   UNL A   1      41.229  33.888  30.115  1.00  0.00     0.049 A 
ATOM     64  H   UNL A   1      39.753  34.210  28.646  1.00  0.00     0.167 HD
ATOM     65  C   UNL A   1      43.226  33.053  29.065  1.00  0.00     0.074 A 
ATOM     66  C   UNL A   1      44.645  32.994  28.750  1.00  0.00     0.031 C 
ATOM     67  C   UNL A   1      42.395  34.117  29.282  1.00  0.00     0.031 A 
BRANCH  54  68
ATOM     68  C   UNL A   1      36.431  34.025  30.816  1.00  0.00    -0.014 A 
ATOM     69  C   UNL A   1      35.319  34.252  29.972  1.00  0.00     0.010 A 
ATOM     70  C   UNL A   1      36.283  34.411  32.162  1.00  0.00     0.010 A 
ATOM     71  C   UNL A   1      34.146  34.869  30.414  1.00  0.00     0.020 A 
ATOM     72  C   UNL A   1      35.100  35.037  32.622  1.00  0.00     0.020 A 
ATOM     73  C   UNL A   1      34.042  35.267  31.740  1.00  0.00     0.054 A 
BRANCH  73  74
ATOM     74  S   UNL A   1      32.496  36.056  32.268  1.00  0.00     0.124 S 
ATOM     75  O   UNL A   1      32.051  36.723  31.046  1.00  0.00    -0.237 OA
ATOM     76  O   UNL A   1      31.684  34.917  32.689  1.00  0.00    -0.237 OA
ATOM     77  O   UNL A   1      32.910  36.954  33.345  1.00  0.00    -0.744 OA
ENDBRANCH  73  74
ENDBRANCH  54  68
BRANCH  55  78
ATOM     78  C   UNL A   1      44.103  28.357  28.659  1.00  0.00    -0.014 A 
ATOM     79  C   UNL A   1      43.811  28.561  27.288  1.00  0.00     0.010 A 
ATOM     80  C   UNL A   1      44.670  27.120  29.019  1.00  0.00     0.010 A 
ATOM     81  C   UNL A   1      44.200  27.648  26.302  1.00  0.00     0.020 A 
ATOM     82  C   UNL A   1      45.036  26.178  28.030  1.00  0.00     0.020 A 
ATOM     83  C   UNL A   1      44.833  26.466  26.676  1.00  0.00     0.054 A 
BRANCH  83  84
ATOM     84  S   UNL A   1      45.567  25.436  25.360  1.00  0.00     0.124 S 
ATOM     85  O   UNL A   1      46.329  24.455  26.124  1.00  0.00    -0.237 OA
ATOM     86  O   UNL A   1      44.378  24.918  24.682  1.00  0.00    -0.237 OA
ATOM     87  O   UNL A   1      46.360  26.396  24.597  1.00  0.00    -0.744 OA
ENDBRANCH  83  84
ENDBRANCH  55  78
BRANCH  67  88
ATOM     88  C   UNL A   1      42.650  35.543  28.859  1.00  0.00    -0.014 A 
ATOM     89  C   UNL A   1      42.174  36.096  27.666  1.00  0.00     0.010 A 
ATOM     90  C   UNL A   1      43.284  36.430  29.769  1.00  0.00     0.010 A 
ATOM     91  C   UNL A   1      42.391  37.441  27.357  1.00  0.00     0.020 A 
ATOM     92  C   UNL A   1      43.441  37.788  29.504  1.00  0.00     0.020 A 
ATOM     93  C   UNL A   1      43.021  38.279  28.276  1.00  0.00     0.054 A 
BRANCH  93  94
ATOM     94  S   UNL A   1      43.233  40.022  27.870  1.00  0.00     0.124 S 
ATOM     95  O   UNL A   1      42.629  40.671  29.031  1.00  0.00    -0.237 OA
ATOM     96  O   UNL A   1      44.685  40.151  27.763  1.00  0.00    -0.237 OA
ATOM     97  O   UNL A   1      42.506  40.179  26.614  1.00  0.00    -0.744 OA
ENDBRANCH  93  94
ENDBRANCH  67  88
ENDBRANCH  41  42
ENDBRANCH  34  36
ENDBRANCH  33  34
ENDBRANCH  32  33
ENDBRANCH   1  32
TORSDOF 18
ENDMDL
MODEL 3
REMARK VINA RESULT:     -12.2      2.512      3.954
REMARK SMILES Cc1ccccc1/[NH+]=C1\S[C@@H](CC(=O)Nc2ccc(C(=O)OCCOC(=O)c3ccc(-c4c5nc(c(-c6ccc(S(=O)(=O)[O-])cc6)c6ccc([nH]6)c(-c6ccc(S(=O)(=O)[O-])cc6)c6nc(c(-c7ccc(S(=O)(=O)[O-])cc7)c7ccc4[nH]7)C=C6)C=C5)cc3)cc2)C(=O)N1C
REMARK SMILES IDX 23 1 22 2 20 3 21 4 19 5 16 6 17 7 89 8 18 9 88 10 15 11
REMARK SMILES IDX 13 12 14 13 12 15 11 16 8 17 9 18 10 20 92 21 90 22 93 23
REMARK SMILES IDX 91 24 7 25 1 26 2 27 3 28 4 29 6 30 5 31 24 32 25 33 26 34
REMARK SMILES IDX 27 35 28 36 29 37 87 38 30 39 86 40 31 41 32 42 33 43 80 44
REMARK SMILES IDX 34 45 85 46 79 47 81 48 35 49 84 50 78 51 77 52 36 54 66 55
REMARK SMILES IDX 47 56 65 57 48 58 51 59 64 60 82 61 49 62 50 63 63 65 83 66
REMARK SMILES IDX 52 67 37 68 38 69 46 70 39 71 45 72 40 73 41 74 42 75 43 76
REMARK SMILES IDX 44 77 67 78 68 79 76 80 69 81 75 82 70 83 71 84 72 85 73 86
REMARK SMILES IDX 74 87 53 88 54 89 62 90 55 91 61 92 56 93 57 94 58 95 59 96
REMARK SMILES IDX 60 97
REMARK H PARENT 15 14 8 19 81 53 51 64
REMARK Flexibility Score: inf
ROOT
ATOM      1  C   UNL A   1      37.231  32.678  30.382  1.00  0.00     0.275 C 
ENDROOT
BRANCH   1   2
ATOM      2  O   UNL A   1      36.929  32.379  29.016  1.00  0.00    -0.458 OA
BRANCH   2   3
ATOM      3  C   UNL A   1      35.726  32.851  28.602  1.00  0.00     0.338 C 
ATOM      4  O   UNL A   1      35.232  33.923  28.895  1.00  0.00    -0.246 OA
BRANCH   3   5
ATOM      5  C   UNL A   1      35.001  31.851  27.793  1.00  0.00     0.060 A 
ATOM      6  C   UNL A   1      33.387  29.690  27.289  1.00  0.00     0.041 A 
ATOM      7  C   UNL A   1      34.771  29.514  27.290  1.00  0.00     0.027 A 
ATOM      8  C   UNL A   1      32.829  30.959  27.233  1.00  0.00     0.027 A 
ATOM      9  C   UNL A   1      35.590  30.609  27.562  1.00  0.00     0.018 A 
ATOM     10  C   UNL A   1      33.636  32.042  27.546  1.00  0.00     0.018 A 
BRANCH   6  11
ATOM     11  N   UNL A   1      32.599  28.617  27.724  1.00  0.00    -0.326 N 
ATOM     12  C   UNL A   1      31.794  27.873  26.884  1.00  0.00     0.226 C 
ATOM     13  O   UNL A   1      30.949  27.121  27.379  1.00  0.00    -0.275 OA
ATOM     14  H   UNL A   1      32.620  28.382  28.680  1.00  0.00     0.169 HD
BRANCH  12  15
ATOM     15  C   UNL A   1      31.920  27.989  25.367  1.00  0.00     0.128 C 
BRANCH  15  16
ATOM     16  C   UNL A   1      32.116  26.672  24.637  1.00  0.00     0.183 C 
ATOM     17  N   UNL A   1      33.885  23.972  23.002  1.00  0.00    -0.234 N 
ATOM     18  C   UNL A   1      33.608  25.190  23.292  1.00  0.00     0.319 C 
ATOM     19  H   UNL A   1      33.674  23.721  22.073  1.00  0.00     0.313 HD
ATOM     20  S   UNL A   1      33.877  26.154  24.698  1.00  0.00    -0.022 SA
ATOM     21  N   UNL A   1      32.798  25.901  22.458  1.00  0.00    -0.193 N 
ATOM     22  C   UNL A   1      31.790  26.550  23.146  1.00  0.00     0.324 C 
ATOM     23  C   UNL A   1      32.755  25.660  21.029  1.00  0.00     0.301 C 
ATOM     24  O   UNL A   1      30.678  26.779  22.678  1.00  0.00    -0.245 OA
BRANCH  17  25
ATOM     25  C   UNL A   1      34.431  22.933  23.766  1.00  0.00     0.128 A 
ATOM     26  C   UNL A   1      32.364  21.398  24.078  1.00  0.00     0.049 C 
ATOM     27  C   UNL A   1      33.819  21.736  24.198  1.00  0.00    -0.004 A 
ATOM     28  C   UNL A   1      34.611  20.722  24.778  1.00  0.00     0.008 A 
ATOM     29  C   UNL A   1      35.996  20.824  24.838  1.00  0.00     0.001 A 
ATOM     30  C   UNL A   1      35.835  23.008  23.855  1.00  0.00     0.052 A 
ATOM     31  C   UNL A   1      36.613  21.967  24.362  1.00  0.00     0.004 A 
ENDBRANCH  17  25
ENDBRANCH  15  16
ENDBRANCH  12  15
ENDBRANCH   6  11
ENDBRANCH   3   5
ENDBRANCH   2   3
ENDBRANCH   1   2
BRANCH   1  32
ATOM     32  C   UNL A   1      38.143  31.607  31.011  1.00  0.00     0.275 C 
BRANCH  32  33
ATOM     33  O   UNL A   1      37.576  30.426  31.643  1.00  0.00    -0.458 OA
BRANCH  33  34
ATOM     34  C   UNL A   1      37.009  29.452  30.884  1.00  0.00     0.338 C 
ATOM     35  O   UNL A   1      35.811  29.448  30.616  1.00  0.00    -0.246 OA
BRANCH  34  36
ATOM     36  C   UNL A   1      38.049  28.612  30.241  1.00  0.00     0.060 A 
ATOM     37  C   UNL A   1      38.303  28.782  28.875  1.00  0.00     0.016 A 
ATOM     38  C   UNL A   1      38.974  27.966  31.062  1.00  0.00     0.016 A 
ATOM     39  C   UNL A   1      39.571  28.505  28.375  1.00  0.00     0.010 A 
ATOM     40  C   UNL A   1      40.260  27.826  30.613  1.00  0.00     0.010 A 
ATOM     41  C   UNL A   1      40.557  28.106  29.275  1.00  0.00    -0.014 A 
BRANCH  41  42
ATOM     42  C   UNL A   1      41.864  27.636  28.858  1.00  0.00     0.031 A 
ATOM     43  C   UNL A   1      42.117  26.186  28.674  1.00  0.00     0.074 A 
ATOM     44  C   UNL A   1      42.710  28.678  28.678  1.00  0.00     0.049 A 
ATOM     45  N   UNL A   1      43.196  25.583  29.038  1.00  0.00    -0.248 NA
ATOM     46  C   UNL A   1      41.136  25.254  28.093  1.00  0.00     0.031 C 
ATOM     47  C   UNL A   1      44.067  28.755  28.180  1.00  0.00     0.029 A 
ATOM     48  N   UNL A   1      42.489  30.006  29.067  1.00  0.00    -0.354 N 
ATOM     49  C   UNL A   1      43.203  24.361  28.383  1.00  0.00     0.074 A 
ATOM     50  C   UNL A   1      41.841  24.116  27.989  1.00  0.00     0.031 C 
ATOM     51  C   UNL A   1      44.630  29.879  28.684  1.00  0.00     0.029 A 
ATOM     52  C   UNL A   1      43.667  30.476  29.608  1.00  0.00     0.049 A 
ATOM     53  H   UNL A   1      41.648  30.509  28.973  1.00  0.00     0.167 HD
ATOM     54  C   UNL A   1      44.390  23.837  27.964  1.00  0.00     0.031 A 
ATOM     55  C   UNL A   1      43.820  30.608  30.964  1.00  0.00     0.031 A 
ATOM     56  C   UNL A   1      45.457  24.791  28.249  1.00  0.00     0.049 A 
ATOM     57  C   UNL A   1      44.904  29.657  31.426  1.00  0.00     0.074 A 
ATOM     58  C   UNL A   1      45.988  25.795  27.456  1.00  0.00     0.029 A 
ATOM     59  N   UNL A   1      45.784  25.094  29.562  1.00  0.00    -0.354 N 
ATOM     60  N   UNL A   1      45.069  28.445  30.960  1.00  0.00    -0.248 NA
ATOM     61  C   UNL A   1      45.968  30.074  32.329  1.00  0.00     0.031 C 
ATOM     62  C   UNL A   1      46.598  26.741  28.311  1.00  0.00     0.029 A 
ATOM     63  C   UNL A   1      46.406  26.327  29.618  1.00  0.00     0.049 A 
ATOM     64  H   UNL A   1      45.601  24.517  30.337  1.00  0.00     0.167 HD
ATOM     65  C   UNL A   1      46.305  27.988  31.356  1.00  0.00     0.074 A 
ATOM     66  C   UNL A   1      46.806  29.028  32.240  1.00  0.00     0.031 C 
ATOM     67  C   UNL A   1      46.892  26.848  30.882  1.00  0.00     0.031 A 
BRANCH  54  68
ATOM     68  C   UNL A   1      44.554  22.723  26.952  1.00  0.00    -0.014 A 
ATOM     69  C   UNL A   1      43.472  21.836  26.748  1.00  0.00     0.010 A 
ATOM     70  C   UNL A   1      45.699  22.502  26.163  1.00  0.00     0.010 A 
ATOM     71  C   UNL A   1      43.530  20.761  25.856  1.00  0.00     0.020 A 
ATOM     72  C   UNL A   1      45.771  21.418  25.257  1.00  0.00     0.020 A 
ATOM     73  C   UNL A   1      44.685  20.551  25.116  1.00  0.00     0.054 A 
BRANCH  73  74
ATOM     74  S   UNL A   1      44.709  19.148  23.965  1.00  0.00     0.124 S 
ATOM     75  O   UNL A   1      44.458  19.793  22.678  1.00  0.00    -0.237 OA
ATOM     76  O   UNL A   1      46.056  18.613  24.143  1.00  0.00    -0.237 OA
ATOM     77  O   UNL A   1      43.631  18.284  24.443  1.00  0.00    -0.744 OA
ENDBRANCH  73  74
ENDBRANCH  54  68
BRANCH  55  78
ATOM     78  C   UNL A   1      42.607  31.013  31.759  1.00  0.00    -0.014 A 
ATOM     79  C   UNL A   1      41.979  30.023  32.554  1.00  0.00     0.010 A 
ATOM     80  C   UNL A   1      42.180  32.343  31.931  1.00  0.00     0.010 A 
ATOM     81  C   UNL A   1      41.079  30.351  33.575  1.00  0.00     0.020 A 
ATOM     82  C   UNL A   1      41.245  32.677  32.939  1.00  0.00     0.020 A 
ATOM     83  C   UNL A   1      40.732  31.683  33.778  1.00  0.00     0.054 A 
BRANCH  83  84
ATOM     84  S   UNL A   1      39.781  32.099  35.280  1.00  0.00     0.124 S 
ATOM     85  O   UNL A   1      40.245  31.092  36.229  1.00  0.00    -0.237 OA
ATOM     86  O   UNL A   1      40.223  33.467  35.549  1.00  0.00    -0.237 OA
ATOM     87  O   UNL A   1      38.396  31.958  34.840  1.00  0.00    -0.744 OA
ENDBRANCH  83  84
ENDBRANCH  55  78
BRANCH  67  88
ATOM     88  C   UNL A   1      48.097  26.158  31.474  1.00  0.00    -0.014 A 
ATOM     89  C   UNL A   1      48.107  25.561  32.739  1.00  0.00     0.010 A 
ATOM     90  C   UNL A   1      49.250  25.968  30.667  1.00  0.00     0.010 A 
ATOM     91  C   UNL A   1      49.235  24.884  33.209  1.00  0.00     0.020 A 
ATOM     92  C   UNL A   1      50.351  25.233  31.096  1.00  0.00     0.020 A 
ATOM     93  C   UNL A   1      50.349  24.723  32.386  1.00  0.00     0.054 A 
BRANCH  93  94
ATOM     94  S   UNL A   1      51.764  23.793  33.002  1.00  0.00     0.124 S 
ATOM     95  O   UNL A   1      51.668  24.028  34.441  1.00  0.00    -0.237 OA
ATOM     96  O   UNL A   1      51.465  22.430  32.568  1.00  0.00    -0.237 OA
ATOM     97  O   UNL A   1      52.907  24.415  32.340  1.00  0.00    -0.744 OA
ENDBRANCH  93  94
ENDBRANCH  67  88
ENDBRANCH  41  42
ENDBRANCH  34  36
ENDBRANCH  33  34
ENDBRANCH  32  33
ENDBRANCH   1  32
TORSDOF 18
ENDMDL
