MODEL 1
REMARK VINA RESULT:     -11.3      0.000      0.000
REMARK SMILES N#Cc1ccc(C[N@H+]2CCCC[C@H]2C(=O)OCCOC(=O)c2ccc(-c3c4nc(c(-c5ccc(S(=O)(=O)[O-])cc5)c5ccc([nH]5)c(-c5ccc(S(=O)(=O)[O-])cc5)c5nc(c(-c6ccc(S(=O)(=O)[O-])cc6)c6ccc3[nH]6)C=C5)C=C4)cc2)c(F)c1
REMARK SMILES IDX 17 1 16 2 14 3 15 4 13 5 8 6 9 7 10 9 12 10 11 11 7 12 6 13
REMARK SMILES IDX 3 14 4 15 84 16 5 17 82 18 83 19 2 20 1 21 18 22 19 23 20 24
REMARK SMILES IDX 21 25 22 26 23 27 81 28 24 29 80 30 25 31 26 32 27 33 74 34
REMARK SMILES IDX 28 35 79 36 73 37 75 38 29 39 78 40 72 41 71 42 30 44 60 45
REMARK SMILES IDX 41 46 59 47 42 48 45 49 58 50 76 51 43 52 44 53 57 55 77 56
REMARK SMILES IDX 46 57 31 58 32 59 40 60 33 61 39 62 34 63 35 64 36 65 37 66
REMARK SMILES IDX 38 67 61 68 62 69 70 70 63 71 69 72 64 73 65 74 66 75 67 76
REMARK SMILES IDX 68 77 47 78 48 79 56 80 49 81 55 82 50 83 51 84 52 85 53 86
REMARK SMILES IDX 54 87
REMARK H PARENT 8 8 75 43 45 54
REMARK Flexibility Score: inf
ROOT
ATOM      1  C   UNL A   1      31.779  26.870  26.777  1.00  0.00     0.274 C 
ENDROOT
BRANCH   1   2
ATOM      2  O   UNL A   1      32.173  26.065  25.632  1.00  0.00    -0.458 OA
BRANCH   2   3
ATOM      3  C   UNL A   1      31.437  24.933  25.557  1.00  0.00     0.365 C 
ATOM      4  O   UNL A   1      31.499  24.117  26.459  1.00  0.00    -0.245 OA
BRANCH   3   5
ATOM      5  C   UNL A   1      30.621  24.682  24.281  1.00  0.00     0.295 C 
ATOM      6  N   UNL A   1      30.477  25.927  23.464  1.00  0.00    -0.319 N 
ATOM      7  C   UNL A   1      31.755  26.365  22.887  1.00  0.00     0.263 C 
ATOM      8  H   UNL A   1      29.897  25.622  22.682  1.00  0.00     0.349 HD
ATOM      9  C   UNL A   1      32.553  25.288  22.136  1.00  0.00     0.062 C 
ATOM     10  C   UNL A   1      31.266  23.582  23.421  1.00  0.00     0.078 C 
ATOM     11  C   UNL A   1      32.649  23.987  22.922  1.00  0.00     0.013 C 
BRANCH   6  12
ATOM     12  C   UNL A   1      29.551  27.011  23.952  1.00  0.00     0.302 C 
BRANCH  12  13
ATOM     13  C   UNL A   1      29.096  28.189  23.079  1.00  0.00     0.042 A 
ATOM     14  C   UNL A   1      28.424  30.753  22.082  1.00  0.00     0.055 A 
ATOM     15  C   UNL A   1      29.683  30.214  21.826  1.00  0.00     0.020 A 
ATOM     16  C   UNL A   1      27.438  29.931  22.626  1.00  0.00     0.059 A 
ATOM     17  C   UNL A   1      29.999  28.920  22.285  1.00  0.00     0.014 A 
ATOM     18  C   UNL A   1      27.775  28.654  23.095  1.00  0.00     0.133 A 
ATOM     19  F   UNL A   1      26.828  27.950  23.728  1.00  0.00    -0.206 F 
BRANCH  14  20
ATOM     20  C   UNL A   1      28.167  32.157  21.892  1.00  0.00     0.099 C 
ATOM     21  N   UNL A   1      27.949  33.273  21.676  1.00  0.00    -0.192 NA
ENDBRANCH  14  20
ENDBRANCH  12  13
ENDBRANCH   6  12
ENDBRANCH   3   5
ENDBRANCH   2   3
ENDBRANCH   1   2
BRANCH   1  22
ATOM     22  C   UNL A   1      32.325  28.330  26.827  1.00  0.00     0.275 C 
BRANCH  22  23
ATOM     23  O   UNL A   1      33.588  28.522  27.537  1.00  0.00    -0.458 OA
BRANCH  23  24
ATOM     24  C   UNL A   1      34.014  29.807  27.714  1.00  0.00     0.338 C 
ATOM     25  O   UNL A   1      33.315  30.802  27.575  1.00  0.00    -0.246 OA
BRANCH  24  26
ATOM     26  C   UNL A   1      35.429  29.937  28.204  1.00  0.00     0.060 A 
ATOM     27  C   UNL A   1      36.421  30.280  27.307  1.00  0.00     0.016 A 
ATOM     28  C   UNL A   1      35.852  29.418  29.425  1.00  0.00     0.016 A 
ATOM     29  C   UNL A   1      37.759  29.920  27.489  1.00  0.00     0.010 A 
ATOM     30  C   UNL A   1      37.236  29.239  29.693  1.00  0.00     0.010 A 
ATOM     31  C   UNL A   1      38.217  29.435  28.701  1.00  0.00    -0.014 A 
BRANCH  31  32
ATOM     32  C   UNL A   1      39.668  29.069  28.864  1.00  0.00     0.031 A 
ATOM     33  C   UNL A   1      40.636  30.094  29.397  1.00  0.00     0.074 A 
ATOM     34  C   UNL A   1      40.146  27.826  28.611  1.00  0.00     0.049 A 
ATOM     35  N   UNL A   1      41.943  30.118  29.333  1.00  0.00    -0.248 NA
ATOM     36  C   UNL A   1      40.049  31.253  30.086  1.00  0.00     0.031 C 
ATOM     37  C   UNL A   1      39.349  26.648  28.260  1.00  0.00     0.029 A 
ATOM     38  N   UNL A   1      41.435  27.336  28.618  1.00  0.00    -0.354 N 
ATOM     39  C   UNL A   1      42.327  31.340  29.874  1.00  0.00     0.074 A 
ATOM     40  C   UNL A   1      41.113  32.020  30.276  1.00  0.00     0.031 C 
ATOM     41  C   UNL A   1      40.146  25.577  28.142  1.00  0.00     0.029 A 
ATOM     42  C   UNL A   1      41.528  26.013  28.236  1.00  0.00     0.049 A 
ATOM     43  H   UNL A   1      42.217  27.879  28.872  1.00  0.00     0.167 HD
ATOM     44  C   UNL A   1      43.576  31.856  29.998  1.00  0.00     0.031 A 
ATOM     45  C   UNL A   1      42.590  25.249  27.903  1.00  0.00     0.031 A 
ATOM     46  C   UNL A   1      44.774  31.144  29.627  1.00  0.00     0.049 A 
ATOM     47  C   UNL A   1      43.954  25.875  27.903  1.00  0.00     0.074 A 
ATOM     48  C   UNL A   1      46.088  31.576  29.685  1.00  0.00     0.029 A 
ATOM     49  N   UNL A   1      44.806  29.846  29.137  1.00  0.00    -0.354 N 
ATOM     50  N   UNL A   1      44.303  27.081  28.280  1.00  0.00    -0.248 NA
ATOM     51  C   UNL A   1      45.063  25.049  27.409  1.00  0.00     0.031 C 
ATOM     52  C   UNL A   1      46.903  30.570  29.158  1.00  0.00     0.029 A 
ATOM     53  C   UNL A   1      46.110  29.474  28.855  1.00  0.00     0.049 A 
ATOM     54  H   UNL A   1      44.016  29.272  29.008  1.00  0.00     0.167 HD
ATOM     55  C   UNL A   1      45.679  27.149  28.099  1.00  0.00     0.074 A 
ATOM     56  C   UNL A   1      46.097  25.859  27.589  1.00  0.00     0.031 C 
ATOM     57  C   UNL A   1      46.517  28.188  28.341  1.00  0.00     0.031 A 
BRANCH  44  58
ATOM     58  C   UNL A   1      43.690  33.294  30.447  1.00  0.00    -0.014 A 
ATOM     59  C   UNL A   1      43.676  34.373  29.546  1.00  0.00     0.010 A 
ATOM     60  C   UNL A   1      43.851  33.561  31.821  1.00  0.00     0.010 A 
ATOM     61  C   UNL A   1      43.904  35.677  29.999  1.00  0.00     0.020 A 
ATOM     62  C   UNL A   1      44.038  34.867  32.283  1.00  0.00     0.020 A 
ATOM     63  C   UNL A   1      44.095  35.913  31.364  1.00  0.00     0.054 A 
BRANCH  63  64
ATOM     64  S   UNL A   1      44.430  37.608  31.919  1.00  0.00     0.124 S 
ATOM     65  O   UNL A   1      43.953  38.395  30.785  1.00  0.00    -0.237 OA
ATOM     66  O   UNL A   1      43.627  37.709  33.135  1.00  0.00    -0.237 OA
ATOM     67  O   UNL A   1      45.875  37.627  32.127  1.00  0.00    -0.744 OA
ENDBRANCH  63  64
ENDBRANCH  44  58
BRANCH  45  68
ATOM     68  C   UNL A   1      42.393  23.832  27.473  1.00  0.00    -0.014 A 
ATOM     69  C   UNL A   1      42.297  23.510  26.108  1.00  0.00     0.010 A 
ATOM     70  C   UNL A   1      42.331  22.790  28.421  1.00  0.00     0.010 A 
ATOM     71  C   UNL A   1      42.163  22.178  25.700  1.00  0.00     0.020 A 
ATOM     72  C   UNL A   1      42.234  21.455  28.015  1.00  0.00     0.020 A 
ATOM     73  C   UNL A   1      42.150  21.158  26.655  1.00  0.00     0.054 A 
BRANCH  73  74
ATOM     74  S   UNL A   1      42.078  19.435  26.088  1.00  0.00     0.124 S 
ATOM     75  O   UNL A   1      40.658  19.267  25.794  1.00  0.00    -0.237 OA
ATOM     76  O   UNL A   1      42.967  19.451  24.930  1.00  0.00    -0.237 OA
ATOM     77  O   UNL A   1      42.574  18.676  27.235  1.00  0.00    -0.744 OA
ENDBRANCH  73  74
ENDBRANCH  45  68
BRANCH  57  78
ATOM     78  C   UNL A   1      47.987  27.953  28.113  1.00  0.00    -0.014 A 
ATOM     79  C   UNL A   1      48.610  28.294  26.899  1.00  0.00     0.010 A 
ATOM     80  C   UNL A   1      48.766  27.420  29.156  1.00  0.00     0.010 A 
ATOM     81  C   UNL A   1      49.979  28.074  26.723  1.00  0.00     0.020 A 
ATOM     82  C   UNL A   1      50.141  27.233  28.997  1.00  0.00     0.020 A 
ATOM     83  C   UNL A   1      50.736  27.550  27.776  1.00  0.00     0.054 A 
BRANCH  83  84
ATOM     84  S   UNL A   1      52.519  27.323  27.537  1.00  0.00     0.124 S 
ATOM     85  O   UNL A   1      52.689  25.904  27.839  1.00  0.00    -0.237 OA
ATOM     86  O   UNL A   1      52.702  27.695  26.136  1.00  0.00    -0.237 OA
ATOM     87  O   UNL A   1      53.118  28.241  28.503  1.00  0.00    -0.744 OA
ENDBRANCH  83  84
ENDBRANCH  57  78
ENDBRANCH  31  32
ENDBRANCH  24  26
ENDBRANCH  23  24
ENDBRANCH  22  23
ENDBRANCH   1  22
TORSDOF 17
ENDMDL
MODEL 2
REMARK VINA RESULT:     -10.8      1.851      3.889
REMARK SMILES N#Cc1ccc(C[N@H+]2CCCC[C@H]2C(=O)OCCOC(=O)c2ccc(-c3c4nc(c(-c5ccc(S(=O)(=O)[O-])cc5)c5ccc([nH]5)c(-c5ccc(S(=O)(=O)[O-])cc5)c5nc(c(-c6ccc(S(=O)(=O)[O-])cc6)c6ccc3[nH]6)C=C5)C=C4)cc2)c(F)c1
REMARK SMILES IDX 17 1 16 2 14 3 15 4 13 5 8 6 9 7 10 9 12 10 11 11 7 12 6 13
REMARK SMILES IDX 3 14 4 15 84 16 5 17 82 18 83 19 2 20 1 21 18 22 19 23 20 24
REMARK SMILES IDX 21 25 22 26 23 27 81 28 24 29 80 30 25 31 26 32 27 33 74 34
REMARK SMILES IDX 28 35 79 36 73 37 75 38 29 39 78 40 72 41 71 42 30 44 60 45
REMARK SMILES IDX 41 46 59 47 42 48 45 49 58 50 76 51 43 52 44 53 57 55 77 56
REMARK SMILES IDX 46 57 31 58 32 59 40 60 33 61 39 62 34 63 35 64 36 65 37 66
REMARK SMILES IDX 38 67 61 68 62 69 70 70 63 71 69 72 64 73 65 74 66 75 67 76
REMARK SMILES IDX 68 77 47 78 48 79 56 80 49 81 55 82 50 83 51 84 52 85 53 86
REMARK SMILES IDX 54 87
REMARK H PARENT 8 8 75 43 45 54
REMARK Flexibility Score: inf
ROOT
ATOM      1  C   UNL A   1      32.039  29.695  25.971  1.00  0.00     0.274 C 
ENDROOT
BRANCH   1   2
ATOM      2  O   UNL A   1      31.876  28.332  25.491  1.00  0.00    -0.458 OA
BRANCH   2   3
ATOM      3  C   UNL A   1      32.429  28.178  24.266  1.00  0.00     0.365 C 
ATOM      4  O   UNL A   1      33.144  29.056  23.818  1.00  0.00    -0.245 OA
BRANCH   3   5
ATOM      5  C   UNL A   1      32.052  26.934  23.452  1.00  0.00     0.295 C 
ATOM      6  N   UNL A   1      31.500  25.850  24.324  1.00  0.00    -0.319 N 
ATOM      7  C   UNL A   1      30.194  26.206  24.895  1.00  0.00     0.263 C 
ATOM      8  H   UNL A   1      31.327  25.091  23.664  1.00  0.00     0.349 HD
ATOM      9  C   UNL A   1      29.143  26.715  23.895  1.00  0.00     0.062 C 
ATOM     10  C   UNL A   1      31.025  27.279  22.359  1.00  0.00     0.078 C 
ATOM     11  C   UNL A   1      29.707  27.768  22.951  1.00  0.00     0.013 C 
BRANCH   6  12
ATOM     12  C   UNL A   1      32.442  25.089  25.220  1.00  0.00     0.302 C 
BRANCH  12  13
ATOM     13  C   UNL A   1      32.821  23.619  24.993  1.00  0.00     0.042 A 
ATOM     14  C   UNL A   1      32.825  20.792  24.820  1.00  0.00     0.055 A 
ATOM     15  C   UNL A   1      32.528  21.559  23.695  1.00  0.00     0.020 A 
ATOM     16  C   UNL A   1      33.339  21.427  25.950  1.00  0.00     0.059 A 
ATOM     17  C   UNL A   1      32.570  22.965  23.773  1.00  0.00     0.014 A 
ATOM     18  C   UNL A   1      33.355  22.827  26.017  1.00  0.00     0.133 A 
ATOM     19  F   UNL A   1      33.734  23.394  27.170  1.00  0.00    -0.206 F 
BRANCH  14  20
ATOM     20  C   UNL A   1      32.512  19.388  24.863  1.00  0.00     0.099 C 
ATOM     21  N   UNL A   1      32.201  18.273  24.872  1.00  0.00    -0.192 NA
ENDBRANCH  14  20
ENDBRANCH  12  13
ENDBRANCH   6  12
ENDBRANCH   3   5
ENDBRANCH   2   3
ENDBRANCH   1   2
BRANCH   1  22
ATOM     22  C   UNL A   1      32.897  29.885  27.260  1.00  0.00     0.275 C 
BRANCH  22  23
ATOM     23  O   UNL A   1      33.669  31.123  27.344  1.00  0.00    -0.458 OA
BRANCH  23  24
ATOM     24  C   UNL A   1      34.514  31.260  28.407  1.00  0.00     0.338 C 
ATOM     25  O   UNL A   1      34.308  31.981  29.375  1.00  0.00    -0.246 OA
BRANCH  24  26
ATOM     26  C   UNL A   1      35.721  30.367  28.370  1.00  0.00     0.060 A 
ATOM     27  C   UNL A   1      36.183  29.812  29.547  1.00  0.00     0.016 A 
ATOM     28  C   UNL A   1      36.593  30.326  27.285  1.00  0.00     0.016 A 
ATOM     29  C   UNL A   1      37.517  29.442  29.734  1.00  0.00     0.010 A 
ATOM     30  C   UNL A   1      37.890  29.761  27.420  1.00  0.00     0.010 A 
ATOM     31  C   UNL A   1      38.398  29.358  28.670  1.00  0.00    -0.014 A 
BRANCH  31  32
ATOM     32  C   UNL A   1      39.826  28.945  28.908  1.00  0.00     0.031 A 
ATOM     33  C   UNL A   1      40.790  29.929  29.522  1.00  0.00     0.074 A 
ATOM     34  C   UNL A   1      40.283  27.694  28.654  1.00  0.00     0.049 A 
ATOM     35  N   UNL A   1      42.098  29.915  29.534  1.00  0.00    -0.248 NA
ATOM     36  C   UNL A   1      40.197  31.089  30.202  1.00  0.00     0.031 C 
ATOM     37  C   UNL A   1      39.474  26.549  28.229  1.00  0.00     0.029 A 
ATOM     38  N   UNL A   1      41.555  27.166  28.724  1.00  0.00    -0.354 N 
ATOM     39  C   UNL A   1      42.485  31.113  30.126  1.00  0.00     0.074 A 
ATOM     40  C   UNL A   1      41.269  31.819  30.472  1.00  0.00     0.031 C 
ATOM     41  C   UNL A   1      40.246  25.457  28.132  1.00  0.00     0.029 A 
ATOM     42  C   UNL A   1      41.632  25.850  28.316  1.00  0.00     0.049 A 
ATOM     43  H   UNL A   1      42.335  27.680  29.036  1.00  0.00     0.167 HD
ATOM     44  C   UNL A   1      43.738  31.588  30.335  1.00  0.00     0.031 A 
ATOM     45  C   UNL A   1      42.690  25.063  28.027  1.00  0.00     0.031 A 
ATOM     46  C   UNL A   1      44.935  30.850  30.017  1.00  0.00     0.049 A 
ATOM     47  C   UNL A   1      44.069  25.648  28.122  1.00  0.00     0.074 A 
ATOM     48  C   UNL A   1      46.255  31.242  30.162  1.00  0.00     0.029 A 
ATOM     49  N   UNL A   1      44.959  29.563  29.498  1.00  0.00    -0.354 N 
ATOM     50  N   UNL A   1      44.429  26.834  28.547  1.00  0.00    -0.248 NA
ATOM     51  C   UNL A   1      45.181  24.800  27.674  1.00  0.00     0.031 C 
ATOM     52  C   UNL A   1      47.071  30.223  29.659  1.00  0.00     0.029 A 
ATOM     53  C   UNL A   1      46.267  29.159  29.284  1.00  0.00     0.049 A 
ATOM     54  H   UNL A   1      44.162  29.016  29.310  1.00  0.00     0.167 HD
ATOM     55  C   UNL A   1      45.815  26.865  28.449  1.00  0.00     0.074 A 
ATOM     56  C   UNL A   1      46.226  25.574  27.933  1.00  0.00     0.031 C 
ATOM     57  C   UNL A   1      46.666  27.873  28.764  1.00  0.00     0.031 A 
BRANCH  44  58
ATOM     58  C   UNL A   1      43.865  33.012  30.824  1.00  0.00    -0.014 A 
ATOM     59  C   UNL A   1      43.863  34.116  29.954  1.00  0.00     0.010 A 
ATOM     60  C   UNL A   1      44.030  33.239  32.205  1.00  0.00     0.010 A 
ATOM     61  C   UNL A   1      44.103  35.405  30.443  1.00  0.00     0.020 A 
ATOM     62  C   UNL A   1      44.229  34.529  32.704  1.00  0.00     0.020 A 
ATOM     63  C   UNL A   1      44.297  35.600  31.814  1.00  0.00     0.054 A 
BRANCH  63  64
ATOM     64  S   UNL A   1      44.648  37.275  32.417  1.00  0.00     0.124 S 
ATOM     65  O   UNL A   1      43.394  37.624  33.081  1.00  0.00    -0.237 OA
ATOM     66  O   UNL A   1      45.789  37.062  33.303  1.00  0.00    -0.237 OA
ATOM     67  O   UNL A   1      44.939  38.029  31.201  1.00  0.00    -0.744 OA
ENDBRANCH  63  64
ENDBRANCH  44  58
BRANCH  45  68
ATOM     68  C   UNL A   1      42.479  23.662  27.553  1.00  0.00    -0.014 A 
ATOM     69  C   UNL A   1      42.439  23.375  26.177  1.00  0.00     0.010 A 
ATOM     70  C   UNL A   1      42.346  22.599  28.470  1.00  0.00     0.010 A 
ATOM     71  C   UNL A   1      42.292  22.058  25.729  1.00  0.00     0.020 A 
ATOM     72  C   UNL A   1      42.235  21.277  28.026  1.00  0.00     0.020 A 
ATOM     73  C   UNL A   1      42.208  21.016  26.656  1.00  0.00     0.054 A 
BRANCH  73  74
ATOM     74  S   UNL A   1      42.121  19.309  26.043  1.00  0.00     0.124 S 
ATOM     75  O   UNL A   1      42.558  18.542  27.205  1.00  0.00    -0.237 OA
ATOM     76  O   UNL A   1      40.709  19.177  25.691  1.00  0.00    -0.237 OA
ATOM     77  O   UNL A   1      43.041  19.306  24.907  1.00  0.00    -0.744 OA
ENDBRANCH  73  74
ENDBRANCH  45  68
BRANCH  57  78
ATOM     78  C   UNL A   1      48.140  27.600  28.616  1.00  0.00    -0.014 A 
ATOM     79  C   UNL A   1      48.913  27.114  29.687  1.00  0.00     0.010 A 
ATOM     80  C   UNL A   1      48.751  27.793  27.363  1.00  0.00     0.010 A 
ATOM     81  C   UNL A   1      50.275  26.860  29.513  1.00  0.00     0.020 A 
ATOM     82  C   UNL A   1      50.104  27.505  27.176  1.00  0.00     0.020 A 
ATOM     83  C   UNL A   1      50.861  27.052  28.257  1.00  0.00     0.054 A 
BRANCH  83  84
ATOM     84  S   UNL A   1      52.620  26.665  28.048  1.00  0.00     0.124 S 
ATOM     85  O   UNL A   1      52.583  25.619  27.029  1.00  0.00    -0.237 OA
ATOM     86  O   UNL A   1      53.178  27.945  27.617  1.00  0.00    -0.237 OA
ATOM     87  O   UNL A   1      53.039  26.224  29.377  1.00  0.00    -0.744 OA
ENDBRANCH  83  84
ENDBRANCH  57  78
ENDBRANCH  31  32
ENDBRANCH  24  26
ENDBRANCH  23  24
ENDBRANCH  22  23
ENDBRANCH   1  22
TORSDOF 17
ENDMDL
MODEL 3
REMARK VINA RESULT:     -10.8      7.112     12.184
REMARK SMILES N#Cc1ccc(C[N@H+]2CCCC[C@H]2C(=O)OCCOC(=O)c2ccc(-c3c4nc(c(-c5ccc(S(=O)(=O)[O-])cc5)c5ccc([nH]5)c(-c5ccc(S(=O)(=O)[O-])cc5)c5nc(c(-c6ccc(S(=O)(=O)[O-])cc6)c6ccc3[nH]6)C=C5)C=C4)cc2)c(F)c1
REMARK SMILES IDX 17 1 16 2 14 3 15 4 13 5 8 6 9 7 10 9 12 10 11 11 7 12 6 13
REMARK SMILES IDX 3 14 4 15 84 16 5 17 82 18 83 19 2 20 1 21 18 22 19 23 20 24
REMARK SMILES IDX 21 25 22 26 23 27 81 28 24 29 80 30 25 31 26 32 27 33 74 34
REMARK SMILES IDX 28 35 79 36 73 37 75 38 29 39 78 40 72 41 71 42 30 44 60 45
REMARK SMILES IDX 41 46 59 47 42 48 45 49 58 50 76 51 43 52 44 53 57 55 77 56
REMARK SMILES IDX 46 57 31 58 32 59 40 60 33 61 39 62 34 63 35 64 36 65 37 66
REMARK SMILES IDX 38 67 61 68 62 69 70 70 63 71 69 72 64 73 65 74 66 75 67 76
REMARK SMILES IDX 68 77 47 78 48 79 56 80 49 81 55 82 50 83 51 84 52 85 53 86
REMARK SMILES IDX 54 87
REMARK H PARENT 8 8 75 43 45 54
REMARK Flexibility Score: inf
ROOT
ATOM      1  C   UNL A   1      43.811  23.592  24.757  1.00  0.00     0.274 C 
ENDROOT
BRANCH   1   2
ATOM      2  O   UNL A   1      42.612  22.838  25.085  1.00  0.00    -0.458 OA
BRANCH   2   3
ATOM      3  C   UNL A   1      42.921  21.680  25.711  1.00  0.00     0.365 C 
ATOM      4  O   UNL A   1      43.636  20.869  25.151  1.00  0.00    -0.245 OA
BRANCH   3   5
ATOM      5  C   UNL A   1      42.274  21.397  27.073  1.00  0.00     0.295 C 
ATOM      6  N   UNL A   1      41.335  22.491  27.476  1.00  0.00    -0.319 N 
ATOM      7  C   UNL A   1      40.144  22.546  26.617  1.00  0.00     0.263 C 
ATOM      8  H   UNL A   1      41.012  22.189  28.395  1.00  0.00     0.349 HD
ATOM      9  C   UNL A   1      39.405  21.214  26.414  1.00  0.00     0.062 C 
ATOM     10  C   UNL A   1      41.518  20.058  27.058  1.00  0.00     0.078 C 
ATOM     11  C   UNL A   1      40.354  20.073  26.074  1.00  0.00     0.013 C 
BRANCH   6  12
ATOM     12  C   UNL A   1      41.907  23.812  27.920  1.00  0.00     0.302 C 
BRANCH  12  13
ATOM     13  C   UNL A   1      43.059  23.938  28.925  1.00  0.00     0.042 A 
ATOM     14  C   UNL A   1      44.656  24.485  31.200  1.00  0.00     0.055 A 
ATOM     15  C   UNL A   1      44.081  23.226  31.038  1.00  0.00     0.020 A 
ATOM     16  C   UNL A   1      44.626  25.380  30.131  1.00  0.00     0.059 A 
ATOM     17  C   UNL A   1      43.324  22.943  29.884  1.00  0.00     0.014 A 
ATOM     18  C   UNL A   1      43.853  25.090  28.999  1.00  0.00     0.133 A 
ATOM     19  F   UNL A   1      43.749  26.034  28.054  1.00  0.00    -0.206 F 
BRANCH  14  20
ATOM     20  C   UNL A   1      45.177  24.903  32.475  1.00  0.00     0.099 C 
ATOM     21  N   UNL A   1      45.534  25.243  33.522  1.00  0.00    -0.192 NA
ENDBRANCH  14  20
ENDBRANCH  12  13
ENDBRANCH   6  12
ENDBRANCH   3   5
ENDBRANCH   2   3
ENDBRANCH   1   2
BRANCH   1  22
ATOM     22  C   UNL A   1      43.760  25.132  25.007  1.00  0.00     0.275 C 
BRANCH  22  23
ATOM     23  O   UNL A   1      42.429  25.716  25.158  1.00  0.00    -0.458 OA
BRANCH  23  24
ATOM     24  C   UNL A   1      42.340  27.078  25.131  1.00  0.00     0.338 C 
ATOM     25  O   UNL A   1      42.779  27.790  24.238  1.00  0.00    -0.246 OA
BRANCH  24  26
ATOM     26  C   UNL A   1      41.554  27.679  26.261  1.00  0.00     0.060 A 
ATOM     27  C   UNL A   1      41.808  28.982  26.638  1.00  0.00     0.016 A 
ATOM     28  C   UNL A   1      40.823  26.907  27.162  1.00  0.00     0.016 A 
ATOM     29  C   UNL A   1      41.567  29.455  27.931  1.00  0.00     0.010 A 
ATOM     30  C   UNL A   1      40.398  27.454  28.403  1.00  0.00     0.010 A 
ATOM     31  C   UNL A   1      40.814  28.728  28.836  1.00  0.00    -0.014 A 
BRANCH  31  32
ATOM     32  C   UNL A   1      40.566  29.273  30.216  1.00  0.00     0.031 A 
ATOM     33  C   UNL A   1      39.408  30.211  30.446  1.00  0.00     0.074 A 
ATOM     34  C   UNL A   1      41.304  28.912  31.295  1.00  0.00     0.049 A 
ATOM     35  N   UNL A   1      39.185  31.030  31.441  1.00  0.00    -0.248 NA
ATOM     36  C   UNL A   1      38.367  30.232  29.407  1.00  0.00     0.031 C 
ATOM     37  C   UNL A   1      42.351  27.887  31.321  1.00  0.00     0.029 A 
ATOM     38  N   UNL A   1      41.282  29.365  32.597  1.00  0.00    -0.354 N 
ATOM     39  C   UNL A   1      38.039  31.741  31.098  1.00  0.00     0.074 A 
ATOM     40  C   UNL A   1      37.608  31.241  29.809  1.00  0.00     0.031 C 
ATOM     41  C   UNL A   1      42.825  27.752  32.568  1.00  0.00     0.029 A 
ATOM     42  C   UNL A   1      42.247  28.793  33.400  1.00  0.00     0.049 A 
ATOM     43  H   UNL A   1      40.638  30.035  32.923  1.00  0.00     0.167 HD
ATOM     44  C   UNL A   1      37.423  32.736  31.783  1.00  0.00     0.031 A 
ATOM     45  C   UNL A   1      42.694  29.115  34.632  1.00  0.00     0.031 A 
ATOM     46  C   UNL A   1      37.848  33.192  33.084  1.00  0.00     0.049 A 
ATOM     47  C   UNL A   1      42.104  30.312  35.321  1.00  0.00     0.074 A 
ATOM     48  C   UNL A   1      37.316  34.207  33.859  1.00  0.00     0.029 A 
ATOM     49  N   UNL A   1      38.904  32.654  33.806  1.00  0.00    -0.354 N 
ATOM     50  N   UNL A   1      41.112  31.075  34.932  1.00  0.00    -0.248 NA
ATOM     51  C   UNL A   1      42.708  30.705  36.600  1.00  0.00     0.031 C 
ATOM     52  C   UNL A   1      38.098  34.333  35.012  1.00  0.00     0.029 A 
ATOM     53  C   UNL A   1      39.063  33.338  35.001  1.00  0.00     0.049 A 
ATOM     54  H   UNL A   1      39.461  31.896  33.513  1.00  0.00     0.167 HD
ATOM     55  C   UNL A   1      40.950  32.023  35.934  1.00  0.00     0.074 A 
ATOM     56  C   UNL A   1      41.941  31.728  36.951  1.00  0.00     0.031 C 
ATOM     57  C   UNL A   1      40.056  33.041  36.005  1.00  0.00     0.031 A 
BRANCH  44  58
ATOM     58  C   UNL A   1      36.302  33.468  31.083  1.00  0.00    -0.014 A 
ATOM     59  C   UNL A   1      36.381  33.865  29.737  1.00  0.00     0.010 A 
ATOM     60  C   UNL A   1      35.147  33.798  31.820  1.00  0.00     0.010 A 
ATOM     61  C   UNL A   1      35.367  34.645  29.167  1.00  0.00     0.020 A 
ATOM     62  C   UNL A   1      34.114  34.540  31.244  1.00  0.00     0.020 A 
ATOM     63  C   UNL A   1      34.246  34.986  29.930  1.00  0.00     0.054 A 
BRANCH  63  64
ATOM     64  S   UNL A   1      32.966  36.032  29.181  1.00  0.00     0.124 S 
ATOM     65  O   UNL A   1      33.767  37.065  28.527  1.00  0.00    -0.237 OA
ATOM     66  O   UNL A   1      32.283  35.105  28.282  1.00  0.00    -0.237 OA
ATOM     67  O   UNL A   1      32.175  36.486  30.322  1.00  0.00    -0.744 OA
ENDBRANCH  63  64
ENDBRANCH  44  58
BRANCH  45  68
ATOM     68  C   UNL A   1      43.805  28.337  35.258  1.00  0.00    -0.014 A 
ATOM     69  C   UNL A   1      45.141  28.740  35.086  1.00  0.00     0.010 A 
ATOM     70  C   UNL A   1      43.537  27.207  36.057  1.00  0.00     0.010 A 
ATOM     71  C   UNL A   1      46.180  28.043  35.711  1.00  0.00     0.020 A 
ATOM     72  C   UNL A   1      44.570  26.530  36.713  1.00  0.00     0.020 A 
ATOM     73  C   UNL A   1      45.887  26.953  36.535  1.00  0.00     0.054 A 
BRANCH  73  74
ATOM     74  S   UNL A   1      47.248  26.134  37.413  1.00  0.00     0.124 S 
ATOM     75  O   UNL A   1      47.839  27.239  38.162  1.00  0.00    -0.237 OA
ATOM     76  O   UNL A   1      46.545  25.132  38.211  1.00  0.00    -0.237 OA
ATOM     77  O   UNL A   1      48.075  25.594  36.336  1.00  0.00    -0.744 OA
ENDBRANCH  73  74
ENDBRANCH  45  68
BRANCH  57  78
ATOM     78  C   UNL A   1      40.067  33.881  37.255  1.00  0.00    -0.014 A 
ATOM     79  C   UNL A   1      40.953  34.963  37.411  1.00  0.00     0.010 A 
ATOM     80  C   UNL A   1      39.139  33.603  38.276  1.00  0.00     0.010 A 
ATOM     81  C   UNL A   1      40.929  35.729  38.578  1.00  0.00     0.020 A 
ATOM     82  C   UNL A   1      39.088  34.390  39.428  1.00  0.00     0.020 A 
ATOM     83  C   UNL A   1      39.994  35.441  39.577  1.00  0.00     0.054 A 
BRANCH  83  84
ATOM     84  S   UNL A   1      39.952  36.485  41.059  1.00  0.00     0.124 S 
ATOM     85  O   UNL A   1      38.612  37.062  40.989  1.00  0.00    -0.237 OA
ATOM     86  O   UNL A   1      40.165  35.518  42.134  1.00  0.00    -0.237 OA
ATOM     87  O   UNL A   1      41.048  37.429  40.851  1.00  0.00    -0.744 OA
ENDBRANCH  83  84
ENDBRANCH  57  78
ENDBRANCH  31  32
ENDBRANCH  24  26
ENDBRANCH  23  24
ENDBRANCH  22  23
ENDBRANCH   1  22
TORSDOF 17
ENDMDL
