MODEL 1
REMARK VINA RESULT:      -9.9      0.000      0.000
REMARK SMILES CN(CC(C)(C)O)C(=O)N1CCCC[C@H]1CC(=O)OCCOC(=O)c1ccc(-c2c3nc(c(-c4ccc(S(=O)(=O)[O-])cc4)c4ccc([nH]4)c(-c4ccc(S(=O)(=O)[O-])cc4)c4nc(c(-c5ccc(S(=O)(=O)[O-])cc5)c5ccc2[nH]5)C=C4)C=C3)cc1
REMARK SMILES IDX 19 1 17 2 18 3 16 4 15 5 10 6 11 7 12 8 14 9 13 10 8 11 9 12
REMARK SMILES IDX 2 13 1 14 3 15 4 16 5 17 6 18 7 19 20 21 21 22 22 23 23 24
REMARK SMILES IDX 24 25 25 26 26 27 84 28 27 29 83 30 28 31 29 32 30 33 77 34
REMARK SMILES IDX 31 35 82 36 76 37 78 38 32 39 81 40 75 41 74 42 33 44 63 45
REMARK SMILES IDX 44 46 62 47 45 48 48 49 61 50 79 51 46 52 47 53 60 55 80 56
REMARK SMILES IDX 49 57 34 58 35 59 43 60 36 61 42 62 37 63 38 64 39 65 40 66
REMARK SMILES IDX 41 67 64 68 65 69 73 70 66 71 72 72 67 73 68 74 69 75 70 76
REMARK SMILES IDX 71 77 50 78 51 79 59 80 52 81 58 82 53 83 54 84 55 85 56 86
REMARK SMILES IDX 57 87
REMARK H PARENT 7 20 78 43 48 54
REMARK Flexibility Score: inf
ROOT
ATOM      1  O   UNL A   1      38.863  21.707  26.228  1.00  0.00    -0.462 OA
ENDROOT
BRANCH   1   2
ATOM      2  C   UNL A   1      38.096  21.110  25.285  1.00  0.00     0.308 C 
ATOM      3  O   UNL A   1      38.209  19.930  24.958  1.00  0.00    -0.252 OA
BRANCH   2   4
ATOM      4  C   UNL A   1      37.141  22.024  24.560  1.00  0.00     0.147 C 
BRANCH   4   5
ATOM      5  C   UNL A   1      35.620  21.736  24.583  1.00  0.00     0.098 C 
ATOM      6  N   UNL A   1      34.952  21.907  25.901  1.00  0.00    -0.321 N 
ATOM      7  C   UNL A   1      35.110  23.274  26.431  1.00  0.00     0.121 C 
ATOM      8  C   UNL A   1      34.442  24.287  25.497  1.00  0.00     0.022 C 
ATOM      9  C   UNL A   1      34.909  22.699  23.591  1.00  0.00     0.026 C 
ATOM     10  C   UNL A   1      34.949  24.154  24.061  1.00  0.00     0.004 C 
BRANCH   6  11
ATOM     11  C   UNL A   1      33.889  21.201  26.464  1.00  0.00     0.320 C 
ATOM     12  O   UNL A   1      33.717  21.287  27.691  1.00  0.00    -0.248 OA
BRANCH  11  13
ATOM     13  N   UNL A   1      33.027  20.392  25.751  1.00  0.00    -0.325 N 
ATOM     14  C   UNL A   1      32.077  21.082  24.877  1.00  0.00     0.148 C 
BRANCH  13  15
ATOM     15  C   UNL A   1      32.816  18.943  25.793  1.00  0.00     0.155 C 
BRANCH  15  16
ATOM     16  C   UNL A   1      33.553  18.103  24.699  1.00  0.00     0.077 C 
ATOM     17  C   UNL A   1      33.454  16.593  24.922  1.00  0.00     0.043 C 
ATOM     18  C   UNL A   1      33.037  18.430  23.289  1.00  0.00     0.043 C 
BRANCH  16  19
ATOM     19  O   UNL A   1      34.947  18.463  24.699  1.00  0.00    -0.389 OA
ATOM     20  H   UNL A   1      35.214  18.725  23.804  1.00  0.00     0.211 HD
ENDBRANCH  16  19
ENDBRANCH  15  16
ENDBRANCH  13  15
ENDBRANCH  11  13
ENDBRANCH   6  11
ENDBRANCH   4   5
ENDBRANCH   2   4
ENDBRANCH   1   2
BRANCH   1  21
ATOM     21  C   UNL A   1      40.259  21.329  26.225  1.00  0.00     0.274 C 
BRANCH  21  22
ATOM     22  C   UNL A   1      41.234  22.506  26.411  1.00  0.00     0.275 C 
BRANCH  22  23
ATOM     23  O   UNL A   1      40.605  23.808  26.452  1.00  0.00    -0.458 OA
BRANCH  23  24
ATOM     24  C   UNL A   1      41.498  24.812  26.406  1.00  0.00     0.338 C 
ATOM     25  O   UNL A   1      42.250  25.046  25.472  1.00  0.00    -0.246 OA
BRANCH  24  26
ATOM     26  C   UNL A   1      41.555  25.720  27.542  1.00  0.00     0.060 A 
ATOM     27  C   UNL A   1      40.471  25.658  28.427  1.00  0.00     0.016 A 
ATOM     28  C   UNL A   1      42.452  26.787  27.570  1.00  0.00     0.016 A 
ATOM     29  C   UNL A   1      40.280  26.669  29.353  1.00  0.00     0.010 A 
ATOM     30  C   UNL A   1      42.275  27.791  28.526  1.00  0.00     0.010 A 
ATOM     31  C   UNL A   1      41.193  27.732  29.421  1.00  0.00    -0.014 A 
BRANCH  31  32
ATOM     32  C   UNL A   1      41.089  28.659  30.566  1.00  0.00     0.031 A 
ATOM     33  C   UNL A   1      42.073  28.651  31.692  1.00  0.00     0.074 A 
ATOM     34  C   UNL A   1      40.098  29.566  30.510  1.00  0.00     0.049 A 
ATOM     35  N   UNL A   1      42.113  29.431  32.741  1.00  0.00    -0.248 NA
ATOM     36  C   UNL A   1      43.148  27.650  31.641  1.00  0.00     0.031 C 
ATOM     37  C   UNL A   1      39.117  29.668  29.424  1.00  0.00     0.029 A 
ATOM     38  N   UNL A   1      39.764  30.584  31.358  1.00  0.00    -0.354 N 
ATOM     39  C   UNL A   1      43.208  29.014  33.486  1.00  0.00     0.074 A 
ATOM     40  C   UNL A   1      43.807  27.907  32.767  1.00  0.00     0.031 C 
ATOM     41  C   UNL A   1      38.312  30.713  29.656  1.00  0.00     0.029 A 
ATOM     42  C   UNL A   1      38.686  31.318  30.927  1.00  0.00     0.049 A 
ATOM     43  H   UNL A   1      40.247  30.771  32.196  1.00  0.00     0.167 HD
ATOM     44  C   UNL A   1      43.658  29.510  34.664  1.00  0.00     0.031 A 
ATOM     45  C   UNL A   1      38.053  32.354  31.502  1.00  0.00     0.031 A 
ATOM     46  C   UNL A   1      43.035  30.603  35.369  1.00  0.00     0.049 A 
ATOM     47  C   UNL A   1      38.550  32.854  32.820  1.00  0.00     0.074 A 
ATOM     48  C   UNL A   1      43.407  31.178  36.573  1.00  0.00     0.029 A 
ATOM     49  N   UNL A   1      41.905  31.284  34.937  1.00  0.00    -0.354 N 
ATOM     50  N   UNL A   1      39.576  32.433  33.521  1.00  0.00    -0.248 NA
ATOM     51  C   UNL A   1      37.803  33.958  33.429  1.00  0.00     0.031 C 
ATOM     52  C   UNL A   1      42.480  32.181  36.886  1.00  0.00     0.029 A 
ATOM     53  C   UNL A   1      41.553  32.256  35.858  1.00  0.00     0.049 A 
ATOM     54  H   UNL A   1      41.425  31.102  34.096  1.00  0.00     0.167 HD
ATOM     55  C   UNL A   1      39.590  33.212  34.668  1.00  0.00     0.074 A 
ATOM     56  C   UNL A   1      38.491  34.152  34.547  1.00  0.00     0.031 C 
ATOM     57  C   UNL A   1      40.431  33.151  35.729  1.00  0.00     0.031 A 
BRANCH  44  58
ATOM     58  C   UNL A   1      44.855  28.850  35.290  1.00  0.00    -0.014 A 
ATOM     59  C   UNL A   1      46.160  29.301  35.022  1.00  0.00     0.010 A 
ATOM     60  C   UNL A   1      44.669  27.799  36.208  1.00  0.00     0.010 A 
ATOM     61  C   UNL A   1      47.259  28.698  35.643  1.00  0.00     0.020 A 
ATOM     62  C   UNL A   1      45.764  27.203  36.843  1.00  0.00     0.020 A 
ATOM     63  C   UNL A   1      47.053  27.649  36.546  1.00  0.00     0.054 A 
BRANCH  63  64
ATOM     64  S   UNL A   1      48.491  26.899  37.362  1.00  0.00     0.124 S 
ATOM     65  O   UNL A   1      49.481  27.968  37.270  1.00  0.00    -0.237 OA
ATOM     66  O   UNL A   1      47.992  26.620  38.707  1.00  0.00    -0.237 OA
ATOM     67  O   UNL A   1      48.771  25.718  36.550  1.00  0.00    -0.744 OA
ENDBRANCH  63  64
ENDBRANCH  44  58
BRANCH  45  68
ATOM     68  C   UNL A   1      36.867  32.937  30.830  1.00  0.00    -0.014 A 
ATOM     69  C   UNL A   1      35.570  32.606  31.253  1.00  0.00     0.010 A 
ATOM     70  C   UNL A   1      37.039  33.904  29.823  1.00  0.00     0.010 A 
ATOM     71  C   UNL A   1      34.462  33.240  30.684  1.00  0.00     0.020 A 
ATOM     72  C   UNL A   1      35.937  34.556  29.269  1.00  0.00     0.020 A 
ATOM     73  C   UNL A   1      34.654  34.217  29.700  1.00  0.00     0.054 A 
BRANCH  73  74
ATOM     74  S   UNL A   1      33.217  35.110  29.046  1.00  0.00     0.124 S 
ATOM     75  O   UNL A   1      32.419  35.321  30.249  1.00  0.00    -0.237 OA
ATOM     76  O   UNL A   1      33.817  36.309  28.465  1.00  0.00    -0.237 OA
ATOM     77  O   UNL A   1      32.654  34.174  28.073  1.00  0.00    -0.744 OA
ENDBRANCH  73  74
ENDBRANCH  45  68
BRANCH  57  78
ATOM     78  C   UNL A   1      40.159  34.121  36.841  1.00  0.00    -0.014 A 
ATOM     79  C   UNL A   1      39.238  33.802  37.856  1.00  0.00     0.010 A 
ATOM     80  C   UNL A   1      40.806  35.368  36.859  1.00  0.00     0.010 A 
ATOM     81  C   UNL A   1      38.931  34.738  38.845  1.00  0.00     0.020 A 
ATOM     82  C   UNL A   1      40.515  36.298  37.858  1.00  0.00     0.020 A 
ATOM     83  C   UNL A   1      39.563  35.985  38.832  1.00  0.00     0.054 A 
BRANCH  83  84
ATOM     84  S   UNL A   1      39.147  37.195  40.117  1.00  0.00     0.124 S 
ATOM     85  O   UNL A   1      38.406  36.377  41.072  1.00  0.00    -0.237 OA
ATOM     86  O   UNL A   1      40.458  37.657  40.569  1.00  0.00    -0.237 OA
ATOM     87  O   UNL A   1      38.354  38.194  39.402  1.00  0.00    -0.744 OA
ENDBRANCH  83  84
ENDBRANCH  57  78
ENDBRANCH  31  32
ENDBRANCH  24  26
ENDBRANCH  23  24
ENDBRANCH  22  23
ENDBRANCH  21  22
ENDBRANCH   1  21
TORSDOF 20
ENDMDL
MODEL 2
REMARK VINA RESULT:      -9.9      5.768     10.640
REMARK SMILES CN(CC(C)(C)O)C(=O)N1CCCC[C@H]1CC(=O)OCCOC(=O)c1ccc(-c2c3nc(c(-c4ccc(S(=O)(=O)[O-])cc4)c4ccc([nH]4)c(-c4ccc(S(=O)(=O)[O-])cc4)c4nc(c(-c5ccc(S(=O)(=O)[O-])cc5)c5ccc2[nH]5)C=C4)C=C3)cc1
REMARK SMILES IDX 19 1 17 2 18 3 16 4 15 5 10 6 11 7 12 8 14 9 13 10 8 11 9 12
REMARK SMILES IDX 2 13 1 14 3 15 4 16 5 17 6 18 7 19 20 21 21 22 22 23 23 24
REMARK SMILES IDX 24 25 25 26 26 27 84 28 27 29 83 30 28 31 29 32 30 33 77 34
REMARK SMILES IDX 31 35 82 36 76 37 78 38 32 39 81 40 75 41 74 42 33 44 63 45
REMARK SMILES IDX 44 46 62 47 45 48 48 49 61 50 79 51 46 52 47 53 60 55 80 56
REMARK SMILES IDX 49 57 34 58 35 59 43 60 36 61 42 62 37 63 38 64 39 65 40 66
REMARK SMILES IDX 41 67 64 68 65 69 73 70 66 71 72 72 67 73 68 74 69 75 70 76
REMARK SMILES IDX 71 77 50 78 51 79 59 80 52 81 58 82 53 83 54 84 55 85 56 86
REMARK SMILES IDX 57 87
REMARK H PARENT 7 20 78 43 48 54
REMARK Flexibility Score: inf
ROOT
ATOM      1  O   UNL A   1      37.983  21.685  25.615  1.00  0.00    -0.462 OA
ENDROOT
BRANCH   1   2
ATOM      2  C   UNL A   1      37.657  22.998  25.572  1.00  0.00     0.308 C 
ATOM      3  O   UNL A   1      38.050  23.828  26.389  1.00  0.00    -0.252 OA
BRANCH   2   4
ATOM      4  C   UNL A   1      36.669  23.380  24.498  1.00  0.00     0.147 C 
BRANCH   4   5
ATOM      5  C   UNL A   1      35.289  22.683  24.428  1.00  0.00     0.098 C 
ATOM      6  N   UNL A   1      34.412  22.870  25.615  1.00  0.00    -0.321 N 
ATOM      7  C   UNL A   1      34.131  24.293  25.879  1.00  0.00     0.121 C 
ATOM      8  C   UNL A   1      33.368  24.911  24.704  1.00  0.00     0.022 C 
ATOM      9  C   UNL A   1      34.508  23.232  23.202  1.00  0.00     0.026 C 
ATOM     10  C   UNL A   1      34.100  24.696  23.378  1.00  0.00     0.004 C 
BRANCH   6  11
ATOM     11  C   UNL A   1      33.497  21.994  26.199  1.00  0.00     0.320 C 
ATOM     12  O   UNL A   1      33.718  21.608  27.359  1.00  0.00    -0.248 OA
BRANCH  11  13
ATOM     13  N   UNL A   1      32.372  21.507  25.565  1.00  0.00    -0.325 N 
ATOM     14  C   UNL A   1      31.117  22.195  25.869  1.00  0.00     0.148 C 
BRANCH  13  15
ATOM     15  C   UNL A   1      32.187  20.333  24.707  1.00  0.00     0.155 C 
BRANCH  15  16
ATOM     16  C   UNL A   1      32.963  19.041  25.123  1.00  0.00     0.077 C 
ATOM     17  C   UNL A   1      32.391  17.763  24.507  1.00  0.00     0.043 C 
ATOM     18  C   UNL A   1      34.455  19.135  24.769  1.00  0.00     0.043 C 
BRANCH  16  19
ATOM     19  O   UNL A   1      32.908  18.909  26.556  1.00  0.00    -0.389 OA
ATOM     20  H   UNL A   1      31.984  18.813  26.837  1.00  0.00     0.211 HD
ENDBRANCH  16  19
ENDBRANCH  15  16
ENDBRANCH  13  15
ENDBRANCH  11  13
ENDBRANCH   6  11
ENDBRANCH   4   5
ENDBRANCH   2   4
ENDBRANCH   1   2
BRANCH   1  21
ATOM     21  C   UNL A   1      39.335  21.393  26.040  1.00  0.00     0.274 C 
BRANCH  21  22
ATOM     22  C   UNL A   1      39.676  19.892  26.081  1.00  0.00     0.275 C 
BRANCH  22  23
ATOM     23  O   UNL A   1      40.956  19.550  25.500  1.00  0.00    -0.458 OA
BRANCH  23  24
ATOM     24  C   UNL A   1      41.969  19.686  26.372  1.00  0.00     0.338 C 
ATOM     25  O   UNL A   1      42.441  18.788  27.052  1.00  0.00    -0.246 OA
BRANCH  24  26
ATOM     26  C   UNL A   1      42.582  21.000  26.498  1.00  0.00     0.060 A 
ATOM     27  C   UNL A   1      42.685  21.502  27.801  1.00  0.00     0.016 A 
ATOM     28  C   UNL A   1      42.756  21.827  25.388  1.00  0.00     0.016 A 
ATOM     29  C   UNL A   1      42.968  22.842  28.002  1.00  0.00     0.010 A 
ATOM     30  C   UNL A   1      43.071  23.173  25.594  1.00  0.00     0.010 A 
ATOM     31  C   UNL A   1      43.182  23.681  26.899  1.00  0.00    -0.014 A 
BRANCH  31  32
ATOM     32  C   UNL A   1      43.708  25.037  27.154  1.00  0.00     0.031 A 
ATOM     33  C   UNL A   1      42.865  26.124  27.740  1.00  0.00     0.074 A 
ATOM     34  C   UNL A   1      45.014  25.229  26.894  1.00  0.00     0.049 A 
ATOM     35  N   UNL A   1      43.212  27.349  28.040  1.00  0.00    -0.248 NA
ATOM     36  C   UNL A   1      41.460  25.805  28.031  1.00  0.00     0.031 C 
ATOM     37  C   UNL A   1      45.919  24.206  26.356  1.00  0.00     0.029 A 
ATOM     38  N   UNL A   1      45.813  26.324  27.067  1.00  0.00    -0.354 N 
ATOM     39  C   UNL A   1      42.070  27.957  28.546  1.00  0.00     0.074 A 
ATOM     40  C   UNL A   1      41.016  26.963  28.510  1.00  0.00     0.031 C 
ATOM     41  C   UNL A   1      47.156  24.714  26.276  1.00  0.00     0.029 A 
ATOM     42  C   UNL A   1      47.118  26.106  26.704  1.00  0.00     0.049 A 
ATOM     43  H   UNL A   1      45.483  27.184  27.417  1.00  0.00     0.167 HD
ATOM     44  C   UNL A   1      41.925  29.229  28.988  1.00  0.00     0.031 A 
ATOM     45  C   UNL A   1      48.171  26.941  26.696  1.00  0.00     0.031 A 
ATOM     46  C   UNL A   1      42.986  30.206  28.998  1.00  0.00     0.049 A 
ATOM     47  C   UNL A   1      47.969  28.350  27.154  1.00  0.00     0.074 A 
ATOM     48  C   UNL A   1      42.942  31.524  29.420  1.00  0.00     0.029 A 
ATOM     49  N   UNL A   1      44.283  29.971  28.564  1.00  0.00    -0.354 N 
ATOM     50  N   UNL A   1      46.876  28.914  27.609  1.00  0.00    -0.248 NA
ATOM     51  C   UNL A   1      49.135  29.236  27.088  1.00  0.00     0.031 C 
ATOM     52  C   UNL A   1      44.203  32.097  29.202  1.00  0.00     0.029 A 
ATOM     53  C   UNL A   1      45.042  31.124  28.683  1.00  0.00     0.049 A 
ATOM     54  H   UNL A   1      44.615  29.110  28.220  1.00  0.00     0.167 HD
ATOM     55  C   UNL A   1      47.216  30.232  27.872  1.00  0.00     0.074 A 
ATOM     56  C   UNL A   1      48.626  30.369  27.556  1.00  0.00     0.031 C 
ATOM     57  C   UNL A   1      46.433  31.241  28.325  1.00  0.00     0.031 A 
BRANCH  44  58
ATOM     58  C   UNL A   1      40.561  29.656  29.456  1.00  0.00    -0.014 A 
ATOM     59  C   UNL A   1      40.313  29.952  30.808  1.00  0.00     0.010 A 
ATOM     60  C   UNL A   1      39.524  29.821  28.518  1.00  0.00     0.010 A 
ATOM     61  C   UNL A   1      39.048  30.384  31.218  1.00  0.00     0.020 A 
ATOM     62  C   UNL A   1      38.261  30.267  28.921  1.00  0.00     0.020 A 
ATOM     63  C   UNL A   1      38.028  30.533  30.272  1.00  0.00     0.054 A 
BRANCH  63  64
ATOM     64  S   UNL A   1      36.400  31.121  30.820  1.00  0.00     0.124 S 
ATOM     65  O   UNL A   1      35.638  31.101  29.574  1.00  0.00    -0.237 OA
ATOM     66  O   UNL A   1      36.010  30.119  31.810  1.00  0.00    -0.237 OA
ATOM     67  O   UNL A   1      36.676  32.449  31.361  1.00  0.00    -0.744 OA
ENDBRANCH  63  64
ENDBRANCH  44  58
BRANCH  45  68
ATOM     68  C   UNL A   1      49.479  26.449  26.201  1.00  0.00    -0.014 A 
ATOM     69  C   UNL A   1      49.887  26.705  24.882  1.00  0.00     0.010 A 
ATOM     70  C   UNL A   1      50.363  25.803  27.084  1.00  0.00     0.010 A 
ATOM     71  C   UNL A   1      51.165  26.329  24.457  1.00  0.00     0.020 A 
ATOM     72  C   UNL A   1      51.647  25.447  26.670  1.00  0.00     0.020 A 
ATOM     73  C   UNL A   1      52.038  25.709  25.356  1.00  0.00     0.054 A 
BRANCH  73  74
ATOM     74  S   UNL A   1      53.730  25.323  24.826  1.00  0.00     0.124 S 
ATOM     75  O   UNL A   1      53.775  25.924  23.498  1.00  0.00    -0.237 OA
ATOM     76  O   UNL A   1      54.547  25.976  25.846  1.00  0.00    -0.237 OA
ATOM     77  O   UNL A   1      53.765  23.861  24.857  1.00  0.00    -0.744 OA
ENDBRANCH  73  74
ENDBRANCH  45  68
BRANCH  57  78
ATOM     78  C   UNL A   1      47.100  32.576  28.475  1.00  0.00    -0.014 A 
ATOM     79  C   UNL A   1      47.732  32.926  29.681  1.00  0.00     0.010 A 
ATOM     80  C   UNL A   1      47.072  33.497  27.414  1.00  0.00     0.010 A 
ATOM     81  C   UNL A   1      48.284  34.198  29.843  1.00  0.00     0.020 A 
ATOM     82  C   UNL A   1      47.641  34.763  27.566  1.00  0.00     0.020 A 
ATOM     83  C   UNL A   1      48.223  35.113  28.788  1.00  0.00     0.054 A 
BRANCH  83  84
ATOM     84  S   UNL A   1      48.935  36.765  29.015  1.00  0.00     0.124 S 
ATOM     85  O   UNL A   1      50.202  36.459  29.671  1.00  0.00    -0.237 OA
ATOM     86  O   UNL A   1      49.040  37.268  27.647  1.00  0.00    -0.237 OA
ATOM     87  O   UNL A   1      47.949  37.450  29.848  1.00  0.00    -0.744 OA
ENDBRANCH  83  84
ENDBRANCH  57  78
ENDBRANCH  31  32
ENDBRANCH  24  26
ENDBRANCH  23  24
ENDBRANCH  22  23
ENDBRANCH  21  22
ENDBRANCH   1  21
TORSDOF 20
ENDMDL
MODEL 3
REMARK VINA RESULT:      -9.8      4.072      9.877
REMARK SMILES CN(CC(C)(C)O)C(=O)N1CCCC[C@H]1CC(=O)OCCOC(=O)c1ccc(-c2c3nc(c(-c4ccc(S(=O)(=O)[O-])cc4)c4ccc([nH]4)c(-c4ccc(S(=O)(=O)[O-])cc4)c4nc(c(-c5ccc(S(=O)(=O)[O-])cc5)c5ccc2[nH]5)C=C4)C=C3)cc1
REMARK SMILES IDX 19 1 17 2 18 3 16 4 15 5 10 6 11 7 12 8 14 9 13 10 8 11 9 12
REMARK SMILES IDX 2 13 1 14 3 15 4 16 5 17 6 18 7 19 20 21 21 22 22 23 23 24
REMARK SMILES IDX 24 25 25 26 26 27 84 28 27 29 83 30 28 31 29 32 30 33 77 34
REMARK SMILES IDX 31 35 82 36 76 37 78 38 32 39 81 40 75 41 74 42 33 44 63 45
REMARK SMILES IDX 44 46 62 47 45 48 48 49 61 50 79 51 46 52 47 53 60 55 80 56
REMARK SMILES IDX 49 57 34 58 35 59 43 60 36 61 42 62 37 63 38 64 39 65 40 66
REMARK SMILES IDX 41 67 64 68 65 69 73 70 66 71 72 72 67 73 68 74 69 75 70 76
REMARK SMILES IDX 71 77 50 78 51 79 59 80 52 81 58 82 53 83 54 84 55 85 56 86
REMARK SMILES IDX 57 87
REMARK H PARENT 7 20 78 43 48 54
REMARK Flexibility Score: inf
ROOT
ATOM      1  O   UNL A   1      33.980  32.245  27.865  1.00  0.00    -0.462 OA
ENDROOT
BRANCH   1   2
ATOM      2  C   UNL A   1      34.859  31.245  27.618  1.00  0.00     0.308 C 
ATOM      3  O   UNL A   1      36.080  31.379  27.666  1.00  0.00    -0.252 OA
BRANCH   2   4
ATOM      4  C   UNL A   1      34.242  29.945  27.164  1.00  0.00     0.147 C 
BRANCH   4   5
ATOM      5  C   UNL A   1      32.932  29.954  26.339  1.00  0.00     0.098 C 
ATOM      6  N   UNL A   1      32.871  28.980  25.216  1.00  0.00    -0.321 N 
ATOM      7  C   UNL A   1      33.048  27.590  25.675  1.00  0.00     0.121 C 
ATOM      8  C   UNL A   1      31.913  27.195  26.622  1.00  0.00     0.022 C 
ATOM      9  C   UNL A   1      31.741  29.626  27.282  1.00  0.00     0.026 C 
ATOM     10  C   UNL A   1      31.774  28.180  27.783  1.00  0.00     0.004 C 
BRANCH   6  11
ATOM     11  C   UNL A   1      32.258  29.092  23.968  1.00  0.00     0.320 C 
ATOM     12  O   UNL A   1      32.979  29.325  22.984  1.00  0.00    -0.248 OA
BRANCH  11  13
ATOM     13  N   UNL A   1      30.899  28.982  23.755  1.00  0.00    -0.325 N 
ATOM     14  C   UNL A   1      30.414  27.653  23.382  1.00  0.00     0.148 C 
BRANCH  13  15
ATOM     15  C   UNL A   1      29.847  30.002  23.731  1.00  0.00     0.155 C 
BRANCH  15  16
ATOM     16  C   UNL A   1      29.361  30.464  22.319  1.00  0.00     0.077 C 
ATOM     17  C   UNL A   1      28.111  29.729  21.835  1.00  0.00     0.043 C 
ATOM     18  C   UNL A   1      29.092  31.977  22.278  1.00  0.00     0.043 C 
BRANCH  16  19
ATOM     19  O   UNL A   1      30.415  30.228  21.366  1.00  0.00    -0.389 OA
ATOM     20  H   UNL A   1      30.064  30.317  20.467  1.00  0.00     0.211 HD
ENDBRANCH  16  19
ENDBRANCH  15  16
ENDBRANCH  13  15
ENDBRANCH  11  13
ENDBRANCH   6  11
ENDBRANCH   4   5
ENDBRANCH   2   4
ENDBRANCH   1   2
BRANCH   1  21
ATOM     21  C   UNL A   1      34.541  33.578  27.868  1.00  0.00     0.274 C 
BRANCH  21  22
ATOM     22  C   UNL A   1      33.607  34.657  28.446  1.00  0.00     0.275 C 
BRANCH  22  23
ATOM     23  O   UNL A   1      32.891  34.258  29.638  1.00  0.00    -0.458 OA
BRANCH  23  24
ATOM     24  C   UNL A   1      33.396  34.817  30.752  1.00  0.00     0.338 C 
ATOM     25  O   UNL A   1      32.961  35.819  31.299  1.00  0.00    -0.246 OA
BRANCH  24  26
ATOM     26  C   UNL A   1      34.531  34.161  31.384  1.00  0.00     0.060 A 
ATOM     27  C   UNL A   1      35.740  34.867  31.349  1.00  0.00     0.016 A 
ATOM     28  C   UNL A   1      34.495  32.805  31.708  1.00  0.00     0.016 A 
ATOM     29  C   UNL A   1      36.926  34.217  31.645  1.00  0.00     0.010 A 
ATOM     30  C   UNL A   1      35.690  32.158  32.036  1.00  0.00     0.010 A 
ATOM     31  C   UNL A   1      36.905  32.863  32.009  1.00  0.00    -0.014 A 
BRANCH  31  32
ATOM     32  C   UNL A   1      38.149  32.271  32.540  1.00  0.00     0.031 A 
ATOM     33  C   UNL A   1      39.049  31.418  31.704  1.00  0.00     0.074 A 
ATOM     34  C   UNL A   1      38.472  32.596  33.805  1.00  0.00     0.049 A 
ATOM     35  N   UNL A   1      40.184  30.862  32.040  1.00  0.00    -0.248 NA
ATOM     36  C   UNL A   1      38.632  31.155  30.319  1.00  0.00     0.031 C 
ATOM     37  C   UNL A   1      37.666  33.457  34.679  1.00  0.00     0.029 A 
ATOM     38  N   UNL A   1      39.560  32.272  34.566  1.00  0.00    -0.354 N 
ATOM     39  C   UNL A   1      40.619  30.172  30.915  1.00  0.00     0.074 A 
ATOM     40  C   UNL A   1      39.620  30.378  29.885  1.00  0.00     0.031 C 
ATOM     41  C   UNL A   1      38.306  33.620  35.844  1.00  0.00     0.029 A 
ATOM     42  C   UNL A   1      39.533  32.835  35.817  1.00  0.00     0.049 A 
ATOM     43  H   UNL A   1      40.290  31.692  34.247  1.00  0.00     0.167 HD
ATOM     44  C   UNL A   1      41.743  29.430  30.771  1.00  0.00     0.031 A 
ATOM     45  C   UNL A   1      40.393  32.718  36.843  1.00  0.00     0.031 A 
ATOM     46  C   UNL A   1      42.715  29.225  31.818  1.00  0.00     0.049 A 
ATOM     47  C   UNL A   1      41.606  31.861  36.665  1.00  0.00     0.074 A 
ATOM     48  C   UNL A   1      43.885  28.487  31.777  1.00  0.00     0.029 A 
ATOM     49  N   UNL A   1      42.626  29.758  33.096  1.00  0.00    -0.354 N 
ATOM     50  N   UNL A   1      41.990  31.198  35.601  1.00  0.00    -0.248 NA
ATOM     51  C   UNL A   1      42.493  31.728  37.824  1.00  0.00     0.031 C 
ATOM     52  C   UNL A   1      44.483  28.542  33.043  1.00  0.00     0.029 A 
ATOM     53  C   UNL A   1      43.706  29.347  33.860  1.00  0.00     0.049 A 
ATOM     54  H   UNL A   1      41.900  30.344  33.413  1.00  0.00     0.167 HD
ATOM     55  C   UNL A   1      43.161  30.552  35.965  1.00  0.00     0.074 A 
ATOM     56  C   UNL A   1      43.438  30.935  37.338  1.00  0.00     0.031 C 
ATOM     57  C   UNL A   1      43.934  29.712  35.235  1.00  0.00     0.031 A 
BRANCH  44  58
ATOM     58  C   UNL A   1      41.967  28.747  29.450  1.00  0.00    -0.014 A 
ATOM     59  C   UNL A   1      41.345  27.523  29.148  1.00  0.00     0.010 A 
ATOM     60  C   UNL A   1      42.766  29.368  28.472  1.00  0.00     0.010 A 
ATOM     61  C   UNL A   1      41.535  26.920  27.900  1.00  0.00     0.020 A 
ATOM     62  C   UNL A   1      42.947  28.778  27.217  1.00  0.00     0.020 A 
ATOM     63  C   UNL A   1      42.340  27.550  26.944  1.00  0.00     0.054 A 
BRANCH  63  64
ATOM     64  S   UNL A   1      42.553  26.766  25.321  1.00  0.00     0.124 S 
ATOM     65  O   UNL A   1      43.769  25.982  25.523  1.00  0.00    -0.237 OA
ATOM     66  O   UNL A   1      41.324  25.989  25.172  1.00  0.00    -0.237 OA
ATOM     67  O   UNL A   1      42.684  27.896  24.406  1.00  0.00    -0.744 OA
ENDBRANCH  63  64
ENDBRANCH  44  58
BRANCH  45  68
ATOM     68  C   UNL A   1      40.091  33.407  38.121  1.00  0.00    -0.014 A 
ATOM     69  C   UNL A   1      40.626  34.676  38.393  1.00  0.00     0.010 A 
ATOM     70  C   UNL A   1      39.184  32.830  39.029  1.00  0.00     0.010 A 
ATOM     71  C   UNL A   1      40.251  35.362  39.552  1.00  0.00     0.020 A 
ATOM     72  C   UNL A   1      38.790  33.522  40.174  1.00  0.00     0.020 A 
ATOM     73  C   UNL A   1      39.330  34.783  40.431  1.00  0.00     0.054 A 
BRANCH  73  74
ATOM     74  S   UNL A   1      38.769  35.727  41.876  1.00  0.00     0.124 S 
ATOM     75  O   UNL A   1      39.724  35.311  42.897  1.00  0.00    -0.237 OA
ATOM     76  O   UNL A   1      38.887  37.111  41.425  1.00  0.00    -0.237 OA
ATOM     77  O   UNL A   1      37.397  35.260  42.069  1.00  0.00    -0.744 OA
ENDBRANCH  73  74
ENDBRANCH  45  68
BRANCH  57  78
ATOM     78  C   UNL A   1      45.133  29.144  35.935  1.00  0.00    -0.014 A 
ATOM     79  C   UNL A   1      46.370  29.811  35.885  1.00  0.00     0.010 A 
ATOM     80  C   UNL A   1      45.031  27.924  36.625  1.00  0.00     0.010 A 
ATOM     81  C   UNL A   1      47.501  29.241  36.473  1.00  0.00     0.020 A 
ATOM     82  C   UNL A   1      46.156  27.361  37.231  1.00  0.00     0.020 A 
ATOM     83  C   UNL A   1      47.388  28.012  37.131  1.00  0.00     0.054 A 
BRANCH  83  84
ATOM     84  S   UNL A   1      48.867  27.278  37.881  1.00  0.00     0.124 S 
ATOM     85  O   UNL A   1      48.760  25.885  37.458  1.00  0.00    -0.237 OA
ATOM     86  O   UNL A   1      49.956  28.039  37.272  1.00  0.00    -0.237 OA
ATOM     87  O   UNL A   1      48.676  27.513  39.311  1.00  0.00    -0.744 OA
ENDBRANCH  83  84
ENDBRANCH  57  78
ENDBRANCH  31  32
ENDBRANCH  24  26
ENDBRANCH  23  24
ENDBRANCH  22  23
ENDBRANCH  21  22
ENDBRANCH   1  21
TORSDOF 20
ENDMDL
