MODEL 1
REMARK VINA RESULT:     -12.2      0.000      0.000
REMARK SMILES Cc1cc2cc(-c3ccc([C@@H](C)C(=O)OCCOC(=O)c4ccc(-c5c6nc(c(-c7ccc(S(=O)(=O)[O-])cc7)c7ccc([nH]7)c(-c7ccc(S(=O)(=O)[O-])cc7)c7nc(c(-c8ccc(S(=O)(=O)[O-])cc8)c8ccc5[nH]8)C=C7)C=C6)cc4)cc3)ccc2[nH]1
REMARK SMILES IDX 17 1 16 2 15 3 13 4 14 5 11 6 12 7 10 8 7 9 8 10 82 11 9 12
REMARK SMILES IDX 81 13 6 14 1 15 2 16 3 17 86 18 4 19 85 20 5 22 84 23 83 24
REMARK SMILES IDX 18 25 19 26 20 27 21 28 22 29 80 30 23 31 79 32 24 33 25 34
REMARK SMILES IDX 26 35 73 36 27 37 78 38 72 39 74 40 28 41 77 42 71 43 70 44
REMARK SMILES IDX 29 46 59 47 40 48 58 49 41 50 44 51 57 52 75 53 42 54 43 55
REMARK SMILES IDX 56 57 76 58 45 59 30 60 31 61 39 62 32 63 38 64 33 65 34 66
REMARK SMILES IDX 35 67 36 68 37 69 60 70 61 71 69 72 62 73 68 74 63 75 64 76
REMARK SMILES IDX 65 77 66 78 67 79 46 80 47 81 55 82 48 83 54 84 49 85 50 86
REMARK SMILES IDX 51 87 52 88 53 89
REMARK H PARENT 86 21 74 45 44 56
REMARK Flexibility Score: inf
ROOT
ATOM      1  C   UNL A   1      39.765  22.854  26.554  1.00  0.00     0.275 C 
ENDROOT
BRANCH   1   2
ATOM      2  C   UNL A   1      38.576  22.038  26.045  1.00  0.00     0.274 C 
BRANCH   2   3
ATOM      3  O   UNL A   1      37.527  22.894  25.554  1.00  0.00    -0.462 OA
BRANCH   3   4
ATOM      4  C   UNL A   1      36.301  22.330  25.394  1.00  0.00     0.313 C 
ATOM      5  O   UNL A   1      35.824  21.494  26.154  1.00  0.00    -0.252 OA
BRANCH   4   6
ATOM      6  C   UNL A   1      35.578  22.783  24.130  1.00  0.00     0.126 C 
ATOM      7  C   UNL A   1      36.578  22.908  22.981  1.00  0.00     0.025 C 
BRANCH   6   8
ATOM      8  C   UNL A   1      34.703  24.020  24.270  1.00  0.00    -0.034 A 
ATOM      9  C   UNL A   1      33.121  26.371  24.461  1.00  0.00    -0.018 A 
ATOM     10  C   UNL A   1      33.941  25.957  25.521  1.00  0.00     0.009 A 
ATOM     11  C   UNL A   1      33.079  25.570  23.313  1.00  0.00     0.009 A 
ATOM     12  C   UNL A   1      34.724  24.805  25.428  1.00  0.00     0.005 A 
ATOM     13  C   UNL A   1      33.862  24.414  23.217  1.00  0.00     0.005 A 
BRANCH   9  14
ATOM     14  C   UNL A   1      32.374  27.635  24.550  1.00  0.00    -0.018 A 
ATOM     15  C   UNL A   1      28.100  31.787  23.138  1.00  0.00     0.064 C 
ATOM     16  C   UNL A   1      29.145  30.812  23.531  1.00  0.00     0.013 A 
ATOM     17  C   UNL A   1      29.382  29.527  23.093  1.00  0.00     0.031 A 
ATOM     18  N   UNL A   1      30.098  31.104  24.478  1.00  0.00    -0.359 N 
ATOM     19  C   UNL A   1      30.524  29.036  23.779  1.00  0.00     0.000 A 
ATOM     20  C   UNL A   1      30.956  30.039  24.641  1.00  0.00     0.046 A 
ATOM     21  H   UNL A   1      30.159  31.955  24.969  1.00  0.00     0.166 HD
ATOM     22  C   UNL A   1      31.236  27.824  23.741  1.00  0.00     0.019 A 
ATOM     23  C   UNL A   1      32.068  29.885  25.475  1.00  0.00     0.027 A 
ATOM     24  C   UNL A   1      32.766  28.669  25.411  1.00  0.00     0.011 A 
ENDBRANCH   9  14
ENDBRANCH   6   8
ENDBRANCH   4   6
ENDBRANCH   3   4
ENDBRANCH   2   3
ENDBRANCH   1   2
BRANCH   1  25
ATOM     25  O   UNL A   1      39.409  24.238  26.720  1.00  0.00    -0.458 OA
BRANCH  25  26
ATOM     26  C   UNL A   1      40.423  25.115  26.535  1.00  0.00     0.338 C 
ATOM     27  O   UNL A   1      41.115  25.249  25.542  1.00  0.00    -0.246 OA
BRANCH  26  28
ATOM     28  C   UNL A   1      40.523  26.001  27.702  1.00  0.00     0.060 A 
ATOM     29  C   UNL A   1      39.555  25.885  28.701  1.00  0.00     0.016 A 
ATOM     30  C   UNL A   1      41.493  27.002  27.765  1.00  0.00     0.016 A 
ATOM     31  C   UNL A   1      39.533  26.787  29.760  1.00  0.00     0.010 A 
ATOM     32  C   UNL A   1      41.478  27.902  28.835  1.00  0.00     0.010 A 
ATOM     33  C   UNL A   1      40.484  27.813  29.826  1.00  0.00    -0.014 A 
BRANCH  33  34
ATOM     34  C   UNL A   1      40.389  28.829  30.901  1.00  0.00     0.031 A 
ATOM     35  C   UNL A   1      41.328  28.764  32.073  1.00  0.00     0.074 A 
ATOM     36  C   UNL A   1      39.490  29.825  30.808  1.00  0.00     0.049 A 
ATOM     37  N   UNL A   1      41.382  29.531  33.131  1.00  0.00    -0.248 NA
ATOM     38  C   UNL A   1      42.339  27.693  32.052  1.00  0.00     0.031 C 
ATOM     39  C   UNL A   1      38.555  30.019  29.698  1.00  0.00     0.029 A 
ATOM     40  N   UNL A   1      39.220  30.864  31.661  1.00  0.00    -0.354 N 
ATOM     41  C   UNL A   1      42.416  29.028  33.911  1.00  0.00     0.074 A 
ATOM     42  C   UNL A   1      42.953  27.879  33.212  1.00  0.00     0.031 C 
ATOM     43  C   UNL A   1      37.817  31.117  29.936  1.00  0.00     0.029 A 
ATOM     44  C   UNL A   1      38.201  31.680  31.227  1.00  0.00     0.049 A 
ATOM     45  H   UNL A   1      39.708  31.013  32.503  1.00  0.00     0.167 HD
ATOM     46  C   UNL A   1      42.877  29.480  35.102  1.00  0.00     0.031 A 
ATOM     47  C   UNL A   1      37.630  32.750  31.814  1.00  0.00     0.031 A 
ATOM     48  C   UNL A   1      42.343  30.622  35.796  1.00  0.00     0.049 A 
ATOM     49  C   UNL A   1      38.135  33.211  33.153  1.00  0.00     0.074 A 
ATOM     50  C   UNL A   1      42.739  31.157  37.009  1.00  0.00     0.029 A 
ATOM     51  N   UNL A   1      41.297  31.409  35.334  1.00  0.00    -0.354 N 
ATOM     52  N   UNL A   1      39.106  32.716  33.883  1.00  0.00    -0.248 NA
ATOM     53  C   UNL A   1      37.469  34.380  33.745  1.00  0.00     0.031 C 
ATOM     54  C   UNL A   1      41.909  32.247  37.298  1.00  0.00     0.029 A 
ATOM     55  C   UNL A   1      41.027  32.417  36.244  1.00  0.00     0.049 A 
ATOM     56  H   UNL A   1      40.818  31.270  34.486  1.00  0.00     0.167 HD
ATOM     57  C   UNL A   1      39.179  33.523  35.012  1.00  0.00     0.074 A 
ATOM     58  C   UNL A   1      38.165  34.548  34.862  1.00  0.00     0.031 C 
ATOM     59  C   UNL A   1      40.012  33.426  36.078  1.00  0.00     0.031 A 
BRANCH  46  60
ATOM     60  C   UNL A   1      43.995  28.707  35.746  1.00  0.00    -0.014 A 
ATOM     61  C   UNL A   1      43.733  27.621  36.599  1.00  0.00     0.010 A 
ATOM     62  C   UNL A   1      45.329  29.065  35.481  1.00  0.00     0.010 A 
ATOM     63  C   UNL A   1      44.786  26.930  37.206  1.00  0.00     0.020 A 
ATOM     64  C   UNL A   1      46.385  28.364  36.070  1.00  0.00     0.020 A 
ATOM     65  C   UNL A   1      46.105  27.312  36.944  1.00  0.00     0.054 A 
BRANCH  65  66
ATOM     66  S   UNL A   1      47.456  26.399  37.739  1.00  0.00     0.124 S 
ATOM     67  O   UNL A   1      46.955  26.249  39.104  1.00  0.00    -0.237 OA
ATOM     68  O   UNL A   1      47.521  25.167  36.957  1.00  0.00    -0.237 OA
ATOM     69  O   UNL A   1      48.608  27.286  37.592  1.00  0.00    -0.744 OA
ENDBRANCH  65  66
ENDBRANCH  46  60
BRANCH  47  70
ATOM     70  C   UNL A   1      36.502  33.447  31.141  1.00  0.00    -0.014 A 
ATOM     71  C   UNL A   1      35.330  33.761  31.848  1.00  0.00     0.010 A 
ATOM     72  C   UNL A   1      36.606  33.815  29.787  1.00  0.00     0.010 A 
ATOM     73  C   UNL A   1      34.275  34.422  31.211  1.00  0.00     0.020 A 
ATOM     74  C   UNL A   1      35.565  34.496  29.154  1.00  0.00     0.020 A 
ATOM     75  C   UNL A   1      34.400  34.786  29.867  1.00  0.00     0.054 A 
BRANCH  75  76
ATOM     76  S   UNL A   1      33.047  35.697  29.072  1.00  0.00     0.124 S 
ATOM     77  O   UNL A   1      32.469  34.681  28.199  1.00  0.00    -0.237 OA
ATOM     78  O   UNL A   1      32.221  36.099  30.208  1.00  0.00    -0.237 OA
ATOM     79  O   UNL A   1      33.732  36.795  28.391  1.00  0.00    -0.744 OA
ENDBRANCH  75  76
ENDBRANCH  47  70
BRANCH  59  80
ATOM     80  C   UNL A   1      39.879  34.472  37.150  1.00  0.00    -0.014 A 
ATOM     81  C   UNL A   1      40.577  35.690  37.067  1.00  0.00     0.010 A 
ATOM     82  C   UNL A   1      39.018  34.246  38.238  1.00  0.00     0.010 A 
ATOM     83  C   UNL A   1      40.443  36.650  38.073  1.00  0.00     0.020 A 
ATOM     84  C   UNL A   1      38.864  35.212  39.235  1.00  0.00     0.020 A 
ATOM     85  C   UNL A   1      39.591  36.402  39.155  1.00  0.00     0.054 A 
BRANCH  85  86
ATOM     86  S   UNL A   1      39.405  37.673  40.436  1.00  0.00     0.124 S 
ATOM     87  O   UNL A   1      39.246  36.865  41.643  1.00  0.00    -0.237 OA
ATOM     88  O   UNL A   1      40.658  38.418  40.340  1.00  0.00    -0.237 OA
ATOM     89  O   UNL A   1      38.216  38.413  40.018  1.00  0.00    -0.744 OA
ENDBRANCH  85  86
ENDBRANCH  59  80
ENDBRANCH  33  34
ENDBRANCH  26  28
ENDBRANCH  25  26
ENDBRANCH   1  25
TORSDOF 16
ENDMDL
MODEL 2
REMARK VINA RESULT:     -12.2      5.004     10.912
REMARK SMILES Cc1cc2cc(-c3ccc([C@@H](C)C(=O)OCCOC(=O)c4ccc(-c5c6nc(c(-c7ccc(S(=O)(=O)[O-])cc7)c7ccc([nH]7)c(-c7ccc(S(=O)(=O)[O-])cc7)c7nc(c(-c8ccc(S(=O)(=O)[O-])cc8)c8ccc5[nH]8)C=C7)C=C6)cc4)cc3)ccc2[nH]1
REMARK SMILES IDX 17 1 16 2 15 3 13 4 14 5 11 6 12 7 10 8 7 9 8 10 82 11 9 12
REMARK SMILES IDX 81 13 6 14 1 15 2 16 3 17 86 18 4 19 85 20 5 22 84 23 83 24
REMARK SMILES IDX 18 25 19 26 20 27 21 28 22 29 80 30 23 31 79 32 24 33 25 34
REMARK SMILES IDX 26 35 73 36 27 37 78 38 72 39 74 40 28 41 77 42 71 43 70 44
REMARK SMILES IDX 29 46 59 47 40 48 58 49 41 50 44 51 57 52 75 53 42 54 43 55
REMARK SMILES IDX 56 57 76 58 45 59 30 60 31 61 39 62 32 63 38 64 33 65 34 66
REMARK SMILES IDX 35 67 36 68 37 69 60 70 61 71 69 72 62 73 68 74 63 75 64 76
REMARK SMILES IDX 65 77 66 78 67 79 46 80 47 81 55 82 48 83 54 84 49 85 50 86
REMARK SMILES IDX 51 87 52 88 53 89
REMARK H PARENT 86 21 74 45 44 56
REMARK Flexibility Score: inf
ROOT
ATOM      1  C   UNL A   1      32.452  29.925  27.188  1.00  0.00     0.275 C 
ENDROOT
BRANCH   1   2
ATOM      2  C   UNL A   1      32.554  30.130  25.676  1.00  0.00     0.274 C 
BRANCH   2   3
ATOM      3  O   UNL A   1      31.556  29.362  24.977  1.00  0.00    -0.462 OA
BRANCH   3   4
ATOM      4  C   UNL A   1      31.949  28.746  23.831  1.00  0.00     0.313 C 
ATOM      5  O   UNL A   1      31.216  28.558  22.866  1.00  0.00    -0.252 OA
BRANCH   4   6
ATOM      6  C   UNL A   1      33.386  28.240  23.868  1.00  0.00     0.126 C 
ATOM      7  C   UNL A   1      34.155  28.782  22.664  1.00  0.00     0.025 C 
BRANCH   6   8
ATOM      8  C   UNL A   1      33.559  26.738  24.033  1.00  0.00    -0.034 A 
ATOM      9  C   UNL A   1      33.974  23.947  24.365  1.00  0.00    -0.018 A 
ATOM     10  C   UNL A   1      33.669  24.494  23.110  1.00  0.00     0.009 A 
ATOM     11  C   UNL A   1      34.037  24.817  25.461  1.00  0.00     0.009 A 
ATOM     12  C   UNL A   1      33.470  25.865  22.942  1.00  0.00     0.005 A 
ATOM     13  C   UNL A   1      33.837  26.192  25.297  1.00  0.00     0.005 A 
BRANCH   9  14
ATOM     14  C   UNL A   1      34.266  22.512  24.499  1.00  0.00    -0.018 A 
ATOM     15  C   UNL A   1      33.175  16.487  24.383  1.00  0.00     0.064 C 
ATOM     16  C   UNL A   1      33.498  17.933  24.413  1.00  0.00     0.013 A 
ATOM     17  C   UNL A   1      32.740  19.029  24.059  1.00  0.00     0.031 A 
ATOM     18  N   UNL A   1      34.718  18.401  24.840  1.00  0.00    -0.359 N 
ATOM     19  C   UNL A   1      33.517  20.192  24.299  1.00  0.00     0.000 A 
ATOM     20  C   UNL A   1      34.752  19.777  24.787  1.00  0.00     0.046 A 
ATOM     21  H   UNL A   1      35.464  17.833  25.141  1.00  0.00     0.166 HD
ATOM     22  C   UNL A   1      33.278  21.570  24.148  1.00  0.00     0.019 A 
ATOM     23  C   UNL A   1      35.767  20.677  25.128  1.00  0.00     0.027 A 
ATOM     24  C   UNL A   1      35.499  22.046  24.976  1.00  0.00     0.011 A 
ENDBRANCH   9  14
ENDBRANCH   6   8
ENDBRANCH   4   6
ENDBRANCH   3   4
ENDBRANCH   2   3
ENDBRANCH   1   2
BRANCH   1  25
ATOM     25  O   UNL A   1      33.710  29.496  27.738  1.00  0.00    -0.458 OA
BRANCH  25  26
ATOM     26  C   UNL A   1      34.549  30.497  28.093  1.00  0.00     0.338 C 
ATOM     27  O   UNL A   1      34.259  31.651  28.349  1.00  0.00    -0.246 OA
BRANCH  26  28
ATOM     28  C   UNL A   1      35.911  29.965  28.242  1.00  0.00     0.060 A 
ATOM     29  C   UNL A   1      36.295  29.481  29.493  1.00  0.00     0.016 A 
ATOM     30  C   UNL A   1      36.829  30.036  27.193  1.00  0.00     0.016 A 
ATOM     31  C   UNL A   1      37.611  29.088  29.715  1.00  0.00     0.010 A 
ATOM     32  C   UNL A   1      38.149  29.630  27.414  1.00  0.00     0.010 A 
ATOM     33  C   UNL A   1      38.553  29.176  28.682  1.00  0.00    -0.014 A 
BRANCH  33  34
ATOM     34  C   UNL A   1      39.972  28.853  28.958  1.00  0.00     0.031 A 
ATOM     35  C   UNL A   1      40.860  29.883  29.600  1.00  0.00     0.074 A 
ATOM     36  C   UNL A   1      40.454  27.630  28.668  1.00  0.00     0.049 A 
ATOM     37  N   UNL A   1      42.133  29.810  29.888  1.00  0.00    -0.248 NA
ATOM     38  C   UNL A   1      40.230  31.163  29.964  1.00  0.00     0.031 C 
ATOM     39  C   UNL A   1      39.679  26.534  28.084  1.00  0.00     0.029 A 
ATOM     40  N   UNL A   1      41.709  27.105  28.830  1.00  0.00    -0.354 N 
ATOM     41  C   UNL A   1      42.465  31.038  30.449  1.00  0.00     0.074 A 
ATOM     42  C   UNL A   1      41.261  31.843  30.446  1.00  0.00     0.031 C 
ATOM     43  C   UNL A   1      40.477  25.462  27.943  1.00  0.00     0.029 A 
ATOM     44  C   UNL A   1      41.824  25.808  28.391  1.00  0.00     0.049 A 
ATOM     45  H   UNL A   1      42.459  27.609  29.223  1.00  0.00     0.167 HD
ATOM     46  C   UNL A   1      43.662  31.458  30.922  1.00  0.00     0.031 A 
ATOM     47  C   UNL A   1      42.897  24.995  28.339  1.00  0.00     0.031 A 
ATOM     48  C   UNL A   1      44.858  30.658  30.924  1.00  0.00     0.049 A 
ATOM     49  C   UNL A   1      44.224  25.496  28.837  1.00  0.00     0.074 A 
ATOM     50  C   UNL A   1      46.120  30.995  31.378  1.00  0.00     0.029 A 
ATOM     51  N   UNL A   1      44.938  29.356  30.451  1.00  0.00    -0.354 N 
ATOM     52  N   UNL A   1      44.523  26.665  29.353  1.00  0.00    -0.248 NA
ATOM     53  C   UNL A   1      45.359  24.566  28.750  1.00  0.00     0.031 C 
ATOM     54  C   UNL A   1      46.973  29.908  31.148  1.00  0.00     0.029 A 
ATOM     55  C   UNL A   1      46.230  28.880  30.591  1.00  0.00     0.049 A 
ATOM     56  H   UNL A   1      44.186  28.846  30.071  1.00  0.00     0.167 HD
ATOM     57  C   UNL A   1      45.875  26.604  29.669  1.00  0.00     0.074 A 
ATOM     58  C   UNL A   1      46.333  25.280  29.299  1.00  0.00     0.031 C 
ATOM     59  C   UNL A   1      46.667  27.559  30.215  1.00  0.00     0.031 A 
BRANCH  46  60
ATOM     60  C   UNL A   1      43.741  32.867  31.443  1.00  0.00    -0.014 A 
ATOM     61  C   UNL A   1      44.170  33.925  30.621  1.00  0.00     0.010 A 
ATOM     62  C   UNL A   1      43.365  33.139  32.770  1.00  0.00     0.010 A 
ATOM     63  C   UNL A   1      44.258  35.223  31.132  1.00  0.00     0.020 A 
ATOM     64  C   UNL A   1      43.433  34.439  33.278  1.00  0.00     0.020 A 
ATOM     65  C   UNL A   1      43.897  35.470  32.459  1.00  0.00     0.054 A 
BRANCH  65  66
ATOM     66  S   UNL A   1      44.015  37.164  33.099  1.00  0.00     0.124 S 
ATOM     67  O   UNL A   1      43.775  37.957  31.895  1.00  0.00    -0.237 OA
ATOM     68  O   UNL A   1      42.952  37.209  34.100  1.00  0.00    -0.237 OA
ATOM     69  O   UNL A   1      45.373  37.238  33.633  1.00  0.00    -0.744 OA
ENDBRANCH  65  66
ENDBRANCH  46  60
BRANCH  47  70
ATOM     70  C   UNL A   1      42.760  23.625  27.777  1.00  0.00    -0.014 A 
ATOM     71  C   UNL A   1      42.312  22.563  28.579  1.00  0.00     0.010 A 
ATOM     72  C   UNL A   1      43.062  23.384  26.424  1.00  0.00     0.010 A 
ATOM     73  C   UNL A   1      42.180  21.278  28.042  1.00  0.00     0.020 A 
ATOM     74  C   UNL A   1      42.909  22.107  25.878  1.00  0.00     0.020 A 
ATOM     75  C   UNL A   1      42.479  21.059  26.694  1.00  0.00     0.054 A 
BRANCH  75  76
ATOM     76  S   UNL A   1      42.244  19.400  25.998  1.00  0.00     0.124 S 
ATOM     77  O   UNL A   1      40.801  19.364  25.781  1.00  0.00    -0.237 OA
ATOM     78  O   UNL A   1      43.065  19.440  24.790  1.00  0.00    -0.237 OA
ATOM     79  O   UNL A   1      42.743  18.517  27.051  1.00  0.00    -0.744 OA
ENDBRANCH  75  76
ENDBRANCH  47  70
BRANCH  59  80
ATOM     80  C   UNL A   1      48.102  27.194  30.474  1.00  0.00    -0.014 A 
ATOM     81  C   UNL A   1      49.114  27.525  29.555  1.00  0.00     0.010 A 
ATOM     82  C   UNL A   1      48.448  26.541  31.671  1.00  0.00     0.010 A 
ATOM     83  C   UNL A   1      50.442  27.177  29.811  1.00  0.00     0.020 A 
ATOM     84  C   UNL A   1      49.778  26.211  31.942  1.00  0.00     0.020 A 
ATOM     85  C   UNL A   1      50.765  26.517  31.002  1.00  0.00     0.054 A 
BRANCH  85  86
ATOM     86  S   UNL A   1      52.500  26.100  31.333  1.00  0.00     0.124 S 
ATOM     87  O   UNL A   1      52.383  24.774  31.935  1.00  0.00    -0.237 OA
ATOM     88  O   UNL A   1      53.102  26.133  30.003  1.00  0.00    -0.237 OA
ATOM     89  O   UNL A   1      52.943  27.160  32.236  1.00  0.00    -0.744 OA
ENDBRANCH  85  86
ENDBRANCH  59  80
ENDBRANCH  33  34
ENDBRANCH  26  28
ENDBRANCH  25  26
ENDBRANCH   1  25
TORSDOF 16
ENDMDL
MODEL 3
REMARK VINA RESULT:     -11.9      1.732      3.278
REMARK SMILES Cc1cc2cc(-c3ccc([C@@H](C)C(=O)OCCOC(=O)c4ccc(-c5c6nc(c(-c7ccc(S(=O)(=O)[O-])cc7)c7ccc([nH]7)c(-c7ccc(S(=O)(=O)[O-])cc7)c7nc(c(-c8ccc(S(=O)(=O)[O-])cc8)c8ccc5[nH]8)C=C7)C=C6)cc4)cc3)ccc2[nH]1
REMARK SMILES IDX 17 1 16 2 15 3 13 4 14 5 11 6 12 7 10 8 7 9 8 10 82 11 9 12
REMARK SMILES IDX 81 13 6 14 1 15 2 16 3 17 86 18 4 19 85 20 5 22 84 23 83 24
REMARK SMILES IDX 18 25 19 26 20 27 21 28 22 29 80 30 23 31 79 32 24 33 25 34
REMARK SMILES IDX 26 35 73 36 27 37 78 38 72 39 74 40 28 41 77 42 71 43 70 44
REMARK SMILES IDX 29 46 59 47 40 48 58 49 41 50 44 51 57 52 75 53 42 54 43 55
REMARK SMILES IDX 56 57 76 58 45 59 30 60 31 61 39 62 32 63 38 64 33 65 34 66
REMARK SMILES IDX 35 67 36 68 37 69 60 70 61 71 69 72 62 73 68 74 63 75 64 76
REMARK SMILES IDX 65 77 66 78 67 79 46 80 47 81 55 82 48 83 54 84 49 85 50 86
REMARK SMILES IDX 51 87 52 88 53 89
REMARK H PARENT 86 21 74 45 44 56
REMARK Flexibility Score: inf
ROOT
ATOM      1  C   UNL A   1      43.443  23.995  24.747  1.00  0.00     0.275 C 
ENDROOT
BRANCH   1   2
ATOM      2  C   UNL A   1      43.558  22.566  25.279  1.00  0.00     0.274 C 
BRANCH   2   3
ATOM      3  O   UNL A   1      42.261  21.962  25.439  1.00  0.00    -0.462 OA
BRANCH   3   4
ATOM      4  C   UNL A   1      41.752  21.929  26.699  1.00  0.00     0.313 C 
ATOM      5  O   UNL A   1      42.312  22.408  27.680  1.00  0.00    -0.252 OA
BRANCH   4   6
ATOM      6  C   UNL A   1      40.430  21.177  26.807  1.00  0.00     0.126 C 
ATOM      7  C   UNL A   1      40.612  19.743  26.311  1.00  0.00     0.025 C 
BRANCH   6   8
ATOM      8  C   UNL A   1      39.224  21.856  26.177  1.00  0.00    -0.034 A 
ATOM      9  C   UNL A   1      36.932  23.133  25.087  1.00  0.00    -0.018 A 
ATOM     10  C   UNL A   1      37.239  21.799  24.777  1.00  0.00     0.009 A 
ATOM     11  C   UNL A   1      37.809  23.829  25.927  1.00  0.00     0.009 A 
ATOM     12  C   UNL A   1      38.361  21.167  25.316  1.00  0.00     0.005 A 
ATOM     13  C   UNL A   1      38.936  23.199  26.468  1.00  0.00     0.005 A 
BRANCH   9  14
ATOM     14  C   UNL A   1      35.696  23.747  24.578  1.00  0.00    -0.018 A 
ATOM     15  C   UNL A   1      30.826  27.459  24.547  1.00  0.00     0.064 C 
ATOM     16  C   UNL A   1      31.996  26.551  24.496  1.00  0.00     0.013 A 
ATOM     17  C   UNL A   1      33.068  26.421  25.353  1.00  0.00     0.031 A 
ATOM     18  N   UNL A   1      32.168  25.637  23.483  1.00  0.00    -0.359 N 
ATOM     19  C   UNL A   1      33.901  25.384  24.854  1.00  0.00     0.000 A 
ATOM     20  C   UNL A   1      33.319  24.908  23.684  1.00  0.00     0.046 A 
ATOM     21  H   UNL A   1      31.554  25.520  22.722  1.00  0.00     0.166 HD
ATOM     22  C   UNL A   1      35.102  24.802  25.298  1.00  0.00     0.019 A 
ATOM     23  C   UNL A   1      33.886  23.876  22.929  1.00  0.00     0.027 A 
ATOM     24  C   UNL A   1      35.080  23.307  23.398  1.00  0.00     0.011 A 
ENDBRANCH   9  14
ENDBRANCH   6   8
ENDBRANCH   4   6
ENDBRANCH   3   4
ENDBRANCH   2   3
ENDBRANCH   1   2
BRANCH   1  25
ATOM     25  O   UNL A   1      43.333  24.941  25.824  1.00  0.00    -0.458 OA
BRANCH  25  26
ATOM     26  C   UNL A   1      42.169  25.631  25.863  1.00  0.00     0.338 C 
ATOM     27  O   UNL A   1      41.262  25.600  25.051  1.00  0.00    -0.246 OA
BRANCH  26  28
ATOM     28  C   UNL A   1      42.086  26.383  27.122  1.00  0.00     0.060 A 
ATOM     29  C   UNL A   1      41.091  26.030  28.035  1.00  0.00     0.016 A 
ATOM     30  C   UNL A   1      42.908  27.486  27.357  1.00  0.00     0.016 A 
ATOM     31  C   UNL A   1      40.892  26.794  29.181  1.00  0.00     0.010 A 
ATOM     32  C   UNL A   1      42.715  28.247  28.514  1.00  0.00     0.010 A 
ATOM     33  C   UNL A   1      41.691  27.919  29.421  1.00  0.00    -0.014 A 
BRANCH  33  34
ATOM     34  C   UNL A   1      41.403  28.783  30.589  1.00  0.00     0.031 A 
ATOM     35  C   UNL A   1      42.267  28.691  31.816  1.00  0.00     0.074 A 
ATOM     36  C   UNL A   1      40.394  29.673  30.536  1.00  0.00     0.049 A 
ATOM     37  N   UNL A   1      42.158  29.330  32.951  1.00  0.00    -0.248 NA
ATOM     38  C   UNL A   1      43.401  27.754  31.756  1.00  0.00     0.031 C 
ATOM     39  C   UNL A   1      39.515  29.886  29.385  1.00  0.00     0.029 A 
ATOM     40  N   UNL A   1      39.944  30.567  31.473  1.00  0.00    -0.354 N 
ATOM     41  C   UNL A   1      43.195  28.862  33.750  1.00  0.00     0.074 A 
ATOM     42  C   UNL A   1      43.913  27.873  32.973  1.00  0.00     0.031 C 
ATOM     43  C   UNL A   1      38.633  30.855  29.683  1.00  0.00     0.029 A 
ATOM     44  C   UNL A   1      38.862  31.304  31.054  1.00  0.00     0.049 A 
ATOM     45  H   UNL A   1      40.356  30.671  32.361  1.00  0.00     0.167 HD
ATOM     46  C   UNL A   1      43.519  29.222  35.014  1.00  0.00     0.031 A 
ATOM     47  C   UNL A   1      38.127  32.224  31.707  1.00  0.00     0.031 A 
ATOM     48  C   UNL A   1      42.805  30.205  35.785  1.00  0.00     0.049 A 
ATOM     49  C   UNL A   1      38.485  32.581  33.123  1.00  0.00     0.074 A 
ATOM     50  C   UNL A   1      43.054  30.636  37.076  1.00  0.00     0.029 A 
ATOM     51  N   UNL A   1      41.702  30.914  35.333  1.00  0.00    -0.354 N 
ATOM     52  N   UNL A   1      39.461  32.119  33.868  1.00  0.00    -0.248 NA
ATOM     53  C   UNL A   1      37.643  33.587  33.786  1.00  0.00     0.031 C 
ATOM     54  C   UNL A   1      42.079  31.582  37.418  1.00  0.00     0.029 A 
ATOM     55  C   UNL A   1      41.251  31.770  36.323  1.00  0.00     0.049 A 
ATOM     56  H   UNL A   1      41.298  30.821  34.440  1.00  0.00     0.167 HD
ATOM     57  C   UNL A   1      39.362  32.792  35.080  1.00  0.00     0.074 A 
ATOM     58  C   UNL A   1      38.241  33.702  34.965  1.00  0.00     0.031 C 
ATOM     59  C   UNL A   1      40.131  32.667  36.190  1.00  0.00     0.031 A 
BRANCH  46  60
ATOM     60  C   UNL A   1      44.682  28.514  35.655  1.00  0.00    -0.014 A 
ATOM     61  C   UNL A   1      45.991  29.015  35.543  1.00  0.00     0.010 A 
ATOM     62  C   UNL A   1      44.457  27.339  36.395  1.00  0.00     0.010 A 
ATOM     63  C   UNL A   1      47.061  28.329  36.127  1.00  0.00     0.020 A 
ATOM     64  C   UNL A   1      45.522  26.663  36.998  1.00  0.00     0.020 A 
ATOM     65  C   UNL A   1      46.820  27.153  36.844  1.00  0.00     0.054 A 
BRANCH  65  66
ATOM     66  S   UNL A   1      48.222  26.283  37.597  1.00  0.00     0.124 S 
ATOM     67  O   UNL A   1      49.118  26.112  36.455  1.00  0.00    -0.237 OA
ATOM     68  O   UNL A   1      48.680  27.226  38.615  1.00  0.00    -0.237 OA
ATOM     69  O   UNL A   1      47.629  25.053  38.114  1.00  0.00    -0.744 OA
ENDBRANCH  65  66
ENDBRANCH  46  60
BRANCH  47  70
ATOM     70  C   UNL A   1      36.966  32.859  31.029  1.00  0.00    -0.014 A 
ATOM     71  C   UNL A   1      37.155  33.922  30.131  1.00  0.00     0.010 A 
ATOM     72  C   UNL A   1      35.663  32.388  31.270  1.00  0.00     0.010 A 
ATOM     73  C   UNL A   1      36.059  34.512  29.492  1.00  0.00     0.020 A 
ATOM     74  C   UNL A   1      34.568  32.958  30.617  1.00  0.00     0.020 A 
ATOM     75  C   UNL A   1      34.772  34.025  29.739  1.00  0.00     0.054 A 
BRANCH  75  76
ATOM     76  S   UNL A   1      33.368  34.760  28.856  1.00  0.00     0.124 S 
ATOM     77  O   UNL A   1      34.005  35.855  28.131  1.00  0.00    -0.237 OA
ATOM     78  O   UNL A   1      32.890  33.651  28.034  1.00  0.00    -0.237 OA
ATOM     79  O   UNL A   1      32.463  35.161  29.932  1.00  0.00    -0.744 OA
ENDBRANCH  75  76
ENDBRANCH  47  70
BRANCH  59  80
ATOM     80  C   UNL A   1      39.803  33.558  37.356  1.00  0.00    -0.014 A 
ATOM     81  C   UNL A   1      38.928  33.133  38.371  1.00  0.00     0.010 A 
ATOM     82  C   UNL A   1      40.405  34.825  37.453  1.00  0.00     0.010 A 
ATOM     83  C   UNL A   1      38.633  33.976  39.447  1.00  0.00     0.020 A 
ATOM     84  C   UNL A   1      40.131  35.661  38.537  1.00  0.00     0.020 A 
ATOM     85  C   UNL A   1      39.233  35.238  39.520  1.00  0.00     0.054 A 
BRANCH  85  86
ATOM     86  S   UNL A   1      38.863  36.305  40.939  1.00  0.00     0.124 S 
ATOM     87  O   UNL A   1      38.455  37.547  40.286  1.00  0.00    -0.237 OA
ATOM     88  O   UNL A   1      37.798  35.578  41.625  1.00  0.00    -0.237 OA
ATOM     89  O   UNL A   1      40.130  36.368  41.663  1.00  0.00    -0.744 OA
ENDBRANCH  85  86
ENDBRANCH  59  80
ENDBRANCH  33  34
ENDBRANCH  26  28
ENDBRANCH  25  26
ENDBRANCH   1  25
TORSDOF 16
ENDMDL
