MODEL 1
REMARK VINA RESULT:     -10.8      0.000      0.000
REMARK SMILES O=C(OCCOC(=O)c1ccc(C[N@H+]2CC[N@@H+]3CCCC[C@@H]3C2)c(F)c1)c1ccc(-c2c3nc(c(-c4ccc(S(=O)(=O)[O-])cc4)c4ccc([nH]4)c(-c4ccc(S(=O)(=O)[O-])cc4)c4nc(c(-c5ccc(S(=O)(=O)[O-])cc5)c5ccc2[nH]5)C=C4)C=C3)cc1
REMARK SMILES IDX 4 1 3 2 2 3 1 4 27 5 28 6 86 7 29 8 85 9 30 10 31 11 32 12
REMARK SMILES IDX 79 13 33 14 84 15 78 16 80 17 34 18 83 19 77 20 76 21 35 23
REMARK SMILES IDX 65 24 46 25 64 26 47 27 50 28 63 29 81 30 48 31 49 32 62 34
REMARK SMILES IDX 82 35 51 36 36 37 37 38 45 39 38 40 44 41 39 42 40 43 41 44
REMARK SMILES IDX 42 45 43 46 66 47 67 48 75 49 68 50 74 51 69 52 70 53 71 54
REMARK SMILES IDX 72 55 73 56 52 57 53 58 61 59 54 60 60 61 55 62 56 63 57 64
REMARK SMILES IDX 58 65 59 66 5 67 6 68 7 69 8 70 9 71 10 72 26 73 11 74 24 75
REMARK SMILES IDX 12 76 25 77 13 78 14 79 15 80 23 81 16 83 22 84 17 85 21 86
REMARK SMILES IDX 18 87 20 89 19 90
REMARK H PARENT 80 22 50 33 14 82 17 88
REMARK Flexibility Score: inf
ROOT
ATOM      1  C   UNL A   1      43.560  19.400  25.199  1.00  0.00     0.275 C 
ENDROOT
BRANCH   1   2
ATOM      2  O   UNL A   1      43.904  20.724  24.785  1.00  0.00    -0.458 OA
BRANCH   2   3
ATOM      3  C   UNL A   1      44.322  21.756  25.554  1.00  0.00     0.338 C 
ATOM      4  O   UNL A   1      45.524  21.820  25.812  1.00  0.00    -0.246 OA
BRANCH   3   5
ATOM      5  C   UNL A   1      43.404  22.785  26.169  1.00  0.00     0.060 A 
ATOM      6  C   UNL A   1      43.129  23.012  27.523  1.00  0.00     0.016 A 
ATOM      7  C   UNL A   1      42.791  23.674  25.289  1.00  0.00     0.016 A 
ATOM      8  C   UNL A   1      42.539  24.212  27.990  1.00  0.00     0.010 A 
ATOM      9  C   UNL A   1      42.239  24.875  25.775  1.00  0.00     0.010 A 
ATOM     10  C   UNL A   1      42.377  25.291  27.131  1.00  0.00    -0.014 A 
BRANCH  10  11
ATOM     11  C   UNL A   1      42.412  26.889  27.584  1.00  0.00     0.031 A 
ATOM     12  C   UNL A   1      43.884  27.263  27.765  1.00  0.00     0.074 A 
ATOM     13  C   UNL A   1      41.358  27.800  28.095  1.00  0.00     0.049 A 
ATOM     14  N   UNL A   1      44.445  28.369  28.170  1.00  0.00    -0.248 NA
ATOM     15  C   UNL A   1      44.864  26.183  27.469  1.00  0.00     0.031 C 
ATOM     16  C   UNL A   1      39.301  27.942  28.284  1.00  0.00     0.029 A 
ATOM     17  N   UNL A   1      41.834  29.252  29.130  1.00  0.00    -0.354 N 
ATOM     18  C   UNL A   1      45.810  28.098  28.175  1.00  0.00     0.074 A 
ATOM     19  C   UNL A   1      45.999  26.710  27.868  1.00  0.00     0.031 C 
ATOM     20  C   UNL A   1      38.862  29.256  29.136  1.00  0.00     0.029 A 
ATOM     21  C   UNL A   1      40.394  30.171  29.684  1.00  0.00     0.049 A 
ATOM     22  H   UNL A   1      42.762  29.493  29.352  1.00  0.00     0.167 HD
ATOM     23  C   UNL A   1      46.852  28.930  28.353  1.00  0.00     0.031 A 
ATOM     24  C   UNL A   1      40.253  31.430  30.145  1.00  0.00     0.031 A 
ATOM     25  C   UNL A   1      46.716  30.298  28.729  1.00  0.00     0.049 A 
ATOM     26  C   UNL A   1      41.480  32.258  30.159  1.00  0.00     0.074 A 
ATOM     27  C   UNL A   1      47.719  31.234  28.855  1.00  0.00     0.029 A 
ATOM     28  N   UNL A   1      45.522  30.909  29.088  1.00  0.00    -0.354 N 
ATOM     29  N   UNL A   1      42.695  31.904  29.819  1.00  0.00    -0.248 NA
ATOM     30  C   UNL A   1      41.320  33.662  30.541  1.00  0.00     0.031 C 
ATOM     31  C   UNL A   1      47.147  32.392  29.372  1.00  0.00     0.029 A 
ATOM     32  C   UNL A   1      45.773  32.214  29.465  1.00  0.00     0.049 A 
ATOM     33  H   UNL A   1      44.636  30.480  29.078  1.00  0.00     0.167 HD
ATOM     34  C   UNL A   1      43.461  33.041  29.971  1.00  0.00     0.074 A 
ATOM     35  C   UNL A   1      42.548  34.112  30.339  1.00  0.00     0.031 C 
ATOM     36  C   UNL A   1      44.800  33.195  29.860  1.00  0.00     0.031 A 
BRANCH  23  37
ATOM     37  C   UNL A   1      48.222  28.352  28.111  1.00  0.00    -0.014 A 
ATOM     38  C   UNL A   1      48.955  27.776  29.171  1.00  0.00     0.010 A 
ATOM     39  C   UNL A   1      48.789  28.399  26.828  1.00  0.00     0.010 A 
ATOM     40  C   UNL A   1      50.235  27.270  28.951  1.00  0.00     0.020 A 
ATOM     41  C   UNL A   1      50.054  27.856  26.598  1.00  0.00     0.020 A 
ATOM     42  C   UNL A   1      50.767  27.295  27.660  1.00  0.00     0.054 A 
BRANCH  42  43
ATOM     43  S   UNL A   1      52.377  26.513  27.385  1.00  0.00     0.124 S 
ATOM     44  O   UNL A   1      52.968  26.553  28.719  1.00  0.00    -0.237 OA
ATOM     45  O   UNL A   1      52.001  25.185  26.904  1.00  0.00    -0.237 OA
ATOM     46  O   UNL A   1      53.016  27.375  26.393  1.00  0.00    -0.744 OA
ENDBRANCH  42  43
ENDBRANCH  23  37
BRANCH  24  47
ATOM     47  C   UNL A   1      38.883  31.954  30.439  1.00  0.00    -0.014 A 
ATOM     48  C   UNL A   1      38.222  31.664  31.649  1.00  0.00     0.010 A 
ATOM     49  C   UNL A   1      38.235  32.802  29.518  1.00  0.00     0.010 A 
ATOM     50  C   UNL A   1      36.933  32.157  31.903  1.00  0.00     0.020 A 
ATOM     51  C   UNL A   1      36.966  33.333  29.786  1.00  0.00     0.020 A 
ATOM     52  C   UNL A   1      36.310  32.984  30.965  1.00  0.00     0.054 A 
BRANCH  52  53
ATOM     53  S   UNL A   1      34.630  33.589  31.298  1.00  0.00     0.124 S 
ATOM     54  O   UNL A   1      34.039  33.587  29.964  1.00  0.00    -0.237 OA
ATOM     55  O   UNL A   1      34.111  32.585  32.223  1.00  0.00    -0.237 OA
ATOM     56  O   UNL A   1      34.852  34.910  31.882  1.00  0.00    -0.744 OA
ENDBRANCH  52  53
ENDBRANCH  24  47
BRANCH  36  57
ATOM     57  C   UNL A   1      45.313  34.559  30.193  1.00  0.00    -0.014 A 
ATOM     58  C   UNL A   1      45.647  34.885  31.519  1.00  0.00     0.010 A 
ATOM     59  C   UNL A   1      45.502  35.493  29.164  1.00  0.00     0.010 A 
ATOM     60  C   UNL A   1      46.119  36.156  31.818  1.00  0.00     0.020 A 
ATOM     61  C   UNL A   1      46.026  36.747  29.454  1.00  0.00     0.020 A 
ATOM     62  C   UNL A   1      46.313  37.074  30.781  1.00  0.00     0.054 A 
BRANCH  62  63
ATOM     63  S   UNL A   1      46.980  38.700  31.196  1.00  0.00     0.124 S 
ATOM     64  O   UNL A   1      46.134  39.585  30.400  1.00  0.00    -0.237 OA
ATOM     65  O   UNL A   1      46.777  38.764  32.641  1.00  0.00    -0.237 OA
ATOM     66  O   UNL A   1      48.375  38.621  30.768  1.00  0.00    -0.744 OA
ENDBRANCH  62  63
ENDBRANCH  36  57
ENDBRANCH  10  11
ENDBRANCH   3   5
ENDBRANCH   2   3
ENDBRANCH   1   2
BRANCH   1  67
ATOM     67  C   UNL A   1      42.292  19.297  26.064  1.00  0.00     0.275 C 
BRANCH  67  68
ATOM     68  O   UNL A   1      41.222  20.218  25.726  1.00  0.00    -0.458 OA
BRANCH  68  69
ATOM     69  C   UNL A   1      40.522  20.805  26.746  1.00  0.00     0.338 C 
ATOM     70  O   UNL A   1      40.694  20.580  27.932  1.00  0.00    -0.246 OA
BRANCH  69  71
ATOM     71  C   UNL A   1      39.474  21.756  26.228  1.00  0.00     0.063 A 
ATOM     72  C   UNL A   1      39.364  23.063  26.736  1.00  0.00     0.016 A 
ATOM     73  C   UNL A   1      38.509  21.325  25.316  1.00  0.00     0.055 A 
ATOM     74  C   UNL A   1      38.223  23.863  26.454  1.00  0.00     0.013 A 
ATOM     75  C   UNL A   1      37.391  22.144  25.022  1.00  0.00     0.132 A 
ATOM     76  C   UNL A   1      37.168  23.388  25.648  1.00  0.00     0.042 A 
ATOM     77  F   UNL A   1      36.461  21.639  24.195  1.00  0.00    -0.206 F 
BRANCH  76  78
ATOM     78  C   UNL A   1      35.823  24.156  25.563  1.00  0.00     0.302 C 
BRANCH  78  79
ATOM     79  N   UNL A   1      34.614  23.897  26.414  1.00  0.00    -0.322 N 
ATOM     80  C   UNL A   1      33.483  24.697  26.007  1.00  0.00     0.324 C 
ATOM     81  C   UNL A   1      34.069  22.513  26.669  1.00  0.00     0.328 C 
ATOM     82  H   UNL A   1      35.056  24.145  27.300  1.00  0.00     0.348 HD
ATOM     83  C   UNL A   1      32.843  24.170  24.707  1.00  0.00     0.324 C 
ATOM     84  C   UNL A   1      33.513  21.685  25.296  1.00  0.00     0.239 C 
ATOM     85  N   UNL A   1      33.396  22.951  24.041  1.00  0.00    -0.323 N 
ATOM     86  C   UNL A   1      32.417  19.746  24.864  1.00  0.00     0.071 C 
ATOM     87  C   UNL A   1      32.961  22.391  22.539  1.00  0.00     0.262 C 
ATOM     88  H   UNL A   1      34.272  23.308  23.663  1.00  0.00     0.348 HD
ATOM     89  C   UNL A   1      32.032  19.426  23.056  1.00  0.00     0.012 C 
ATOM     90  C   UNL A   1      32.064  20.816  22.076  1.00  0.00     0.062 C 
ENDBRANCH  78  79
ENDBRANCH  76  78
ENDBRANCH  69  71
ENDBRANCH  68  69
ENDBRANCH  67  68
ENDBRANCH   1  67
TORSDOF 16
ENDMDL
MODEL 2
REMARK VINA RESULT:     -10.6      4.792     11.222
REMARK SMILES O=C(OCCOC(=O)c1ccc(C[N@H+]2CC[N@@H+]3CCCC[C@@H]3C2)c(F)c1)c1ccc(-c2c3nc(c(-c4ccc(S(=O)(=O)[O-])cc4)c4ccc([nH]4)c(-c4ccc(S(=O)(=O)[O-])cc4)c4nc(c(-c5ccc(S(=O)(=O)[O-])cc5)c5ccc2[nH]5)C=C4)C=C3)cc1
REMARK SMILES IDX 4 1 3 2 2 3 1 4 27 5 28 6 86 7 29 8 85 9 30 10 31 11 32 12
REMARK SMILES IDX 79 13 33 14 84 15 78 16 80 17 34 18 83 19 77 20 76 21 35 23
REMARK SMILES IDX 65 24 46 25 64 26 47 27 50 28 63 29 81 30 48 31 49 32 62 34
REMARK SMILES IDX 82 35 51 36 36 37 37 38 45 39 38 40 44 41 39 42 40 43 41 44
REMARK SMILES IDX 42 45 43 46 66 47 67 48 75 49 68 50 74 51 69 52 70 53 71 54
REMARK SMILES IDX 72 55 73 56 52 57 53 58 61 59 54 60 60 61 55 62 56 63 57 64
REMARK SMILES IDX 58 65 59 66 5 67 6 68 7 69 8 70 9 71 10 72 26 73 11 74 24 75
REMARK SMILES IDX 12 76 25 77 13 78 14 79 15 80 23 81 16 83 22 84 17 85 21 86
REMARK SMILES IDX 18 87 20 89 19 90
REMARK H PARENT 80 22 50 33 14 82 17 88
REMARK Flexibility Score: inf
ROOT
ATOM      1  C   UNL A   1      33.135  35.549  30.389  1.00  0.00     0.275 C 
ENDROOT
BRANCH   1   2
ATOM      2  O   UNL A   1      33.642  34.577  31.306  1.00  0.00    -0.458 OA
BRANCH   2   3
ATOM      3  C   UNL A   1      34.934  34.309  31.608  1.00  0.00     0.338 C 
ATOM      4  O   UNL A   1      35.490  35.045  32.423  1.00  0.00    -0.246 OA
BRANCH   3   5
ATOM      5  C   UNL A   1      35.750  33.216  30.959  1.00  0.00     0.060 A 
ATOM      6  C   UNL A   1      36.851  33.340  30.104  1.00  0.00     0.016 A 
ATOM      7  C   UNL A   1      35.412  31.908  31.298  1.00  0.00     0.016 A 
ATOM      8  C   UNL A   1      37.739  32.266  29.846  1.00  0.00     0.010 A 
ATOM      9  C   UNL A   1      36.327  30.863  31.059  1.00  0.00     0.010 A 
ATOM     10  C   UNL A   1      37.651  31.094  30.584  1.00  0.00    -0.014 A 
BRANCH  10  11
ATOM     11  C   UNL A   1      38.926  30.097  30.954  1.00  0.00     0.031 A 
ATOM     12  C   UNL A   1      39.656  30.734  32.138  1.00  0.00     0.074 A 
ATOM     13  C   UNL A   1      39.578  28.997  30.201  1.00  0.00     0.049 A 
ATOM     14  N   UNL A   1      40.746  30.386  32.762  1.00  0.00    -0.248 NA
ATOM     15  C   UNL A   1      39.056  31.991  32.661  1.00  0.00     0.031 C 
ATOM     16  C   UNL A   1      39.284  27.771  28.558  1.00  0.00     0.029 A 
ATOM     17  N   UNL A   1      41.337  28.566  30.558  1.00  0.00    -0.354 N 
ATOM     18  C   UNL A   1      40.942  31.376  33.721  1.00  0.00     0.074 A 
ATOM     19  C   UNL A   1      39.956  32.400  33.525  1.00  0.00     0.031 C 
ATOM     20  C   UNL A   1      40.589  26.849  28.251  1.00  0.00     0.029 A 
ATOM     21  C   UNL A   1      41.929  27.252  29.486  1.00  0.00     0.049 A 
ATOM     22  H   UNL A   1      41.884  29.003  31.251  1.00  0.00     0.167 HD
ATOM     23  C   UNL A   1      41.821  31.427  34.738  1.00  0.00     0.031 A 
ATOM     24  C   UNL A   1      42.973  26.406  29.593  1.00  0.00     0.031 A 
ATOM     25  C   UNL A   1      42.862  30.473  34.931  1.00  0.00     0.049 A 
ATOM     26  C   UNL A   1      43.769  26.510  30.837  1.00  0.00     0.074 A 
ATOM     27  C   UNL A   1      43.751  30.407  35.983  1.00  0.00     0.029 A 
ATOM     28  N   UNL A   1      43.189  29.461  34.040  1.00  0.00    -0.354 N 
ATOM     29  N   UNL A   1      43.609  27.353  31.827  1.00  0.00    -0.248 NA
ATOM     30  C   UNL A   1      44.830  25.518  31.022  1.00  0.00     0.031 C 
ATOM     31  C   UNL A   1      44.671  29.407  35.689  1.00  0.00     0.029 A 
ATOM     32  C   UNL A   1      44.293  28.777  34.511  1.00  0.00     0.049 A 
ATOM     33  H   UNL A   1      42.710  29.261  33.203  1.00  0.00     0.167 HD
ATOM     34  C   UNL A   1      44.573  27.011  32.753  1.00  0.00     0.074 A 
ATOM     35  C   UNL A   1      45.241  25.825  32.242  1.00  0.00     0.031 C 
ATOM     36  C   UNL A   1      44.915  27.631  33.906  1.00  0.00     0.031 A 
BRANCH  23  37
ATOM     37  C   UNL A   1      41.650  32.559  35.718  1.00  0.00    -0.014 A 
ATOM     38  C   UNL A   1      42.400  33.746  35.580  1.00  0.00     0.010 A 
ATOM     39  C   UNL A   1      40.752  32.433  36.788  1.00  0.00     0.010 A 
ATOM     40  C   UNL A   1      42.263  34.780  36.505  1.00  0.00     0.020 A 
ATOM     41  C   UNL A   1      40.584  33.482  37.693  1.00  0.00     0.020 A 
ATOM     42  C   UNL A   1      41.339  34.648  37.544  1.00  0.00     0.054 A 
BRANCH  42  43
ATOM     43  S   UNL A   1      41.092  36.060  38.651  1.00  0.00     0.124 S 
ATOM     44  O   UNL A   1      42.422  36.661  38.680  1.00  0.00    -0.237 OA
ATOM     45  O   UNL A   1      40.069  36.832  37.949  1.00  0.00    -0.237 OA
ATOM     46  O   UNL A   1      40.657  35.446  39.904  1.00  0.00    -0.744 OA
ENDBRANCH  42  43
ENDBRANCH  23  37
BRANCH  24  47
ATOM     47  C   UNL A   1      43.155  25.333  28.567  1.00  0.00    -0.014 A 
ATOM     48  C   UNL A   1      43.980  25.516  27.440  1.00  0.00     0.010 A 
ATOM     49  C   UNL A   1      42.531  24.080  28.734  1.00  0.00     0.010 A 
ATOM     50  C   UNL A   1      44.130  24.500  26.483  1.00  0.00     0.020 A 
ATOM     51  C   UNL A   1      42.713  23.047  27.804  1.00  0.00     0.020 A 
ATOM     52  C   UNL A   1      43.488  23.273  26.669  1.00  0.00     0.054 A 
BRANCH  52  53
ATOM     53  S   UNL A   1      43.671  21.981  25.405  1.00  0.00     0.124 S 
ATOM     54  O   UNL A   1      43.465  22.733  24.172  1.00  0.00    -0.237 OA
ATOM     55  O   UNL A   1      45.032  21.504  25.637  1.00  0.00    -0.237 OA
ATOM     56  O   UNL A   1      42.618  21.025  25.738  1.00  0.00    -0.744 OA
ENDBRANCH  52  53
ENDBRANCH  24  47
BRANCH  36  57
ATOM     57  C   UNL A   1      46.085  27.040  34.624  1.00  0.00    -0.014 A 
ATOM     58  C   UNL A   1      47.385  27.503  34.358  1.00  0.00     0.010 A 
ATOM     59  C   UNL A   1      45.868  26.054  35.598  1.00  0.00     0.010 A 
ATOM     60  C   UNL A   1      48.466  26.944  35.028  1.00  0.00     0.020 A 
ATOM     61  C   UNL A   1      46.942  25.533  36.307  1.00  0.00     0.020 A 
ATOM     62  C   UNL A   1      48.235  25.970  36.004  1.00  0.00     0.054 A 
BRANCH  62  63
ATOM     63  S   UNL A   1      49.656  25.302  36.896  1.00  0.00     0.124 S 
ATOM     64  O   UNL A   1      50.762  26.050  36.303  1.00  0.00    -0.237 OA
ATOM     65  O   UNL A   1      49.340  25.636  38.283  1.00  0.00    -0.237 OA
ATOM     66  O   UNL A   1      49.626  23.877  36.579  1.00  0.00    -0.744 OA
ENDBRANCH  62  63
ENDBRANCH  36  57
ENDBRANCH  10  11
ENDBRANCH   3   5
ENDBRANCH   2   3
ENDBRANCH   1   2
BRANCH   1  67
ATOM     67  C   UNL A   1      33.242  35.161  28.905  1.00  0.00     0.275 C 
BRANCH  67  68
ATOM     68  O   UNL A   1      33.201  33.738  28.621  1.00  0.00    -0.458 OA
BRANCH  68  69
ATOM     69  C   UNL A   1      34.203  33.197  27.859  1.00  0.00     0.338 C 
ATOM     70  O   UNL A   1      35.094  33.832  27.322  1.00  0.00    -0.246 OA
BRANCH  69  71
ATOM     71  C   UNL A   1      34.058  31.702  27.730  1.00  0.00     0.063 A 
ATOM     72  C   UNL A   1      35.183  30.859  27.768  1.00  0.00     0.016 A 
ATOM     73  C   UNL A   1      32.819  31.126  27.448  1.00  0.00     0.055 A 
ATOM     74  C   UNL A   1      35.087  29.495  27.379  1.00  0.00     0.013 A 
ATOM     75  C   UNL A   1      32.733  29.759  27.089  1.00  0.00     0.132 A 
ATOM     76  C   UNL A   1      33.867  28.931  26.953  1.00  0.00     0.042 A 
ATOM     77  F   UNL A   1      31.521  29.286  26.756  1.00  0.00    -0.206 F 
BRANCH  76  78
ATOM     78  C   UNL A   1      33.826  27.532  26.285  1.00  0.00     0.302 C 
BRANCH  78  79
ATOM     79  N   UNL A   1      32.608  26.883  25.692  1.00  0.00    -0.322 N 
ATOM     80  C   UNL A   1      32.673  26.826  24.251  1.00  0.00     0.324 C 
ATOM     81  C   UNL A   1      32.097  25.534  26.135  1.00  0.00     0.328 C 
ATOM     82  H   UNL A   1      31.937  27.536  26.096  1.00  0.00     0.348 HD
ATOM     83  C   UNL A   1      33.652  25.741  23.760  1.00  0.00     0.324 C 
ATOM     84  C   UNL A   1      33.152  24.232  25.869  1.00  0.00     0.239 C 
ATOM     85  N   UNL A   1      34.380  24.888  24.748  1.00  0.00    -0.323 N 
ATOM     86  C   UNL A   1      33.070  21.972  26.048  1.00  0.00     0.071 C 
ATOM     87  C   UNL A   1      35.615  23.836  24.391  1.00  0.00     0.262 C 
ATOM     88  H   UNL A   1      35.048  25.553  25.134  1.00  0.00     0.348 HD
ATOM     89  C   UNL A   1      34.625  21.066  25.518  1.00  0.00     0.012 C 
ATOM     90  C   UNL A   1      35.651  21.968  24.505  1.00  0.00     0.062 C 
ENDBRANCH  78  79
ENDBRANCH  76  78
ENDBRANCH  69  71
ENDBRANCH  68  69
ENDBRANCH  67  68
ENDBRANCH   1  67
TORSDOF 16
ENDMDL
MODEL 3
REMARK VINA RESULT:     -10.5      6.248     12.001
REMARK SMILES O=C(OCCOC(=O)c1ccc(C[N@H+]2CC[N@@H+]3CCCC[C@@H]3C2)c(F)c1)c1ccc(-c2c3nc(c(-c4ccc(S(=O)(=O)[O-])cc4)c4ccc([nH]4)c(-c4ccc(S(=O)(=O)[O-])cc4)c4nc(c(-c5ccc(S(=O)(=O)[O-])cc5)c5ccc2[nH]5)C=C4)C=C3)cc1
REMARK SMILES IDX 4 1 3 2 2 3 1 4 27 5 28 6 86 7 29 8 85 9 30 10 31 11 32 12
REMARK SMILES IDX 79 13 33 14 84 15 78 16 80 17 34 18 83 19 77 20 76 21 35 23
REMARK SMILES IDX 65 24 46 25 64 26 47 27 50 28 63 29 81 30 48 31 49 32 62 34
REMARK SMILES IDX 82 35 51 36 36 37 37 38 45 39 38 40 44 41 39 42 40 43 41 44
REMARK SMILES IDX 42 45 43 46 66 47 67 48 75 49 68 50 74 51 69 52 70 53 71 54
REMARK SMILES IDX 72 55 73 56 52 57 53 58 61 59 54 60 60 61 55 62 56 63 57 64
REMARK SMILES IDX 58 65 59 66 5 67 6 68 7 69 8 70 9 71 10 72 26 73 11 74 24 75
REMARK SMILES IDX 12 76 25 77 13 78 14 79 15 80 23 81 16 83 22 84 17 85 21 86
REMARK SMILES IDX 18 87 20 89 19 90
REMARK H PARENT 80 22 50 33 14 82 17 88
REMARK Flexibility Score: inf
ROOT
ATOM      1  C   UNL A   1      33.145  35.338  28.971  1.00  0.00     0.275 C 
ENDROOT
BRANCH   1   2
ATOM      2  O   UNL A   1      32.385  35.677  30.133  1.00  0.00    -0.458 OA
BRANCH   2   3
ATOM      3  C   UNL A   1      32.837  36.159  31.314  1.00  0.00     0.338 C 
ATOM      4  O   UNL A   1      32.674  37.359  31.537  1.00  0.00    -0.246 OA
BRANCH   3   5
ATOM      5  C   UNL A   1      33.586  35.338  32.336  1.00  0.00     0.060 A 
ATOM      6  C   UNL A   1      33.256  34.083  32.861  1.00  0.00     0.016 A 
ATOM      7  C   UNL A   1      34.801  35.859  32.778  1.00  0.00     0.016 A 
ATOM      8  C   UNL A   1      34.198  33.268  33.535  1.00  0.00     0.010 A 
ATOM      9  C   UNL A   1      35.733  35.018  33.418  1.00  0.00     0.010 A 
ATOM     10  C   UNL A   1      35.543  33.611  33.538  1.00  0.00    -0.014 A 
BRANCH  10  11
ATOM     11  C   UNL A   1      36.805  32.533  33.597  1.00  0.00     0.031 A 
ATOM     12  C   UNL A   1      37.716  32.984  34.741  1.00  0.00     0.074 A 
ATOM     13  C   UNL A   1      37.296  31.523  32.628  1.00  0.00     0.049 A 
ATOM     14  N   UNL A   1      38.861  32.521  35.160  1.00  0.00    -0.248 NA
ATOM     15  C   UNL A   1      37.254  34.178  35.499  1.00  0.00     0.031 C 
ATOM     16  C   UNL A   1      36.727  30.538  30.898  1.00  0.00     0.029 A 
ATOM     17  N   UNL A   1      39.064  30.993  32.681  1.00  0.00    -0.354 N 
ATOM     18  C   UNL A   1      39.231  33.367  36.201  1.00  0.00     0.074 A 
ATOM     19  C   UNL A   1      38.280  34.439  36.276  1.00  0.00     0.031 C 
ATOM     20  C   UNL A   1      37.932  29.623  30.299  1.00  0.00     0.029 A 
ATOM     21  C   UNL A   1      39.442  29.815  31.379  1.00  0.00     0.049 A 
ATOM     22  H   UNL A   1      39.718  31.315  33.342  1.00  0.00     0.167 HD
ATOM     23  C   UNL A   1      40.239  33.254  37.086  1.00  0.00     0.031 A 
ATOM     24  C   UNL A   1      40.447  28.930  31.232  1.00  0.00     0.031 A 
ATOM     25  C   UNL A   1      41.247  32.250  37.010  1.00  0.00     0.049 A 
ATOM     26  C   UNL A   1      41.405  28.841  32.357  1.00  0.00     0.074 A 
ATOM     27  C   UNL A   1      42.263  32.016  37.912  1.00  0.00     0.029 A 
ATOM     28  N   UNL A   1      41.402  31.355  35.960  1.00  0.00    -0.354 N 
ATOM     29  N   UNL A   1      41.420  29.549  33.459  1.00  0.00    -0.248 NA
ATOM     30  C   UNL A   1      42.431  27.800  32.266  1.00  0.00     0.031 C 
ATOM     31  C   UNL A   1      43.085  31.035  37.369  1.00  0.00     0.029 A 
ATOM     32  C   UNL A   1      42.523  30.580  36.183  1.00  0.00     0.049 A 
ATOM     33  H   UNL A   1      40.807  31.285  35.179  1.00  0.00     0.167 HD
ATOM     34  C   UNL A   1      42.480  29.056  34.193  1.00  0.00     0.074 A 
ATOM     35  C   UNL A   1      43.014  27.928  33.447  1.00  0.00     0.031 C 
ATOM     36  C   UNL A   1      43.002  29.506  35.357  1.00  0.00     0.031 A 
BRANCH  23  37
ATOM     37  C   UNL A   1      40.255  34.250  38.216  1.00  0.00    -0.014 A 
ATOM     38  C   UNL A   1      41.016  35.434  38.117  1.00  0.00     0.010 A 
ATOM     39  C   UNL A   1      39.525  33.997  39.387  1.00  0.00     0.010 A 
ATOM     40  C   UNL A   1      41.054  36.340  39.176  1.00  0.00     0.020 A 
ATOM     41  C   UNL A   1      39.530  34.921  40.433  1.00  0.00     0.020 A 
ATOM     42  C   UNL A   1      40.294  36.086  40.319  1.00  0.00     0.054 A 
BRANCH  42  43
ATOM     43  S   UNL A   1      40.264  37.344  41.622  1.00  0.00     0.124 S 
ATOM     44  O   UNL A   1      39.159  38.197  41.197  1.00  0.00    -0.237 OA
ATOM     45  O   UNL A   1      40.016  36.545  42.821  1.00  0.00    -0.237 OA
ATOM     46  O   UNL A   1      41.589  37.954  41.546  1.00  0.00    -0.744 OA
ENDBRANCH  42  43
ENDBRANCH  23  37
BRANCH  24  47
ATOM     47  C   UNL A   1      40.438  27.997  30.062  1.00  0.00    -0.014 A 
ATOM     48  C   UNL A   1      39.532  26.922  29.977  1.00  0.00     0.010 A 
ATOM     49  C   UNL A   1      41.318  28.207  28.981  1.00  0.00     0.010 A 
ATOM     50  C   UNL A   1      39.545  26.052  28.876  1.00  0.00     0.020 A 
ATOM     51  C   UNL A   1      41.306  27.368  27.859  1.00  0.00     0.020 A 
ATOM     52  C   UNL A   1      40.439  26.277  27.826  1.00  0.00     0.054 A 
BRANCH  52  53
ATOM     53  S   UNL A   1      40.462  25.124  26.423  1.00  0.00     0.124 S 
ATOM     54  O   UNL A   1      41.255  24.020  26.952  1.00  0.00    -0.237 OA
ATOM     55  O   UNL A   1      39.042  24.845  26.221  1.00  0.00    -0.237 OA
ATOM     56  O   UNL A   1      41.096  25.896  25.356  1.00  0.00    -0.744 OA
ENDBRANCH  52  53
ENDBRANCH  24  47
BRANCH  36  57
ATOM     57  C   UNL A   1      44.226  28.788  35.825  1.00  0.00    -0.014 A 
ATOM     58  C   UNL A   1      44.113  27.694  36.701  1.00  0.00     0.010 A 
ATOM     59  C   UNL A   1      45.483  29.186  35.347  1.00  0.00     0.010 A 
ATOM     60  C   UNL A   1      45.257  27.035  37.133  1.00  0.00     0.020 A 
ATOM     61  C   UNL A   1      46.623  28.495  35.736  1.00  0.00     0.020 A 
ATOM     62  C   UNL A   1      46.502  27.436  36.640  1.00  0.00     0.054 A 
BRANCH  62  63
ATOM     63  S   UNL A   1      47.966  26.525  37.179  1.00  0.00     0.124 S 
ATOM     64  O   UNL A   1      49.045  27.409  36.748  1.00  0.00    -0.237 OA
ATOM     65  O   UNL A   1      47.763  26.432  38.623  1.00  0.00    -0.237 OA
ATOM     66  O   UNL A   1      47.871  25.259  36.456  1.00  0.00    -0.744 OA
ENDBRANCH  62  63
ENDBRANCH  36  57
ENDBRANCH  10  11
ENDBRANCH   3   5
ENDBRANCH   2   3
ENDBRANCH   1   2
BRANCH   1  67
ATOM     67  C   UNL A   1      34.042  34.097  29.120  1.00  0.00     0.275 C 
BRANCH  67  68
ATOM     68  O   UNL A   1      34.083  33.208  27.973  1.00  0.00    -0.458 OA
BRANCH  68  69
ATOM     69  C   UNL A   1      35.017  32.206  27.960  1.00  0.00     0.338 C 
ATOM     70  O   UNL A   1      36.190  32.338  28.264  1.00  0.00    -0.246 OA
BRANCH  69  71
ATOM     71  C   UNL A   1      34.427  30.902  27.489  1.00  0.00     0.063 A 
ATOM     72  C   UNL A   1      35.222  29.748  27.365  1.00  0.00     0.016 A 
ATOM     73  C   UNL A   1      33.104  30.834  27.048  1.00  0.00     0.055 A 
ATOM     74  C   UNL A   1      34.744  28.602  26.672  1.00  0.00     0.013 A 
ATOM     75  C   UNL A   1      32.632  29.676  26.384  1.00  0.00     0.132 A 
ATOM     76  C   UNL A   1      33.458  28.570  26.094  1.00  0.00     0.042 A 
ATOM     77  F   UNL A   1      31.373  29.706  25.918  1.00  0.00    -0.206 F 
BRANCH  76  78
ATOM     78  C   UNL A   1      33.049  27.432  25.123  1.00  0.00     0.302 C 
BRANCH  78  79
ATOM     79  N   UNL A   1      33.190  27.466  23.629  1.00  0.00    -0.322 N 
ATOM     80  C   UNL A   1      32.652  26.278  23.007  1.00  0.00     0.324 C 
ATOM     81  C   UNL A   1      32.718  28.623  22.784  1.00  0.00     0.328 C 
ATOM     82  H   UNL A   1      34.205  27.566  23.624  1.00  0.00     0.348 HD
ATOM     83  C   UNL A   1      31.110  26.284  22.994  1.00  0.00     0.324 C 
ATOM     84  C   UNL A   1      31.047  28.918  22.822  1.00  0.00     0.239 C 
ATOM     85  N   UNL A   1      30.361  27.445  23.564  1.00  0.00    -0.323 N 
ATOM     86  C   UNL A   1      29.581  30.266  21.736  1.00  0.00     0.071 C 
ATOM     87  C   UNL A   1      28.720  27.505  23.817  1.00  0.00     0.262 C 
ATOM     88  H   UNL A   1      30.518  27.315  24.562  1.00  0.00     0.348 HD
ATOM     89  C   UNL A   1      27.781  30.055  22.224  1.00  0.00     0.012 C 
ATOM     90  C   UNL A   1      27.430  28.574  22.983  1.00  0.00     0.062 C 
ENDBRANCH  78  79
ENDBRANCH  76  78
ENDBRANCH  69  71
ENDBRANCH  68  69
ENDBRANCH  67  68
ENDBRANCH   1  67
TORSDOF 16
ENDMDL
