MODEL 1
REMARK VINA RESULT:      -9.6      0.000      0.000
REMARK SMILES C=Cc1cncc(-c2ccc([C@@H](C)C(=O)OCCOC(=O)c3ccc(-c4c5nc(c(-c6ccc(S(=O)(=O)[O-])cc6)c6ccc([nH]6)c(-c6ccc(S(=O)(=O)[O-])cc6)c6nc(c(-c7ccc(S(=O)(=O)[O-])cc7)c7ccc4[nH]7)C=C6)C=C5)cc3)cc2)c1
REMARK SMILES IDX 17 1 16 2 14 3 15 4 12 5 13 6 11 7 8 8 9 9 83 10 10 11 82 12
REMARK SMILES IDX 7 13 3 14 4 15 84 16 5 17 6 18 2 19 1 20 18 21 19 22 20 23
REMARK SMILES IDX 21 24 22 25 23 26 81 27 24 28 80 29 25 30 26 31 27 32 74 33
REMARK SMILES IDX 28 34 79 35 73 36 75 37 29 38 78 39 72 40 71 41 30 43 60 44
REMARK SMILES IDX 41 45 59 46 42 47 45 48 58 49 76 50 43 51 44 52 57 54 77 55
REMARK SMILES IDX 46 56 31 57 32 58 40 59 33 60 39 61 34 62 35 63 36 64 37 65
REMARK SMILES IDX 38 66 61 67 62 68 70 69 63 70 69 71 64 72 65 73 66 74 67 75
REMARK SMILES IDX 68 76 47 77 48 78 56 79 49 80 55 81 50 82 51 83 52 84 53 85
REMARK SMILES IDX 54 86
REMARK H PARENT 75 42 45 53
REMARK Flexibility Score: inf
ROOT
ATOM      1  C   UNL A   1      33.528  34.265  28.726  1.00  0.00     0.274 C 
ENDROOT
BRANCH   1   2
ATOM      2  O   UNL A   1      33.645  34.071  30.147  1.00  0.00    -0.462 OA
BRANCH   2   3
ATOM      3  C   UNL A   1      33.564  35.181  30.925  1.00  0.00     0.313 C 
ATOM      4  O   UNL A   1      33.294  36.301  30.500  1.00  0.00    -0.252 OA
BRANCH   3   5
ATOM      5  C   UNL A   1      33.893  34.934  32.391  1.00  0.00     0.126 C 
ATOM      6  C   UNL A   1      33.907  36.263  33.145  1.00  0.00     0.025 C 
BRANCH   5   7
ATOM      7  C   UNL A   1      35.135  34.100  32.672  1.00  0.00    -0.034 A 
ATOM      8  C   UNL A   1      37.494  32.587  33.151  1.00  0.00    -0.017 A 
ATOM      9  C   UNL A   1      36.269  31.959  32.883  1.00  0.00     0.009 A 
ATOM     10  C   UNL A   1      37.515  33.988  33.197  1.00  0.00     0.009 A 
ATOM     11  C   UNL A   1      35.109  32.701  32.640  1.00  0.00     0.005 A 
ATOM     12  C   UNL A   1      36.353  34.733  32.960  1.00  0.00     0.005 A 
BRANCH   8  13
ATOM     13  C   UNL A   1      38.717  31.795  33.344  1.00  0.00     0.001 A 
ATOM     14  C   UNL A   1      39.981  29.718  33.218  1.00  0.00    -0.007 A 
ATOM     15  C   UNL A   1      41.061  30.415  33.759  1.00  0.00     0.119 A 
ATOM     16  C   UNL A   1      38.791  30.431  33.026  1.00  0.00     0.020 A 
ATOM     17  N   UNL A   1      41.043  31.727  34.083  1.00  0.00    -0.263 NA
ATOM     18  C   UNL A   1      39.874  32.376  33.868  1.00  0.00     0.119 A 
BRANCH  14  19
ATOM     19  C   UNL A   1      40.114  28.286  32.932  1.00  0.00     0.002 C 
ATOM     20  C   UNL A   1      39.124  27.524  32.449  1.00  0.00     0.009 C 
ENDBRANCH  14  19
ENDBRANCH   8  13
ENDBRANCH   5   7
ENDBRANCH   3   5
ENDBRANCH   2   3
ENDBRANCH   1   2
BRANCH   1  21
ATOM     21  C   UNL A   1      33.636  32.936  27.978  1.00  0.00     0.275 C 
BRANCH  21  22
ATOM     22  O   UNL A   1      34.394  31.975  28.734  1.00  0.00    -0.458 OA
BRANCH  22  23
ATOM     23  C   UNL A   1      34.504  30.752  28.169  1.00  0.00     0.338 C 
ATOM     24  O   UNL A   1      33.667  30.155  27.517  1.00  0.00    -0.246 OA
BRANCH  23  25
ATOM     25  C   UNL A   1      35.858  30.238  28.399  1.00  0.00     0.060 A 
ATOM     26  C   UNL A   1      36.247  29.902  29.699  1.00  0.00     0.016 A 
ATOM     27  C   UNL A   1      36.762  30.167  27.340  1.00  0.00     0.016 A 
ATOM     28  C   UNL A   1      37.558  29.502  29.951  1.00  0.00     0.010 A 
ATOM     29  C   UNL A   1      38.070  29.756  27.592  1.00  0.00     0.010 A 
ATOM     30  C   UNL A   1      38.479  29.434  28.899  1.00  0.00    -0.014 A 
BRANCH  30  31
ATOM     31  C   UNL A   1      39.896  29.080  29.144  1.00  0.00     0.031 A 
ATOM     32  C   UNL A   1      40.845  30.142  29.618  1.00  0.00     0.074 A 
ATOM     33  C   UNL A   1      40.334  27.834  28.888  1.00  0.00     0.049 A 
ATOM     34  N   UNL A   1      42.150  30.114  29.683  1.00  0.00    -0.248 NA
ATOM     35  C   UNL A   1      40.243  31.406  30.071  1.00  0.00     0.031 C 
ATOM     36  C   UNL A   1      39.495  26.707  28.485  1.00  0.00     0.029 A 
ATOM     37  N   UNL A   1      41.604  27.318  28.908  1.00  0.00    -0.354 N 
ATOM     38  C   UNL A   1      42.529  31.365  30.151  1.00  0.00     0.074 A 
ATOM     39  C   UNL A   1      41.317  32.130  30.352  1.00  0.00     0.031 C 
ATOM     40  C   UNL A   1      40.275  25.633  28.277  1.00  0.00     0.029 A 
ATOM     41  C   UNL A   1      41.671  26.015  28.475  1.00  0.00     0.049 A 
ATOM     42  H   UNL A   1      42.392  27.829  29.204  1.00  0.00     0.167 HD
ATOM     43  C   UNL A   1      43.779  31.834  30.382  1.00  0.00     0.031 A 
ATOM     44  C   UNL A   1      42.739  25.234  28.220  1.00  0.00     0.031 A 
ATOM     45  C   UNL A   1      44.975  31.064  30.172  1.00  0.00     0.049 A 
ATOM     46  C   UNL A   1      44.121  25.797  28.417  1.00  0.00     0.074 A 
ATOM     47  C   UNL A   1      46.291  31.447  30.360  1.00  0.00     0.029 A 
ATOM     48  N   UNL A   1      44.998  29.749  29.731  1.00  0.00    -0.354 N 
ATOM     49  N   UNL A   1      44.470  26.994  28.826  1.00  0.00    -0.248 NA
ATOM     50  C   UNL A   1      45.251  24.909  28.111  1.00  0.00     0.031 C 
ATOM     51  C   UNL A   1      47.113  30.375  29.997  1.00  0.00     0.029 A 
ATOM     52  C   UNL A   1      46.306  29.308  29.632  1.00  0.00     0.049 A 
ATOM     53  H   UNL A   1      44.203  29.210  29.518  1.00  0.00     0.167 HD
ATOM     54  C   UNL A   1      45.860  26.991  28.860  1.00  0.00     0.074 A 
ATOM     55  C   UNL A   1      46.288  25.676  28.428  1.00  0.00     0.031 C 
ATOM     56  C   UNL A   1      46.707  27.986  29.221  1.00  0.00     0.031 A 
BRANCH  43  57
ATOM     57  C   UNL A   1      43.911  33.259  30.845  1.00  0.00    -0.014 A 
ATOM     58  C   UNL A   1      43.815  33.596  32.207  1.00  0.00     0.010 A 
ATOM     59  C   UNL A   1      44.163  34.274  29.904  1.00  0.00     0.010 A 
ATOM     60  C   UNL A   1      43.929  34.928  32.615  1.00  0.00     0.020 A 
ATOM     61  C   UNL A   1      44.301  35.604  30.311  1.00  0.00     0.020 A 
ATOM     62  C   UNL A   1      44.164  35.924  31.663  1.00  0.00     0.054 A 
BRANCH  62  63
ATOM     63  S   UNL A   1      44.316  37.646  32.218  1.00  0.00     0.124 S 
ATOM     64  O   UNL A   1      45.760  37.775  32.399  1.00  0.00    -0.237 OA
ATOM     65  O   UNL A   1      43.755  38.396  31.097  1.00  0.00    -0.237 OA
ATOM     66  O   UNL A   1      43.527  37.685  33.446  1.00  0.00    -0.744 OA
ENDBRANCH  62  63
ENDBRANCH  43  57
BRANCH  44  67
ATOM     67  C   UNL A   1      42.542  23.849  27.717  1.00  0.00    -0.014 A 
ATOM     68  C   UNL A   1      42.118  22.828  28.585  1.00  0.00     0.010 A 
ATOM     69  C   UNL A   1      42.760  23.545  26.360  1.00  0.00     0.010 A 
ATOM     70  C   UNL A   1      41.929  21.528  28.110  1.00  0.00     0.020 A 
ATOM     71  C   UNL A   1      42.549  22.252  25.876  1.00  0.00     0.020 A 
ATOM     72  C   UNL A   1      42.146  21.248  26.757  1.00  0.00     0.054 A 
BRANCH  72  73
ATOM     73  S   UNL A   1      41.844  19.565  26.149  1.00  0.00     0.124 S 
ATOM     74  O   UNL A   1      42.672  19.523  24.948  1.00  0.00    -0.237 OA
ATOM     75  O   UNL A   1      42.301  18.737  27.263  1.00  0.00    -0.237 OA
ATOM     76  O   UNL A   1      40.402  19.540  25.918  1.00  0.00    -0.744 OA
ENDBRANCH  72  73
ENDBRANCH  44  67
BRANCH  56  77
ATOM     77  C   UNL A   1      48.178  27.682  29.231  1.00  0.00    -0.014 A 
ATOM     78  C   UNL A   1      48.979  27.911  28.100  1.00  0.00     0.010 A 
ATOM     79  C   UNL A   1      48.781  27.248  30.427  1.00  0.00     0.010 A 
ATOM     80  C   UNL A   1      50.360  27.705  28.163  1.00  0.00     0.020 A 
ATOM     81  C   UNL A   1      50.162  27.061  30.499  1.00  0.00     0.020 A 
ATOM     82  C   UNL A   1      50.943  27.285  29.363  1.00  0.00     0.054 A 
BRANCH  82  83
ATOM     83  S   UNL A   1      52.746  27.104  29.446  1.00  0.00     0.124 S 
ATOM     84  O   UNL A   1      53.183  28.485  29.623  1.00  0.00    -0.237 OA
ATOM     85  O   UNL A   1      52.929  26.232  30.604  1.00  0.00    -0.237 OA
ATOM     86  O   UNL A   1      53.092  26.500  28.161  1.00  0.00    -0.744 OA
ENDBRANCH  82  83
ENDBRANCH  56  77
ENDBRANCH  30  31
ENDBRANCH  23  25
ENDBRANCH  22  23
ENDBRANCH  21  22
ENDBRANCH   1  21
TORSDOF 17
ENDMDL
MODEL 2
REMARK VINA RESULT:      -9.3      4.814     11.778
REMARK SMILES C=Cc1cncc(-c2ccc([C@@H](C)C(=O)OCCOC(=O)c3ccc(-c4c5nc(c(-c6ccc(S(=O)(=O)[O-])cc6)c6ccc([nH]6)c(-c6ccc(S(=O)(=O)[O-])cc6)c6nc(c(-c7ccc(S(=O)(=O)[O-])cc7)c7ccc4[nH]7)C=C6)C=C5)cc3)cc2)c1
REMARK SMILES IDX 17 1 16 2 14 3 15 4 12 5 13 6 11 7 8 8 9 9 83 10 10 11 82 12
REMARK SMILES IDX 7 13 3 14 4 15 84 16 5 17 6 18 2 19 1 20 18 21 19 22 20 23
REMARK SMILES IDX 21 24 22 25 23 26 81 27 24 28 80 29 25 30 26 31 27 32 74 33
REMARK SMILES IDX 28 34 79 35 73 36 75 37 29 38 78 39 72 40 71 41 30 43 60 44
REMARK SMILES IDX 41 45 59 46 42 47 45 48 58 49 76 50 43 51 44 52 57 54 77 55
REMARK SMILES IDX 46 56 31 57 32 58 40 59 33 60 39 61 34 62 35 63 36 64 37 65
REMARK SMILES IDX 38 66 61 67 62 68 70 69 63 70 69 71 64 72 65 73 66 74 67 75
REMARK SMILES IDX 68 76 47 77 48 78 56 79 49 80 55 81 50 82 51 83 52 84 53 85
REMARK SMILES IDX 54 86
REMARK H PARENT 75 42 45 53
REMARK Flexibility Score: inf
ROOT
ATOM      1  C   UNL A   1      43.696  23.399  26.015  1.00  0.00     0.274 C 
ENDROOT
BRANCH   1   2
ATOM      2  O   UNL A   1      42.835  22.266  26.230  1.00  0.00    -0.462 OA
BRANCH   2   3
ATOM      3  C   UNL A   1      42.218  22.186  27.437  1.00  0.00     0.313 C 
ATOM      4  O   UNL A   1      42.646  22.707  28.463  1.00  0.00    -0.252 OA
BRANCH   3   5
ATOM      5  C   UNL A   1      40.955  21.336  27.431  1.00  0.00     0.126 C 
ATOM      6  C   UNL A   1      41.289  19.925  26.949  1.00  0.00     0.025 C 
BRANCH   5   7
ATOM      7  C   UNL A   1      39.752  21.922  26.708  1.00  0.00    -0.034 A 
ATOM      8  C   UNL A   1      37.482  23.052  25.419  1.00  0.00    -0.017 A 
ATOM      9  C   UNL A   1      37.835  21.708  25.225  1.00  0.00     0.009 A 
ATOM     10  C   UNL A   1      38.298  23.829  26.254  1.00  0.00     0.009 A 
ATOM     11  C   UNL A   1      38.946  21.149  25.863  1.00  0.00     0.005 A 
ATOM     12  C   UNL A   1      39.415  23.272  26.889  1.00  0.00     0.005 A 
BRANCH   8  13
ATOM     13  C   UNL A   1      36.277  23.609  24.790  1.00  0.00     0.001 A 
ATOM     14  C   UNL A   1      34.307  25.041  24.797  1.00  0.00    -0.007 A 
ATOM     15  C   UNL A   1      34.041  24.576  23.511  1.00  0.00     0.119 A 
ATOM     16  C   UNL A   1      35.442  24.530  25.440  1.00  0.00     0.020 A 
ATOM     17  N   UNL A   1      34.811  23.691  22.839  1.00  0.00    -0.263 NA
ATOM     18  C   UNL A   1      35.902  23.234  23.498  1.00  0.00     0.119 A 
BRANCH  14  19
ATOM     19  C   UNL A   1      33.381  25.983  25.433  1.00  0.00     0.002 C 
ATOM     20  C   UNL A   1      33.688  27.254  25.724  1.00  0.00     0.009 C 
ENDBRANCH  14  19
ENDBRANCH   8  13
ENDBRANCH   5   7
ENDBRANCH   3   5
ENDBRANCH   2   3
ENDBRANCH   1   2
BRANCH   1  21
ATOM     21  C   UNL A   1      43.024  24.439  25.118  1.00  0.00     0.275 C 
BRANCH  21  22
ATOM     22  O   UNL A   1      42.063  25.216  25.853  1.00  0.00    -0.458 OA
BRANCH  22  23
ATOM     23  C   UNL A   1      42.114  26.550  25.639  1.00  0.00     0.338 C 
ATOM     24  O   UNL A   1      42.395  27.128  24.606  1.00  0.00    -0.246 OA
BRANCH  23  25
ATOM     25  C   UNL A   1      41.700  27.247  26.861  1.00  0.00     0.060 A 
ATOM     26  C   UNL A   1      42.182  28.536  27.107  1.00  0.00     0.016 A 
ATOM     27  C   UNL A   1      40.902  26.590  27.798  1.00  0.00     0.016 A 
ATOM     28  C   UNL A   1      41.876  29.176  28.306  1.00  0.00     0.010 A 
ATOM     29  C   UNL A   1      40.588  27.236  28.992  1.00  0.00     0.010 A 
ATOM     30  C   UNL A   1      41.083  28.526  29.259  1.00  0.00    -0.014 A 
BRANCH  30  31
ATOM     31  C   UNL A   1      40.797  29.150  30.571  1.00  0.00     0.031 A 
ATOM     32  C   UNL A   1      39.699  30.168  30.675  1.00  0.00     0.074 A 
ATOM     33  C   UNL A   1      41.553  28.845  31.642  1.00  0.00     0.049 A 
ATOM     34  N   UNL A   1      39.426  30.990  31.653  1.00  0.00    -0.248 NA
ATOM     35  C   UNL A   1      38.795  30.279  29.518  1.00  0.00     0.031 C 
ATOM     36  C   UNL A   1      42.603  27.829  31.677  1.00  0.00     0.029 A 
ATOM     37  N   UNL A   1      41.564  29.385  32.903  1.00  0.00    -0.354 N 
ATOM     38  C   UNL A   1      38.341  31.741  31.218  1.00  0.00     0.074 A 
ATOM     39  C   UNL A   1      38.007  31.278  29.889  1.00  0.00     0.031 C 
ATOM     40  C   UNL A   1      43.172  27.830  32.894  1.00  0.00     0.029 A 
ATOM     41  C   UNL A   1      42.566  28.886  33.701  1.00  0.00     0.049 A 
ATOM     42  H   UNL A   1      40.920  30.064  33.207  1.00  0.00     0.167 HD
ATOM     43  C   UNL A   1      37.689  32.734  31.871  1.00  0.00     0.031 A 
ATOM     44  C   UNL A   1      42.978  29.268  34.925  1.00  0.00     0.031 A 
ATOM     45  C   UNL A   1      38.036  33.187  33.191  1.00  0.00     0.049 A 
ATOM     46  C   UNL A   1      42.287  30.420  35.603  1.00  0.00     0.074 A 
ATOM     47  C   UNL A   1      37.452  34.196  33.937  1.00  0.00     0.029 A 
ATOM     48  N   UNL A   1      39.058  32.656  33.963  1.00  0.00    -0.354 N 
ATOM     49  N   UNL A   1      41.284  31.147  35.170  1.00  0.00    -0.248 NA
ATOM     50  C   UNL A   1      42.784  30.807  36.931  1.00  0.00     0.031 C 
ATOM     51  C   UNL A   1      38.145  34.298  35.147  1.00  0.00     0.029 A 
ATOM     52  C   UNL A   1      39.127  33.320  35.175  1.00  0.00     0.049 A 
ATOM     53  H   UNL A   1      39.647  31.917  33.690  1.00  0.00     0.167 HD
ATOM     54  C   UNL A   1      41.009  32.055  36.186  1.00  0.00     0.074 A 
ATOM     55  C   UNL A   1      41.950  31.788  37.254  1.00  0.00     0.031 C 
ATOM     56  C   UNL A   1      40.059  33.021  36.233  1.00  0.00     0.031 A 
BRANCH  43  57
ATOM     57  C   UNL A   1      36.567  33.423  31.143  1.00  0.00    -0.014 A 
ATOM     58  C   UNL A   1      36.752  33.958  29.856  1.00  0.00     0.010 A 
ATOM     59  C   UNL A   1      35.299  33.510  31.747  1.00  0.00     0.010 A 
ATOM     60  C   UNL A   1      35.698  34.604  29.202  1.00  0.00     0.020 A 
ATOM     61  C   UNL A   1      34.238  34.134  31.086  1.00  0.00     0.020 A 
ATOM     62  C   UNL A   1      34.450  34.694  29.825  1.00  0.00     0.054 A 
BRANCH  62  63
ATOM     63  S   UNL A   1      33.096  35.531  28.953  1.00  0.00     0.124 S 
ATOM     64  O   UNL A   1      32.308  36.061  30.063  1.00  0.00    -0.237 OA
ATOM     65  O   UNL A   1      33.798  36.528  28.149  1.00  0.00    -0.237 OA
ATOM     66  O   UNL A   1      32.459  34.458  28.193  1.00  0.00    -0.744 OA
ENDBRANCH  62  63
ENDBRANCH  43  57
BRANCH  44  67
ATOM     67  C   UNL A   1      44.127  28.578  35.571  1.00  0.00    -0.014 A 
ATOM     68  C   UNL A   1      45.441  29.031  35.362  1.00  0.00     0.010 A 
ATOM     69  C   UNL A   1      43.910  27.472  36.414  1.00  0.00     0.010 A 
ATOM     70  C   UNL A   1      46.518  28.384  35.973  1.00  0.00     0.020 A 
ATOM     71  C   UNL A   1      44.982  26.838  37.046  1.00  0.00     0.020 A 
ATOM     72  C   UNL A   1      46.282  27.291  36.813  1.00  0.00     0.054 A 
BRANCH  72  73
ATOM     73  S   UNL A   1      47.690  26.498  37.638  1.00  0.00     0.124 S 
ATOM     74  O   UNL A   1      48.563  26.184  36.513  1.00  0.00    -0.237 OA
ATOM     75  O   UNL A   1      48.166  27.549  38.535  1.00  0.00    -0.237 OA
ATOM     76  O   UNL A   1      47.089  25.347  38.307  1.00  0.00    -0.744 OA
ENDBRANCH  72  73
ENDBRANCH  44  67
BRANCH  56  77
ATOM     77  C   UNL A   1      39.939  33.821  37.499  1.00  0.00    -0.014 A 
ATOM     78  C   UNL A   1      40.696  34.987  37.700  1.00  0.00     0.010 A 
ATOM     79  C   UNL A   1      38.980  33.448  38.459  1.00  0.00     0.010 A 
ATOM     80  C   UNL A   1      40.501  35.764  38.846  1.00  0.00     0.020 A 
ATOM     81  C   UNL A   1      38.768  34.231  39.594  1.00  0.00     0.020 A 
ATOM     82  C   UNL A   1      39.535  35.382  39.783  1.00  0.00     0.054 A 
BRANCH  82  83
ATOM     83  S   UNL A   1      39.241  36.448  41.222  1.00  0.00     0.124 S 
ATOM     84  O   UNL A   1      40.574  36.540  41.810  1.00  0.00    -0.237 OA
ATOM     85  O   UNL A   1      38.735  37.677  40.615  1.00  0.00    -0.237 OA
ATOM     86  O   UNL A   1      38.262  35.703  42.010  1.00  0.00    -0.744 OA
ENDBRANCH  82  83
ENDBRANCH  56  77
ENDBRANCH  30  31
ENDBRANCH  23  25
ENDBRANCH  22  23
ENDBRANCH  21  22
ENDBRANCH   1  21
TORSDOF 17
ENDMDL
MODEL 3
REMARK VINA RESULT:      -9.1      2.096      8.670
REMARK SMILES C=Cc1cncc(-c2ccc([C@@H](C)C(=O)OCCOC(=O)c3ccc(-c4c5nc(c(-c6ccc(S(=O)(=O)[O-])cc6)c6ccc([nH]6)c(-c6ccc(S(=O)(=O)[O-])cc6)c6nc(c(-c7ccc(S(=O)(=O)[O-])cc7)c7ccc4[nH]7)C=C6)C=C5)cc3)cc2)c1
REMARK SMILES IDX 17 1 16 2 14 3 15 4 12 5 13 6 11 7 8 8 9 9 83 10 10 11 82 12
REMARK SMILES IDX 7 13 3 14 4 15 84 16 5 17 6 18 2 19 1 20 18 21 19 22 20 23
REMARK SMILES IDX 21 24 22 25 23 26 81 27 24 28 80 29 25 30 26 31 27 32 74 33
REMARK SMILES IDX 28 34 79 35 73 36 75 37 29 38 78 39 72 40 71 41 30 43 60 44
REMARK SMILES IDX 41 45 59 46 42 47 45 48 58 49 76 50 43 51 44 52 57 54 77 55
REMARK SMILES IDX 46 56 31 57 32 58 40 59 33 60 39 61 34 62 35 63 36 64 37 65
REMARK SMILES IDX 38 66 61 67 62 68 70 69 63 70 69 71 64 72 65 73 66 74 67 75
REMARK SMILES IDX 68 76 47 77 48 78 56 79 49 80 55 81 50 82 51 83 52 84 53 85
REMARK SMILES IDX 54 86
REMARK H PARENT 75 42 45 53
REMARK Flexibility Score: inf
ROOT
ATOM      1  C   UNL A   1      34.586  33.579  28.582  1.00  0.00     0.274 C 
ENDROOT
BRANCH   1   2
ATOM      2  O   UNL A   1      34.544  33.305  29.994  1.00  0.00    -0.462 OA
BRANCH   2   3
ATOM      3  C   UNL A   1      35.679  32.818  30.558  1.00  0.00     0.313 C 
ATOM      4  O   UNL A   1      36.777  32.825  30.009  1.00  0.00    -0.252 OA
BRANCH   3   5
ATOM      5  C   UNL A   1      35.470  32.203  31.935  1.00  0.00     0.126 C 
ATOM      6  C   UNL A   1      34.626  33.143  32.794  1.00  0.00     0.025 C 
BRANCH   5   7
ATOM      7  C   UNL A   1      36.722  31.730  32.659  1.00  0.00    -0.034 A 
ATOM      8  C   UNL A   1      39.023  30.789  34.040  1.00  0.00    -0.017 A 
ATOM      9  C   UNL A   1      38.689  32.151  34.027  1.00  0.00     0.009 A 
ATOM     10  C   UNL A   1      38.197  29.906  33.331  1.00  0.00     0.009 A 
ATOM     11  C   UNL A   1      37.554  32.615  33.355  1.00  0.00     0.005 A 
ATOM     12  C   UNL A   1      37.064  30.369  32.652  1.00  0.00     0.005 A 
BRANCH   8  13
ATOM     13  C   UNL A   1      40.185  30.309  34.801  1.00  0.00     0.001 A 
ATOM     14  C   UNL A   1      42.087  28.823  35.124  1.00  0.00    -0.007 A 
ATOM     15  C   UNL A   1      42.330  29.496  36.320  1.00  0.00     0.119 A 
ATOM     16  C   UNL A   1      40.983  29.240  34.368  1.00  0.00     0.020 A 
ATOM     17  N   UNL A   1      41.594  30.531  36.783  1.00  0.00    -0.263 NA
ATOM     18  C   UNL A   1      40.545  30.904  36.013  1.00  0.00     0.119 A 
BRANCH  14  19
ATOM     19  C   UNL A   1      42.941  27.696  34.739  1.00  0.00     0.002 C 
ATOM     20  C   UNL A   1      44.062  27.350  35.386  1.00  0.00     0.009 C 
ENDBRANCH  14  19
ENDBRANCH   8  13
ENDBRANCH   5   7
ENDBRANCH   3   5
ENDBRANCH   2   3
ENDBRANCH   1   2
BRANCH   1  21
ATOM     21  C   UNL A   1      33.840  32.503  27.791  1.00  0.00     0.275 C 
BRANCH  21  22
ATOM     22  O   UNL A   1      33.951  31.219  28.427  1.00  0.00    -0.458 OA
BRANCH  22  23
ATOM     23  C   UNL A   1      34.368  30.211  27.627  1.00  0.00     0.338 C 
ATOM     24  O   UNL A   1      33.762  29.692  26.708  1.00  0.00    -0.246 OA
BRANCH  23  25
ATOM     25  C   UNL A   1      35.743  29.851  27.987  1.00  0.00     0.060 A 
ATOM     26  C   UNL A   1      36.003  29.351  29.267  1.00  0.00     0.016 A 
ATOM     27  C   UNL A   1      36.780  30.086  27.085  1.00  0.00     0.016 A 
ATOM     28  C   UNL A   1      37.316  29.092  29.658  1.00  0.00     0.010 A 
ATOM     29  C   UNL A   1      38.091  29.817  27.475  1.00  0.00     0.010 A 
ATOM     30  C   UNL A   1      38.368  29.332  28.766  1.00  0.00    -0.014 A 
BRANCH  30  31
ATOM     31  C   UNL A   1      39.777  29.133  29.175  1.00  0.00     0.031 A 
ATOM     32  C   UNL A   1      40.455  27.831  28.861  1.00  0.00     0.074 A 
ATOM     33  C   UNL A   1      40.420  30.091  29.868  1.00  0.00     0.049 A 
ATOM     34  N   UNL A   1      41.589  27.362  29.310  1.00  0.00    -0.248 NA
ATOM     35  C   UNL A   1      39.757  26.937  27.923  1.00  0.00     0.031 C 
ATOM     36  C   UNL A   1      39.886  31.417  30.177  1.00  0.00     0.029 A 
ATOM     37  N   UNL A   1      41.657  30.079  30.461  1.00  0.00    -0.354 N 
ATOM     38  C   UNL A   1      41.726  26.103  28.738  1.00  0.00     0.074 A 
ATOM     39  C   UNL A   1      40.559  25.882  27.911  1.00  0.00     0.031 C 
ATOM     40  C   UNL A   1      40.784  32.087  30.918  1.00  0.00     0.029 A 
ATOM     41  C   UNL A   1      41.926  31.216  31.185  1.00  0.00     0.049 A 
ATOM     42  H   UNL A   1      42.291  29.330  30.376  1.00  0.00     0.167 HD
ATOM     43  C   UNL A   1      42.733  25.211  28.898  1.00  0.00     0.031 A 
ATOM     44  C   UNL A   1      42.953  31.504  32.008  1.00  0.00     0.031 A 
ATOM     45  C   UNL A   1      43.884  25.443  29.728  1.00  0.00     0.049 A 
ATOM     46  C   UNL A   1      44.026  30.471  32.227  1.00  0.00     0.074 A 
ATOM     47  C   UNL A   1      44.954  24.601  29.973  1.00  0.00     0.029 A 
ATOM     48  N   UNL A   1      44.116  26.607  30.445  1.00  0.00    -0.354 N 
ATOM     49  N   UNL A   1      44.129  29.270  31.709  1.00  0.00    -0.248 NA
ATOM     50  C   UNL A   1      45.116  30.829  33.145  1.00  0.00     0.031 C 
ATOM     51  C   UNL A   1      45.817  25.242  30.868  1.00  0.00     0.029 A 
ATOM     52  C   UNL A   1      45.309  26.503  31.140  1.00  0.00     0.049 A 
ATOM     53  H   UNL A   1      43.522  27.391  30.459  1.00  0.00     0.167 HD
ATOM     54  C   UNL A   1      45.312  28.742  32.212  1.00  0.00     0.074 A 
ATOM     55  C   UNL A   1      45.889  29.752  33.075  1.00  0.00     0.031 C 
ATOM     56  C   UNL A   1      45.874  27.531  31.976  1.00  0.00     0.031 A 
BRANCH  43  57
ATOM     57  C   UNL A   1      42.605  23.887  28.194  1.00  0.00    -0.014 A 
ATOM     58  C   UNL A   1      43.274  23.638  26.983  1.00  0.00     0.010 A 
ATOM     59  C   UNL A   1      41.826  22.867  28.770  1.00  0.00     0.010 A 
ATOM     60  C   UNL A   1      43.133  22.405  26.339  1.00  0.00     0.020 A 
ATOM     61  C   UNL A   1      41.702  21.626  28.142  1.00  0.00     0.020 A 
ATOM     62  C   UNL A   1      42.342  21.409  26.920  1.00  0.00     0.054 A 
BRANCH  62  63
ATOM     63  S   UNL A   1      42.181  19.814  26.070  1.00  0.00     0.124 S 
ATOM     64  O   UNL A   1      40.756  19.789  25.747  1.00  0.00    -0.237 OA
ATOM     65  O   UNL A   1      43.080  19.965  24.929  1.00  0.00    -0.237 OA
ATOM     66  O   UNL A   1      42.610  18.843  27.073  1.00  0.00    -0.744 OA
ENDBRANCH  62  63
ENDBRANCH  43  57
BRANCH  44  67
ATOM     67  C   UNL A   1      42.995  32.813  32.712  1.00  0.00    -0.014 A 
ATOM     68  C   UNL A   1      43.569  33.937  32.095  1.00  0.00     0.010 A 
ATOM     69  C   UNL A   1      42.445  32.946  34.001  1.00  0.00     0.010 A 
ATOM     70  C   UNL A   1      43.604  35.167  32.757  1.00  0.00     0.020 A 
ATOM     71  C   UNL A   1      42.456  34.180  34.656  1.00  0.00     0.020 A 
ATOM     72  C   UNL A   1      43.046  35.281  34.035  1.00  0.00     0.054 A 
BRANCH  72  73
ATOM     73  S   UNL A   1      43.054  36.900  34.855  1.00  0.00     0.124 S 
ATOM     74  O   UNL A   1      43.046  37.815  33.719  1.00  0.00    -0.237 OA
ATOM     75  O   UNL A   1      41.826  36.862  35.647  1.00  0.00    -0.237 OA
ATOM     76  O   UNL A   1      44.289  36.879  35.636  1.00  0.00    -0.744 OA
ENDBRANCH  72  73
ENDBRANCH  44  67
BRANCH  56  77
ATOM     77  C   UNL A   1      47.209  27.247  32.603  1.00  0.00    -0.014 A 
ATOM     78  C   UNL A   1      48.406  27.661  31.995  1.00  0.00     0.010 A 
ATOM     79  C   UNL A   1      47.255  26.640  33.872  1.00  0.00     0.010 A 
ATOM     80  C   UNL A   1      49.629  27.465  32.642  1.00  0.00     0.020 A 
ATOM     81  C   UNL A   1      48.473  26.460  34.531  1.00  0.00     0.020 A 
ATOM     82  C   UNL A   1      49.654  26.869  33.908  1.00  0.00     0.054 A 
BRANCH  82  83
ATOM     83  S   UNL A   1      51.244  26.699  34.766  1.00  0.00     0.124 S 
ATOM     84  O   UNL A   1      52.020  25.911  33.813  1.00  0.00    -0.237 OA
ATOM     85  O   UNL A   1      51.671  28.086  34.930  1.00  0.00    -0.237 OA
ATOM     86  O   UNL A   1      50.895  26.011  36.007  1.00  0.00    -0.744 OA
ENDBRANCH  82  83
ENDBRANCH  56  77
ENDBRANCH  30  31
ENDBRANCH  23  25
ENDBRANCH  22  23
ENDBRANCH  21  22
ENDBRANCH   1  21
TORSDOF 17
ENDMDL
