MODEL 1
REMARK VINA RESULT:     -10.7      0.000      0.000
REMARK SMILES C[C@H]1CCC[C@H](C)N1C(=O)C[N@@H+](CC(=O)OCCOC(=O)c1ccc(-c2c3nc(c(-c4ccc(S(=O)(=O)[O-])cc4)c4ccc([nH]4)c(-c4ccc(S(=O)(=O)[O-])cc4)c4nc(c(-c5ccc(S(=O)(=O)[O-])cc5)c5ccc2[nH]5)C=C4)C=C3)cc1)C(C)(C)C
REMARK SMILES IDX 17 1 16 2 14 3 15 4 13 5 12 6 11 8 9 9 1 10 2 11 3 12 8 13
REMARK SMILES IDX 4 14 6 15 5 16 7 17 10 18 82 19 83 20 84 21 85 22 18 23
REMARK SMILES IDX 19 24 20 25 21 26 22 27 23 28 81 29 24 30 80 31 25 32 26 33
REMARK SMILES IDX 27 34 74 35 28 36 79 37 73 38 75 39 29 40 78 41 72 42 71 43
REMARK SMILES IDX 30 45 60 46 41 47 59 48 42 49 45 50 58 51 76 52 43 53 44 54
REMARK SMILES IDX 57 56 77 57 46 58 31 59 32 60 40 61 33 62 39 63 34 64 35 65
REMARK SMILES IDX 36 66 37 67 38 68 61 69 62 70 70 71 63 72 69 73 64 74 65 75
REMARK SMILES IDX 66 76 67 77 68 78 47 79 48 80 56 81 49 82 55 83 50 84 51 85
REMARK SMILES IDX 52 86 53 87 54 88
REMARK H PARENT 12 7 75 44 45 55
REMARK Flexibility Score: inf
ROOT
ATOM      1  C   UNL A   1      37.999  22.116  25.666  1.00  0.00     0.274 C 
ENDROOT
BRANCH   1   2
ATOM      2  O   UNL A   1      36.755  21.526  26.100  1.00  0.00    -0.458 OA
BRANCH   2   3
ATOM      3  C   UNL A   1      35.781  21.467  25.164  1.00  0.00     0.361 C 
ATOM      4  O   UNL A   1      35.877  21.994  24.055  1.00  0.00    -0.245 OA
BRANCH   3   5
ATOM      5  C   UNL A   1      34.509  20.722  25.542  1.00  0.00     0.387 C 
BRANCH   5   6
ATOM      6  N   UNL A   1      33.642  20.068  24.524  1.00  0.00    -0.314 N 
ATOM      7  H   UNL A   1      34.131  20.163  23.634  1.00  0.00     0.349 HD
BRANCH   6   8
ATOM      8  C   UNL A   1      32.385  20.813  24.344  1.00  0.00     0.364 C 
BRANCH   8   9
ATOM      9  C   UNL A   1      32.491  22.123  23.561  1.00  0.00     0.278 C 
ATOM     10  C   UNL A   1      31.766  22.917  26.567  1.00  0.00     0.031 C 
ATOM     11  C   UNL A   1      32.323  23.864  25.519  1.00  0.00     0.082 C 
ATOM     12  C   UNL A   1      33.497  24.646  26.142  1.00  0.00     0.025 C 
ATOM     13  N   UNL A   1      32.675  23.374  24.158  1.00  0.00    -0.332 N 
ATOM     14  C   UNL A   1      33.991  25.764  25.232  1.00  0.00     0.004 C 
ATOM     15  C   UNL A   1      33.128  24.440  23.233  1.00  0.00     0.082 C 
ATOM     16  C   UNL A   1      34.290  25.246  23.833  1.00  0.00     0.025 C 
ATOM     17  C   UNL A   1      31.970  25.331  22.775  1.00  0.00     0.031 C 
ATOM     18  O   UNL A   1      32.410  22.032  22.324  1.00  0.00    -0.268 OA
ENDBRANCH   8   9
ENDBRANCH   6   8
BRANCH   6  19
ATOM     19  C   UNL A   1      33.638  18.581  24.431  1.00  0.00     0.090 C 
ATOM     20  C   UNL A   1      35.032  17.924  24.438  1.00  0.00     0.078 C 
ATOM     21  C   UNL A   1      32.860  17.952  25.612  1.00  0.00     0.078 C 
ATOM     22  C   UNL A   1      32.856  18.096  23.186  1.00  0.00     0.078 C 
ENDBRANCH   6  19
ENDBRANCH   5   6
ENDBRANCH   3   5
ENDBRANCH   2   3
ENDBRANCH   1   2
BRANCH   1  23
ATOM     23  C   UNL A   1      38.122  23.573  26.111  1.00  0.00     0.275 C 
BRANCH  23  24
ATOM     24  O   UNL A   1      39.338  23.782  26.851  1.00  0.00    -0.458 OA
BRANCH  24  25
ATOM     25  C   UNL A   1      40.027  24.889  26.499  1.00  0.00     0.338 C 
ATOM     26  O   UNL A   1      40.522  25.132  25.406  1.00  0.00    -0.246 OA
BRANCH  25  27
ATOM     27  C   UNL A   1      40.159  25.825  27.624  1.00  0.00     0.060 A 
ATOM     28  C   UNL A   1      39.334  25.730  28.748  1.00  0.00     0.016 A 
ATOM     29  C   UNL A   1      41.006  26.922  27.457  1.00  0.00     0.016 A 
ATOM     30  C   UNL A   1      39.306  26.775  29.671  1.00  0.00     0.010 A 
ATOM     31  C   UNL A   1      41.032  27.928  28.419  1.00  0.00     0.010 A 
ATOM     32  C   UNL A   1      40.168  27.873  29.523  1.00  0.00    -0.014 A 
BRANCH  32  33
ATOM     33  C   UNL A   1      40.261  28.918  30.569  1.00  0.00     0.031 A 
ATOM     34  C   UNL A   1      41.226  28.797  31.714  1.00  0.00     0.074 A 
ATOM     35  C   UNL A   1      39.393  29.945  30.513  1.00  0.00     0.049 A 
ATOM     36  N   UNL A   1      41.310  29.526  32.797  1.00  0.00    -0.248 NA
ATOM     37  C   UNL A   1      42.222  27.715  31.639  1.00  0.00     0.031 C 
ATOM     38  C   UNL A   1      38.411  30.161  29.446  1.00  0.00     0.029 A 
ATOM     39  N   UNL A   1      39.180  30.987  31.378  1.00  0.00    -0.354 N 
ATOM     40  C   UNL A   1      42.345  28.981  33.547  1.00  0.00     0.074 A 
ATOM     41  C   UNL A   1      42.864  27.858  32.793  1.00  0.00     0.031 C 
ATOM     42  C   UNL A   1      37.705  31.267  29.716  1.00  0.00     0.029 A 
ATOM     43  C   UNL A   1      38.138  31.798  31.003  1.00  0.00     0.049 A 
ATOM     44  H   UNL A   1      39.721  31.137  32.187  1.00  0.00     0.167 HD
ATOM     45  C   UNL A   1      42.808  29.378  34.758  1.00  0.00     0.031 A 
ATOM     46  C   UNL A   1      37.557  32.830  31.640  1.00  0.00     0.031 A 
ATOM     47  C   UNL A   1      42.277  30.494  35.499  1.00  0.00     0.049 A 
ATOM     48  C   UNL A   1      38.066  33.229  32.990  1.00  0.00     0.074 A 
ATOM     49  C   UNL A   1      42.687  30.988  36.727  1.00  0.00     0.029 A 
ATOM     50  N   UNL A   1      41.219  31.289  35.085  1.00  0.00    -0.354 N 
ATOM     51  N   UNL A   1      39.038  32.694  33.688  1.00  0.00    -0.248 NA
ATOM     52  C   UNL A   1      37.393  34.358  33.641  1.00  0.00     0.031 C 
ATOM     53  C   UNL A   1      41.853  32.059  37.069  1.00  0.00     0.029 A 
ATOM     54  C   UNL A   1      40.948  32.256  36.039  1.00  0.00     0.049 A 
ATOM     55  H   UNL A   1      40.732  31.182  34.235  1.00  0.00     0.167 HD
ATOM     56  C   UNL A   1      39.092  33.420  34.869  1.00  0.00     0.074 A 
ATOM     57  C   UNL A   1      38.071  34.446  34.778  1.00  0.00     0.031 C 
ATOM     58  C   UNL A   1      39.911  33.249  35.936  1.00  0.00     0.031 A 
BRANCH  45  59
ATOM     59  C   UNL A   1      43.923  28.581  35.379  1.00  0.00    -0.014 A 
ATOM     60  C   UNL A   1      45.269  28.934  35.178  1.00  0.00     0.010 A 
ATOM     61  C   UNL A   1      43.618  27.505  36.232  1.00  0.00     0.010 A 
ATOM     62  C   UNL A   1      46.291  28.208  35.800  1.00  0.00     0.020 A 
ATOM     63  C   UNL A   1      44.636  26.786  36.867  1.00  0.00     0.020 A 
ATOM     64  C   UNL A   1      45.968  27.133  36.636  1.00  0.00     0.054 A 
BRANCH  64  65
ATOM     65  S   UNL A   1      47.308  26.225  37.458  1.00  0.00     0.124 S 
ATOM     66  O   UNL A   1      47.017  24.847  37.069  1.00  0.00    -0.237 OA
ATOM     67  O   UNL A   1      48.509  26.805  36.862  1.00  0.00    -0.237 OA
ATOM     68  O   UNL A   1      47.112  26.527  38.874  1.00  0.00    -0.744 OA
ENDBRANCH  64  65
ENDBRANCH  45  59
BRANCH  46  69
ATOM     69  C   UNL A   1      36.402  33.510  31.005  1.00  0.00    -0.014 A 
ATOM     70  C   UNL A   1      35.264  33.833  31.762  1.00  0.00     0.010 A 
ATOM     71  C   UNL A   1      36.478  33.924  29.662  1.00  0.00     0.010 A 
ATOM     72  C   UNL A   1      34.224  34.570  31.189  1.00  0.00     0.020 A 
ATOM     73  C   UNL A   1      35.450  34.678  29.093  1.00  0.00     0.020 A 
ATOM     74  C   UNL A   1      34.327  34.994  29.861  1.00  0.00     0.054 A 
BRANCH  74  75
ATOM     75  S   UNL A   1      33.023  36.045  29.163  1.00  0.00     0.124 S 
ATOM     76  O   UNL A   1      32.260  36.408  30.352  1.00  0.00    -0.237 OA
ATOM     77  O   UNL A   1      33.778  37.130  28.540  1.00  0.00    -0.237 OA
ATOM     78  O   UNL A   1      32.341  35.157  28.224  1.00  0.00    -0.744 OA
ENDBRANCH  74  75
ENDBRANCH  46  69
BRANCH  58  79
ATOM     79  C   UNL A   1      39.720  34.197  37.083  1.00  0.00    -0.014 A 
ATOM     80  C   UNL A   1      40.213  35.512  37.015  1.00  0.00     0.010 A 
ATOM     81  C   UNL A   1      39.041  33.772  38.237  1.00  0.00     0.010 A 
ATOM     82  C   UNL A   1      40.060  36.378  38.100  1.00  0.00     0.020 A 
ATOM     83  C   UNL A   1      38.871  34.640  39.318  1.00  0.00     0.020 A 
ATOM     84  C   UNL A   1      39.398  35.932  39.249  1.00  0.00     0.054 A 
BRANCH  84  85
ATOM     85  S   UNL A   1      39.196  37.073  40.645  1.00  0.00     0.124 S 
ATOM     86  O   UNL A   1      40.536  37.080  41.225  1.00  0.00    -0.237 OA
ATOM     87  O   UNL A   1      38.785  38.315  39.995  1.00  0.00    -0.237 OA
ATOM     88  O   UNL A   1      38.165  36.436  41.461  1.00  0.00    -0.744 OA
ENDBRANCH  84  85
ENDBRANCH  58  79
ENDBRANCH  32  33
ENDBRANCH  25  27
ENDBRANCH  24  25
ENDBRANCH  23  24
ENDBRANCH   1  23
TORSDOF 18
ENDMDL
MODEL 2
REMARK VINA RESULT:     -10.6      1.292      8.455
REMARK SMILES C[C@H]1CCC[C@H](C)N1C(=O)C[N@@H+](CC(=O)OCCOC(=O)c1ccc(-c2c3nc(c(-c4ccc(S(=O)(=O)[O-])cc4)c4ccc([nH]4)c(-c4ccc(S(=O)(=O)[O-])cc4)c4nc(c(-c5ccc(S(=O)(=O)[O-])cc5)c5ccc2[nH]5)C=C4)C=C3)cc1)C(C)(C)C
REMARK SMILES IDX 17 1 16 2 14 3 15 4 13 5 12 6 11 8 9 9 1 10 2 11 3 12 8 13
REMARK SMILES IDX 4 14 6 15 5 16 7 17 10 18 82 19 83 20 84 21 85 22 18 23
REMARK SMILES IDX 19 24 20 25 21 26 22 27 23 28 81 29 24 30 80 31 25 32 26 33
REMARK SMILES IDX 27 34 74 35 28 36 79 37 73 38 75 39 29 40 78 41 72 42 71 43
REMARK SMILES IDX 30 45 60 46 41 47 59 48 42 49 45 50 58 51 76 52 43 53 44 54
REMARK SMILES IDX 57 56 77 57 46 58 31 59 32 60 40 61 33 62 39 63 34 64 35 65
REMARK SMILES IDX 36 66 37 67 38 68 61 69 62 70 70 71 63 72 69 73 64 74 65 75
REMARK SMILES IDX 66 76 67 77 68 78 47 79 48 80 56 81 49 82 55 83 50 84 51 85
REMARK SMILES IDX 52 86 53 87 54 88
REMARK H PARENT 12 7 75 44 45 55
REMARK Flexibility Score: inf
ROOT
ATOM      1  C   UNL A   1      39.783  22.652  26.939  1.00  0.00     0.274 C 
ENDROOT
BRANCH   1   2
ATOM      2  O   UNL A   1      38.846  22.319  25.893  1.00  0.00    -0.458 OA
BRANCH   2   3
ATOM      3  C   UNL A   1      37.870  23.229  25.674  1.00  0.00     0.361 C 
ATOM      4  O   UNL A   1      37.661  24.188  26.417  1.00  0.00    -0.245 OA
BRANCH   3   5
ATOM      5  C   UNL A   1      36.991  23.013  24.450  1.00  0.00     0.387 C 
BRANCH   5   6
ATOM      6  N   UNL A   1      35.516  22.850  24.553  1.00  0.00    -0.314 N 
ATOM      7  H   UNL A   1      35.198  22.556  23.630  1.00  0.00     0.349 HD
BRANCH   6   8
ATOM      8  C   UNL A   1      34.856  24.146  24.784  1.00  0.00     0.364 C 
BRANCH   8   9
ATOM      9  C   UNL A   1      34.176  24.775  23.567  1.00  0.00     0.278 C 
ATOM     10  C   UNL A   1      33.251  26.475  26.106  1.00  0.00     0.031 C 
ATOM     11  C   UNL A   1      33.136  26.924  24.660  1.00  0.00     0.082 C 
ATOM     12  C   UNL A   1      33.691  28.358  24.548  1.00  0.00     0.025 C 
ATOM     13  N   UNL A   1      33.648  26.070  23.553  1.00  0.00    -0.332 N 
ATOM     14  C   UNL A   1      33.434  28.970  23.177  1.00  0.00     0.004 C 
ATOM     15  C   UNL A   1      33.386  26.616  22.201  1.00  0.00     0.082 C 
ATOM     16  C   UNL A   1      33.916  28.051  22.064  1.00  0.00     0.025 C 
ATOM     17  C   UNL A   1      31.911  26.495  21.811  1.00  0.00     0.031 C 
ATOM     18  O   UNL A   1      34.111  24.068  22.547  1.00  0.00    -0.268 OA
ENDBRANCH   8   9
ENDBRANCH   6   8
BRANCH   6  19
ATOM     19  C   UNL A   1      34.971  21.620  25.196  1.00  0.00     0.090 C 
ATOM     20  C   UNL A   1      34.652  21.758  26.697  1.00  0.00     0.078 C 
ATOM     21  C   UNL A   1      33.656  21.173  24.515  1.00  0.00     0.078 C 
ATOM     22  C   UNL A   1      35.913  20.410  24.987  1.00  0.00     0.078 C 
ENDBRANCH   6  19
ENDBRANCH   5   6
ENDBRANCH   3   5
ENDBRANCH   2   3
ENDBRANCH   1   2
BRANCH   1  23
ATOM     23  C   UNL A   1      41.144  23.059  26.375  1.00  0.00     0.275 C 
BRANCH  23  24
ATOM     24  O   UNL A   1      41.646  24.231  27.043  1.00  0.00    -0.458 OA
BRANCH  24  25
ATOM     25  C   UNL A   1      41.165  25.399  26.566  1.00  0.00     0.338 C 
ATOM     26  O   UNL A   1      40.969  25.691  25.394  1.00  0.00    -0.246 OA
BRANCH  25  27
ATOM     27  C   UNL A   1      40.904  26.358  27.648  1.00  0.00     0.060 A 
ATOM     28  C   UNL A   1      41.743  27.454  27.865  1.00  0.00     0.016 A 
ATOM     29  C   UNL A   1      39.901  26.040  28.566  1.00  0.00     0.016 A 
ATOM     30  C   UNL A   1      41.622  28.191  29.043  1.00  0.00     0.010 A 
ATOM     31  C   UNL A   1      39.733  26.824  29.704  1.00  0.00     0.010 A 
ATOM     32  C   UNL A   1      40.604  27.893  29.962  1.00  0.00    -0.014 A 
BRANCH  32  33
ATOM     33  C   UNL A   1      40.364  28.756  31.143  1.00  0.00     0.031 A 
ATOM     34  C   UNL A   1      39.329  29.844  31.120  1.00  0.00     0.074 A 
ATOM     35  C   UNL A   1      41.161  28.592  32.215  1.00  0.00     0.049 A 
ATOM     36  N   UNL A   1      39.117  30.792  31.996  1.00  0.00    -0.248 NA
ATOM     37  C   UNL A   1      38.418  29.878  29.964  1.00  0.00     0.031 C 
ATOM     38  C   UNL A   1      42.200  27.566  32.344  1.00  0.00     0.029 A 
ATOM     39  N   UNL A   1      41.239  29.295  33.389  1.00  0.00    -0.354 N 
ATOM     40  C   UNL A   1      38.070  31.554  31.491  1.00  0.00     0.074 A 
ATOM     41  C   UNL A   1      37.685  30.955  30.230  1.00  0.00     0.031 C 
ATOM     42  C   UNL A   1      42.808  27.703  33.530  1.00  0.00     0.029 A 
ATOM     43  C   UNL A   1      42.248  28.862  34.214  1.00  0.00     0.049 A 
ATOM     44  H   UNL A   1      40.632  30.036  33.617  1.00  0.00     0.167 HD
ATOM     45  C   UNL A   1      37.495  32.657  32.029  1.00  0.00     0.031 A 
ATOM     46  C   UNL A   1      42.708  29.365  35.373  1.00  0.00     0.031 A 
ATOM     47  C   UNL A   1      37.892  33.246  33.282  1.00  0.00     0.049 A 
ATOM     48  C   UNL A   1      42.077  30.602  35.930  1.00  0.00     0.074 A 
ATOM     49  C   UNL A   1      37.362  34.354  33.923  1.00  0.00     0.029 A 
ATOM     50  N   UNL A   1      38.921  32.778  34.087  1.00  0.00    -0.354 N 
ATOM     51  N   UNL A   1      41.096  31.315  35.432  1.00  0.00    -0.248 NA
ATOM     52  C   UNL A   1      42.622  31.108  37.195  1.00  0.00     0.031 C 
ATOM     53  C   UNL A   1      38.094  34.575  35.096  1.00  0.00     0.029 A 
ATOM     54  C   UNL A   1      39.055  33.584  35.205  1.00  0.00     0.049 A 
ATOM     55  H   UNL A   1      39.474  31.987  33.891  1.00  0.00     0.167 HD
ATOM     56  C   UNL A   1      40.907  32.362  36.322  1.00  0.00     0.074 A 
ATOM     57  C   UNL A   1      41.859  32.174  37.399  1.00  0.00     0.031 C 
ATOM     58  C   UNL A   1      40.026  33.390  36.251  1.00  0.00     0.031 A 
BRANCH  45  59
ATOM     59  C   UNL A   1      36.394  33.327  31.250  1.00  0.00    -0.014 A 
ATOM     60  C   UNL A   1      35.109  33.487  31.797  1.00  0.00     0.010 A 
ATOM     61  C   UNL A   1      36.669  33.864  29.979  1.00  0.00     0.010 A 
ATOM     62  C   UNL A   1      34.111  34.151  31.075  1.00  0.00     0.020 A 
ATOM     63  C   UNL A   1      35.678  34.541  29.261  1.00  0.00     0.020 A 
ATOM     64  C   UNL A   1      34.401  34.669  29.808  1.00  0.00     0.054 A 
BRANCH  64  65
ATOM     65  S   UNL A   1      33.100  35.554  28.901  1.00  0.00     0.124 S 
ATOM     66  O   UNL A   1      33.882  36.490  28.095  1.00  0.00    -0.237 OA
ATOM     67  O   UNL A   1      32.437  34.487  28.157  1.00  0.00    -0.237 OA
ATOM     68  O   UNL A   1      32.297  36.163  29.958  1.00  0.00    -0.744 OA
ENDBRANCH  64  65
ENDBRANCH  45  59
BRANCH  46  69
ATOM     69  C   UNL A   1      43.858  28.703  36.038  1.00  0.00    -0.014 A 
ATOM     70  C   UNL A   1      43.648  27.630  36.919  1.00  0.00     0.010 A 
ATOM     71  C   UNL A   1      45.174  29.084  35.716  1.00  0.00     0.010 A 
ATOM     72  C   UNL A   1      44.736  26.939  37.458  1.00  0.00     0.020 A 
ATOM     73  C   UNL A   1      46.263  28.382  36.236  1.00  0.00     0.020 A 
ATOM     74  C   UNL A   1      46.036  27.315  37.107  1.00  0.00     0.054 A 
BRANCH  74  75
ATOM     75  S   UNL A   1      47.437  26.340  37.724  1.00  0.00     0.124 S 
ATOM     76  O   UNL A   1      47.499  26.754  39.122  1.00  0.00    -0.237 OA
ATOM     77  O   UNL A   1      47.003  24.965  37.490  1.00  0.00    -0.237 OA
ATOM     78  O   UNL A   1      48.549  26.783  36.887  1.00  0.00    -0.744 OA
ENDBRANCH  74  75
ENDBRANCH  46  69
BRANCH  58  79
ATOM     79  C   UNL A   1      40.068  34.385  37.374  1.00  0.00    -0.014 A 
ATOM     80  C   UNL A   1      39.234  34.233  38.495  1.00  0.00     0.010 A 
ATOM     81  C   UNL A   1      40.950  35.478  37.308  1.00  0.00     0.010 A 
ATOM     82  C   UNL A   1      39.256  35.181  39.521  1.00  0.00     0.020 A 
ATOM     83  C   UNL A   1      40.986  36.418  38.340  1.00  0.00     0.020 A 
ATOM     84  C   UNL A   1      40.125  36.273  39.431  1.00  0.00     0.054 A 
BRANCH  84  85
ATOM     85  S   UNL A   1      40.151  37.489  40.777  1.00  0.00     0.124 S 
ATOM     86  O   UNL A   1      39.277  36.864  41.765  1.00  0.00    -0.237 OA
ATOM     87  O   UNL A   1      41.566  37.547  41.137  1.00  0.00    -0.237 OA
ATOM     88  O   UNL A   1      39.624  38.701  40.155  1.00  0.00    -0.744 OA
ENDBRANCH  84  85
ENDBRANCH  58  79
ENDBRANCH  32  33
ENDBRANCH  25  27
ENDBRANCH  24  25
ENDBRANCH  23  24
ENDBRANCH   1  23
TORSDOF 18
ENDMDL
MODEL 3
REMARK VINA RESULT:     -10.4      6.563     11.956
REMARK SMILES C[C@H]1CCC[C@H](C)N1C(=O)C[N@@H+](CC(=O)OCCOC(=O)c1ccc(-c2c3nc(c(-c4ccc(S(=O)(=O)[O-])cc4)c4ccc([nH]4)c(-c4ccc(S(=O)(=O)[O-])cc4)c4nc(c(-c5ccc(S(=O)(=O)[O-])cc5)c5ccc2[nH]5)C=C4)C=C3)cc1)C(C)(C)C
REMARK SMILES IDX 17 1 16 2 14 3 15 4 13 5 12 6 11 8 9 9 1 10 2 11 3 12 8 13
REMARK SMILES IDX 4 14 6 15 5 16 7 17 10 18 82 19 83 20 84 21 85 22 18 23
REMARK SMILES IDX 19 24 20 25 21 26 22 27 23 28 81 29 24 30 80 31 25 32 26 33
REMARK SMILES IDX 27 34 74 35 28 36 79 37 73 38 75 39 29 40 78 41 72 42 71 43
REMARK SMILES IDX 30 45 60 46 41 47 59 48 42 49 45 50 58 51 76 52 43 53 44 54
REMARK SMILES IDX 57 56 77 57 46 58 31 59 32 60 40 61 33 62 39 63 34 64 35 65
REMARK SMILES IDX 36 66 37 67 38 68 61 69 62 70 70 71 63 72 69 73 64 74 65 75
REMARK SMILES IDX 66 76 67 77 68 78 47 79 48 80 56 81 49 82 55 83 50 84 51 85
REMARK SMILES IDX 52 86 53 87 54 88
REMARK H PARENT 12 7 75 44 45 55
REMARK Flexibility Score: inf
ROOT
ATOM      1  C   UNL A   1      33.688  29.147  26.589  1.00  0.00     0.274 C 
ENDROOT
BRANCH   1   2
ATOM      2  O   UNL A   1      33.017  28.215  27.464  1.00  0.00    -0.458 OA
BRANCH   2   3
ATOM      3  C   UNL A   1      32.054  27.464  26.885  1.00  0.00     0.361 C 
ATOM      4  O   UNL A   1      30.989  27.187  27.437  1.00  0.00    -0.245 OA
BRANCH   3   5
ATOM      5  C   UNL A   1      32.343  26.933  25.487  1.00  0.00     0.387 C 
BRANCH   5   6
ATOM      6  N   UNL A   1      31.337  26.998  24.392  1.00  0.00    -0.314 N 
ATOM      7  H   UNL A   1      30.454  27.253  24.834  1.00  0.00     0.349 HD
BRANCH   6   8
ATOM      8  C   UNL A   1      31.098  25.664  23.816  1.00  0.00     0.364 C 
BRANCH   8   9
ATOM      9  C   UNL A   1      31.435  24.476  24.720  1.00  0.00     0.278 C 
ATOM     10  C   UNL A   1      33.463  24.351  22.257  1.00  0.00     0.031 C 
ATOM     11  C   UNL A   1      33.637  23.618  23.575  1.00  0.00     0.082 C 
ATOM     12  C   UNL A   1      35.074  23.854  24.080  1.00  0.00     0.025 C 
ATOM     13  N   UNL A   1      32.652  23.788  24.679  1.00  0.00    -0.332 N 
ATOM     14  C   UNL A   1      35.407  22.993  25.293  1.00  0.00     0.004 C 
ATOM     15  C   UNL A   1      32.923  22.941  25.864  1.00  0.00     0.082 C 
ATOM     16  C   UNL A   1      34.355  23.145  26.382  1.00  0.00     0.025 C 
ATOM     17  C   UNL A   1      32.598  21.468  25.602  1.00  0.00     0.031 C 
ATOM     18  O   UNL A   1      30.556  24.133  25.529  1.00  0.00    -0.268 OA
ENDBRANCH   8   9
ENDBRANCH   6   8
BRANCH   6  19
ATOM     19  C   UNL A   1      31.312  28.198  23.510  1.00  0.00     0.090 C 
ATOM     20  C   UNL A   1      32.679  28.611  22.933  1.00  0.00     0.078 C 
ATOM     21  C   UNL A   1      30.381  27.974  22.293  1.00  0.00     0.078 C 
ATOM     22  C   UNL A   1      30.677  29.413  24.228  1.00  0.00     0.078 C 
ENDBRANCH   6  19
ENDBRANCH   5   6
ENDBRANCH   3   5
ENDBRANCH   2   3
ENDBRANCH   1   2
BRANCH   1  23
ATOM     23  C   UNL A   1      34.457  30.210  27.374  1.00  0.00     0.275 C 
BRANCH  23  24
ATOM     24  O   UNL A   1      35.305  29.602  28.365  1.00  0.00    -0.458 OA
BRANCH  24  25
ATOM     25  C   UNL A   1      36.065  30.472  29.064  1.00  0.00     0.338 C 
ATOM     26  O   UNL A   1      35.673  31.417  29.737  1.00  0.00    -0.246 OA
BRANCH  25  27
ATOM     27  C   UNL A   1      37.496  30.178  28.918  1.00  0.00     0.060 A 
ATOM     28  C   UNL A   1      38.053  29.875  27.673  1.00  0.00     0.016 A 
ATOM     29  C   UNL A   1      38.249  30.029  30.086  1.00  0.00     0.016 A 
ATOM     30  C   UNL A   1      39.344  29.352  27.604  1.00  0.00     0.010 A 
ATOM     31  C   UNL A   1      39.564  29.580  30.007  1.00  0.00     0.010 A 
ATOM     32  C   UNL A   1      40.116  29.218  28.769  1.00  0.00    -0.014 A 
BRANCH  32  33
ATOM     33  C   UNL A   1      41.538  28.808  28.700  1.00  0.00     0.031 A 
ATOM     34  C   UNL A   1      42.649  29.808  28.849  1.00  0.00     0.074 A 
ATOM     35  C   UNL A   1      41.810  27.522  28.416  1.00  0.00     0.049 A 
ATOM     36  N   UNL A   1      43.931  29.647  28.641  1.00  0.00    -0.248 NA
ATOM     37  C   UNL A   1      42.276  31.166  29.280  1.00  0.00     0.031 C 
ATOM     38  C   UNL A   1      40.807  26.465  28.250  1.00  0.00     0.029 A 
ATOM     39  N   UNL A   1      43.003  26.886  28.195  1.00  0.00    -0.354 N 
ATOM     40  C   UNL A   1      44.518  30.882  28.887  1.00  0.00     0.074 A 
ATOM     41  C   UNL A   1      43.451  31.786  29.265  1.00  0.00     0.031 C 
ATOM     42  C   UNL A   1      41.426  25.313  27.958  1.00  0.00     0.029 A 
ATOM     43  C   UNL A   1      42.858  25.564  27.852  1.00  0.00     0.049 A 
ATOM     44  H   UNL A   1      43.877  27.332  28.274  1.00  0.00     0.167 HD
ATOM     45  C   UNL A   1      45.825  31.227  28.794  1.00  0.00     0.031 A 
ATOM     46  C   UNL A   1      43.767  24.658  27.451  1.00  0.00     0.031 A 
ATOM     47  C   UNL A   1      46.875  30.318  28.411  1.00  0.00     0.049 A 
ATOM     48  C   UNL A   1      45.199  25.071  27.326  1.00  0.00     0.074 A 
ATOM     49  C   UNL A   1      48.234  30.565  28.303  1.00  0.00     0.029 A 
ATOM     50  N   UNL A   1      46.686  28.987  28.070  1.00  0.00    -0.354 N 
ATOM     51  N   UNL A   1      45.734  26.247  27.552  1.00  0.00    -0.248 NA
ATOM     52  C   UNL A   1      46.146  24.043  26.880  1.00  0.00     0.031 C 
ATOM     53  C   UNL A   1      48.860  29.392  27.862  1.00  0.00     0.029 A 
ATOM     54  C   UNL A   1      47.896  28.405  27.732  1.00  0.00     0.049 A 
ATOM     55  H   UNL A   1      45.816  28.524  28.069  1.00  0.00     0.167 HD
ATOM     56  C   UNL A   1      47.084  26.103  27.271  1.00  0.00     0.074 A 
ATOM     57  C   UNL A   1      47.287  24.722  26.882  1.00  0.00     0.031 C 
ATOM     58  C   UNL A   1      48.068  27.035  27.325  1.00  0.00     0.031 A 
BRANCH  45  59
ATOM     59  C   UNL A   1      46.196  32.658  29.077  1.00  0.00    -0.014 A 
ATOM     60  C   UNL A   1      46.585  33.069  30.365  1.00  0.00     0.010 A 
ATOM     61  C   UNL A   1      46.222  33.591  28.024  1.00  0.00     0.010 A 
ATOM     62  C   UNL A   1      46.968  34.394  30.599  1.00  0.00     0.020 A 
ATOM     63  C   UNL A   1      46.620  34.913  28.252  1.00  0.00     0.020 A 
ATOM     64  C   UNL A   1      46.977  35.310  29.541  1.00  0.00     0.054 A 
BRANCH  64  65
ATOM     65  S   UNL A   1      47.509  37.017  29.860  1.00  0.00     0.124 S 
ATOM     66  O   UNL A   1      48.954  36.857  30.005  1.00  0.00    -0.237 OA
ATOM     67  O   UNL A   1      47.074  37.723  28.658  1.00  0.00    -0.237 OA
ATOM     68  O   UNL A   1      46.796  37.377  31.082  1.00  0.00    -0.744 OA
ENDBRANCH  64  65
ENDBRANCH  45  59
BRANCH  46  69
ATOM     69  C   UNL A   1      43.312  23.289  27.101  1.00  0.00    -0.014 A 
ATOM     70  C   UNL A   1      43.305  22.863  25.764  1.00  0.00     0.010 A 
ATOM     71  C   UNL A   1      42.978  22.375  28.119  1.00  0.00     0.010 A 
ATOM     72  C   UNL A   1      42.982  21.541  25.448  1.00  0.00     0.020 A 
ATOM     73  C   UNL A   1      42.676  21.048  27.808  1.00  0.00     0.020 A 
ATOM     74  C   UNL A   1      42.676  20.641  26.473  1.00  0.00     0.054 A 
BRANCH  74  75
ATOM     75  S   UNL A   1      42.369  18.900  26.061  1.00  0.00     0.124 S 
ATOM     76  O   UNL A   1      43.313  18.678  24.971  1.00  0.00    -0.237 OA
ATOM     77  O   UNL A   1      42.674  18.211  27.312  1.00  0.00    -0.237 OA
ATOM     78  O   UNL A   1      40.958  18.888  25.683  1.00  0.00    -0.744 OA
ENDBRANCH  74  75
ENDBRANCH  46  69
BRANCH  58  79
ATOM     79  C   UNL A   1      49.445  26.574  26.947  1.00  0.00    -0.014 A 
ATOM     80  C   UNL A   1      49.866  26.602  25.605  1.00  0.00     0.010 A 
ATOM     81  C   UNL A   1      50.326  26.113  27.940  1.00  0.00     0.010 A 
ATOM     82  C   UNL A   1      51.138  26.140  25.258  1.00  0.00     0.020 A 
ATOM     83  C   UNL A   1      51.605  25.667  27.598  1.00  0.00     0.020 A 
ATOM     84  C   UNL A   1      51.995  25.667  26.256  1.00  0.00     0.054 A 
BRANCH  84  85
ATOM     85  S   UNL A   1      53.649  25.083  25.791  1.00  0.00     0.124 S 
ATOM     86  O   UNL A   1      54.059  26.088  24.814  1.00  0.00    -0.237 OA
ATOM     87  O   UNL A   1      54.373  25.108  27.059  1.00  0.00    -0.237 OA
ATOM     88  O   UNL A   1      53.401  23.749  25.249  1.00  0.00    -0.744 OA
ENDBRANCH  84  85
ENDBRANCH  58  79
ENDBRANCH  32  33
ENDBRANCH  25  27
ENDBRANCH  24  25
ENDBRANCH  23  24
ENDBRANCH   1  23
TORSDOF 18
ENDMDL
