MODEL 1
REMARK VINA RESULT:     -11.6      0.000      0.000
REMARK SMILES O=C(OCCOC(=O)C1(C[C@@H]2COc3ccccc32)CC[NH2+]CC1)c1ccc(-c2c3nc(c(-c4ccc(S(=O)(=O)[O-])cc4)c4ccc([nH]4)c(-c4ccc(S(=O)(=O)[O-])cc4)c4nc(c(-c5ccc(S(=O)(=O)[O-])cc5)c5ccc2[nH]5)C=C4)C=C3)cc1
REMARK SMILES IDX 4 1 3 2 2 3 1 4 25 5 26 6 84 7 27 8 83 9 28 10 29 11 30 12
REMARK SMILES IDX 77 13 31 14 82 15 76 16 78 17 32 18 81 19 75 20 74 21 33 23
REMARK SMILES IDX 63 24 44 25 62 26 45 27 48 28 61 29 79 30 46 31 47 32 60 34
REMARK SMILES IDX 80 35 49 36 34 37 35 38 43 39 36 40 42 41 37 42 38 43 39 44
REMARK SMILES IDX 40 45 41 46 64 47 65 48 73 49 66 50 72 51 67 52 68 53 69 54
REMARK SMILES IDX 70 55 71 56 50 57 51 58 59 59 52 60 58 61 53 62 54 63 55 64
REMARK SMILES IDX 56 65 57 66 5 67 6 68 7 69 8 70 9 71 20 72 24 73 21 74 23 75
REMARK SMILES IDX 22 76 10 79 11 80 12 81 19 82 13 83 14 84 18 85 15 86 17 87
REMARK SMILES IDX 16 88
REMARK H PARENT 78 22 48 33 22 77 22 78
REMARK Flexibility Score: inf
ROOT
ATOM      1  C   UNL A   1      32.855  29.620  26.561  1.00  0.00     0.275 C 
ENDROOT
BRANCH   1   2
ATOM      2  O   UNL A   1      33.191  30.571  27.585  1.00  0.00    -0.458 OA
BRANCH   2   3
ATOM      3  C   UNL A   1      34.315  31.313  27.737  1.00  0.00     0.338 C 
ATOM      4  O   UNL A   1      34.346  32.444  27.257  1.00  0.00    -0.246 OA
BRANCH   3   5
ATOM      5  C   UNL A   1      35.568  30.769  28.347  1.00  0.00     0.060 A 
ATOM      6  C   UNL A   1      35.653  30.041  29.527  1.00  0.00     0.016 A 
ATOM      7  C   UNL A   1      36.757  30.979  27.642  1.00  0.00     0.016 A 
ATOM      8  C   UNL A   1      36.816  29.313  29.828  1.00  0.00     0.010 A 
ATOM      9  C   UNL A   1      37.897  30.197  27.900  1.00  0.00     0.010 A 
ATOM     10  C   UNL A   1      37.892  29.230  28.918  1.00  0.00    -0.014 A 
BRANCH  10  11
ATOM     11  C   UNL A   1      39.237  28.179  29.124  1.00  0.00     0.031 A 
ATOM     12  C   UNL A   1      39.846  29.189  30.602  1.00  0.00     0.074 A 
ATOM     13  C   UNL A   1      39.978  26.648  28.359  1.00  0.00     0.049 A 
ATOM     14  N   UNL A   1      40.980  28.996  31.269  1.00  0.00    -0.248 NA
ATOM     15  C   UNL A   1      39.147  30.363  31.189  1.00  0.00     0.031 C 
ATOM     16  C   UNL A   1      39.853  25.695  27.033  1.00  0.00     0.029 A 
ATOM     17  N   UNL A   1      41.142  25.696  28.781  1.00  0.00    -0.354 N 
ATOM     18  C   UNL A   1      41.092  29.866  32.298  1.00  0.00     0.074 A 
ATOM     19  C   UNL A   1      40.005  30.795  32.122  1.00  0.00     0.031 C 
ATOM     20  C   UNL A   1      40.527  24.542  27.015  1.00  0.00     0.029 A 
ATOM     21  C   UNL A   1      41.433  24.568  28.099  1.00  0.00     0.049 A 
ATOM     22  H   UNL A   1      41.683  25.926  29.572  1.00  0.00     0.167 HD
ATOM     23  C   UNL A   1      41.994  29.761  33.301  1.00  0.00     0.031 A 
ATOM     24  C   UNL A   1      42.482  23.764  28.315  1.00  0.00     0.031 A 
ATOM     25  C   UNL A   1      42.932  28.645  33.450  1.00  0.00     0.049 A 
ATOM     26  C   UNL A   1      43.296  24.007  29.553  1.00  0.00     0.074 A 
ATOM     27  C   UNL A   1      43.753  28.397  34.535  1.00  0.00     0.029 A 
ATOM     28  N   UNL A   1      43.147  27.578  32.552  1.00  0.00    -0.354 N 
ATOM     29  N   UNL A   1      43.255  25.019  30.401  1.00  0.00    -0.248 NA
ATOM     30  C   UNL A   1      44.238  22.951  29.893  1.00  0.00     0.031 C 
ATOM     31  C   UNL A   1      44.454  27.208  34.302  1.00  0.00     0.029 A 
ATOM     32  C   UNL A   1      44.059  26.659  33.085  1.00  0.00     0.049 A 
ATOM     33  H   UNL A   1      42.716  27.491  31.672  1.00  0.00     0.167 HD
ATOM     34  C   UNL A   1      44.158  24.712  31.411  1.00  0.00     0.074 A 
ATOM     35  C   UNL A   1      44.701  23.399  31.050  1.00  0.00     0.031 C 
ATOM     36  C   UNL A   1      44.529  25.386  32.539  1.00  0.00     0.031 A 
BRANCH  23  37
ATOM     37  C   UNL A   1      41.920  30.817  34.370  1.00  0.00    -0.014 A 
ATOM     38  C   UNL A   1      41.051  30.668  35.466  1.00  0.00     0.010 A 
ATOM     39  C   UNL A   1      42.739  31.958  34.300  1.00  0.00     0.010 A 
ATOM     40  C   UNL A   1      40.947  31.668  36.434  1.00  0.00     0.020 A 
ATOM     41  C   UNL A   1      42.663  32.949  35.286  1.00  0.00     0.020 A 
ATOM     42  C   UNL A   1      41.748  32.808  36.333  1.00  0.00     0.054 A 
BRANCH  42  43
ATOM     43  S   UNL A   1      41.581  34.092  37.602  1.00  0.00     0.124 S 
ATOM     44  O   UNL A   1      41.131  35.236  36.813  1.00  0.00    -0.237 OA
ATOM     45  O   UNL A   1      40.584  33.522  38.504  1.00  0.00    -0.237 OA
ATOM     46  O   UNL A   1      42.927  34.209  38.158  1.00  0.00    -0.744 OA
ENDBRANCH  42  43
ENDBRANCH  23  37
BRANCH  24  47
ATOM     47  C   UNL A   1      42.775  22.743  27.287  1.00  0.00    -0.014 A 
ATOM     48  C   UNL A   1      43.777  22.945  26.329  1.00  0.00     0.010 A 
ATOM     49  C   UNL A   1      42.191  21.466  27.423  1.00  0.00     0.010 A 
ATOM     50  C   UNL A   1      44.206  21.879  25.535  1.00  0.00     0.020 A 
ATOM     51  C   UNL A   1      42.638  20.395  26.652  1.00  0.00     0.020 A 
ATOM     52  C   UNL A   1      43.646  20.609  25.712  1.00  0.00     0.054 A 
BRANCH  52  53
ATOM     53  S   UNL A   1      44.321  19.214  24.769  1.00  0.00     0.124 S 
ATOM     54  O   UNL A   1      45.644  19.061  25.364  1.00  0.00    -0.237 OA
ATOM     55  O   UNL A   1      43.367  18.146  25.058  1.00  0.00    -0.237 OA
ATOM     56  O   UNL A   1      44.303  19.694  23.390  1.00  0.00    -0.744 OA
ENDBRANCH  52  53
ENDBRANCH  24  47
BRANCH  36  57
ATOM     57  C   UNL A   1      45.552  24.631  33.372  1.00  0.00    -0.014 A 
ATOM     58  C   UNL A   1      46.912  25.001  33.361  1.00  0.00     0.010 A 
ATOM     59  C   UNL A   1      45.157  23.493  34.101  1.00  0.00     0.010 A 
ATOM     60  C   UNL A   1      47.865  24.202  33.997  1.00  0.00     0.020 A 
ATOM     61  C   UNL A   1      46.104  22.717  34.773  1.00  0.00     0.020 A 
ATOM     62  C   UNL A   1      47.455  23.058  34.690  1.00  0.00     0.054 A 
BRANCH  62  63
ATOM     63  S   UNL A   1      48.713  22.018  35.482  1.00  0.00     0.124 S 
ATOM     64  O   UNL A   1      49.562  21.655  34.350  1.00  0.00    -0.237 OA
ATOM     65  O   UNL A   1      49.316  22.926  36.456  1.00  0.00    -0.237 OA
ATOM     66  O   UNL A   1      47.939  20.921  36.058  1.00  0.00    -0.744 OA
ENDBRANCH  62  63
ENDBRANCH  36  57
ENDBRANCH  10  11
ENDBRANCH   3   5
ENDBRANCH   2   3
ENDBRANCH   1   2
BRANCH   1  67
ATOM     67  C   UNL A   1      32.930  28.150  26.955  1.00  0.00     0.274 C 
BRANCH  67  68
ATOM     68  O   UNL A   1      32.880  27.214  25.861  1.00  0.00    -0.462 OA
BRANCH  68  69
ATOM     69  C   UNL A   1      31.635  26.758  25.559  1.00  0.00     0.312 C 
ATOM     70  O   UNL A   1      30.828  26.442  26.427  1.00  0.00    -0.252 OA
BRANCH  69  71
ATOM     71  C   UNL A   1      31.427  26.481  24.051  1.00  0.00     0.079 C 
ATOM     72  C   UNL A   1      32.543  26.783  23.066  1.00  0.00     0.080 C 
ATOM     73  C   UNL A   1      30.233  27.376  23.606  1.00  0.00     0.080 C 
ATOM     74  C   UNL A   1      32.868  28.238  22.796  1.00  0.00     0.261 C 
ATOM     75  C   UNL A   1      30.665  28.850  23.488  1.00  0.00     0.261 C 
ATOM     76  N   UNL A   1      31.675  28.994  22.443  1.00  0.00    -0.346 N 
ATOM     77  H   UNL A   1      31.302  28.642  21.561  1.00  0.00     0.346 HD
ATOM     78  H   UNL A   1      31.920  29.980  22.347  1.00  0.00     0.346 HD
BRANCH  71  79
ATOM     79  C   UNL A   1      31.091  24.983  23.885  1.00  0.00     0.031 C 
BRANCH  79  80
ATOM     80  C   UNL A   1      32.200  23.885  23.778  1.00  0.00     0.062 C 
ATOM     81  C   UNL A   1      31.822  22.472  23.158  1.00  0.00     0.238 C 
ATOM     82  C   UNL A   1      33.439  23.565  24.632  1.00  0.00     0.001 A 
ATOM     83  O   UNL A   1      32.631  21.311  23.531  1.00  0.00    -0.493 OA
ATOM     84  C   UNL A   1      33.694  21.791  24.248  1.00  0.00     0.122 A 
ATOM     85  C   UNL A   1      34.824  24.537  25.366  1.00  0.00     0.008 A 
ATOM     86  C   UNL A   1      35.244  20.896  24.642  1.00  0.00     0.047 A 
ATOM     87  C   UNL A   1      36.451  23.704  25.750  1.00  0.00     0.001 A 
ATOM     88  C   UNL A   1      36.654  21.825  25.404  1.00  0.00     0.004 A 
ENDBRANCH  79  80
ENDBRANCH  71  79
ENDBRANCH  69  71
ENDBRANCH  68  69
ENDBRANCH  67  68
ENDBRANCH   1  67
TORSDOF 16
ENDMDL
MODEL 2
REMARK VINA RESULT:     -11.5      1.509      3.318
REMARK SMILES O=C(OCCOC(=O)C1(C[C@@H]2COc3ccccc32)CC[NH2+]CC1)c1ccc(-c2c3nc(c(-c4ccc(S(=O)(=O)[O-])cc4)c4ccc([nH]4)c(-c4ccc(S(=O)(=O)[O-])cc4)c4nc(c(-c5ccc(S(=O)(=O)[O-])cc5)c5ccc2[nH]5)C=C4)C=C3)cc1
REMARK SMILES IDX 4 1 3 2 2 3 1 4 25 5 26 6 84 7 27 8 83 9 28 10 29 11 30 12
REMARK SMILES IDX 77 13 31 14 82 15 76 16 78 17 32 18 81 19 75 20 74 21 33 23
REMARK SMILES IDX 63 24 44 25 62 26 45 27 48 28 61 29 79 30 46 31 47 32 60 34
REMARK SMILES IDX 80 35 49 36 34 37 35 38 43 39 36 40 42 41 37 42 38 43 39 44
REMARK SMILES IDX 40 45 41 46 64 47 65 48 73 49 66 50 72 51 67 52 68 53 69 54
REMARK SMILES IDX 70 55 71 56 50 57 51 58 59 59 52 60 58 61 53 62 54 63 55 64
REMARK SMILES IDX 56 65 57 66 5 67 6 68 7 69 8 70 9 71 20 72 24 73 21 74 23 75
REMARK SMILES IDX 22 76 10 79 11 80 12 81 19 82 13 83 14 84 18 85 15 86 17 87
REMARK SMILES IDX 16 88
REMARK H PARENT 78 22 48 33 22 77 22 78
REMARK Flexibility Score: inf
ROOT
ATOM      1  C   UNL A   1      33.177  28.756  27.267  1.00  0.00     0.275 C 
ENDROOT
BRANCH   1   2
ATOM      2  O   UNL A   1      33.395  30.162  27.063  1.00  0.00    -0.458 OA
BRANCH   2   3
ATOM      3  C   UNL A   1      34.283  30.993  27.662  1.00  0.00     0.338 C 
ATOM      4  O   UNL A   1      34.061  32.202  27.651  1.00  0.00    -0.246 OA
BRANCH   3   5
ATOM      5  C   UNL A   1      35.587  30.518  28.219  1.00  0.00     0.060 A 
ATOM      6  C   UNL A   1      35.776  29.917  29.457  1.00  0.00     0.016 A 
ATOM      7  C   UNL A   1      36.712  30.657  27.401  1.00  0.00     0.016 A 
ATOM      8  C   UNL A   1      36.968  29.227  29.734  1.00  0.00     0.010 A 
ATOM      9  C   UNL A   1      37.877  29.909  27.643  1.00  0.00     0.010 A 
ATOM     10  C   UNL A   1      37.967  29.052  28.752  1.00  0.00    -0.014 A 
BRANCH  10  11
ATOM     11  C   UNL A   1      39.335  28.032  28.954  1.00  0.00     0.031 A 
ATOM     12  C   UNL A   1      39.856  28.976  30.507  1.00  0.00     0.074 A 
ATOM     13  C   UNL A   1      40.153  26.568  28.136  1.00  0.00     0.049 A 
ATOM     14  N   UNL A   1      40.970  28.780  31.206  1.00  0.00    -0.248 NA
ATOM     15  C   UNL A   1      39.099  30.094  31.128  1.00  0.00     0.031 C 
ATOM     16  C   UNL A   1      40.107  25.686  26.757  1.00  0.00     0.029 A 
ATOM     17  N   UNL A   1      41.330  25.629  28.551  1.00  0.00    -0.354 N 
ATOM     18  C   UNL A   1      41.016  29.594  32.284  1.00  0.00     0.074 A 
ATOM     19  C   UNL A   1      39.907  30.500  32.116  1.00  0.00     0.031 C 
ATOM     20  C   UNL A   1      40.818  24.556  26.703  1.00  0.00     0.029 A 
ATOM     21  C   UNL A   1      41.682  24.549  27.821  1.00  0.00     0.049 A 
ATOM     22  H   UNL A   1      41.832  25.831  29.374  1.00  0.00     0.167 HD
ATOM     23  C   UNL A   1      41.882  29.461  33.315  1.00  0.00     0.031 A 
ATOM     24  C   UNL A   1      42.746  23.765  28.034  1.00  0.00     0.031 A 
ATOM     25  C   UNL A   1      42.848  28.367  33.439  1.00  0.00     0.049 A 
ATOM     26  C   UNL A   1      43.505  23.963  29.314  1.00  0.00     0.074 A 
ATOM     27  C   UNL A   1      43.636  28.083  34.541  1.00  0.00     0.029 A 
ATOM     28  N   UNL A   1      43.131  27.357  32.495  1.00  0.00    -0.354 N 
ATOM     29  N   UNL A   1      43.400  24.926  30.214  1.00  0.00    -0.248 NA
ATOM     30  C   UNL A   1      44.467  22.919  29.634  1.00  0.00     0.031 C 
ATOM     31  C   UNL A   1      44.382  26.930  34.272  1.00  0.00     0.029 A 
ATOM     32  C   UNL A   1      44.050  26.438  33.013  1.00  0.00     0.049 A 
ATOM     33  H   UNL A   1      42.736  27.307  31.595  1.00  0.00     0.167 HD
ATOM     34  C   UNL A   1      44.274  24.590  31.241  1.00  0.00     0.074 A 
ATOM     35  C   UNL A   1      44.871  23.316  30.830  1.00  0.00     0.031 C 
ATOM     36  C   UNL A   1      44.581  25.212  32.417  1.00  0.00     0.031 A 
BRANCH  23  37
ATOM     37  C   UNL A   1      41.735  30.453  34.435  1.00  0.00    -0.014 A 
ATOM     38  C   UNL A   1      40.748  30.280  35.422  1.00  0.00     0.010 A 
ATOM     39  C   UNL A   1      42.601  31.558  34.526  1.00  0.00     0.010 A 
ATOM     40  C   UNL A   1      40.579  31.224  36.436  1.00  0.00     0.020 A 
ATOM     41  C   UNL A   1      42.458  32.491  35.560  1.00  0.00     0.020 A 
ATOM     42  C   UNL A   1      41.430  32.329  36.493  1.00  0.00     0.054 A 
BRANCH  42  43
ATOM     43  S   UNL A   1      41.178  33.542  37.818  1.00  0.00     0.124 S 
ATOM     44  O   UNL A   1      42.444  34.270  37.802  1.00  0.00    -0.237 OA
ATOM     45  O   UNL A   1      40.017  34.293  37.346  1.00  0.00    -0.237 OA
ATOM     46  O   UNL A   1      40.946  32.720  39.002  1.00  0.00    -0.744 OA
ENDBRANCH  42  43
ENDBRANCH  23  37
BRANCH  24  47
ATOM     47  C   UNL A   1      43.110  22.812  26.965  1.00  0.00    -0.014 A 
ATOM     48  C   UNL A   1      44.200  23.053  26.119  1.00  0.00     0.010 A 
ATOM     49  C   UNL A   1      42.487  21.546  26.954  1.00  0.00     0.010 A 
ATOM     50  C   UNL A   1      44.677  22.034  25.291  1.00  0.00     0.020 A 
ATOM     51  C   UNL A   1      42.979  20.520  26.150  1.00  0.00     0.020 A 
ATOM     52  C   UNL A   1      44.074  20.770  25.323  1.00  0.00     0.054 A 
BRANCH  52  53
ATOM     53  S   UNL A   1      44.801  19.427  24.345  1.00  0.00     0.124 S 
ATOM     54  O   UNL A   1      44.126  18.256  24.892  1.00  0.00    -0.237 OA
ATOM     55  O   UNL A   1      44.432  19.794  22.980  1.00  0.00    -0.237 OA
ATOM     56  O   UNL A   1      46.229  19.525  24.640  1.00  0.00    -0.744 OA
ENDBRANCH  52  53
ENDBRANCH  24  47
BRANCH  36  57
ATOM     57  C   UNL A   1      45.595  24.442  33.248  1.00  0.00    -0.014 A 
ATOM     58  C   UNL A   1      45.203  23.338  34.032  1.00  0.00     0.010 A 
ATOM     59  C   UNL A   1      46.931  24.884  33.305  1.00  0.00     0.010 A 
ATOM     60  C   UNL A   1      46.108  22.744  34.915  1.00  0.00     0.020 A 
ATOM     61  C   UNL A   1      47.847  24.263  34.157  1.00  0.00     0.020 A 
ATOM     62  C   UNL A   1      47.422  23.218  34.979  1.00  0.00     0.054 A 
BRANCH  62  63
ATOM     63  S   UNL A   1      48.571  22.453  36.156  1.00  0.00     0.124 S 
ATOM     64  O   UNL A   1      49.800  23.204  35.911  1.00  0.00    -0.237 OA
ATOM     65  O   UNL A   1      47.927  22.701  37.444  1.00  0.00    -0.237 OA
ATOM     66  O   UNL A   1      48.604  21.052  35.742  1.00  0.00    -0.744 OA
ENDBRANCH  62  63
ENDBRANCH  36  57
ENDBRANCH  10  11
ENDBRANCH   3   5
ENDBRANCH   2   3
ENDBRANCH   1   2
BRANCH   1  67
ATOM     67  C   UNL A   1      32.233  28.070  26.288  1.00  0.00     0.274 C 
BRANCH  67  68
ATOM     68  O   UNL A   1      32.509  26.680  26.033  1.00  0.00    -0.462 OA
BRANCH  68  69
ATOM     69  C   UNL A   1      31.405  25.900  25.877  1.00  0.00     0.312 C 
ATOM     70  O   UNL A   1      30.373  26.096  26.510  1.00  0.00    -0.252 OA
BRANCH  69  71
ATOM     71  C   UNL A   1      31.653  24.646  25.006  1.00  0.00     0.079 C 
ATOM     72  C   UNL A   1      30.671  23.488  25.051  1.00  0.00     0.080 C 
ATOM     73  C   UNL A   1      33.013  24.050  25.477  1.00  0.00     0.080 C 
ATOM     74  C   UNL A   1      30.628  22.651  26.314  1.00  0.00     0.261 C 
ATOM     75  C   UNL A   1      32.858  23.334  26.832  1.00  0.00     0.261 C 
ATOM     76  N   UNL A   1      31.956  22.193  26.695  1.00  0.00    -0.346 N 
ATOM     77  H   UNL A   1      32.314  21.563  25.977  1.00  0.00     0.346 HD
ATOM     78  H   UNL A   1      31.897  21.703  27.588  1.00  0.00     0.346 HD
BRANCH  71  79
ATOM     79  C   UNL A   1      31.727  25.099  23.531  1.00  0.00     0.031 C 
BRANCH  79  80
ATOM     80  C   UNL A   1      31.195  26.492  23.058  1.00  0.00     0.062 C 
ATOM     81  C   UNL A   1      32.242  27.604  22.621  1.00  0.00     0.238 C 
ATOM     82  C   UNL A   1      29.953  27.319  23.434  1.00  0.00     0.001 A 
ATOM     83  O   UNL A   1      31.838  29.009  22.703  1.00  0.00    -0.493 OA
ATOM     84  C   UNL A   1      30.503  29.013  23.003  1.00  0.00     0.122 A 
ATOM     85  C   UNL A   1      28.152  26.979  23.635  1.00  0.00     0.008 A 
ATOM     86  C   UNL A   1      29.350  30.429  22.847  1.00  0.00     0.047 A 
ATOM     87  C   UNL A   1      26.911  28.362  23.440  1.00  0.00     0.001 A 
ATOM     88  C   UNL A   1      27.532  30.142  23.064  1.00  0.00     0.004 A 
ENDBRANCH  79  80
ENDBRANCH  71  79
ENDBRANCH  69  71
ENDBRANCH  68  69
ENDBRANCH  67  68
ENDBRANCH   1  67
TORSDOF 16
ENDMDL
MODEL 3
REMARK VINA RESULT:     -11.3      5.059     11.157
REMARK SMILES O=C(OCCOC(=O)C1(C[C@@H]2COc3ccccc32)CC[NH2+]CC1)c1ccc(-c2c3nc(c(-c4ccc(S(=O)(=O)[O-])cc4)c4ccc([nH]4)c(-c4ccc(S(=O)(=O)[O-])cc4)c4nc(c(-c5ccc(S(=O)(=O)[O-])cc5)c5ccc2[nH]5)C=C4)C=C3)cc1
REMARK SMILES IDX 4 1 3 2 2 3 1 4 25 5 26 6 84 7 27 8 83 9 28 10 29 11 30 12
REMARK SMILES IDX 77 13 31 14 82 15 76 16 78 17 32 18 81 19 75 20 74 21 33 23
REMARK SMILES IDX 63 24 44 25 62 26 45 27 48 28 61 29 79 30 46 31 47 32 60 34
REMARK SMILES IDX 80 35 49 36 34 37 35 38 43 39 36 40 42 41 37 42 38 43 39 44
REMARK SMILES IDX 40 45 41 46 64 47 65 48 73 49 66 50 72 51 67 52 68 53 69 54
REMARK SMILES IDX 70 55 71 56 50 57 51 58 59 59 52 60 58 61 53 62 54 63 55 64
REMARK SMILES IDX 56 65 57 66 5 67 6 68 7 69 8 70 9 71 20 72 24 73 21 74 23 75
REMARK SMILES IDX 22 76 10 79 11 80 12 81 19 82 13 83 14 84 18 85 15 86 17 87
REMARK SMILES IDX 16 88
REMARK H PARENT 78 22 48 33 22 77 22 78
REMARK Flexibility Score: inf
ROOT
ATOM      1  C   UNL A   1      36.902  23.190  25.440  1.00  0.00     0.275 C 
ENDROOT
BRANCH   1   2
ATOM      2  O   UNL A   1      37.893  22.228  25.837  1.00  0.00    -0.458 OA
BRANCH   2   3
ATOM      3  C   UNL A   1      39.183  22.422  26.207  1.00  0.00     0.338 C 
ATOM      4  O   UNL A   1      39.938  21.453  26.251  1.00  0.00    -0.246 OA
BRANCH   3   5
ATOM      5  C   UNL A   1      39.696  23.741  26.692  1.00  0.00     0.060 A 
ATOM      6  C   UNL A   1      40.203  24.762  25.898  1.00  0.00     0.016 A 
ATOM      7  C   UNL A   1      39.620  23.982  28.067  1.00  0.00     0.016 A 
ATOM      8  C   UNL A   1      40.348  26.059  26.420  1.00  0.00     0.010 A 
ATOM      9  C   UNL A   1      39.695  25.290  28.576  1.00  0.00     0.010 A 
ATOM     10  C   UNL A   1      39.914  26.384  27.723  1.00  0.00    -0.014 A 
BRANCH  10  11
ATOM     11  C   UNL A   1      39.853  27.989  28.336  1.00  0.00     0.031 A 
ATOM     12  C   UNL A   1      41.740  28.098  28.340  1.00  0.00     0.074 A 
ATOM     13  C   UNL A   1      38.598  29.272  28.844  1.00  0.00     0.049 A 
ATOM     14  N   UNL A   1      42.466  29.109  28.811  1.00  0.00    -0.248 NA
ATOM     15  C   UNL A   1      42.664  27.043  27.848  1.00  0.00     0.031 C 
ATOM     16  C   UNL A   1      36.999  29.441  29.155  1.00  0.00     0.029 A 
ATOM     17  N   UNL A   1      38.706  30.782  29.230  1.00  0.00    -0.354 N 
ATOM     18  C   UNL A   1      43.786  28.887  28.623  1.00  0.00     0.074 A 
ATOM     19  C   UNL A   1      43.874  27.526  28.157  1.00  0.00     0.031 C 
ATOM     20  C   UNL A   1      36.514  30.673  29.330  1.00  0.00     0.029 A 
ATOM     21  C   UNL A   1      37.618  31.544  29.468  1.00  0.00     0.049 A 
ATOM     22  H   UNL A   1      39.599  31.192  29.303  1.00  0.00     0.167 HD
ATOM     23  C   UNL A   1      44.751  29.826  28.759  1.00  0.00     0.031 A 
ATOM     24  C   UNL A   1      37.621  32.804  29.921  1.00  0.00     0.031 A 
ATOM     25  C   UNL A   1      44.491  31.235  29.063  1.00  0.00     0.049 A 
ATOM     26  C   UNL A   1      38.941  33.517  29.973  1.00  0.00     0.074 A 
ATOM     27  C   UNL A   1      45.413  32.266  29.048  1.00  0.00     0.029 A 
ATOM     28  N   UNL A   1      43.251  31.832  29.376  1.00  0.00    -0.354 N 
ATOM     29  N   UNL A   1      40.162  33.039  29.805  1.00  0.00    -0.248 NA
ATOM     30  C   UNL A   1      38.863  34.953  30.197  1.00  0.00     0.031 C 
ATOM     31  C   UNL A   1      44.751  33.462  29.347  1.00  0.00     0.029 A 
ATOM     32  C   UNL A   1      43.391  33.218  29.515  1.00  0.00     0.049 A 
ATOM     33  H   UNL A   1      42.405  31.342  29.481  1.00  0.00     0.167 HD
ATOM     34  C   UNL A   1      41.016  34.133  29.876  1.00  0.00     0.074 A 
ATOM     35  C   UNL A   1      40.138  35.288  30.081  1.00  0.00     0.031 C 
ATOM     36  C   UNL A   1      42.374  34.237  29.775  1.00  0.00     0.031 A 
BRANCH  23  37
ATOM     37  C   UNL A   1      46.156  29.377  28.462  1.00  0.00    -0.014 A 
ATOM     38  C   UNL A   1      46.664  29.431  27.152  1.00  0.00     0.010 A 
ATOM     39  C   UNL A   1      46.991  28.919  29.497  1.00  0.00     0.010 A 
ATOM     40  C   UNL A   1      47.950  28.972  26.866  1.00  0.00     0.020 A 
ATOM     41  C   UNL A   1      48.294  28.488  29.222  1.00  0.00     0.020 A 
ATOM     42  C   UNL A   1      48.755  28.494  27.903  1.00  0.00     0.054 A 
BRANCH  42  43
ATOM     43  S   UNL A   1      50.418  27.896  27.496  1.00  0.00     0.124 S 
ATOM     44  O   UNL A   1      51.245  29.044  27.857  1.00  0.00    -0.237 OA
ATOM     45  O   UNL A   1      50.557  26.726  28.359  1.00  0.00    -0.237 OA
ATOM     46  O   UNL A   1      50.343  27.607  26.066  1.00  0.00    -0.744 OA
ENDBRANCH  42  43
ENDBRANCH  23  37
BRANCH  24  47
ATOM     47  C   UNL A   1      36.331  33.362  30.379  1.00  0.00    -0.014 A 
ATOM     48  C   UNL A   1      36.030  33.466  31.743  1.00  0.00     0.010 A 
ATOM     49  C   UNL A   1      35.502  34.000  29.433  1.00  0.00     0.010 A 
ATOM     50  C   UNL A   1      34.928  34.218  32.157  1.00  0.00     0.020 A 
ATOM     51  C   UNL A   1      34.419  34.775  29.846  1.00  0.00     0.020 A 
ATOM     52  C   UNL A   1      34.139  34.880  31.208  1.00  0.00     0.054 A 
BRANCH  52  53
ATOM     53  S   UNL A   1      32.804  35.965  31.781  1.00  0.00     0.124 S 
ATOM     54  O   UNL A   1      33.506  36.841  32.712  1.00  0.00    -0.237 OA
ATOM     55  O   UNL A   1      32.349  36.588  30.541  1.00  0.00    -0.237 OA
ATOM     56  O   UNL A   1      31.849  35.040  32.387  1.00  0.00    -0.744 OA
ENDBRANCH  52  53
ENDBRANCH  24  47
BRANCH  36  57
ATOM     57  C   UNL A   1      42.869  35.670  29.893  1.00  0.00    -0.014 A 
ATOM     58  C   UNL A   1      42.853  36.536  28.782  1.00  0.00     0.010 A 
ATOM     59  C   UNL A   1      43.431  36.117  31.104  1.00  0.00     0.010 A 
ATOM     60  C   UNL A   1      43.460  37.792  28.859  1.00  0.00     0.020 A 
ATOM     61  C   UNL A   1      44.001  37.389  31.194  1.00  0.00     0.020 A 
ATOM     62  C   UNL A   1      44.040  38.206  30.062  1.00  0.00     0.054 A 
BRANCH  62  63
ATOM     63  S   UNL A   1      44.851  39.827  30.130  1.00  0.00     0.124 S 
ATOM     64  O   UNL A   1      44.134  40.478  31.224  1.00  0.00    -0.237 OA
ATOM     65  O   UNL A   1      46.243  39.480  30.408  1.00  0.00    -0.237 OA
ATOM     66  O   UNL A   1      44.608  40.389  28.804  1.00  0.00    -0.744 OA
ENDBRANCH  62  63
ENDBRANCH  36  57
ENDBRANCH  10  11
ENDBRANCH   3   5
ENDBRANCH   2   3
ENDBRANCH   1   2
BRANCH   1  67
ATOM     67  C   UNL A   1      35.853  22.706  24.446  1.00  0.00     0.274 C 
BRANCH  67  68
ATOM     68  O   UNL A   1      34.609  23.431  24.458  1.00  0.00    -0.462 OA
BRANCH  68  69
ATOM     69  C   UNL A   1      33.554  22.760  23.920  1.00  0.00     0.312 C 
ATOM     70  O   UNL A   1      33.448  22.574  22.712  1.00  0.00    -0.252 OA
BRANCH  69  71
ATOM     71  C   UNL A   1      32.430  22.457  24.938  1.00  0.00     0.079 C 
ATOM     72  C   UNL A   1      32.632  22.785  26.408  1.00  0.00     0.080 C 
ATOM     73  C   UNL A   1      32.202  20.918  24.889  1.00  0.00     0.080 C 
ATOM     74  C   UNL A   1      33.621  21.942  27.187  1.00  0.00     0.261 C 
ATOM     75  C   UNL A   1      33.341  20.170  25.608  1.00  0.00     0.261 C 
ATOM     76  N   UNL A   1      33.351  20.520  27.027  1.00  0.00    -0.346 N 
ATOM     77  H   UNL A   1      32.443  20.301  27.436  1.00  0.00     0.346 HD
ATOM     78  H   UNL A   1      34.082  19.986  27.498  1.00  0.00     0.346 HD
BRANCH  71  79
ATOM     79  C   UNL A   1      31.165  23.221  24.490  1.00  0.00     0.031 C 
BRANCH  79  80
ATOM     80  C   UNL A   1      31.179  24.756  24.187  1.00  0.00     0.062 C 
ATOM     81  C   UNL A   1      31.217  25.237  22.673  1.00  0.00     0.238 C 
ATOM     82  C   UNL A   1      31.749  25.966  24.947  1.00  0.00     0.001 A 
ATOM     83  O   UNL A   1      31.762  26.564  22.381  1.00  0.00    -0.493 OA
ATOM     84  C   UNL A   1      31.969  27.175  23.588  1.00  0.00     0.122 A 
ATOM     85  C   UNL A   1      31.717  26.564  26.691  1.00  0.00     0.008 A 
ATOM     86  C   UNL A   1      32.252  28.963  23.876  1.00  0.00     0.047 A 
ATOM     87  C   UNL A   1      31.949  28.381  27.061  1.00  0.00     0.001 A 
ATOM     88  C   UNL A   1      32.254  29.608  25.613  1.00  0.00     0.004 A 
ENDBRANCH  79  80
ENDBRANCH  71  79
ENDBRANCH  69  71
ENDBRANCH  68  69
ENDBRANCH  67  68
ENDBRANCH   1  67
TORSDOF 16
ENDMDL
