MODEL 1
REMARK VINA RESULT:     -11.0      0.000      0.000
REMARK SMILES CC(C)[C@@H](NC(=O)[C@@H]1CC[C@H]2CCCC[C@@H]2[NH2+]1)C(=O)OCCOC(=O)c1ccc(-c2c3nc(c(-c4ccc(S(=O)(=O)[O-])cc4)c4ccc([nH]4)c(-c4ccc(S(=O)(=O)[O-])cc4)c4nc(c(-c5ccc(S(=O)(=O)[O-])cc5)c5ccc2[nH]5)C=C4)C=C3)cc1
REMARK SMILES IDX 22 1 21 2 20 3 18 4 19 5 4 6 2 7 1 8 3 9 5 10 6 11 7 13 8 14
REMARK SMILES IDX 9 15 17 16 10 17 16 18 11 21 15 22 12 23 14 24 13 25 23 26
REMARK SMILES IDX 24 27 25 28 26 29 27 30 85 31 28 32 84 33 29 34 30 35 31 36
REMARK SMILES IDX 78 37 32 38 83 39 77 40 79 41 33 42 82 43 76 44 75 45 34 47
REMARK SMILES IDX 64 48 45 49 63 50 46 51 49 52 62 53 80 54 47 55 48 56 61 58
REMARK SMILES IDX 81 59 50 60 35 61 36 62 44 63 37 64 43 65 38 66 39 67 40 68
REMARK SMILES IDX 41 69 42 70 65 71 66 72 74 73 67 74 73 75 68 76 69 77 70 78
REMARK SMILES IDX 71 79 72 80 51 81 52 82 60 83 53 84 59 85 54 86 55 87 56 88
REMARK SMILES IDX 57 89 58 90
REMARK H PARENT 5 12 17 19 17 20 79 46 49 57
REMARK Flexibility Score: inf
ROOT
ATOM      1  C   UNL A   1      33.162  31.096  27.131  1.00  0.00     0.275 C 
ENDROOT
BRANCH   1   2
ATOM      2  C   UNL A   1      32.230  30.138  26.398  1.00  0.00     0.274 C 
BRANCH   2   3
ATOM      3  O   UNL A   1      32.815  29.618  25.177  1.00  0.00    -0.461 OA
BRANCH   3   4
ATOM      4  C   UNL A   1      32.948  28.268  25.076  1.00  0.00     0.329 C 
ATOM      5  O   UNL A   1      33.850  27.632  25.614  1.00  0.00    -0.250 OA
BRANCH   4   6
ATOM      6  C   UNL A   1      31.918  27.595  24.144  1.00  0.00     0.195 C 
BRANCH   6   7
ATOM      7  C   UNL A   1      30.558  28.261  23.772  1.00  0.00     0.017 C 
ATOM      8  C   UNL A   1      30.699  29.097  22.480  1.00  0.00     0.010 C 
ATOM      9  C   UNL A   1      29.407  27.280  23.531  1.00  0.00     0.010 C 
ENDBRANCH   6   7
BRANCH   6  10
ATOM     10  N   UNL A   1      32.553  26.948  22.966  1.00  0.00    -0.337 N 
ATOM     11  C   UNL A   1      33.057  25.741  22.614  1.00  0.00     0.278 C 
ATOM     12  H   UNL A   1      32.628  27.585  22.219  1.00  0.00     0.164 HD
ATOM     13  O   UNL A   1      33.921  25.823  21.723  1.00  0.00    -0.268 OA
BRANCH  11  14
ATOM     14  C   UNL A   1      32.566  24.324  23.074  1.00  0.00     0.272 C 
ATOM     15  C   UNL A   1      32.117  24.026  24.491  1.00  0.00     0.076 C 
ATOM     16  N   UNL A   1      33.595  23.303  22.718  1.00  0.00    -0.333 N 
ATOM     17  C   UNL A   1      33.231  24.166  25.527  1.00  0.00     0.016 C 
ATOM     18  C   UNL A   1      34.575  23.018  23.777  1.00  0.00     0.186 C 
ATOM     19  H   UNL A   1      34.101  23.637  21.897  1.00  0.00     0.347 HD
ATOM     20  H   UNL A   1      33.090  22.433  22.551  1.00  0.00     0.347 HD
ATOM     21  C   UNL A   1      34.604  24.108  24.858  1.00  0.00     0.048 C 
ATOM     22  C   UNL A   1      35.949  22.810  23.139  1.00  0.00     0.065 C 
ATOM     23  C   UNL A   1      35.718  23.924  25.886  1.00  0.00     0.010 C 
ATOM     24  C   UNL A   1      37.042  22.627  24.192  1.00  0.00     0.006 C 
ATOM     25  C   UNL A   1      37.064  23.783  25.187  1.00  0.00     0.001 C 
ENDBRANCH  11  14
ENDBRANCH   6  10
ENDBRANCH   4   6
ENDBRANCH   3   4
ENDBRANCH   2   3
ENDBRANCH   1   2
BRANCH   1  26
ATOM     26  O   UNL A   1      34.057  30.337  27.947  1.00  0.00    -0.458 OA
BRANCH  26  27
ATOM     27  C   UNL A   1      34.892  31.103  28.686  1.00  0.00     0.338 C 
ATOM     28  O   UNL A   1      34.607  32.055  29.386  1.00  0.00    -0.246 OA
BRANCH  27  29
ATOM     29  C   UNL A   1      36.187  30.421  28.721  1.00  0.00     0.060 A 
ATOM     30  C   UNL A   1      36.678  30.038  29.974  1.00  0.00     0.016 A 
ATOM     31  C   UNL A   1      36.904  30.175  27.554  1.00  0.00     0.016 A 
ATOM     32  C   UNL A   1      37.916  29.433  30.080  1.00  0.00     0.010 A 
ATOM     33  C   UNL A   1      38.159  29.590  27.658  1.00  0.00     0.010 A 
ATOM     34  C   UNL A   1      38.675  29.254  28.923  1.00  0.00    -0.014 A 
BRANCH  34  35
ATOM     35  C   UNL A   1      40.100  28.922  29.043  1.00  0.00     0.031 A 
ATOM     36  C   UNL A   1      41.031  30.029  29.433  1.00  0.00     0.074 A 
ATOM     37  C   UNL A   1      40.526  27.676  28.789  1.00  0.00     0.049 A 
ATOM     38  N   UNL A   1      42.333  30.060  29.406  1.00  0.00    -0.248 NA
ATOM     39  C   UNL A   1      40.403  31.277  29.907  1.00  0.00     0.031 C 
ATOM     40  C   UNL A   1      39.667  26.529  28.495  1.00  0.00     0.029 A 
ATOM     41  N   UNL A   1      41.797  27.178  28.718  1.00  0.00    -0.354 N 
ATOM     42  C   UNL A   1      42.681  31.340  29.821  1.00  0.00     0.074 A 
ATOM     43  C   UNL A   1      41.457  32.057  30.092  1.00  0.00     0.031 C 
ATOM     44  C   UNL A   1      40.442  25.461  28.241  1.00  0.00     0.029 A 
ATOM     45  C   UNL A   1      41.842  25.870  28.303  1.00  0.00     0.049 A 
ATOM     46  H   UNL A   1      42.599  27.704  28.940  1.00  0.00     0.167 HD
ATOM     47  C   UNL A   1      43.921  31.866  29.946  1.00  0.00     0.031 A 
ATOM     48  C   UNL A   1      42.904  25.116  27.965  1.00  0.00     0.031 A 
ATOM     49  C   UNL A   1      45.114  31.125  29.642  1.00  0.00     0.049 A 
ATOM     50  C   UNL A   1      44.270  25.743  28.040  1.00  0.00     0.074 A 
ATOM     51  C   UNL A   1      46.430  31.540  29.702  1.00  0.00     0.029 A 
ATOM     52  N   UNL A   1      45.125  29.802  29.217  1.00  0.00    -0.354 N 
ATOM     53  N   UNL A   1      44.597  26.965  28.397  1.00  0.00    -0.248 NA
ATOM     54  C   UNL A   1      45.408  24.896  27.668  1.00  0.00     0.031 C 
ATOM     55  C   UNL A   1      47.235  30.479  29.271  1.00  0.00     0.029 A 
ATOM     56  C   UNL A   1      46.424  29.386  28.998  1.00  0.00     0.049 A 
ATOM     57  H   UNL A   1      44.324  29.243  29.091  1.00  0.00     0.167 HD
ATOM     58  C   UNL A   1      45.983  27.026  28.315  1.00  0.00     0.074 A 
ATOM     59  C   UNL A   1      46.429  25.714  27.886  1.00  0.00     0.031 C 
ATOM     60  C   UNL A   1      46.817  28.066  28.571  1.00  0.00     0.031 A 
BRANCH  47  61
ATOM     61  C   UNL A   1      44.023  33.308  30.362  1.00  0.00    -0.014 A 
ATOM     62  C   UNL A   1      43.991  33.685  31.716  1.00  0.00     0.010 A 
ATOM     63  C   UNL A   1      44.140  34.307  29.378  1.00  0.00     0.010 A 
ATOM     64  C   UNL A   1      44.032  35.035  32.078  1.00  0.00     0.020 A 
ATOM     65  C   UNL A   1      44.208  35.657  29.736  1.00  0.00     0.020 A 
ATOM     66  C   UNL A   1      44.137  36.013  31.084  1.00  0.00     0.054 A 
BRANCH  66  67
ATOM     67  S   UNL A   1      44.199  37.757  31.580  1.00  0.00     0.124 S 
ATOM     68  O   UNL A   1      43.473  37.736  32.848  1.00  0.00    -0.237 OA
ATOM     69  O   UNL A   1      45.633  38.011  31.682  1.00  0.00    -0.237 OA
ATOM     70  O   UNL A   1      43.522  38.453  30.488  1.00  0.00    -0.744 OA
ENDBRANCH  66  67
ENDBRANCH  47  61
BRANCH  48  71
ATOM     71  C   UNL A   1      42.706  23.718  27.498  1.00  0.00    -0.014 A 
ATOM     72  C   UNL A   1      42.678  22.654  28.416  1.00  0.00     0.010 A 
ATOM     73  C   UNL A   1      42.515  23.443  26.130  1.00  0.00     0.010 A 
ATOM     74  C   UNL A   1      42.475  21.342  27.976  1.00  0.00     0.020 A 
ATOM     75  C   UNL A   1      42.284  22.136  25.689  1.00  0.00     0.020 A 
ATOM     76  C   UNL A   1      42.276  21.092  26.615  1.00  0.00     0.054 A 
BRANCH  76  77
ATOM     77  S   UNL A   1      41.959  19.389  26.075  1.00  0.00     0.124 S 
ATOM     78  O   UNL A   1      42.819  19.278  24.901  1.00  0.00    -0.237 OA
ATOM     79  O   UNL A   1      42.372  18.606  27.238  1.00  0.00    -0.237 OA
ATOM     80  O   UNL A   1      40.523  19.377  25.804  1.00  0.00    -0.744 OA
ENDBRANCH  76  77
ENDBRANCH  48  71
BRANCH  60  81
ATOM     81  C   UNL A   1      48.290  27.804  28.434  1.00  0.00    -0.014 A 
ATOM     82  C   UNL A   1      49.017  27.181  29.462  1.00  0.00     0.010 A 
ATOM     83  C   UNL A   1      48.937  28.139  27.230  1.00  0.00     0.010 A 
ATOM     84  C   UNL A   1      50.380  26.925  29.299  1.00  0.00     0.020 A 
ATOM     85  C   UNL A   1      50.293  27.858  27.055  1.00  0.00     0.020 A 
ATOM     86  C   UNL A   1      51.008  27.266  28.097  1.00  0.00     0.054 A 
BRANCH  86  87
ATOM     87  S   UNL A   1      52.769  26.885  27.894  1.00  0.00     0.124 S 
ATOM     88  O   UNL A   1      53.237  26.867  29.277  1.00  0.00    -0.237 OA
ATOM     89  O   UNL A   1      52.742  25.589  27.221  1.00  0.00    -0.237 OA
ATOM     90  O   UNL A   1      53.270  27.991  27.080  1.00  0.00    -0.744 OA
ENDBRANCH  86  87
ENDBRANCH  60  81
ENDBRANCH  34  35
ENDBRANCH  27  29
ENDBRANCH  26  27
ENDBRANCH   1  26
TORSDOF 17
ENDMDL
MODEL 2
REMARK VINA RESULT:     -10.9      3.689      9.892
REMARK SMILES CC(C)[C@@H](NC(=O)[C@@H]1CC[C@H]2CCCC[C@@H]2[NH2+]1)C(=O)OCCOC(=O)c1ccc(-c2c3nc(c(-c4ccc(S(=O)(=O)[O-])cc4)c4ccc([nH]4)c(-c4ccc(S(=O)(=O)[O-])cc4)c4nc(c(-c5ccc(S(=O)(=O)[O-])cc5)c5ccc2[nH]5)C=C4)C=C3)cc1
REMARK SMILES IDX 22 1 21 2 20 3 18 4 19 5 4 6 2 7 1 8 3 9 5 10 6 11 7 13 8 14
REMARK SMILES IDX 9 15 17 16 10 17 16 18 11 21 15 22 12 23 14 24 13 25 23 26
REMARK SMILES IDX 24 27 25 28 26 29 27 30 85 31 28 32 84 33 29 34 30 35 31 36
REMARK SMILES IDX 78 37 32 38 83 39 77 40 79 41 33 42 82 43 76 44 75 45 34 47
REMARK SMILES IDX 64 48 45 49 63 50 46 51 49 52 62 53 80 54 47 55 48 56 61 58
REMARK SMILES IDX 81 59 50 60 35 61 36 62 44 63 37 64 43 65 38 66 39 67 40 68
REMARK SMILES IDX 41 69 42 70 65 71 66 72 74 73 67 74 73 75 68 76 69 77 70 78
REMARK SMILES IDX 71 79 72 80 51 81 52 82 60 83 53 84 59 85 54 86 55 87 56 88
REMARK SMILES IDX 57 89 58 90
REMARK H PARENT 5 12 17 19 17 20 79 46 49 57
REMARK Flexibility Score: inf
ROOT
ATOM      1  C   UNL A   1      38.256  21.568  25.303  1.00  0.00     0.275 C 
ENDROOT
BRANCH   1   2
ATOM      2  C   UNL A   1      37.153  22.065  24.375  1.00  0.00     0.274 C 
BRANCH   2   3
ATOM      3  O   UNL A   1      35.827  21.719  24.852  1.00  0.00    -0.461 OA
BRANCH   3   4
ATOM      4  C   UNL A   1      35.019  22.741  25.238  1.00  0.00     0.329 C 
ATOM      5  O   UNL A   1      35.398  23.687  25.923  1.00  0.00    -0.250 OA
BRANCH   4   6
ATOM      6  C   UNL A   1      33.541  22.576  24.822  1.00  0.00     0.195 C 
BRANCH   6   7
ATOM      7  C   UNL A   1      33.046  21.401  23.924  1.00  0.00     0.017 C 
ATOM      8  C   UNL A   1      32.274  20.361  24.767  1.00  0.00     0.010 C 
ATOM      9  C   UNL A   1      32.112  21.815  22.783  1.00  0.00     0.010 C 
ENDBRANCH   6   7
BRANCH   6  10
ATOM     10  N   UNL A   1      32.600  22.845  25.941  1.00  0.00    -0.337 N 
ATOM     11  C   UNL A   1      31.739  23.812  26.338  1.00  0.00     0.278 C 
ATOM     12  H   UNL A   1      32.602  22.099  26.583  1.00  0.00     0.164 HD
ATOM     13  O   UNL A   1      31.564  23.823  27.569  1.00  0.00    -0.268 OA
BRANCH  11  14
ATOM     14  C   UNL A   1      30.865  24.751  25.434  1.00  0.00     0.272 C 
ATOM     15  C   UNL A   1      31.299  25.203  24.053  1.00  0.00     0.076 C 
ATOM     16  N   UNL A   1      30.499  25.977  26.201  1.00  0.00    -0.333 N 
ATOM     17  C   UNL A   1      32.545  26.086  24.063  1.00  0.00     0.016 C 
ATOM     18  C   UNL A   1      31.422  27.110  26.032  1.00  0.00     0.186 C 
ATOM     19  H   UNL A   1      30.472  25.735  27.192  1.00  0.00     0.347 HD
ATOM     20  H   UNL A   1      29.597  26.285  25.838  1.00  0.00     0.347 HD
ATOM     21  C   UNL A   1      32.777  26.681  25.451  1.00  0.00     0.048 C 
ATOM     22  C   UNL A   1      31.577  27.828  27.373  1.00  0.00     0.065 C 
ATOM     23  C   UNL A   1      33.811  27.804  25.411  1.00  0.00     0.010 C 
ATOM     24  C   UNL A   1      32.617  28.947  27.301  1.00  0.00     0.006 C 
ATOM     25  C   UNL A   1      33.960  28.435  26.790  1.00  0.00     0.001 C 
ENDBRANCH  11  14
ENDBRANCH   6  10
ENDBRANCH   4   6
ENDBRANCH   3   4
ENDBRANCH   2   3
ENDBRANCH   1   2
BRANCH   1  26
ATOM     26  O   UNL A   1      38.524  22.573  26.283  1.00  0.00    -0.458 OA
BRANCH  26  27
ATOM     27  C   UNL A   1      39.830  22.914  26.362  1.00  0.00     0.338 C 
ATOM     28  O   UNL A   1      40.775  22.378  25.815  1.00  0.00    -0.246 OA
BRANCH  27  29
ATOM     29  C   UNL A   1      39.897  24.223  27.013  1.00  0.00     0.060 A 
ATOM     30  C   UNL A   1      40.779  25.166  26.471  1.00  0.00     0.016 A 
ATOM     31  C   UNL A   1      39.122  24.513  28.131  1.00  0.00     0.016 A 
ATOM     32  C   UNL A   1      40.924  26.404  27.067  1.00  0.00     0.010 A 
ATOM     33  C   UNL A   1      39.283  25.747  28.748  1.00  0.00     0.010 A 
ATOM     34  C   UNL A   1      40.208  26.673  28.234  1.00  0.00    -0.014 A 
BRANCH  34  35
ATOM     35  C   UNL A   1      40.583  27.831  29.054  1.00  0.00     0.031 A 
ATOM     36  C   UNL A   1      41.856  27.734  29.838  1.00  0.00     0.074 A 
ATOM     37  C   UNL A   1      39.791  28.913  29.098  1.00  0.00     0.049 A 
ATOM     38  N   UNL A   1      42.304  28.508  30.785  1.00  0.00    -0.248 NA
ATOM     39  C   UNL A   1      42.738  26.596  29.516  1.00  0.00     0.031 C 
ATOM     40  C   UNL A   1      38.587  29.115  28.291  1.00  0.00     0.029 A 
ATOM     41  N   UNL A   1      39.874  30.035  29.873  1.00  0.00    -0.354 N 
ATOM     42  C   UNL A   1      43.499  27.932  31.200  1.00  0.00     0.074 A 
ATOM     43  C   UNL A   1      43.707  26.744  30.405  1.00  0.00     0.031 C 
ATOM     44  C   UNL A   1      38.023  30.283  28.640  1.00  0.00     0.029 A 
ATOM     45  C   UNL A   1      38.797  30.874  29.726  1.00  0.00     0.049 A 
ATOM     46  H   UNL A   1      40.630  30.222  30.476  1.00  0.00     0.167 HD
ATOM     47  C   UNL A   1      44.335  28.359  32.174  1.00  0.00     0.031 A 
ATOM     48  C   UNL A   1      38.463  31.968  30.435  1.00  0.00     0.031 A 
ATOM     49  C   UNL A   1      44.078  29.535  32.958  1.00  0.00     0.049 A 
ATOM     50  C   UNL A   1      39.368  32.386  31.563  1.00  0.00     0.074 A 
ATOM     51  C   UNL A   1      44.826  30.070  33.988  1.00  0.00     0.029 A 
ATOM     52  N   UNL A   1      42.972  30.361  32.789  1.00  0.00    -0.354 N 
ATOM     53  N   UNL A   1      40.479  31.820  31.980  1.00  0.00    -0.248 NA
ATOM     54  C   UNL A   1      38.979  33.582  32.316  1.00  0.00     0.031 C 
ATOM     55  C   UNL A   1      44.149  31.196  34.472  1.00  0.00     0.029 A 
ATOM     56  C   UNL A   1      43.011  31.395  33.704  1.00  0.00     0.049 A 
ATOM     57  H   UNL A   1      42.267  30.229  32.115  1.00  0.00     0.167 HD
ATOM     58  C   UNL A   1      40.935  32.607  33.030  1.00  0.00     0.074 A 
ATOM     59  C   UNL A   1      39.984  33.693  33.175  1.00  0.00     0.031 C 
ATOM     60  C   UNL A   1      42.037  32.455  33.807  1.00  0.00     0.031 A 
BRANCH  47  61
ATOM     61  C   UNL A   1      45.544  27.515  32.468  1.00  0.00    -0.014 A 
ATOM     62  C   UNL A   1      45.494  26.459  33.395  1.00  0.00     0.010 A 
ATOM     63  C   UNL A   1      46.759  27.792  31.814  1.00  0.00     0.010 A 
ATOM     64  C   UNL A   1      46.644  25.722  33.694  1.00  0.00     0.020 A 
ATOM     65  C   UNL A   1      47.906  27.041  32.090  1.00  0.00     0.020 A 
ATOM     66  C   UNL A   1      47.845  26.021  33.042  1.00  0.00     0.054 A 
BRANCH  66  67
ATOM     67  S   UNL A   1      49.320  25.044  33.440  1.00  0.00     0.124 S 
ATOM     68  O   UNL A   1      50.041  25.939  34.343  1.00  0.00    -0.237 OA
ATOM     69  O   UNL A   1      48.756  23.849  34.060  1.00  0.00    -0.237 OA
ATOM     70  O   UNL A   1      49.955  24.828  32.141  1.00  0.00    -0.744 OA
ENDBRANCH  66  67
ENDBRANCH  47  61
BRANCH  48  71
ATOM     71  C   UNL A   1      37.210  32.705  30.120  1.00  0.00    -0.014 A 
ATOM     72  C   UNL A   1      37.188  33.676  29.105  1.00  0.00     0.010 A 
ATOM     73  C   UNL A   1      36.020  32.420  30.816  1.00  0.00     0.010 A 
ATOM     74  C   UNL A   1      36.005  34.356  28.798  1.00  0.00     0.020 A 
ATOM     75  C   UNL A   1      34.828  33.078  30.495  1.00  0.00     0.020 A 
ATOM     76  C   UNL A   1      34.832  34.051  29.494  1.00  0.00     0.054 A 
BRANCH  76  77
ATOM     77  S   UNL A   1      33.297  34.906  29.041  1.00  0.00     0.124 S 
ATOM     78  O   UNL A   1      33.798  36.181  28.537  1.00  0.00    -0.237 OA
ATOM     79  O   UNL A   1      32.720  34.012  28.039  1.00  0.00    -0.237 OA
ATOM     80  O   UNL A   1      32.559  34.976  30.301  1.00  0.00    -0.744 OA
ENDBRANCH  76  77
ENDBRANCH  48  71
BRANCH  60  81
ATOM     81  C   UNL A   1      42.287  33.511  34.845  1.00  0.00    -0.014 A 
ATOM     82  C   UNL A   1      42.908  34.727  34.512  1.00  0.00     0.010 A 
ATOM     83  C   UNL A   1      41.839  33.299  36.162  1.00  0.00     0.010 A 
ATOM     84  C   UNL A   1      43.106  35.703  35.490  1.00  0.00     0.020 A 
ATOM     85  C   UNL A   1      42.009  34.285  37.134  1.00  0.00     0.020 A 
ATOM     86  C   UNL A   1      42.656  35.475  36.795  1.00  0.00     0.054 A 
BRANCH  86  87
ATOM     87  S   UNL A   1      42.885  36.776  38.037  1.00  0.00     0.124 S 
ATOM     88  O   UNL A   1      43.632  37.781  37.288  1.00  0.00    -0.237 OA
ATOM     89  O   UNL A   1      41.512  37.137  38.381  1.00  0.00    -0.237 OA
ATOM     90  O   UNL A   1      43.631  36.108  39.103  1.00  0.00    -0.744 OA
ENDBRANCH  86  87
ENDBRANCH  60  81
ENDBRANCH  34  35
ENDBRANCH  27  29
ENDBRANCH  26  27
ENDBRANCH   1  26
TORSDOF 17
ENDMDL
MODEL 3
REMARK VINA RESULT:     -10.7      1.488      2.646
REMARK SMILES CC(C)[C@@H](NC(=O)[C@@H]1CC[C@H]2CCCC[C@@H]2[NH2+]1)C(=O)OCCOC(=O)c1ccc(-c2c3nc(c(-c4ccc(S(=O)(=O)[O-])cc4)c4ccc([nH]4)c(-c4ccc(S(=O)(=O)[O-])cc4)c4nc(c(-c5ccc(S(=O)(=O)[O-])cc5)c5ccc2[nH]5)C=C4)C=C3)cc1
REMARK SMILES IDX 22 1 21 2 20 3 18 4 19 5 4 6 2 7 1 8 3 9 5 10 6 11 7 13 8 14
REMARK SMILES IDX 9 15 17 16 10 17 16 18 11 21 15 22 12 23 14 24 13 25 23 26
REMARK SMILES IDX 24 27 25 28 26 29 27 30 85 31 28 32 84 33 29 34 30 35 31 36
REMARK SMILES IDX 78 37 32 38 83 39 77 40 79 41 33 42 82 43 76 44 75 45 34 47
REMARK SMILES IDX 64 48 45 49 63 50 46 51 49 52 62 53 80 54 47 55 48 56 61 58
REMARK SMILES IDX 81 59 50 60 35 61 36 62 44 63 37 64 43 65 38 66 39 67 40 68
REMARK SMILES IDX 41 69 42 70 65 71 66 72 74 73 67 74 73 75 68 76 69 77 70 78
REMARK SMILES IDX 71 79 72 80 51 81 52 82 60 83 53 84 59 85 54 86 55 87 56 88
REMARK SMILES IDX 57 89 58 90
REMARK H PARENT 5 12 17 19 17 20 79 46 49 57
REMARK Flexibility Score: inf
ROOT
ATOM      1  C   UNL A   1      33.204  28.408  26.112  1.00  0.00     0.275 C 
ENDROOT
BRANCH   1   2
ATOM      2  C   UNL A   1      33.957  27.512  25.134  1.00  0.00     0.274 C 
BRANCH   2   3
ATOM      3  O   UNL A   1      33.413  27.572  23.791  1.00  0.00    -0.461 OA
BRANCH   3   4
ATOM      4  C   UNL A   1      33.536  26.459  23.020  1.00  0.00     0.329 C 
ATOM      5  O   UNL A   1      33.603  26.485  21.794  1.00  0.00    -0.250 OA
BRANCH   4   6
ATOM      6  C   UNL A   1      33.493  25.131  23.806  1.00  0.00     0.195 C 
BRANCH   6   7
ATOM      7  C   UNL A   1      32.159  24.411  24.170  1.00  0.00     0.017 C 
ATOM      8  C   UNL A   1      31.769  24.700  25.637  1.00  0.00     0.010 C 
ATOM      9  C   UNL A   1      30.956  24.816  23.312  1.00  0.00     0.010 C 
ENDBRANCH   6   7
BRANCH   6  10
ATOM     10  N   UNL A   1      34.532  24.167  23.356  1.00  0.00    -0.337 N 
ATOM     11  C   UNL A   1      35.679  23.615  23.817  1.00  0.00     0.278 C 
ATOM     12  H   UNL A   1      34.323  23.830  22.455  1.00  0.00     0.164 HD
ATOM     13  O   UNL A   1      36.445  23.266  22.902  1.00  0.00    -0.268 OA
BRANCH  11  14
ATOM     14  C   UNL A   1      36.036  23.242  25.298  1.00  0.00     0.272 C 
ATOM     15  C   UNL A   1      37.161  22.291  25.660  1.00  0.00     0.076 C 
ATOM     16  N   UNL A   1      34.811  22.755  25.997  1.00  0.00    -0.333 N 
ATOM     17  C   UNL A   1      36.932  20.862  25.173  1.00  0.00     0.016 C 
ATOM     18  C   UNL A   1      34.612  21.298  25.954  1.00  0.00     0.186 C 
ATOM     19  H   UNL A   1      34.001  23.199  25.562  1.00  0.00     0.347 HD
ATOM     20  H   UNL A   1      34.924  23.001  26.980  1.00  0.00     0.347 HD
ATOM     21  C   UNL A   1      35.456  20.623  24.863  1.00  0.00     0.048 C 
ATOM     22  C   UNL A   1      33.120  21.006  25.786  1.00  0.00     0.065 C 
ATOM     23  C   UNL A   1      35.155  19.137  24.686  1.00  0.00     0.010 C 
ATOM     24  C   UNL A   1      32.852  19.511  25.613  1.00  0.00     0.006 C 
ATOM     25  C   UNL A   1      33.663  18.922  24.463  1.00  0.00     0.001 C 
ENDBRANCH  11  14
ENDBRANCH   6  10
ENDBRANCH   4   6
ENDBRANCH   3   4
ENDBRANCH   2   3
ENDBRANCH   1   2
BRANCH   1  26
ATOM     26  O   UNL A   1      33.965  28.521  27.316  1.00  0.00    -0.458 OA
BRANCH  26  27
ATOM     27  C   UNL A   1      34.338  29.790  27.600  1.00  0.00     0.338 C 
ATOM     28  O   UNL A   1      33.631  30.775  27.679  1.00  0.00    -0.246 OA
BRANCH  27  29
ATOM     29  C   UNL A   1      35.723  29.738  28.071  1.00  0.00     0.060 A 
ATOM     30  C   UNL A   1      36.730  30.017  27.140  1.00  0.00     0.016 A 
ATOM     31  C   UNL A   1      36.024  29.413  29.390  1.00  0.00     0.016 A 
ATOM     32  C   UNL A   1      38.059  29.939  27.508  1.00  0.00     0.010 A 
ATOM     33  C   UNL A   1      37.359  29.308  29.759  1.00  0.00     0.010 A 
ATOM     34  C   UNL A   1      38.370  29.537  28.808  1.00  0.00    -0.014 A 
BRANCH  34  35
ATOM     35  C   UNL A   1      39.746  29.135  29.124  1.00  0.00     0.031 A 
ATOM     36  C   UNL A   1      40.656  30.183  29.685  1.00  0.00     0.074 A 
ATOM     37  C   UNL A   1      40.151  27.877  28.892  1.00  0.00     0.049 A 
ATOM     38  N   UNL A   1      41.949  30.154  29.850  1.00  0.00    -0.248 NA
ATOM     39  C   UNL A   1      40.020  31.447  30.104  1.00  0.00     0.031 C 
ATOM     40  C   UNL A   1      39.296  26.781  28.436  1.00  0.00     0.029 A 
ATOM     41  N   UNL A   1      41.396  27.321  28.990  1.00  0.00    -0.354 N 
ATOM     42  C   UNL A   1      42.287  31.403  30.355  1.00  0.00     0.074 A 
ATOM     43  C   UNL A   1      41.067  32.170  30.469  1.00  0.00     0.031 C 
ATOM     44  C   UNL A   1      40.053  25.685  28.262  1.00  0.00     0.029 A 
ATOM     45  C   UNL A   1      41.445  26.024  28.542  1.00  0.00     0.049 A 
ATOM     46  H   UNL A   1      42.178  27.802  29.346  1.00  0.00     0.167 HD
ATOM     47  C   UNL A   1      43.516  31.866  30.678  1.00  0.00     0.031 A 
ATOM     48  C   UNL A   1      42.512  25.230  28.337  1.00  0.00     0.031 A 
ATOM     49  C   UNL A   1      44.707  31.077  30.527  1.00  0.00     0.049 A 
ATOM     50  C   UNL A   1      43.878  25.788  28.633  1.00  0.00     0.074 A 
ATOM     51  C   UNL A   1      46.017  31.427  30.794  1.00  0.00     0.029 A 
ATOM     52  N   UNL A   1      44.723  29.767  30.062  1.00  0.00    -0.354 N 
ATOM     53  N   UNL A   1      44.201  26.983  29.076  1.00  0.00    -0.248 NA
ATOM     54  C   UNL A   1      45.021  24.899  28.402  1.00  0.00     0.031 C 
ATOM     55  C   UNL A   1      46.830  30.341  30.448  1.00  0.00     0.029 A 
ATOM     56  C   UNL A   1      46.022  29.296  30.022  1.00  0.00     0.049 A 
ATOM     57  H   UNL A   1      43.927  29.251  29.801  1.00  0.00     0.167 HD
ATOM     58  C   UNL A   1      45.585  26.980  29.200  1.00  0.00     0.074 A 
ATOM     59  C   UNL A   1      46.033  25.661  28.796  1.00  0.00     0.031 C 
ATOM     60  C   UNL A   1      46.416  27.971  29.611  1.00  0.00     0.031 A 
BRANCH  47  61
ATOM     61  C   UNL A   1      43.617  33.289  31.154  1.00  0.00    -0.014 A 
ATOM     62  C   UNL A   1      43.817  34.351  30.255  1.00  0.00     0.010 A 
ATOM     63  C   UNL A   1      43.526  33.568  32.530  1.00  0.00     0.010 A 
ATOM     64  C   UNL A   1      43.964  35.660  30.724  1.00  0.00     0.020 A 
ATOM     65  C   UNL A   1      43.645  34.879  33.002  1.00  0.00     0.020 A 
ATOM     66  C   UNL A   1      43.881  35.915  32.097  1.00  0.00     0.054 A 
BRANCH  66  67
ATOM     67  S   UNL A   1      44.064  37.622  32.679  1.00  0.00     0.124 S 
ATOM     68  O   UNL A   1      45.439  37.627  33.175  1.00  0.00    -0.237 OA
ATOM     69  O   UNL A   1      43.831  38.402  31.467  1.00  0.00    -0.237 OA
ATOM     70  O   UNL A   1      43.033  37.752  33.706  1.00  0.00    -0.744 OA
ENDBRANCH  66  67
ENDBRANCH  47  61
BRANCH  48  71
ATOM     71  C   UNL A   1      42.325  23.856  27.797  1.00  0.00    -0.014 A 
ATOM     72  C   UNL A   1      42.335  23.626  26.411  1.00  0.00     0.010 A 
ATOM     73  C   UNL A   1      42.163  22.763  28.669  1.00  0.00     0.010 A 
ATOM     74  C   UNL A   1      42.176  22.331  25.907  1.00  0.00     0.020 A 
ATOM     75  C   UNL A   1      42.031  21.463  28.170  1.00  0.00     0.020 A 
ATOM     76  C   UNL A   1      42.028  21.257  26.789  1.00  0.00     0.054 A 
BRANCH  76  77
ATOM     77  S   UNL A   1      41.880  19.581  26.112  1.00  0.00     0.124 S 
ATOM     78  O   UNL A   1      42.343  18.761  27.227  1.00  0.00    -0.237 OA
ATOM     79  O   UNL A   1      40.453  19.488  25.808  1.00  0.00    -0.237 OA
ATOM     80  O   UNL A   1      42.757  19.604  24.944  1.00  0.00    -0.744 OA
ENDBRANCH  76  77
ENDBRANCH  48  71
BRANCH  60  81
ATOM     81  C   UNL A   1      47.880  27.643  29.682  1.00  0.00    -0.014 A 
ATOM     82  C   UNL A   1      48.726  27.844  28.578  1.00  0.00     0.010 A 
ATOM     83  C   UNL A   1      48.422  27.180  30.895  1.00  0.00     0.010 A 
ATOM     84  C   UNL A   1      50.088  27.557  28.678  1.00  0.00     0.020 A 
ATOM     85  C   UNL A   1      49.788  26.919  31.006  1.00  0.00     0.020 A 
ATOM     86  C   UNL A   1      50.610  27.095  29.891  1.00  0.00     0.054 A 
BRANCH  86  87
ATOM     87  S   UNL A   1      52.389  26.769  30.008  1.00  0.00     0.124 S 
ATOM     88  O   UNL A   1      52.723  26.413  28.632  1.00  0.00    -0.237 OA
ATOM     89  O   UNL A   1      52.920  28.047  30.475  1.00  0.00    -0.237 OA
ATOM     90  O   UNL A   1      52.477  25.676  30.975  1.00  0.00    -0.744 OA
ENDBRANCH  86  87
ENDBRANCH  60  81
ENDBRANCH  34  35
ENDBRANCH  27  29
ENDBRANCH  26  27
ENDBRANCH   1  26
TORSDOF 17
ENDMDL
