MODEL 1
REMARK VINA RESULT:     -10.0      0.000      0.000
REMARK SMILES O=C(C[C@@H]1CSCC[NH2+]1)NC[C@@H](C(=O)OCCOC(=O)c1ccc(-c2c3nc(c(-c4ccc(S(=O)(=O)[O-])cc4)c4ccc([nH]4)c(-c4ccc(S(=O)(=O)[O-])cc4)c4nc(c(-c5ccc(S(=O)(=O)[O-])cc5)c5ccc2[nH]5)C=C4)C=C3)cc1)c1ccccc1
REMARK SMILES IDX 16 1 15 2 13 3 14 4 12 5 11 6 10 7 1 8 2 9 3 11 4 12 5 13
REMARK SMILES IDX 9 14 6 15 8 16 7 19 81 20 82 21 86 22 83 23 85 24 84 25
REMARK SMILES IDX 17 26 18 27 19 28 20 29 21 30 22 31 80 32 23 33 79 34 24 35
REMARK SMILES IDX 25 36 26 37 73 38 27 39 78 40 72 41 74 42 28 43 77 44 71 45
REMARK SMILES IDX 70 46 29 48 59 49 40 50 58 51 41 52 44 53 57 54 75 55 42 56
REMARK SMILES IDX 43 57 56 59 76 60 45 61 30 62 31 63 39 64 32 65 38 66 33 67
REMARK SMILES IDX 34 68 35 69 36 70 37 71 60 72 61 73 69 74 62 75 68 76 63 77
REMARK SMILES IDX 64 78 65 79 66 80 67 81 46 82 47 83 55 84 48 85 54 86 49 87
REMARK SMILES IDX 50 88 51 89 52 90 53 91
REMARK H PARENT 10 10 9 17 9 18 74 47 44 58
REMARK Flexibility Score: inf
ROOT
ATOM      1  C   UNL A   1      32.324  27.577  26.176  1.00  0.00     0.274 C 
ENDROOT
BRANCH   1   2
ATOM      2  O   UNL A   1      31.039  27.575  25.516  1.00  0.00    -0.462 OA
BRANCH   2   3
ATOM      3  C   UNL A   1      30.569  26.367  25.090  1.00  0.00     0.315 C 
ATOM      4  O   UNL A   1      30.563  25.370  25.804  1.00  0.00    -0.251 OA
BRANCH   3   5
ATOM      5  C   UNL A   1      30.158  26.363  23.601  1.00  0.00     0.148 C 
BRANCH   5   6
ATOM      6  C   UNL A   1      31.347  26.114  22.652  1.00  0.00     0.136 C 
BRANCH   6   7
ATOM      7  N   UNL A   1      32.602  25.777  23.311  1.00  0.00    -0.355 N 
ATOM      8  O   UNL A   1      32.343  23.501  23.175  1.00  0.00    -0.275 OA
ATOM      9  C   UNL A   1      33.035  24.480  23.441  1.00  0.00     0.226 C 
ATOM     10  H   UNL A   1      33.159  26.503  23.674  1.00  0.00     0.163 HD
BRANCH   9  11
ATOM     11  C   UNL A   1      34.453  24.317  23.937  1.00  0.00     0.165 C 
BRANCH  11  12
ATOM     12  C   UNL A   1      34.669  24.308  25.468  1.00  0.00     0.201 C 
ATOM     13  C   UNL A   1      35.908  23.506  25.911  1.00  0.00     0.135 C 
ATOM     14  N   UNL A   1      33.483  24.101  26.317  1.00  0.00    -0.342 N 
ATOM     15  S   UNL A   1      35.648  21.720  25.964  1.00  0.00    -0.150 SA
ATOM     16  C   UNL A   1      33.080  22.701  26.516  1.00  0.00     0.271 C 
ATOM     17  H   UNL A   1      32.700  24.596  25.887  1.00  0.00     0.346 HD
ATOM     18  H   UNL A   1      33.735  24.453  27.240  1.00  0.00     0.346 HD
ATOM     19  C   UNL A   1      34.163  21.737  27.019  1.00  0.00     0.131 C 
ENDBRANCH  11  12
ENDBRANCH   9  11
ENDBRANCH   6   7
ENDBRANCH   5   6
BRANCH   5  20
ATOM     20  C   UNL A   1      29.361  27.631  23.228  1.00  0.00    -0.032 A 
ATOM     21  C   UNL A   1      27.994  27.800  23.522  1.00  0.00     0.004 A 
ATOM     22  C   UNL A   1      30.006  28.673  22.534  1.00  0.00     0.004 A 
ATOM     23  C   UNL A   1      27.304  28.951  23.128  1.00  0.00     0.000 A 
ATOM     24  C   UNL A   1      29.308  29.811  22.119  1.00  0.00     0.000 A 
ATOM     25  C   UNL A   1      27.957  29.951  22.418  1.00  0.00     0.000 A 
ENDBRANCH   5  20
ENDBRANCH   3   5
ENDBRANCH   2   3
ENDBRANCH   1   2
BRANCH   1  26
ATOM     26  C   UNL A   1      33.131  28.838  25.864  1.00  0.00     0.275 C 
BRANCH  26  27
ATOM     27  O   UNL A   1      34.374  28.836  26.583  1.00  0.00    -0.458 OA
BRANCH  27  28
ATOM     28  C   UNL A   1      34.535  29.858  27.454  1.00  0.00     0.338 C 
ATOM     29  O   UNL A   1      33.692  30.643  27.853  1.00  0.00    -0.246 OA
BRANCH  28  30
ATOM     30  C   UNL A   1      35.900  29.818  27.989  1.00  0.00     0.060 A 
ATOM     31  C   UNL A   1      36.936  30.075  27.098  1.00  0.00     0.016 A 
ATOM     32  C   UNL A   1      36.170  29.397  29.291  1.00  0.00     0.016 A 
ATOM     33  C   UNL A   1      38.252  29.848  27.477  1.00  0.00     0.010 A 
ATOM     34  C   UNL A   1      37.502  29.207  29.685  1.00  0.00     0.010 A 
ATOM     35  C   UNL A   1      38.551  29.392  28.765  1.00  0.00    -0.014 A 
BRANCH  35  36
ATOM     36  C   UNL A   1      39.950  29.000  29.074  1.00  0.00     0.031 A 
ATOM     37  C   UNL A   1      40.813  29.918  29.899  1.00  0.00     0.074 A 
ATOM     38  C   UNL A   1      40.414  27.785  28.725  1.00  0.00     0.049 A 
ATOM     39  N   UNL A   1      42.066  29.779  30.254  1.00  0.00    -0.248 NA
ATOM     40  C   UNL A   1      40.182  31.152  30.398  1.00  0.00     0.031 C 
ATOM     41  C   UNL A   1      39.650  26.759  28.012  1.00  0.00     0.029 A 
ATOM     42  N   UNL A   1      41.630  27.192  28.959  1.00  0.00    -0.354 N 
ATOM     43  C   UNL A   1      42.384  30.924  30.976  1.00  0.00     0.074 A 
ATOM     44  C   UNL A   1      41.194  31.746  31.014  1.00  0.00     0.031 C 
ATOM     45  C   UNL A   1      40.399  25.648  27.908  1.00  0.00     0.029 A 
ATOM     46  C   UNL A   1      41.713  25.902  28.492  1.00  0.00     0.049 A 
ATOM     47  H   UNL A   1      42.372  27.647  29.418  1.00  0.00     0.167 HD
ATOM     48  C   UNL A   1      43.562  31.266  31.550  1.00  0.00     0.031 A 
ATOM     49  C   UNL A   1      42.736  25.026  28.516  1.00  0.00     0.031 A 
ATOM     50  C   UNL A   1      44.740  30.441  31.539  1.00  0.00     0.049 A 
ATOM     51  C   UNL A   1      44.047  25.443  29.125  1.00  0.00     0.074 A 
ATOM     52  C   UNL A   1      45.994  30.719  32.054  1.00  0.00     0.029 A 
ATOM     53  N   UNL A   1      44.803  29.166  30.999  1.00  0.00    -0.354 N 
ATOM     54  N   UNL A   1      44.356  26.565  29.729  1.00  0.00    -0.248 NA
ATOM     55  C   UNL A   1      45.154  24.478  29.040  1.00  0.00     0.031 C 
ATOM     56  C   UNL A   1      46.824  29.619  31.803  1.00  0.00     0.029 A 
ATOM     57  C   UNL A   1      46.074  28.645  31.164  1.00  0.00     0.049 A 
ATOM     58  H   UNL A   1      44.053  28.700  30.563  1.00  0.00     0.167 HD
ATOM     59  C   UNL A   1      45.689  26.438  30.102  1.00  0.00     0.074 A 
ATOM     60  C   UNL A   1      46.122  25.124  29.676  1.00  0.00     0.031 C 
ATOM     61  C   UNL A   1      46.486  27.334  30.735  1.00  0.00     0.031 A 
BRANCH  48  62
ATOM     62  C   UNL A   1      43.642  32.624  32.186  1.00  0.00    -0.014 A 
ATOM     63  C   UNL A   1      43.490  32.797  33.572  1.00  0.00     0.010 A 
ATOM     64  C   UNL A   1      43.866  33.750  31.372  1.00  0.00     0.010 A 
ATOM     65  C   UNL A   1      43.517  34.079  34.129  1.00  0.00     0.020 A 
ATOM     66  C   UNL A   1      43.912  35.031  31.928  1.00  0.00     0.020 A 
ATOM     67  C   UNL A   1      43.715  35.189  33.301  1.00  0.00     0.054 A 
BRANCH  67  68
ATOM     68  S   UNL A   1      43.734  36.846  34.038  1.00  0.00     0.124 S 
ATOM     69  O   UNL A   1      44.827  36.733  35.001  1.00  0.00    -0.237 OA
ATOM     70  O   UNL A   1      43.996  37.711  32.890  1.00  0.00    -0.237 OA
ATOM     71  O   UNL A   1      42.401  36.979  34.621  1.00  0.00    -0.744 OA
ENDBRANCH  67  68
ENDBRANCH  48  62
BRANCH  49  72
ATOM     72  C   UNL A   1      42.575  23.673  27.920  1.00  0.00    -0.014 A 
ATOM     73  C   UNL A   1      42.115  22.598  28.701  1.00  0.00     0.010 A 
ATOM     74  C   UNL A   1      42.882  23.454  26.565  1.00  0.00     0.010 A 
ATOM     75  C   UNL A   1      41.978  21.325  28.139  1.00  0.00     0.020 A 
ATOM     76  C   UNL A   1      42.723  22.189  25.995  1.00  0.00     0.020 A 
ATOM     77  C   UNL A   1      42.283  21.128  26.790  1.00  0.00     0.054 A 
BRANCH  77  78
ATOM     78  S   UNL A   1      42.050  19.484  26.059  1.00  0.00     0.124 S 
ATOM     79  O   UNL A   1      42.498  18.608  27.136  1.00  0.00    -0.237 OA
ATOM     80  O   UNL A   1      40.617  19.458  25.776  1.00  0.00    -0.237 OA
ATOM     81  O   UNL A   1      42.909  19.516  24.877  1.00  0.00    -0.744 OA
ENDBRANCH  77  78
ENDBRANCH  49  72
BRANCH  61  82
ATOM     82  C   UNL A   1      47.899  26.912  31.023  1.00  0.00    -0.014 A 
ATOM     83  C   UNL A   1      48.923  27.127  30.084  1.00  0.00     0.010 A 
ATOM     84  C   UNL A   1      48.213  26.330  32.264  1.00  0.00     0.010 A 
ATOM     85  C   UNL A   1      50.234  26.739  30.369  1.00  0.00     0.020 A 
ATOM     86  C   UNL A   1      49.526  25.957  32.560  1.00  0.00     0.020 A 
ATOM     87  C   UNL A   1      50.527  26.151  31.604  1.00  0.00     0.054 A 
BRANCH  87  88
ATOM     88  S   UNL A   1      52.241  25.687  31.974  1.00  0.00     0.124 S 
ATOM     89  O   UNL A   1      52.521  26.487  33.163  1.00  0.00    -0.237 OA
ATOM     90  O   UNL A   1      52.148  24.246  32.194  1.00  0.00    -0.237 OA
ATOM     91  O   UNL A   1      52.970  26.080  30.771  1.00  0.00    -0.744 OA
ENDBRANCH  87  88
ENDBRANCH  61  82
ENDBRANCH  35  36
ENDBRANCH  28  30
ENDBRANCH  27  28
ENDBRANCH  26  27
ENDBRANCH   1  26
TORSDOF 19
ENDMDL
MODEL 2
REMARK VINA RESULT:     -10.0      2.011      3.646
REMARK SMILES O=C(C[C@@H]1CSCC[NH2+]1)NC[C@@H](C(=O)OCCOC(=O)c1ccc(-c2c3nc(c(-c4ccc(S(=O)(=O)[O-])cc4)c4ccc([nH]4)c(-c4ccc(S(=O)(=O)[O-])cc4)c4nc(c(-c5ccc(S(=O)(=O)[O-])cc5)c5ccc2[nH]5)C=C4)C=C3)cc1)c1ccccc1
REMARK SMILES IDX 16 1 15 2 13 3 14 4 12 5 11 6 10 7 1 8 2 9 3 11 4 12 5 13
REMARK SMILES IDX 9 14 6 15 8 16 7 19 81 20 82 21 86 22 83 23 85 24 84 25
REMARK SMILES IDX 17 26 18 27 19 28 20 29 21 30 22 31 80 32 23 33 79 34 24 35
REMARK SMILES IDX 25 36 26 37 73 38 27 39 78 40 72 41 74 42 28 43 77 44 71 45
REMARK SMILES IDX 70 46 29 48 59 49 40 50 58 51 41 52 44 53 57 54 75 55 42 56
REMARK SMILES IDX 43 57 56 59 76 60 45 61 30 62 31 63 39 64 32 65 38 66 33 67
REMARK SMILES IDX 34 68 35 69 36 70 37 71 60 72 61 73 69 74 62 75 68 76 63 77
REMARK SMILES IDX 64 78 65 79 66 80 67 81 46 82 47 83 55 84 48 85 54 86 49 87
REMARK SMILES IDX 50 88 51 89 52 90 53 91
REMARK H PARENT 10 10 9 17 9 18 74 47 44 58
REMARK Flexibility Score: inf
ROOT
ATOM      1  C   UNL A   1      33.655  27.478  25.250  1.00  0.00     0.274 C 
ENDROOT
BRANCH   1   2
ATOM      2  O   UNL A   1      33.066  26.173  25.055  1.00  0.00    -0.462 OA
BRANCH   2   3
ATOM      3  C   UNL A   1      33.421  25.501  23.922  1.00  0.00     0.315 C 
ATOM      4  O   UNL A   1      33.541  26.055  22.835  1.00  0.00    -0.251 OA
BRANCH   3   5
ATOM      5  C   UNL A   1      33.540  23.975  24.130  1.00  0.00     0.148 C 
BRANCH   5   6
ATOM      6  C   UNL A   1      32.472  23.416  25.093  1.00  0.00     0.136 C 
BRANCH   6   7
ATOM      7  N   UNL A   1      32.707  22.052  25.548  1.00  0.00    -0.355 N 
ATOM      8  O   UNL A   1      32.047  21.031  23.602  1.00  0.00    -0.275 OA
ATOM      9  C   UNL A   1      32.550  20.967  24.720  1.00  0.00     0.226 C 
ATOM     10  H   UNL A   1      32.988  21.903  26.479  1.00  0.00     0.163 HD
BRANCH   9  11
ATOM     11  C   UNL A   1      33.052  19.653  25.272  1.00  0.00     0.165 C 
BRANCH  11  12
ATOM     12  C   UNL A   1      32.321  18.370  24.815  1.00  0.00     0.201 C 
ATOM     13  C   UNL A   1      32.619  17.143  25.699  1.00  0.00     0.135 C 
ATOM     14  N   UNL A   1      32.300  18.081  23.371  1.00  0.00    -0.342 N 
ATOM     15  S   UNL A   1      34.196  16.342  25.336  1.00  0.00    -0.150 SA
ATOM     16  C   UNL A   1      33.496  17.409  22.840  1.00  0.00     0.271 C 
ATOM     17  H   UNL A   1      32.191  18.967  22.876  1.00  0.00     0.346 HD
ATOM     18  H   UNL A   1      31.527  17.431  23.226  1.00  0.00     0.346 HD
ATOM     19  C   UNL A   1      33.933  16.120  23.547  1.00  0.00     0.131 C 
ENDBRANCH  11  12
ENDBRANCH   9  11
ENDBRANCH   6   7
ENDBRANCH   5   6
BRANCH   5  20
ATOM     20  C   UNL A   1      34.972  23.567  24.538  1.00  0.00    -0.032 A 
ATOM     21  C   UNL A   1      35.620  24.063  25.685  1.00  0.00     0.004 A 
ATOM     22  C   UNL A   1      35.695  22.677  23.722  1.00  0.00     0.004 A 
ATOM     23  C   UNL A   1      36.934  23.695  25.992  1.00  0.00     0.000 A 
ATOM     24  C   UNL A   1      37.017  22.330  24.017  1.00  0.00     0.000 A 
ATOM     25  C   UNL A   1      37.636  22.838  25.154  1.00  0.00     0.000 A 
ENDBRANCH   5  20
ENDBRANCH   3   5
ENDBRANCH   2   3
ENDBRANCH   1   2
BRANCH   1  26
ATOM     26  C   UNL A   1      32.892  28.306  26.285  1.00  0.00     0.275 C 
BRANCH  26  27
ATOM     27  O   UNL A   1      33.694  28.516  27.458  1.00  0.00    -0.458 OA
BRANCH  27  28
ATOM     28  C   UNL A   1      34.051  29.799  27.688  1.00  0.00     0.338 C 
ATOM     29  O   UNL A   1      33.342  30.791  27.658  1.00  0.00    -0.246 OA
BRANCH  28  30
ATOM     30  C   UNL A   1      35.447  29.835  28.133  1.00  0.00     0.060 A 
ATOM     31  C   UNL A   1      36.406  30.164  27.181  1.00  0.00     0.016 A 
ATOM     32  C   UNL A   1      35.826  29.414  29.408  1.00  0.00     0.016 A 
ATOM     33  C   UNL A   1      37.756  30.012  27.472  1.00  0.00     0.010 A 
ATOM     34  C   UNL A   1      37.190  29.299  29.712  1.00  0.00     0.010 A 
ATOM     35  C   UNL A   1      38.164  29.559  28.730  1.00  0.00    -0.014 A 
BRANCH  35  36
ATOM     36  C   UNL A   1      39.601  29.247  28.942  1.00  0.00     0.031 A 
ATOM     37  C   UNL A   1      40.478  30.241  29.657  1.00  0.00     0.074 A 
ATOM     38  C   UNL A   1      40.097  28.041  28.607  1.00  0.00     0.049 A 
ATOM     39  N   UNL A   1      41.760  30.177  29.916  1.00  0.00    -0.248 NA
ATOM     40  C   UNL A   1      39.827  31.465  30.154  1.00  0.00     0.031 C 
ATOM     41  C   UNL A   1      39.333  26.950  27.999  1.00  0.00     0.029 A 
ATOM     42  N   UNL A   1      41.356  27.517  28.766  1.00  0.00    -0.354 N 
ATOM     43  C   UNL A   1      42.075  31.366  30.563  1.00  0.00     0.074 A 
ATOM     44  C   UNL A   1      40.851  32.132  30.663  1.00  0.00     0.031 C 
ATOM     45  C   UNL A   1      40.126  25.872  27.881  1.00  0.00     0.029 A 
ATOM     46  C   UNL A   1      41.467  26.213  28.347  1.00  0.00     0.049 A 
ATOM     47  H   UNL A   1      42.107  28.026  29.146  1.00  0.00     0.167 HD
ATOM     48  C   UNL A   1      43.276  31.788  31.027  1.00  0.00     0.031 A 
ATOM     49  C   UNL A   1      42.533  25.388  28.325  1.00  0.00     0.031 A 
ATOM     50  C   UNL A   1      44.489  31.021  30.955  1.00  0.00     0.049 A 
ATOM     51  C   UNL A   1      43.864  25.893  28.809  1.00  0.00     0.074 A 
ATOM     52  C   UNL A   1      45.764  31.380  31.357  1.00  0.00     0.029 A 
ATOM     53  N   UNL A   1      44.574  29.727  30.464  1.00  0.00    -0.354 N 
ATOM     54  N   UNL A   1      44.162  27.054  29.340  1.00  0.00    -0.248 NA
ATOM     55  C   UNL A   1      45.008  24.978  28.676  1.00  0.00     0.031 C 
ATOM     56  C   UNL A   1      46.626  30.311  31.085  1.00  0.00     0.029 A 
ATOM     57  C   UNL A   1      45.879  29.275  30.548  1.00  0.00     0.049 A 
ATOM     58  H   UNL A   1      43.818  29.207  30.109  1.00  0.00     0.167 HD
ATOM     59  C   UNL A   1      45.524  27.007  29.611  1.00  0.00     0.074 A 
ATOM     60  C   UNL A   1      45.989  25.697  29.205  1.00  0.00     0.031 C 
ATOM     61  C   UNL A   1      46.322  27.967  30.141  1.00  0.00     0.031 A 
BRANCH  48  62
ATOM     62  C   UNL A   1      43.336  33.176  31.598  1.00  0.00    -0.014 A 
ATOM     63  C   UNL A   1      43.581  34.296  30.784  1.00  0.00     0.010 A 
ATOM     64  C   UNL A   1      43.148  33.358  32.981  1.00  0.00     0.010 A 
ATOM     65  C   UNL A   1      43.682  35.570  31.352  1.00  0.00     0.020 A 
ATOM     66  C   UNL A   1      43.230  34.631  33.548  1.00  0.00     0.020 A 
ATOM     67  C   UNL A   1      43.519  35.727  32.732  1.00  0.00     0.054 A 
BRANCH  67  68
ATOM     68  S   UNL A   1      43.666  37.385  33.454  1.00  0.00     0.124 S 
ATOM     69  O   UNL A   1      43.538  38.237  32.273  1.00  0.00    -0.237 OA
ATOM     70  O   UNL A   1      42.544  37.435  34.388  1.00  0.00    -0.237 OA
ATOM     71  O   UNL A   1      44.989  37.374  34.074  1.00  0.00    -0.744 OA
ENDBRANCH  67  68
ENDBRANCH  48  62
BRANCH  49  72
ATOM     72  C   UNL A   1      42.393  24.004  27.799  1.00  0.00    -0.014 A 
ATOM     73  C   UNL A   1      42.373  23.765  26.414  1.00  0.00     0.010 A 
ATOM     74  C   UNL A   1      42.280  22.917  28.684  1.00  0.00     0.010 A 
ATOM     75  C   UNL A   1      42.228  22.464  25.923  1.00  0.00     0.020 A 
ATOM     76  C   UNL A   1      42.159  21.613  28.197  1.00  0.00     0.020 A 
ATOM     77  C   UNL A   1      42.121  21.396  26.817  1.00  0.00     0.054 A 
BRANCH  77  78
ATOM     78  S   UNL A   1      41.987  19.706  26.170  1.00  0.00     0.124 S 
ATOM     79  O   UNL A   1      42.938  19.732  25.062  1.00  0.00    -0.237 OA
ATOM     80  O   UNL A   1      42.374  18.890  27.318  1.00  0.00    -0.237 OA
ATOM     81  O   UNL A   1      40.580  19.602  25.788  1.00  0.00    -0.744 OA
ENDBRANCH  77  78
ENDBRANCH  49  72
BRANCH  61  82
ATOM     82  C   UNL A   1      47.773  27.625  30.332  1.00  0.00    -0.014 A 
ATOM     83  C   UNL A   1      48.210  26.957  31.489  1.00  0.00     0.010 A 
ATOM     84  C   UNL A   1      48.702  27.941  29.326  1.00  0.00     0.010 A 
ATOM     85  C   UNL A   1      49.561  26.636  31.650  1.00  0.00     0.020 A 
ATOM     86  C   UNL A   1      50.050  27.605  29.475  1.00  0.00     0.020 A 
ATOM     87  C   UNL A   1      50.473  26.968  30.643  1.00  0.00     0.054 A 
BRANCH  87  88
ATOM     88  S   UNL A   1      52.217  26.511  30.850  1.00  0.00     0.124 S 
ATOM     89  O   UNL A   1      52.132  25.426  31.823  1.00  0.00    -0.237 OA
ATOM     90  O   UNL A   1      52.613  26.116  29.501  1.00  0.00    -0.237 OA
ATOM     91  O   UNL A   1      52.838  27.741  31.338  1.00  0.00    -0.744 OA
ENDBRANCH  87  88
ENDBRANCH  61  82
ENDBRANCH  35  36
ENDBRANCH  28  30
ENDBRANCH  27  28
ENDBRANCH  26  27
ENDBRANCH   1  26
TORSDOF 19
ENDMDL
MODEL 3
REMARK VINA RESULT:     -10.0      2.548      3.238
REMARK SMILES O=C(C[C@@H]1CSCC[NH2+]1)NC[C@@H](C(=O)OCCOC(=O)c1ccc(-c2c3nc(c(-c4ccc(S(=O)(=O)[O-])cc4)c4ccc([nH]4)c(-c4ccc(S(=O)(=O)[O-])cc4)c4nc(c(-c5ccc(S(=O)(=O)[O-])cc5)c5ccc2[nH]5)C=C4)C=C3)cc1)c1ccccc1
REMARK SMILES IDX 16 1 15 2 13 3 14 4 12 5 11 6 10 7 1 8 2 9 3 11 4 12 5 13
REMARK SMILES IDX 9 14 6 15 8 16 7 19 81 20 82 21 86 22 83 23 85 24 84 25
REMARK SMILES IDX 17 26 18 27 19 28 20 29 21 30 22 31 80 32 23 33 79 34 24 35
REMARK SMILES IDX 25 36 26 37 73 38 27 39 78 40 72 41 74 42 28 43 77 44 71 45
REMARK SMILES IDX 70 46 29 48 59 49 40 50 58 51 41 52 44 53 57 54 75 55 42 56
REMARK SMILES IDX 43 57 56 59 76 60 45 61 30 62 31 63 39 64 32 65 38 66 33 67
REMARK SMILES IDX 34 68 35 69 36 70 37 71 60 72 61 73 69 74 62 75 68 76 63 77
REMARK SMILES IDX 64 78 65 79 66 80 67 81 46 82 47 83 55 84 48 85 54 86 49 87
REMARK SMILES IDX 50 88 51 89 52 90 53 91
REMARK H PARENT 10 10 9 17 9 18 74 47 44 58
REMARK Flexibility Score: inf
ROOT
ATOM      1  C   UNL A   1      33.435  29.007  25.762  1.00  0.00     0.274 C 
ENDROOT
BRANCH   1   2
ATOM      2  O   UNL A   1      32.400  28.193  25.168  1.00  0.00    -0.462 OA
BRANCH   2   3
ATOM      3  C   UNL A   1      32.257  28.271  23.814  1.00  0.00     0.315 C 
ATOM      4  O   UNL A   1      33.026  28.911  23.104  1.00  0.00    -0.251 OA
BRANCH   3   5
ATOM      5  C   UNL A   1      30.981  27.574  23.294  1.00  0.00     0.148 C 
BRANCH   5   6
ATOM      6  C   UNL A   1      31.199  26.847  21.952  1.00  0.00     0.136 C 
BRANCH   6   7
ATOM      7  N   UNL A   1      31.587  25.446  22.065  1.00  0.00    -0.355 N 
ATOM      8  O   UNL A   1      33.821  25.782  21.662  1.00  0.00    -0.275 OA
ATOM      9  C   UNL A   1      32.898  25.042  21.991  1.00  0.00     0.226 C 
ATOM     10  H   UNL A   1      30.887  24.768  22.199  1.00  0.00     0.163 HD
BRANCH   9  11
ATOM     11  C   UNL A   1      33.152  23.598  22.356  1.00  0.00     0.165 C 
BRANCH  11  12
ATOM     12  C   UNL A   1      34.118  23.327  23.532  1.00  0.00     0.201 C 
ATOM     13  C   UNL A   1      33.761  22.067  24.345  1.00  0.00     0.135 C 
ATOM     14  N   UNL A   1      34.521  24.480  24.356  1.00  0.00    -0.342 N 
ATOM     15  S   UNL A   1      32.424  22.312  25.534  1.00  0.00    -0.150 SA
ATOM     16  C   UNL A   1      33.577  24.866  25.416  1.00  0.00     0.271 C 
ATOM     17  H   UNL A   1      34.642  25.281  23.736  1.00  0.00     0.346 HD
ATOM     18  H   UNL A   1      35.377  24.197  24.834  1.00  0.00     0.346 HD
ATOM     19  C   UNL A   1      33.136  23.759  26.382  1.00  0.00     0.131 C 
ENDBRANCH  11  12
ENDBRANCH   9  11
ENDBRANCH   6   7
ENDBRANCH   5   6
BRANCH   5  20
ATOM     20  C   UNL A   1      29.781  28.543  23.251  1.00  0.00    -0.032 A 
ATOM     21  C   UNL A   1      29.910  29.939  23.389  1.00  0.00     0.004 A 
ATOM     22  C   UNL A   1      28.481  28.027  23.095  1.00  0.00     0.004 A 
ATOM     23  C   UNL A   1      28.788  30.775  23.384  1.00  0.00     0.000 A 
ATOM     24  C   UNL A   1      27.359  28.862  23.115  1.00  0.00     0.000 A 
ATOM     25  C   UNL A   1      27.513  30.237  23.257  1.00  0.00     0.000 A 
ENDBRANCH   5  20
ENDBRANCH   3   5
ENDBRANCH   2   3
ENDBRANCH   1   2
BRANCH   1  26
ATOM     26  C   UNL A   1      32.880  30.302  26.357  1.00  0.00     0.275 C 
BRANCH  26  27
ATOM     27  O   UNL A   1      33.317  30.465  27.715  1.00  0.00    -0.458 OA
BRANCH  27  28
ATOM     28  C   UNL A   1      34.085  31.553  27.946  1.00  0.00     0.338 C 
ATOM     29  O   UNL A   1      33.730  32.717  28.029  1.00  0.00    -0.246 OA
BRANCH  28  30
ATOM     30  C   UNL A   1      35.456  31.119  28.229  1.00  0.00     0.060 A 
ATOM     31  C   UNL A   1      35.627  29.812  28.673  1.00  0.00     0.016 A 
ATOM     32  C   UNL A   1      36.531  32.007  28.206  1.00  0.00     0.016 A 
ATOM     33  C   UNL A   1      36.859  29.398  29.160  1.00  0.00     0.010 A 
ATOM     34  C   UNL A   1      37.785  31.575  28.661  1.00  0.00     0.010 A 
ATOM     35  C   UNL A   1      37.946  30.277  29.181  1.00  0.00    -0.014 A 
BRANCH  35  36
ATOM     36  C   UNL A   1      39.194  29.850  29.866  1.00  0.00     0.031 A 
ATOM     37  C   UNL A   1      39.560  30.465  31.191  1.00  0.00     0.074 A 
ATOM     38  C   UNL A   1      39.933  28.838  29.373  1.00  0.00     0.049 A 
ATOM     39  N   UNL A   1      40.616  30.255  31.936  1.00  0.00    -0.248 NA
ATOM     40  C   UNL A   1      38.611  31.438  31.757  1.00  0.00     0.031 C 
ATOM     41  C   UNL A   1      39.636  28.088  28.151  1.00  0.00     0.029 A 
ATOM     42  N   UNL A   1      41.069  28.241  29.862  1.00  0.00    -0.354 N 
ATOM     43  C   UNL A   1      40.481  31.100  33.031  1.00  0.00     0.074 A 
ATOM     44  C   UNL A   1      39.239  31.822  32.859  1.00  0.00     0.031 C 
ATOM     45  C   UNL A   1      40.538  27.102  28.012  1.00  0.00     0.029 A 
ATOM     46  C   UNL A   1      41.510  27.187  29.098  1.00  0.00     0.049 A 
ATOM     47  H   UNL A   1      41.523  28.539  30.682  1.00  0.00     0.167 HD
ATOM     48  C   UNL A   1      41.317  31.267  34.084  1.00  0.00     0.031 A 
ATOM     49  C   UNL A   1      42.584  26.388  29.246  1.00  0.00     0.031 A 
ATOM     50  C   UNL A   1      42.538  30.533  34.275  1.00  0.00     0.049 A 
ATOM     51  C   UNL A   1      43.519  26.618  30.402  1.00  0.00     0.074 A 
ATOM     52  C   UNL A   1      43.474  30.662  35.286  1.00  0.00     0.029 A 
ATOM     53  N   UNL A   1      42.983  29.516  33.444  1.00  0.00    -0.354 N 
ATOM     54  N   UNL A   1      43.419  27.481  31.384  1.00  0.00    -0.248 NA
ATOM     55  C   UNL A   1      44.722  25.774  30.459  1.00  0.00     0.031 C 
ATOM     56  C   UNL A   1      44.500  29.738  35.052  1.00  0.00     0.029 A 
ATOM     57  C   UNL A   1      44.182  29.012  33.916  1.00  0.00     0.049 A 
ATOM     58  H   UNL A   1      42.515  29.200  32.638  1.00  0.00     0.167 HD
ATOM     59  C   UNL A   1      44.541  27.279  32.179  1.00  0.00     0.074 A 
ATOM     60  C   UNL A   1      45.295  26.200  31.577  1.00  0.00     0.031 C 
ATOM     61  C   UNL A   1      44.917  27.935  33.304  1.00  0.00     0.031 A 
BRANCH  48  62
ATOM     62  C   UNL A   1      40.956  32.334  35.078  1.00  0.00    -0.014 A 
ATOM     63  C   UNL A   1      41.377  33.665  34.911  1.00  0.00     0.010 A 
ATOM     64  C   UNL A   1      40.186  31.991  36.204  1.00  0.00     0.010 A 
ATOM     65  C   UNL A   1      41.070  34.627  35.878  1.00  0.00     0.020 A 
ATOM     66  C   UNL A   1      39.862  32.954  37.163  1.00  0.00     0.020 A 
ATOM     67  C   UNL A   1      40.325  34.262  37.004  1.00  0.00     0.054 A 
BRANCH  67  68
ATOM     68  S   UNL A   1      39.947  35.519  38.257  1.00  0.00     0.124 S 
ATOM     69  O   UNL A   1      38.770  34.947  38.907  1.00  0.00    -0.237 OA
ATOM     70  O   UNL A   1      41.161  35.546  39.068  1.00  0.00    -0.237 OA
ATOM     71  O   UNL A   1      39.701  36.725  37.470  1.00  0.00    -0.744 OA
ENDBRANCH  67  68
ENDBRANCH  48  62
BRANCH  49  72
ATOM     72  C   UNL A   1      42.854  25.310  28.258  1.00  0.00    -0.014 A 
ATOM     73  C   UNL A   1      43.769  25.514  27.210  1.00  0.00     0.010 A 
ATOM     74  C   UNL A   1      42.193  24.073  28.359  1.00  0.00     0.010 A 
ATOM     75  C   UNL A   1      44.009  24.503  26.274  1.00  0.00     0.020 A 
ATOM     76  C   UNL A   1      42.449  23.052  27.440  1.00  0.00     0.020 A 
ATOM     77  C   UNL A   1      43.347  23.279  26.395  1.00  0.00     0.054 A 
BRANCH  77  78
ATOM     78  S   UNL A   1      43.707  21.955  25.206  1.00  0.00     0.124 S 
ATOM     79  O   UNL A   1      42.712  20.950  25.564  1.00  0.00    -0.237 OA
ATOM     80  O   UNL A   1      43.506  22.616  23.919  1.00  0.00    -0.237 OA
ATOM     81  O   UNL A   1      45.093  21.602  25.506  1.00  0.00    -0.744 OA
ENDBRANCH  77  78
ENDBRANCH  49  72
BRANCH  61  82
ATOM     82  C   UNL A   1      46.189  27.487  33.967  1.00  0.00    -0.014 A 
ATOM     83  C   UNL A   1      47.423  28.071  33.632  1.00  0.00     0.010 A 
ATOM     84  C   UNL A   1      46.143  26.498  34.966  1.00  0.00     0.010 A 
ATOM     85  C   UNL A   1      48.597  27.652  34.264  1.00  0.00     0.020 A 
ATOM     86  C   UNL A   1      47.312  26.090  35.613  1.00  0.00     0.020 A 
ATOM     87  C   UNL A   1      48.534  26.659  35.247  1.00  0.00     0.054 A 
BRANCH  87  88
ATOM     88  S   UNL A   1      50.061  26.153  36.085  1.00  0.00     0.124 S 
ATOM     89  O   UNL A   1      50.065  27.021  37.259  1.00  0.00    -0.237 OA
ATOM     90  O   UNL A   1      49.831  24.734  36.352  1.00  0.00    -0.237 OA
ATOM     91  O   UNL A   1      51.102  26.431  35.098  1.00  0.00    -0.744 OA
ENDBRANCH  87  88
ENDBRANCH  61  82
ENDBRANCH  35  36
ENDBRANCH  28  30
ENDBRANCH  27  28
ENDBRANCH  26  27
ENDBRANCH   1  26
TORSDOF 19
ENDMDL
