MODEL 1
REMARK VINA RESULT:     -10.1      0.000      0.000
REMARK SMILES Cc1ccc(-c2nn(-c3ccccc3)cc2[C@@H]2[NH2+][C@H](C(=O)OCCOC(=O)c3ccc(-c4c5nc(c(-c6ccc(S(=O)(=O)[O-])cc6)c6ccc([nH]6)c(-c6ccc(S(=O)(=O)[O-])cc6)c6nc(c(-c7ccc(S(=O)(=O)[O-])cc7)c7ccc4[nH]7)C=C6)C=C5)cc3)CS2)cc1
REMARK SMILES IDX 24 1 23 2 22 3 20 4 21 5 19 6 17 7 18 8 89 9 88 12 16 13
REMARK SMILES IDX 6 14 7 15 8 16 15 17 5 18 1 19 2 20 3 21 91 22 4 23 90 24
REMARK SMILES IDX 9 25 10 26 14 27 11 28 13 29 12 30 25 31 26 32 27 33 28 34
REMARK SMILES IDX 29 35 87 36 30 37 86 38 31 39 32 40 33 41 80 42 34 43 85 44
REMARK SMILES IDX 79 45 81 46 35 47 84 48 78 49 77 50 36 52 66 53 47 54 65 55
REMARK SMILES IDX 48 56 51 57 64 58 82 59 49 60 50 61 63 63 83 64 52 65 37 66
REMARK SMILES IDX 38 67 46 68 39 69 45 70 40 71 41 72 42 73 43 74 44 75 67 76
REMARK SMILES IDX 68 77 76 78 69 79 75 80 70 81 71 82 72 83 73 84 74 85 53 86
REMARK SMILES IDX 54 87 62 88 55 89 61 90 56 91 57 92 58 93 59 94 60 95
REMARK H PARENT 18 10 18 11 81 51 51 62
REMARK Flexibility Score: inf
ROOT
ATOM      1  C   UNL A   1      46.004  31.096  36.823  1.00  0.00     0.275 C 
ENDROOT
BRANCH   1   2
ATOM      2  C   UNL A   1      46.368  31.848  35.535  1.00  0.00     0.274 C 
BRANCH   2   3
ATOM      3  O   UNL A   1      45.203  31.900  34.695  1.00  0.00    -0.458 OA
BRANCH   3   4
ATOM      4  C   UNL A   1      45.342  31.401  33.323  1.00  0.00     0.365 C 
ATOM      5  O   UNL A   1      46.521  30.923  33.315  1.00  0.00    -0.245 OA
BRANCH   4   6
ATOM      6  C   UNL A   1      43.846  31.618  31.750  1.00  0.00     0.304 C 
ATOM      7  C   UNL A   1      41.545  32.916  31.329  1.00  0.00     0.278 C 
ATOM      8  N   UNL A   1      42.134  31.717  31.945  1.00  0.00    -0.319 N 
ATOM      9  S   UNL A   1      42.372  33.271  29.799  1.00  0.00    -0.087 SA
ATOM     10  H   UNL A   1      41.711  30.893  31.516  1.00  0.00     0.348 HD
ATOM     11  H   UNL A   1      41.947  31.769  32.946  1.00  0.00     0.348 HD
ATOM     12  C   UNL A   1      43.851  32.288  30.163  1.00  0.00     0.153 C 
BRANCH   7  13
ATOM     13  C   UNL A   1      41.523  34.024  32.334  1.00  0.00     0.067 A 
ATOM     14  C   UNL A   1      40.573  34.198  33.379  1.00  0.00     0.103 A 
ATOM     15  N   UNL A   1      41.038  35.018  34.337  1.00  0.00    -0.167 NA
ATOM     16  N   UNL A   1      42.213  35.466  33.832  1.00  0.00    -0.240 N 
ATOM     17  C   UNL A   1      42.290  35.168  32.486  1.00  0.00     0.126 A 
BRANCH  14  18
ATOM     18  C   UNL A   1      39.181  33.797  33.312  1.00  0.00     0.003 A 
ATOM     19  C   UNL A   1      35.116  32.625  32.553  1.00  0.00     0.044 C 
ATOM     20  C   UNL A   1      36.536  33.024  32.815  1.00  0.00    -0.051 A 
ATOM     21  C   UNL A   1      37.325  32.321  33.741  1.00  0.00     0.004 A 
ATOM     22  C   UNL A   1      37.084  34.115  32.138  1.00  0.00     0.004 A 
ATOM     23  C   UNL A   1      38.653  32.699  33.988  1.00  0.00     0.011 A 
ATOM     24  C   UNL A   1      38.394  34.498  32.387  1.00  0.00     0.011 A 
ENDBRANCH  14  18
BRANCH  16  25
ATOM     25  C   UNL A   1      43.263  35.991  34.643  1.00  0.00     0.065 A 
ATOM     26  C   UNL A   1      44.501  35.332  34.682  1.00  0.00     0.028 A 
ATOM     27  C   UNL A   1      43.133  37.243  35.266  1.00  0.00     0.028 A 
ATOM     28  C   UNL A   1      45.596  35.942  35.305  1.00  0.00     0.002 A 
ATOM     29  C   UNL A   1      44.231  37.844  35.884  1.00  0.00     0.002 A 
ATOM     30  C   UNL A   1      45.462  37.197  35.899  1.00  0.00     0.000 A 
ENDBRANCH  16  25
ENDBRANCH   7  13
ENDBRANCH   4   6
ENDBRANCH   3   4
ENDBRANCH   2   3
ENDBRANCH   1   2
BRANCH   1  31
ATOM     31  O   UNL A   1      45.554  29.733  36.604  1.00  0.00    -0.458 OA
BRANCH  31  32
ATOM     32  C   UNL A   1      44.712  29.151  37.498  1.00  0.00     0.338 C 
ATOM     33  O   UNL A   1      44.882  29.068  38.701  1.00  0.00    -0.246 OA
BRANCH  32  34
ATOM     34  C   UNL A   1      43.476  28.706  36.829  1.00  0.00     0.060 A 
ATOM     35  C   UNL A   1      43.305  27.013  36.251  1.00  0.00     0.016 A 
ATOM     36  C   UNL A   1      42.677  30.051  35.953  1.00  0.00     0.016 A 
ATOM     37  C   UNL A   1      42.384  26.679  34.711  1.00  0.00     0.010 A 
ATOM     38  C   UNL A   1      41.789  29.719  34.423  1.00  0.00     0.010 A 
ATOM     39  C   UNL A   1      41.740  28.060  33.749  1.00  0.00    -0.014 A 
BRANCH  39  40
ATOM     40  C   UNL A   1      41.511  28.099  32.310  1.00  0.00     0.031 A 
ATOM     41  C   UNL A   1      40.154  28.419  31.827  1.00  0.00     0.074 A 
ATOM     42  C   UNL A   1      42.597  28.112  31.510  1.00  0.00     0.049 A 
ATOM     43  N   UNL A   1      39.580  27.941  30.780  1.00  0.00    -0.248 NA
ATOM     44  C   UNL A   1      39.245  29.250  32.606  1.00  0.00     0.031 C 
ATOM     45  C   UNL A   1      42.667  28.467  30.099  1.00  0.00     0.029 A 
ATOM     46  N   UNL A   1      43.881  27.650  31.785  1.00  0.00    -0.354 N 
ATOM     47  C   UNL A   1      38.423  28.687  30.602  1.00  0.00     0.074 A 
ATOM     48  C   UNL A   1      38.141  29.281  31.869  1.00  0.00     0.031 C 
ATOM     49  C   UNL A   1      43.770  27.895  29.576  1.00  0.00     0.029 A 
ATOM     50  C   UNL A   1      44.378  27.075  30.619  1.00  0.00     0.049 A 
ATOM     51  H   UNL A   1      44.351  27.717  32.647  1.00  0.00     0.167 HD
ATOM     52  C   UNL A   1      37.979  28.971  29.347  1.00  0.00     0.031 A 
ATOM     53  C   UNL A   1      44.614  25.732  30.547  1.00  0.00     0.031 A 
ATOM     54  C   UNL A   1      38.865  28.343  28.374  1.00  0.00     0.049 A 
ATOM     55  C   UNL A   1      43.595  25.076  29.630  1.00  0.00     0.074 A 
ATOM     56  C   UNL A   1      39.932  28.841  27.646  1.00  0.00     0.029 A 
ATOM     57  N   UNL A   1      39.003  26.962  28.389  1.00  0.00    -0.354 N 
ATOM     58  N   UNL A   1      42.459  25.633  29.293  1.00  0.00    -0.248 NA
ATOM     59  C   UNL A   1      43.783  23.780  28.986  1.00  0.00     0.031 C 
ATOM     60  C   UNL A   1      40.789  27.747  27.341  1.00  0.00     0.029 A 
ATOM     61  C   UNL A   1      40.224  26.591  27.855  1.00  0.00     0.049 A 
ATOM     62  H   UNL A   1      38.327  26.334  28.732  1.00  0.00     0.167 HD
ATOM     63  C   UNL A   1      41.797  24.840  28.398  1.00  0.00     0.074 A 
ATOM     64  C   UNL A   1      42.663  23.682  28.246  1.00  0.00     0.031 C 
ATOM     65  C   UNL A   1      40.600  25.184  27.837  1.00  0.00     0.031 A 
BRANCH  52  66
ATOM     66  C   UNL A   1      36.994  30.074  29.010  1.00  0.00    -0.014 A 
ATOM     67  C   UNL A   1      37.346  31.406  29.305  1.00  0.00     0.010 A 
ATOM     68  C   UNL A   1      35.720  29.891  28.432  1.00  0.00     0.010 A 
ATOM     69  C   UNL A   1      36.471  32.480  29.080  1.00  0.00     0.020 A 
ATOM     70  C   UNL A   1      34.821  30.950  28.226  1.00  0.00     0.020 A 
ATOM     71  C   UNL A   1      35.208  32.244  28.545  1.00  0.00     0.054 A 
BRANCH  71  72
ATOM     72  S   UNL A   1      34.110  33.648  28.227  1.00  0.00     0.124 S 
ATOM     73  O   UNL A   1      32.946  33.006  27.623  1.00  0.00    -0.237 OA
ATOM     74  O   UNL A   1      33.908  34.194  29.566  1.00  0.00    -0.237 OA
ATOM     75  O   UNL A   1      34.885  34.496  27.323  1.00  0.00    -0.744 OA
ENDBRANCH  71  72
ENDBRANCH  52  66
BRANCH  53  76
ATOM     76  C   UNL A   1      45.254  25.149  31.774  1.00  0.00    -0.014 A 
ATOM     77  C   UNL A   1      46.441  25.777  32.225  1.00  0.00     0.010 A 
ATOM     78  C   UNL A   1      44.587  24.298  32.672  1.00  0.00     0.010 A 
ATOM     79  C   UNL A   1      46.863  25.685  33.557  1.00  0.00     0.020 A 
ATOM     80  C   UNL A   1      45.020  24.190  34.016  1.00  0.00     0.020 A 
ATOM     81  C   UNL A   1      46.128  24.921  34.459  1.00  0.00     0.054 A 
BRANCH  81  82
ATOM     82  S   UNL A   1      46.555  25.039  36.229  1.00  0.00     0.124 S 
ATOM     83  O   UNL A   1      45.359  24.504  36.873  1.00  0.00    -0.237 OA
ATOM     84  O   UNL A   1      47.746  24.200  36.334  1.00  0.00    -0.237 OA
ATOM     85  O   UNL A   1      46.784  26.468  36.438  1.00  0.00    -0.744 OA
ENDBRANCH  81  82
ENDBRANCH  53  76
BRANCH  65  86
ATOM     86  C   UNL A   1      39.677  24.214  27.146  1.00  0.00    -0.014 A 
ATOM     87  C   UNL A   1      38.482  24.602  26.523  1.00  0.00     0.010 A 
ATOM     88  C   UNL A   1      40.089  22.870  26.971  1.00  0.00     0.010 A 
ATOM     89  C   UNL A   1      37.681  23.671  25.857  1.00  0.00     0.020 A 
ATOM     90  C   UNL A   1      39.335  21.950  26.245  1.00  0.00     0.020 A 
ATOM     91  C   UNL A   1      38.107  22.349  25.734  1.00  0.00     0.054 A 
BRANCH  91  92
ATOM     92  S   UNL A   1      37.044  21.154  24.896  1.00  0.00     0.124 S 
ATOM     93  O   UNL A   1      35.909  21.078  25.812  1.00  0.00    -0.237 OA
ATOM     94  O   UNL A   1      36.775  21.802  23.615  1.00  0.00    -0.237 OA
ATOM     95  O   UNL A   1      37.870  19.952  24.818  1.00  0.00    -0.744 OA
ENDBRANCH  91  92
ENDBRANCH  65  86
ENDBRANCH  39  40
ENDBRANCH  32  34
ENDBRANCH  31  32
ENDBRANCH   1  31
TORSDOF 17
ENDMDL
MODEL 2
REMARK VINA RESULT:     -10.1      3.311      8.863
REMARK SMILES Cc1ccc(-c2nn(-c3ccccc3)cc2[C@@H]2[NH2+][C@H](C(=O)OCCOC(=O)c3ccc(-c4c5nc(c(-c6ccc(S(=O)(=O)[O-])cc6)c6ccc([nH]6)c(-c6ccc(S(=O)(=O)[O-])cc6)c6nc(c(-c7ccc(S(=O)(=O)[O-])cc7)c7ccc4[nH]7)C=C6)C=C5)cc3)CS2)cc1
REMARK SMILES IDX 24 1 23 2 22 3 20 4 21 5 19 6 17 7 18 8 89 9 88 12 16 13
REMARK SMILES IDX 6 14 7 15 8 16 15 17 5 18 1 19 2 20 3 21 91 22 4 23 90 24
REMARK SMILES IDX 9 25 10 26 14 27 11 28 13 29 12 30 25 31 26 32 27 33 28 34
REMARK SMILES IDX 29 35 87 36 30 37 86 38 31 39 32 40 33 41 80 42 34 43 85 44
REMARK SMILES IDX 79 45 81 46 35 47 84 48 78 49 77 50 36 52 66 53 47 54 65 55
REMARK SMILES IDX 48 56 51 57 64 58 82 59 49 60 50 61 63 63 83 64 52 65 37 66
REMARK SMILES IDX 38 67 46 68 39 69 45 70 40 71 41 72 42 73 43 74 44 75 67 76
REMARK SMILES IDX 68 77 76 78 69 79 75 80 70 81 71 82 72 83 73 84 74 85 53 86
REMARK SMILES IDX 54 87 62 88 55 89 61 90 56 91 57 92 58 93 59 94 60 95
REMARK H PARENT 18 10 18 11 81 51 51 62
REMARK Flexibility Score: inf
ROOT
ATOM      1  C   UNL A   1      47.359  34.231  29.300  1.00  0.00     0.275 C 
ENDROOT
BRANCH   1   2
ATOM      2  C   UNL A   1      47.111  33.544  30.650  1.00  0.00     0.274 C 
BRANCH   2   3
ATOM      3  O   UNL A   1      45.701  33.578  30.924  1.00  0.00    -0.458 OA
BRANCH   3   4
ATOM      4  C   UNL A   1      45.248  32.987  32.187  1.00  0.00     0.365 C 
ATOM      5  O   UNL A   1      45.622  31.775  32.082  1.00  0.00    -0.245 OA
BRANCH   4   6
ATOM      6  C   UNL A   1      44.106  34.031  33.725  1.00  0.00     0.304 C 
ATOM      7  C   UNL A   1      41.911  33.649  35.205  1.00  0.00     0.278 C 
ATOM      8  N   UNL A   1      42.388  34.092  33.887  1.00  0.00    -0.319 N 
ATOM      9  S   UNL A   1      43.028  34.209  36.467  1.00  0.00    -0.087 SA
ATOM     10  H   UNL A   1      42.083  35.055  33.740  1.00  0.00     0.348 HD
ATOM     11  H   UNL A   1      41.997  33.455  33.194  1.00  0.00     0.348 HD
ATOM     12  C   UNL A   1      44.422  34.510  35.349  1.00  0.00     0.153 C 
BRANCH   7  13
ATOM     13  C   UNL A   1      41.654  32.175  35.165  1.00  0.00     0.067 A 
ATOM     14  C   UNL A   1      40.532  31.529  34.575  1.00  0.00     0.103 A 
ATOM     15  N   UNL A   1      40.779  30.230  34.338  1.00  0.00    -0.167 NA
ATOM     16  N   UNL A   1      41.996  30.027  34.902  1.00  0.00    -0.240 N 
ATOM     17  C   UNL A   1      42.317  31.092  35.720  1.00  0.00     0.126 A 
BRANCH  14  18
ATOM     18  C   UNL A   1      39.197  32.090  34.495  1.00  0.00     0.003 A 
ATOM     19  C   UNL A   1      35.438  34.173  34.575  1.00  0.00     0.044 C 
ATOM     20  C   UNL A   1      36.753  33.453  34.541  1.00  0.00    -0.051 A 
ATOM     21  C   UNL A   1      37.283  32.977  33.330  1.00  0.00     0.004 A 
ATOM     22  C   UNL A   1      37.458  33.245  35.727  1.00  0.00     0.004 A 
ATOM     23  C   UNL A   1      38.511  32.300  33.301  1.00  0.00     0.011 A 
ATOM     24  C   UNL A   1      38.669  32.567  35.702  1.00  0.00     0.011 A 
ENDBRANCH  14  18
BRANCH  16  25
ATOM     25  C   UNL A   1      42.861  28.955  34.531  1.00  0.00     0.065 A 
ATOM     26  C   UNL A   1      43.903  28.580  35.391  1.00  0.00     0.028 A 
ATOM     27  C   UNL A   1      42.582  28.164  33.405  1.00  0.00     0.028 A 
ATOM     28  C   UNL A   1      44.626  27.407  35.140  1.00  0.00     0.002 A 
ATOM     29  C   UNL A   1      43.308  26.996  33.162  1.00  0.00     0.002 A 
ATOM     30  C   UNL A   1      44.325  26.616  34.032  1.00  0.00     0.000 A 
ENDBRANCH  16  25
ENDBRANCH   7  13
ENDBRANCH   4   6
ENDBRANCH   3   4
ENDBRANCH   2   3
ENDBRANCH   1   2
BRANCH   1  31
ATOM     31  O   UNL A   1      48.392  33.601  28.498  1.00  0.00    -0.458 OA
BRANCH  31  32
ATOM     32  C   UNL A   1      48.369  33.733  27.145  1.00  0.00     0.338 C 
ATOM     33  O   UNL A   1      49.146  34.388  26.472  1.00  0.00    -0.246 OA
BRANCH  32  34
ATOM     34  C   UNL A   1      47.320  32.880  26.560  1.00  0.00     0.060 A 
ATOM     35  C   UNL A   1      45.783  33.596  25.966  1.00  0.00     0.016 A 
ATOM     36  C   UNL A   1      47.345  31.228  27.257  1.00  0.00     0.016 A 
ATOM     37  C   UNL A   1      44.225  32.663  26.159  1.00  0.00     0.010 A 
ATOM     38  C   UNL A   1      45.804  30.323  27.465  1.00  0.00     0.010 A 
ATOM     39  C   UNL A   1      44.243  31.082  27.022  1.00  0.00    -0.014 A 
BRANCH  39  40
ATOM     40  C   UNL A   1      43.149  30.475  27.770  1.00  0.00     0.031 A 
ATOM     41  C   UNL A   1      42.494  29.280  27.204  1.00  0.00     0.074 A 
ATOM     42  C   UNL A   1      42.980  30.867  29.050  1.00  0.00     0.049 A 
ATOM     43  N   UNL A   1      41.250  28.971  27.298  1.00  0.00    -0.248 NA
ATOM     44  C   UNL A   1      43.212  28.360  26.331  1.00  0.00     0.031 C 
ATOM     45  C   UNL A   1      42.202  30.214  30.094  1.00  0.00     0.029 A 
ATOM     46  N   UNL A   1      43.374  32.061  29.649  1.00  0.00    -0.354 N 
ATOM     47  C   UNL A   1      41.139  27.673  26.819  1.00  0.00     0.074 A 
ATOM     48  C   UNL A   1      42.296  27.453  26.013  1.00  0.00     0.031 C 
ATOM     49  C   UNL A   1      41.893  31.135  31.027  1.00  0.00     0.029 A 
ATOM     50  C   UNL A   1      42.379  32.426  30.551  1.00  0.00     0.049 A 
ATOM     51  H   UNL A   1      44.205  32.555  29.467  1.00  0.00     0.167 HD
ATOM     52  C   UNL A   1      40.243  26.812  27.375  1.00  0.00     0.031 A 
ATOM     53  C   UNL A   1      41.619  33.541  30.339  1.00  0.00     0.031 A 
ATOM     54  C   UNL A   1      39.497  27.509  28.417  1.00  0.00     0.049 A 
ATOM     55  C   UNL A   1      40.200  33.138  29.977  1.00  0.00     0.074 A 
ATOM     56  C   UNL A   1      39.660  27.552  29.791  1.00  0.00     0.029 A 
ATOM     57  N   UNL A   1      38.741  28.620  28.070  1.00  0.00    -0.354 N 
ATOM     58  N   UNL A   1      39.871  31.945  29.552  1.00  0.00    -0.248 NA
ATOM     59  C   UNL A   1      39.039  34.014  30.105  1.00  0.00     0.031 C 
ATOM     60  C   UNL A   1      39.107  28.781  30.248  1.00  0.00     0.029 A 
ATOM     61  C   UNL A   1      38.586  29.459  29.158  1.00  0.00     0.049 A 
ATOM     62  H   UNL A   1      38.369  28.787  27.174  1.00  0.00     0.167 HD
ATOM     63  C   UNL A   1      38.516  31.863  29.389  1.00  0.00     0.074 A 
ATOM     64  C   UNL A   1      38.039  33.192  29.736  1.00  0.00     0.031 C 
ATOM     65  C   UNL A   1      37.878  30.722  28.993  1.00  0.00     0.031 A 
BRANCH  52  66
ATOM     66  C   UNL A   1      40.293  25.303  27.231  1.00  0.00    -0.014 A 
ATOM     67  C   UNL A   1      41.525  24.648  27.418  1.00  0.00     0.010 A 
ATOM     68  C   UNL A   1      39.201  24.472  26.901  1.00  0.00     0.010 A 
ATOM     69  C   UNL A   1      41.671  23.263  27.248  1.00  0.00     0.020 A 
ATOM     70  C   UNL A   1      39.335  23.089  26.698  1.00  0.00     0.020 A 
ATOM     71  C   UNL A   1      40.573  22.490  26.881  1.00  0.00     0.054 A 
BRANCH  71  72
ATOM     72  S   UNL A   1      40.776  20.700  26.703  1.00  0.00     0.124 S 
ATOM     73  O   UNL A   1      39.618  20.332  25.893  1.00  0.00    -0.237 OA
ATOM     74  O   UNL A   1      42.072  20.599  26.038  1.00  0.00    -0.237 OA
ATOM     75  O   UNL A   1      40.746  20.209  28.079  1.00  0.00    -0.744 OA
ENDBRANCH  71  72
ENDBRANCH  52  66
BRANCH  53  76
ATOM     76  C   UNL A   1      42.390  34.732  29.845  1.00  0.00    -0.014 A 
ATOM     77  C   UNL A   1      42.110  35.159  28.524  1.00  0.00     0.010 A 
ATOM     78  C   UNL A   1      43.065  35.629  30.690  1.00  0.00     0.010 A 
ATOM     79  C   UNL A   1      42.353  36.475  28.108  1.00  0.00     0.020 A 
ATOM     80  C   UNL A   1      43.327  36.955  30.268  1.00  0.00     0.020 A 
ATOM     81  C   UNL A   1      42.927  37.380  28.996  1.00  0.00     0.054 A 
BRANCH  81  82
ATOM     82  S   UNL A   1      42.984  39.138  28.510  1.00  0.00     0.124 S 
ATOM     83  O   UNL A   1      43.428  39.062  27.121  1.00  0.00    -0.237 OA
ATOM     84  O   UNL A   1      41.603  39.573  28.699  1.00  0.00    -0.237 OA
ATOM     85  O   UNL A   1      43.950  39.725  29.436  1.00  0.00    -0.744 OA
ENDBRANCH  81  82
ENDBRANCH  53  76
BRANCH  65  86
ATOM     86  C   UNL A   1      36.470  30.679  28.459  1.00  0.00    -0.014 A 
ATOM     87  C   UNL A   1      35.722  31.830  28.172  1.00  0.00     0.010 A 
ATOM     88  C   UNL A   1      35.912  29.433  28.077  1.00  0.00     0.010 A 
ATOM     89  C   UNL A   1      34.435  31.737  27.635  1.00  0.00     0.020 A 
ATOM     90  C   UNL A   1      34.660  29.335  27.473  1.00  0.00     0.020 A 
ATOM     91  C   UNL A   1      33.908  30.490  27.302  1.00  0.00     0.054 A 
BRANCH  91  92
ATOM     92  S   UNL A   1      32.232  30.389  26.638  1.00  0.00     0.124 S 
ATOM     93  O   UNL A   1      31.649  29.341  27.472  1.00  0.00    -0.237 OA
ATOM     94  O   UNL A   1      31.711  31.735  26.866  1.00  0.00    -0.237 OA
ATOM     95  O   UNL A   1      32.437  30.034  25.236  1.00  0.00    -0.744 OA
ENDBRANCH  91  92
ENDBRANCH  65  86
ENDBRANCH  39  40
ENDBRANCH  32  34
ENDBRANCH  31  32
ENDBRANCH   1  31
TORSDOF 17
ENDMDL
MODEL 3
REMARK VINA RESULT:      -9.8      4.598      9.457
REMARK SMILES Cc1ccc(-c2nn(-c3ccccc3)cc2[C@@H]2[NH2+][C@H](C(=O)OCCOC(=O)c3ccc(-c4c5nc(c(-c6ccc(S(=O)(=O)[O-])cc6)c6ccc([nH]6)c(-c6ccc(S(=O)(=O)[O-])cc6)c6nc(c(-c7ccc(S(=O)(=O)[O-])cc7)c7ccc4[nH]7)C=C6)C=C5)cc3)CS2)cc1
REMARK SMILES IDX 24 1 23 2 22 3 20 4 21 5 19 6 17 7 18 8 89 9 88 12 16 13
REMARK SMILES IDX 6 14 7 15 8 16 15 17 5 18 1 19 2 20 3 21 91 22 4 23 90 24
REMARK SMILES IDX 9 25 10 26 14 27 11 28 13 29 12 30 25 31 26 32 27 33 28 34
REMARK SMILES IDX 29 35 87 36 30 37 86 38 31 39 32 40 33 41 80 42 34 43 85 44
REMARK SMILES IDX 79 45 81 46 35 47 84 48 78 49 77 50 36 52 66 53 47 54 65 55
REMARK SMILES IDX 48 56 51 57 64 58 82 59 49 60 50 61 63 63 83 64 52 65 37 66
REMARK SMILES IDX 38 67 46 68 39 69 45 70 40 71 41 72 42 73 43 74 44 75 67 76
REMARK SMILES IDX 68 77 76 78 69 79 75 80 70 81 71 82 72 83 73 84 74 85 53 86
REMARK SMILES IDX 54 87 62 88 55 89 61 90 56 91 57 92 58 93 59 94 60 95
REMARK H PARENT 18 10 18 11 81 51 51 62
REMARK Flexibility Score: inf
ROOT
ATOM      1  C   UNL A   1      48.101  30.133  29.029  1.00  0.00     0.275 C 
ENDROOT
BRANCH   1   2
ATOM      2  C   UNL A   1      48.534  31.079  27.902  1.00  0.00     0.274 C 
BRANCH   2   3
ATOM      3  O   UNL A   1      47.846  30.697  26.699  1.00  0.00    -0.458 OA
BRANCH   3   4
ATOM      4  C   UNL A   1      46.525  31.291  26.465  1.00  0.00     0.365 C 
ATOM      5  O   UNL A   1      46.127  30.690  25.416  1.00  0.00    -0.245 OA
BRANCH   4   6
ATOM      6  C   UNL A   1      45.646  32.902  27.644  1.00  0.00     0.304 C 
ATOM      7  C   UNL A   1      43.501  33.326  29.184  1.00  0.00     0.278 C 
ATOM      8  N   UNL A   1      43.971  33.293  27.791  1.00  0.00    -0.319 N 
ATOM      9  S   UNL A   1      44.758  34.026  30.225  1.00  0.00    -0.087 SA
ATOM     10  H   UNL A   1      43.815  34.212  27.375  1.00  0.00     0.348 HD
ATOM     11  H   UNL A   1      43.447  32.560  27.313  1.00  0.00     0.348 HD
ATOM     12  C   UNL A   1      46.121  33.761  29.060  1.00  0.00     0.153 C 
BRANCH   7  13
ATOM     13  C   UNL A   1      43.012  31.966  29.571  1.00  0.00     0.067 A 
ATOM     14  C   UNL A   1      42.025  31.670  30.552  1.00  0.00     0.103 A 
ATOM     15  N   UNL A   1      41.517  30.438  30.385  1.00  0.00    -0.167 NA
ATOM     16  N   UNL A   1      42.276  29.910  29.393  1.00  0.00    -0.240 N 
ATOM     17  C   UNL A   1      43.399  30.689  29.197  1.00  0.00     0.126 A 
BRANCH  14  18
ATOM     18  C   UNL A   1      41.786  32.450  31.751  1.00  0.00     0.003 A 
ATOM     19  C   UNL A   1      41.636  34.768  35.368  1.00  0.00     0.044 C 
ATOM     20  C   UNL A   1      41.692  33.968  34.102  1.00  0.00    -0.051 A 
ATOM     21  C   UNL A   1      40.955  34.356  32.970  1.00  0.00     0.004 A 
ATOM     22  C   UNL A   1      42.478  32.816  34.046  1.00  0.00     0.004 A 
ATOM     23  C   UNL A   1      41.005  33.603  31.788  1.00  0.00     0.011 A 
ATOM     24  C   UNL A   1      42.522  32.064  32.880  1.00  0.00     0.011 A 
ENDBRANCH  14  18
BRANCH  16  25
ATOM     25  C   UNL A   1      41.848  28.822  28.575  1.00  0.00     0.065 A 
ATOM     26  C   UNL A   1      40.925  29.054  27.545  1.00  0.00     0.028 A 
ATOM     27  C   UNL A   1      42.461  27.563  28.676  1.00  0.00     0.028 A 
ATOM     28  C   UNL A   1      40.655  28.047  26.611  1.00  0.00     0.002 A 
ATOM     29  C   UNL A   1      42.186  26.564  27.741  1.00  0.00     0.002 A 
ATOM     30  C   UNL A   1      41.288  26.807  26.707  1.00  0.00     0.000 A 
ENDBRANCH  16  25
ENDBRANCH   7  13
ENDBRANCH   4   6
ENDBRANCH   3   4
ENDBRANCH   2   3
ENDBRANCH   1   2
BRANCH   1  31
ATOM     31  O   UNL A   1      47.546  28.875  28.563  1.00  0.00    -0.458 OA
BRANCH  31  32
ATOM     32  C   UNL A   1      48.361  27.802  28.389  1.00  0.00     0.338 C 
ATOM     33  O   UNL A   1      49.436  27.799  27.815  1.00  0.00    -0.246 OA
BRANCH  32  34
ATOM     34  C   UNL A   1      47.821  26.623  29.091  1.00  0.00     0.060 A 
ATOM     35  C   UNL A   1      46.225  25.938  28.636  1.00  0.00     0.016 A 
ATOM     36  C   UNL A   1      48.397  26.543  30.787  1.00  0.00     0.016 A 
ATOM     37  C   UNL A   1      45.147  25.237  29.931  1.00  0.00     0.010 A 
ATOM     38  C   UNL A   1      47.321  25.870  32.064  1.00  0.00     0.010 A 
ATOM     39  C   UNL A   1      45.665  25.325  31.655  1.00  0.00    -0.014 A 
BRANCH  39  40
ATOM     40  C   UNL A   1      44.804  25.376  32.831  1.00  0.00     0.031 A 
ATOM     41  C   UNL A   1      44.128  26.648  33.148  1.00  0.00     0.074 A 
ATOM     42  C   UNL A   1      44.460  24.201  33.398  1.00  0.00     0.049 A 
ATOM     43  N   UNL A   1      43.875  27.111  34.320  1.00  0.00    -0.248 NA
ATOM     44  C   UNL A   1      43.783  27.607  32.106  1.00  0.00     0.031 C 
ATOM     45  C   UNL A   1      43.388  23.943  34.349  1.00  0.00     0.029 A 
ATOM     46  N   UNL A   1      45.130  22.981  33.338  1.00  0.00    -0.354 N 
ATOM     47  C   UNL A   1      43.039  28.203  34.131  1.00  0.00     0.074 A 
ATOM     48  C   UNL A   1      43.230  28.611  32.777  1.00  0.00     0.031 C 
ATOM     49  C   UNL A   1      43.682  22.812  35.019  1.00  0.00     0.029 A 
ATOM     50  C   UNL A   1      45.003  22.372  34.582  1.00  0.00     0.049 A 
ATOM     51  H   UNL A   1      45.606  22.618  32.557  1.00  0.00     0.167 HD
ATOM     52  C   UNL A   1      42.058  28.478  35.033  1.00  0.00     0.031 A 
ATOM     53  C   UNL A   1      46.093  22.189  35.385  1.00  0.00     0.031 A 
ATOM     54  C   UNL A   1      42.125  27.509  36.121  1.00  0.00     0.049 A 
ATOM     55  C   UNL A   1      46.013  23.117  36.586  1.00  0.00     0.074 A 
ATOM     56  C   UNL A   1      41.420  26.340  36.354  1.00  0.00     0.029 A 
ATOM     57  N   UNL A   1      43.283  27.435  36.881  1.00  0.00    -0.354 N 
ATOM     58  N   UNL A   1      45.247  24.178  36.632  1.00  0.00    -0.248 NA
ATOM     59  C   UNL A   1      46.738  22.909  37.835  1.00  0.00     0.031 C 
ATOM     60  C   UNL A   1      42.240  25.502  37.161  1.00  0.00     0.029 A 
ATOM     61  C   UNL A   1      43.419  26.176  37.437  1.00  0.00     0.049 A 
ATOM     62  H   UNL A   1      43.920  28.175  37.006  1.00  0.00     0.167 HD
ATOM     63  C   UNL A   1      45.328  24.760  37.866  1.00  0.00     0.074 A 
ATOM     64  C   UNL A   1      46.287  23.934  38.582  1.00  0.00     0.031 C 
ATOM     65  C   UNL A   1      44.606  25.863  38.222  1.00  0.00     0.031 A 
BRANCH  52  66
ATOM     66  C   UNL A   1      40.858  29.364  34.758  1.00  0.00    -0.014 A 
ATOM     67  C   UNL A   1      40.185  29.227  33.529  1.00  0.00     0.010 A 
ATOM     68  C   UNL A   1      40.348  30.351  35.628  1.00  0.00     0.010 A 
ATOM     69  C   UNL A   1      39.103  30.045  33.171  1.00  0.00     0.020 A 
ATOM     70  C   UNL A   1      39.285  31.198  35.275  1.00  0.00     0.020 A 
ATOM     71  C   UNL A   1      38.663  31.033  34.046  1.00  0.00     0.054 A 
BRANCH  71  72
ATOM     72  S   UNL A   1      37.241  32.053  33.580  1.00  0.00     0.124 S 
ATOM     73  O   UNL A   1      36.760  32.531  34.873  1.00  0.00    -0.237 OA
ATOM     74  O   UNL A   1      37.851  33.062  32.720  1.00  0.00    -0.237 OA
ATOM     75  O   UNL A   1      36.350  31.115  32.899  1.00  0.00    -0.744 OA
ENDBRANCH  71  72
ENDBRANCH  52  66
BRANCH  53  76
ATOM     76  C   UNL A   1      47.326  21.730  34.661  1.00  0.00    -0.014 A 
ATOM     77  C   UNL A   1      48.387  22.665  34.567  1.00  0.00     0.010 A 
ATOM     78  C   UNL A   1      47.625  20.381  34.407  1.00  0.00     0.010 A 
ATOM     79  C   UNL A   1      49.714  22.258  34.380  1.00  0.00     0.020 A 
ATOM     80  C   UNL A   1      48.963  19.967  34.202  1.00  0.00     0.020 A 
ATOM     81  C   UNL A   1      50.002  20.904  34.235  1.00  0.00     0.054 A 
BRANCH  81  82
ATOM     82  S   UNL A   1      51.754  20.394  34.260  1.00  0.00     0.124 S 
ATOM     83  O   UNL A   1      51.661  18.981  34.616  1.00  0.00    -0.237 OA
ATOM     84  O   UNL A   1      52.191  20.664  32.893  1.00  0.00    -0.237 OA
ATOM     85  O   UNL A   1      52.353  21.251  35.281  1.00  0.00    -0.744 OA
ENDBRANCH  81  82
ENDBRANCH  53  76
BRANCH  65  86
ATOM     86  C   UNL A   1      44.920  26.738  39.408  1.00  0.00    -0.014 A 
ATOM     87  C   UNL A   1      44.400  26.508  40.690  1.00  0.00     0.010 A 
ATOM     88  C   UNL A   1      45.903  27.750  39.281  1.00  0.00     0.010 A 
ATOM     89  C   UNL A   1      44.757  27.322  41.768  1.00  0.00     0.020 A 
ATOM     90  C   UNL A   1      46.321  28.519  40.365  1.00  0.00     0.020 A 
ATOM     91  C   UNL A   1      45.705  28.330  41.595  1.00  0.00     0.054 A 
BRANCH  91  92
ATOM     92  S   UNL A   1      46.131  29.390  42.993  1.00  0.00     0.124 S 
ATOM     93  O   UNL A   1      45.074  30.397  42.930  1.00  0.00    -0.237 OA
ATOM     94  O   UNL A   1      46.058  28.474  44.129  1.00  0.00    -0.237 OA
ATOM     95  O   UNL A   1      47.472  29.868  42.669  1.00  0.00    -0.744 OA
ENDBRANCH  91  92
ENDBRANCH  65  86
ENDBRANCH  39  40
ENDBRANCH  32  34
ENDBRANCH  31  32
ENDBRANCH   1  31
TORSDOF 17
ENDMDL
