MODEL 1
REMARK VINA RESULT:     -10.2      0.000      0.000
REMARK SMILES CC[NH2+][C@H](CC(=O)Nc1cc(C)cc(C)c1)C(=O)OCCOC(=O)c1ccc(-c2c3nc(c(-c4ccc(S(=O)(=O)[O-])cc4)c4ccc([nH]4)c(-c4ccc(S(=O)(=O)[O-])cc4)c4nc(c(-c5ccc(S(=O)(=O)[O-])cc5)c5ccc2[nH]5)C=C4)C=C3)cc1
REMARK SMILES IDX 20 1 19 2 17 3 18 4 4 5 3 6 2 9 1 10 5 11 6 12 7 13 8 14
REMARK SMILES IDX 9 16 10 17 16 18 11 19 14 20 12 21 13 22 15 23 21 24 22 25
REMARK SMILES IDX 23 26 24 27 25 28 26 29 84 30 27 31 83 32 28 33 29 34 30 35
REMARK SMILES IDX 77 36 31 37 82 38 76 39 78 40 32 41 81 42 75 43 74 44 33 46
REMARK SMILES IDX 63 47 44 48 62 49 45 50 48 51 61 52 79 53 46 54 47 55 60 57
REMARK SMILES IDX 80 58 49 59 34 60 35 61 43 62 36 63 42 64 37 65 38 66 39 67
REMARK SMILES IDX 40 68 41 69 64 70 65 71 73 72 66 73 72 74 67 75 68 76 69 77
REMARK SMILES IDX 70 78 71 79 50 80 51 81 59 82 52 83 58 84 53 85 54 86 55 87
REMARK SMILES IDX 56 88 57 89
REMARK H PARENT 3 7 3 8 8 15 78 45 48 56
REMARK Flexibility Score: inf
ROOT
ATOM      1  C   UNL A   1      36.692  22.736  23.692  1.00  0.00     0.274 C 
ENDROOT
BRANCH   1   2
ATOM      2  O   UNL A   1      35.537  23.225  22.980  1.00  0.00    -0.458 OA
BRANCH   2   3
ATOM      3  C   UNL A   1      34.336  22.905  23.526  1.00  0.00     0.365 C 
ATOM      4  O   UNL A   1      34.065  21.805  24.004  1.00  0.00    -0.245 OA
BRANCH   3   5
ATOM      5  C   UNL A   1      33.261  24.001  23.391  1.00  0.00     0.302 C 
BRANCH   5   6
ATOM      6  N   UNL A   1      32.067  23.381  22.733  1.00  0.00    -0.334 N 
ATOM      7  H   UNL A   1      32.005  23.729  21.777  1.00  0.00     0.347 HD
ATOM      8  H   UNL A   1      32.194  22.369  22.760  1.00  0.00     0.347 HD
BRANCH   6   9
ATOM      9  C   UNL A   1      30.812  23.687  23.426  1.00  0.00     0.257 C 
ATOM     10  C   UNL A   1      30.957  23.565  24.934  1.00  0.00     0.071 C 
ENDBRANCH   6   9
ENDBRANCH   5   6
BRANCH   5  11
ATOM     11  C   UNL A   1      33.754  25.311  22.777  1.00  0.00     0.177 C 
BRANCH  11  12
ATOM     12  C   UNL A   1      33.015  25.881  21.561  1.00  0.00     0.231 C 
ATOM     13  O   UNL A   1      33.112  25.309  20.470  1.00  0.00    -0.274 OA
ATOM     14  N   UNL A   1      32.056  26.851  21.636  1.00  0.00    -0.326 N 
ATOM     15  H   UNL A   1      31.510  26.935  20.820  1.00  0.00     0.169 HD
BRANCH  14  16
ATOM     16  C   UNL A   1      31.704  27.744  22.648  1.00  0.00     0.041 A 
ATOM     17  C   UNL A   1      30.571  28.550  22.543  1.00  0.00     0.029 A 
ATOM     18  C   UNL A   1      32.421  27.725  23.843  1.00  0.00     0.029 A 
ATOM     19  C   UNL A   1      30.252  29.476  23.541  1.00  0.00    -0.049 A 
ATOM     20  C   UNL A   1      32.090  28.610  24.879  1.00  0.00    -0.049 A 
ATOM     21  C   UNL A   1      29.102  30.423  23.366  1.00  0.00     0.044 C 
ATOM     22  C   UNL A   1      31.025  29.505  24.706  1.00  0.00     0.007 A 
ATOM     23  C   UNL A   1      32.886  28.640  26.151  1.00  0.00     0.044 C 
ENDBRANCH  14  16
ENDBRANCH  11  12
ENDBRANCH   5  11
ENDBRANCH   3   5
ENDBRANCH   2   3
ENDBRANCH   1   2
BRANCH   1  24
ATOM     24  C   UNL A   1      37.008  23.551  24.949  1.00  0.00     0.275 C 
BRANCH  24  25
ATOM     25  O   UNL A   1      37.535  22.737  26.013  1.00  0.00    -0.458 OA
BRANCH  25  26
ATOM     26  C   UNL A   1      38.870  22.869  26.197  1.00  0.00     0.338 C 
ATOM     27  O   UNL A   1      39.728  22.087  25.835  1.00  0.00    -0.246 OA
BRANCH  26  28
ATOM     28  C   UNL A   1      39.177  24.167  26.817  1.00  0.00     0.060 A 
ATOM     29  C   UNL A   1      39.969  25.074  26.108  1.00  0.00     0.016 A 
ATOM     30  C   UNL A   1      38.789  24.443  28.127  1.00  0.00     0.016 A 
ATOM     31  C   UNL A   1      40.398  26.254  26.712  1.00  0.00     0.010 A 
ATOM     32  C   UNL A   1      39.206  25.637  28.728  1.00  0.00     0.010 A 
ATOM     33  C   UNL A   1      40.026  26.542  28.031  1.00  0.00    -0.014 A 
BRANCH  33  34
ATOM     34  C   UNL A   1      40.523  27.775  28.693  1.00  0.00     0.031 A 
ATOM     35  C   UNL A   1      41.934  27.837  29.210  1.00  0.00     0.074 A 
ATOM     36  C   UNL A   1      39.713  28.842  28.821  1.00  0.00     0.049 A 
ATOM     37  N   UNL A   1      42.519  28.787  29.895  1.00  0.00    -0.248 NA
ATOM     38  C   UNL A   1      42.797  26.682  28.920  1.00  0.00     0.031 C 
ATOM     39  C   UNL A   1      38.340  28.928  28.320  1.00  0.00     0.029 A 
ATOM     40  N   UNL A   1      39.927  30.060  29.418  1.00  0.00    -0.354 N 
ATOM     41  C   UNL A   1      43.810  28.335  30.144  1.00  0.00     0.074 A 
ATOM     42  C   UNL A   1      43.919  27.023  29.540  1.00  0.00     0.031 C 
ATOM     43  C   UNL A   1      37.838  30.136  28.623  1.00  0.00     0.029 A 
ATOM     44  C   UNL A   1      38.833  30.890  29.382  1.00  0.00     0.049 A 
ATOM     45  H   UNL A   1      40.784  30.313  29.832  1.00  0.00     0.167 HD
ATOM     46  C   UNL A   1      44.809  28.954  30.816  1.00  0.00     0.031 A 
ATOM     47  C   UNL A   1      38.641  32.109  29.921  1.00  0.00     0.031 A 
ATOM     48  C   UNL A   1      44.704  30.261  31.408  1.00  0.00     0.049 A 
ATOM     49  C   UNL A   1      39.747  32.752  30.711  1.00  0.00     0.074 A 
ATOM     50  C   UNL A   1      45.669  30.974  32.100  1.00  0.00     0.029 A 
ATOM     51  N   UNL A   1      43.566  31.054  31.381  1.00  0.00    -0.354 N 
ATOM     52  N   UNL A   1      40.955  32.303  30.950  1.00  0.00    -0.248 NA
ATOM     53  C   UNL A   1      39.460  34.064  31.308  1.00  0.00     0.031 C 
ATOM     54  C   UNL A   1      45.102  32.182  32.523  1.00  0.00     0.029 A 
ATOM     55  C   UNL A   1      43.799  32.239  32.058  1.00  0.00     0.049 A 
ATOM     56  H   UNL A   1      42.719  30.809  30.944  1.00  0.00     0.167 HD
ATOM     57  C   UNL A   1      41.578  33.284  31.713  1.00  0.00     0.074 A 
ATOM     58  C   UNL A   1      40.619  34.355  31.884  1.00  0.00     0.031 C 
ATOM     59  C   UNL A   1      42.833  33.295  32.224  1.00  0.00     0.031 A 
BRANCH  46  60
ATOM     60  C   UNL A   1      46.103  28.202  30.980  1.00  0.00    -0.014 A 
ATOM     61  C   UNL A   1      47.156  28.355  30.061  1.00  0.00     0.010 A 
ATOM     62  C   UNL A   1      46.277  27.360  32.092  1.00  0.00     0.010 A 
ATOM     63  C   UNL A   1      48.351  27.650  30.236  1.00  0.00     0.020 A 
ATOM     64  C   UNL A   1      47.478  26.670  32.281  1.00  0.00     0.020 A 
ATOM     65  C   UNL A   1      48.502  26.806  31.341  1.00  0.00     0.054 A 
BRANCH  65  66
ATOM     66  S   UNL A   1      50.067  25.915  31.557  1.00  0.00     0.124 S 
ATOM     67  O   UNL A   1      50.436  25.614  30.176  1.00  0.00    -0.237 OA
ATOM     68  O   UNL A   1      50.910  26.901  32.230  1.00  0.00    -0.237 OA
ATOM     69  O   UNL A   1      49.698  24.759  32.370  1.00  0.00    -0.744 OA
ENDBRANCH  65  66
ENDBRANCH  46  60
BRANCH  47  70
ATOM     70  C   UNL A   1      37.331  32.791  29.754  1.00  0.00    -0.014 A 
ATOM     71  C   UNL A   1      36.444  32.906  30.839  1.00  0.00     0.010 A 
ATOM     72  C   UNL A   1      36.971  33.345  28.513  1.00  0.00     0.010 A 
ATOM     73  C   UNL A   1      35.218  33.558  30.683  1.00  0.00     0.020 A 
ATOM     74  C   UNL A   1      35.756  34.017  28.358  1.00  0.00     0.020 A 
ATOM     75  C   UNL A   1      34.882  34.111  29.444  1.00  0.00     0.054 A 
BRANCH  75  76
ATOM     76  S   UNL A   1      33.317  35.014  29.278  1.00  0.00     0.124 S 
ATOM     77  O   UNL A   1      33.770  36.324  28.823  1.00  0.00    -0.237 OA
ATOM     78  O   UNL A   1      32.592  34.216  28.291  1.00  0.00    -0.237 OA
ATOM     79  O   UNL A   1      32.758  34.976  30.628  1.00  0.00    -0.744 OA
ENDBRANCH  75  76
ENDBRANCH  47  70
BRANCH  59  80
ATOM     80  C   UNL A   1      43.251  34.515  32.998  1.00  0.00    -0.014 A 
ATOM     81  C   UNL A   1      43.714  35.667  32.340  1.00  0.00     0.010 A 
ATOM     82  C   UNL A   1      43.136  34.523  34.399  1.00  0.00     0.010 A 
ATOM     83  C   UNL A   1      44.082  36.799  33.072  1.00  0.00     0.020 A 
ATOM     84  C   UNL A   1      43.482  35.659  35.135  1.00  0.00     0.020 A 
ATOM     85  C   UNL A   1      43.968  36.786  34.466  1.00  0.00     0.054 A 
BRANCH  85  86
ATOM     86  S   UNL A   1      44.411  38.279  35.399  1.00  0.00     0.124 S 
ATOM     87  O   UNL A   1      43.721  38.060  36.667  1.00  0.00    -0.237 OA
ATOM     88  O   UNL A   1      45.869  38.205  35.455  1.00  0.00    -0.237 OA
ATOM     89  O   UNL A   1      43.882  39.367  34.579  1.00  0.00    -0.744 OA
ENDBRANCH  85  86
ENDBRANCH  59  80
ENDBRANCH  33  34
ENDBRANCH  26  28
ENDBRANCH  25  26
ENDBRANCH  24  25
ENDBRANCH   1  24
TORSDOF 19
ENDMDL
MODEL 2
REMARK VINA RESULT:     -10.2      2.495      3.364
REMARK SMILES CC[NH2+][C@H](CC(=O)Nc1cc(C)cc(C)c1)C(=O)OCCOC(=O)c1ccc(-c2c3nc(c(-c4ccc(S(=O)(=O)[O-])cc4)c4ccc([nH]4)c(-c4ccc(S(=O)(=O)[O-])cc4)c4nc(c(-c5ccc(S(=O)(=O)[O-])cc5)c5ccc2[nH]5)C=C4)C=C3)cc1
REMARK SMILES IDX 20 1 19 2 17 3 18 4 4 5 3 6 2 9 1 10 5 11 6 12 7 13 8 14
REMARK SMILES IDX 9 16 10 17 16 18 11 19 14 20 12 21 13 22 15 23 21 24 22 25
REMARK SMILES IDX 23 26 24 27 25 28 26 29 84 30 27 31 83 32 28 33 29 34 30 35
REMARK SMILES IDX 77 36 31 37 82 38 76 39 78 40 32 41 81 42 75 43 74 44 33 46
REMARK SMILES IDX 63 47 44 48 62 49 45 50 48 51 61 52 79 53 46 54 47 55 60 57
REMARK SMILES IDX 80 58 49 59 34 60 35 61 43 62 36 63 42 64 37 65 38 66 39 67
REMARK SMILES IDX 40 68 41 69 64 70 65 71 73 72 66 73 72 74 67 75 68 76 69 77
REMARK SMILES IDX 70 78 71 79 50 80 51 81 59 82 52 83 58 84 53 85 54 86 55 87
REMARK SMILES IDX 56 88 57 89
REMARK H PARENT 3 7 3 8 8 15 78 45 48 56
REMARK Flexibility Score: inf
ROOT
ATOM      1  C   UNL A   1      36.160  20.935  24.992  1.00  0.00     0.274 C 
ENDROOT
BRANCH   1   2
ATOM      2  O   UNL A   1      35.526  22.152  25.437  1.00  0.00    -0.458 OA
BRANCH   2   3
ATOM      3  C   UNL A   1      34.264  22.010  25.916  1.00  0.00     0.365 C 
ATOM      4  O   UNL A   1      33.887  21.061  26.601  1.00  0.00    -0.245 OA
BRANCH   3   5
ATOM      5  C   UNL A   1      33.270  23.082  25.428  1.00  0.00     0.302 C 
BRANCH   5   6
ATOM      6  N   UNL A   1      33.856  23.714  24.203  1.00  0.00    -0.334 N 
ATOM      7  H   UNL A   1      34.815  23.383  24.093  1.00  0.00     0.347 HD
ATOM      8  H   UNL A   1      33.270  23.448  23.412  1.00  0.00     0.347 HD
BRANCH   6   9
ATOM      9  C   UNL A   1      33.871  25.178  24.270  1.00  0.00     0.257 C 
ATOM     10  C   UNL A   1      33.548  25.806  22.923  1.00  0.00     0.071 C 
ENDBRANCH   6   9
ENDBRANCH   5   6
BRANCH   5  11
ATOM     11  C   UNL A   1      32.787  24.049  26.508  1.00  0.00     0.177 C 
BRANCH  11  12
ATOM     12  C   UNL A   1      31.287  24.129  26.810  1.00  0.00     0.231 C 
ATOM     13  O   UNL A   1      30.739  23.199  27.412  1.00  0.00    -0.274 OA
ATOM     14  N   UNL A   1      30.539  25.264  26.673  1.00  0.00    -0.326 N 
ATOM     15  H   UNL A   1      29.668  25.225  27.129  1.00  0.00     0.169 HD
BRANCH  14  16
ATOM     16  C   UNL A   1      30.777  26.467  26.008  1.00  0.00     0.041 A 
ATOM     17  C   UNL A   1      31.525  27.487  26.597  1.00  0.00     0.029 A 
ATOM     18  C   UNL A   1      30.380  26.593  24.678  1.00  0.00     0.029 A 
ATOM     19  C   UNL A   1      31.720  28.707  25.942  1.00  0.00    -0.049 A 
ATOM     20  C   UNL A   1      30.606  27.789  23.983  1.00  0.00    -0.049 A 
ATOM     21  C   UNL A   1      32.420  29.841  26.630  1.00  0.00     0.044 C 
ATOM     22  C   UNL A   1      31.247  28.853  24.634  1.00  0.00     0.007 A 
ATOM     23  C   UNL A   1      30.135  27.960  22.569  1.00  0.00     0.044 C 
ENDBRANCH  14  16
ENDBRANCH  11  12
ENDBRANCH   5  11
ENDBRANCH   3   5
ENDBRANCH   2   3
ENDBRANCH   1   2
BRANCH   1  24
ATOM     24  C   UNL A   1      37.689  21.001  25.057  1.00  0.00     0.275 C 
BRANCH  24  25
ATOM     25  O   UNL A   1      38.160  22.191  25.718  1.00  0.00    -0.458 OA
BRANCH  25  26
ATOM     26  C   UNL A   1      39.348  22.036  26.349  1.00  0.00     0.338 C 
ATOM     27  O   UNL A   1      39.999  21.011  26.416  1.00  0.00    -0.246 OA
BRANCH  26  28
ATOM     28  C   UNL A   1      39.823  23.325  26.874  1.00  0.00     0.060 A 
ATOM     29  C   UNL A   1      39.484  24.491  26.183  1.00  0.00     0.016 A 
ATOM     30  C   UNL A   1      40.688  23.377  27.966  1.00  0.00     0.016 A 
ATOM     31  C   UNL A   1      40.027  25.717  26.565  1.00  0.00     0.010 A 
ATOM     32  C   UNL A   1      41.219  24.611  28.360  1.00  0.00     0.010 A 
ATOM     33  C   UNL A   1      40.905  25.786  27.653  1.00  0.00    -0.014 A 
BRANCH  33  34
ATOM     34  C   UNL A   1      41.523  27.082  28.031  1.00  0.00     0.031 A 
ATOM     35  C   UNL A   1      43.005  27.286  27.875  1.00  0.00     0.074 A 
ATOM     36  C   UNL A   1      40.753  28.080  28.505  1.00  0.00     0.049 A 
ATOM     37  N   UNL A   1      43.738  28.309  28.235  1.00  0.00    -0.248 NA
ATOM     38  C   UNL A   1      43.759  26.198  27.233  1.00  0.00     0.031 C 
ATOM     39  C   UNL A   1      39.299  28.028  28.659  1.00  0.00     0.029 A 
ATOM     40  N   UNL A   1      41.091  29.335  28.949  1.00  0.00    -0.354 N 
ATOM     41  C   UNL A   1      45.044  27.979  27.890  1.00  0.00     0.074 A 
ATOM     42  C   UNL A   1      45.001  26.658  27.297  1.00  0.00     0.031 C 
ATOM     43  C   UNL A   1      38.869  29.200  29.154  1.00  0.00     0.029 A 
ATOM     44  C   UNL A   1      40.019  30.065  29.400  1.00  0.00     0.049 A 
ATOM     45  H   UNL A   1      42.015  29.677  28.944  1.00  0.00     0.167 HD
ATOM     46  C   UNL A   1      46.173  28.709  28.055  1.00  0.00     0.031 A 
ATOM     47  C   UNL A   1      39.968  31.284  29.970  1.00  0.00     0.031 A 
ATOM     48  C   UNL A   1      46.214  30.024  28.636  1.00  0.00     0.049 A 
ATOM     49  C   UNL A   1      41.242  32.051  30.194  1.00  0.00     0.074 A 
ATOM     50  C   UNL A   1      47.313  30.844  28.834  1.00  0.00     0.029 A 
ATOM     51  N   UNL A   1      45.110  30.715  29.113  1.00  0.00    -0.354 N 
ATOM     52  N   UNL A   1      42.469  31.717  29.877  1.00  0.00    -0.248 NA
ATOM     53  C   UNL A   1      41.123  33.356  30.859  1.00  0.00     0.031 C 
ATOM     54  C   UNL A   1      46.877  32.015  29.465  1.00  0.00     0.029 A 
ATOM     55  C   UNL A   1      45.503  31.942  29.621  1.00  0.00     0.049 A 
ATOM     56  H   UNL A   1      44.184  30.381  29.093  1.00  0.00     0.167 HD
ATOM     57  C   UNL A   1      43.268  32.778  30.290  1.00  0.00     0.074 A 
ATOM     58  C   UNL A   1      42.384  33.768  30.868  1.00  0.00     0.031 C 
ATOM     59  C   UNL A   1      44.613  32.916  30.197  1.00  0.00     0.031 A 
BRANCH  46  60
ATOM     60  C   UNL A   1      47.472  28.078  27.632  1.00  0.00    -0.014 A 
ATOM     61  C   UNL A   1      47.981  28.257  26.334  1.00  0.00     0.010 A 
ATOM     62  C   UNL A   1      48.211  27.326  28.563  1.00  0.00     0.010 A 
ATOM     63  C   UNL A   1      49.192  27.665  25.963  1.00  0.00     0.020 A 
ATOM     64  C   UNL A   1      49.433  26.750  28.202  1.00  0.00     0.020 A 
ATOM     65  C   UNL A   1      49.907  26.909  26.898  1.00  0.00     0.054 A 
BRANCH  65  66
ATOM     66  S   UNL A   1      51.486  26.166  26.402  1.00  0.00     0.124 S 
ATOM     67  O   UNL A   1      51.346  24.800  26.902  1.00  0.00    -0.237 OA
ATOM     68  O   UNL A   1      51.467  26.306  24.948  1.00  0.00    -0.237 OA
ATOM     69  O   UNL A   1      52.484  26.982  27.089  1.00  0.00    -0.744 OA
ENDBRANCH  65  66
ENDBRANCH  46  60
BRANCH  47  70
ATOM     70  C   UNL A   1      38.659  31.844  30.398  1.00  0.00    -0.014 A 
ATOM     71  C   UNL A   1      38.222  31.700  31.726  1.00  0.00     0.010 A 
ATOM     72  C   UNL A   1      37.851  32.541  29.482  1.00  0.00     0.010 A 
ATOM     73  C   UNL A   1      36.997  32.238  32.129  1.00  0.00     0.020 A 
ATOM     74  C   UNL A   1      36.635  33.099  29.886  1.00  0.00     0.020 A 
ATOM     75  C   UNL A   1      36.212  32.935  31.207  1.00  0.00     0.054 A 
BRANCH  75  76
ATOM     76  S   UNL A   1      34.656  33.686  31.764  1.00  0.00     0.124 S 
ATOM     77  O   UNL A   1      34.074  34.143  30.507  1.00  0.00    -0.237 OA
ATOM     78  O   UNL A   1      33.974  32.565  32.409  1.00  0.00    -0.237 OA
ATOM     79  O   UNL A   1      35.097  34.742  32.674  1.00  0.00    -0.744 OA
ENDBRANCH  75  76
ENDBRANCH  47  70
BRANCH  59  80
ATOM     80  C   UNL A   1      45.209  34.198  30.710  1.00  0.00    -0.014 A 
ATOM     81  C   UNL A   1      45.648  34.312  32.040  1.00  0.00     0.010 A 
ATOM     82  C   UNL A   1      45.372  35.288  29.836  1.00  0.00     0.010 A 
ATOM     83  C   UNL A   1      46.217  35.505  32.496  1.00  0.00     0.020 A 
ATOM     84  C   UNL A   1      45.958  36.475  30.282  1.00  0.00     0.020 A 
ATOM     85  C   UNL A   1      46.364  36.581  31.615  1.00  0.00     0.054 A 
BRANCH  85  86
ATOM     86  S   UNL A   1      47.141  38.108  32.213  1.00  0.00     0.124 S 
ATOM     87  O   UNL A   1      46.731  39.074  31.198  1.00  0.00    -0.237 OA
ATOM     88  O   UNL A   1      46.535  38.286  33.531  1.00  0.00    -0.237 OA
ATOM     89  O   UNL A   1      48.566  37.786  32.230  1.00  0.00    -0.744 OA
ENDBRANCH  85  86
ENDBRANCH  59  80
ENDBRANCH  33  34
ENDBRANCH  26  28
ENDBRANCH  25  26
ENDBRANCH  24  25
ENDBRANCH   1  24
TORSDOF 19
ENDMDL
MODEL 3
REMARK VINA RESULT:     -10.1      3.287      7.600
REMARK SMILES CC[NH2+][C@H](CC(=O)Nc1cc(C)cc(C)c1)C(=O)OCCOC(=O)c1ccc(-c2c3nc(c(-c4ccc(S(=O)(=O)[O-])cc4)c4ccc([nH]4)c(-c4ccc(S(=O)(=O)[O-])cc4)c4nc(c(-c5ccc(S(=O)(=O)[O-])cc5)c5ccc2[nH]5)C=C4)C=C3)cc1
REMARK SMILES IDX 20 1 19 2 17 3 18 4 4 5 3 6 2 9 1 10 5 11 6 12 7 13 8 14
REMARK SMILES IDX 9 16 10 17 16 18 11 19 14 20 12 21 13 22 15 23 21 24 22 25
REMARK SMILES IDX 23 26 24 27 25 28 26 29 84 30 27 31 83 32 28 33 29 34 30 35
REMARK SMILES IDX 77 36 31 37 82 38 76 39 78 40 32 41 81 42 75 43 74 44 33 46
REMARK SMILES IDX 63 47 44 48 62 49 45 50 48 51 61 52 79 53 46 54 47 55 60 57
REMARK SMILES IDX 80 58 49 59 34 60 35 61 43 62 36 63 42 64 37 65 38 66 39 67
REMARK SMILES IDX 40 68 41 69 64 70 65 71 73 72 66 73 72 74 67 75 68 76 69 77
REMARK SMILES IDX 70 78 71 79 50 80 51 81 59 82 52 83 58 84 53 85 54 86 55 87
REMARK SMILES IDX 56 88 57 89
REMARK H PARENT 3 7 3 8 8 15 78 45 48 56
REMARK Flexibility Score: inf
ROOT
ATOM      1  C   UNL A   1      31.958  28.733  27.476  1.00  0.00     0.274 C 
ENDROOT
BRANCH   1   2
ATOM      2  O   UNL A   1      32.573  27.597  26.834  1.00  0.00    -0.458 OA
BRANCH   2   3
ATOM      3  C   UNL A   1      31.737  26.814  26.106  1.00  0.00     0.365 C 
ATOM      4  O   UNL A   1      30.770  26.213  26.574  1.00  0.00    -0.245 OA
BRANCH   3   5
ATOM      5  C   UNL A   1      32.161  26.618  24.638  1.00  0.00     0.302 C 
BRANCH   5   6
ATOM      6  N   UNL A   1      31.982  27.930  23.939  1.00  0.00    -0.334 N 
ATOM      7  H   UNL A   1      32.521  28.639  24.435  1.00  0.00     0.347 HD
ATOM      8  H   UNL A   1      32.305  27.811  22.979  1.00  0.00     0.347 HD
BRANCH   6   9
ATOM      9  C   UNL A   1      30.582  28.359  23.883  1.00  0.00     0.257 C 
ATOM     10  C   UNL A   1      30.195  28.839  22.494  1.00  0.00     0.071 C 
ENDBRANCH   6   9
ENDBRANCH   5   6
BRANCH   5  11
ATOM     11  C   UNL A   1      31.538  25.405  23.947  1.00  0.00     0.177 C 
BRANCH  11  12
ATOM     12  C   UNL A   1      31.984  25.056  22.523  1.00  0.00     0.231 C 
ATOM     13  O   UNL A   1      31.603  25.757  21.579  1.00  0.00    -0.274 OA
ATOM     14  N   UNL A   1      32.971  24.159  22.231  1.00  0.00    -0.326 N 
ATOM     15  H   UNL A   1      33.307  24.222  21.307  1.00  0.00     0.169 HD
BRANCH  14  16
ATOM     16  C   UNL A   1      33.593  23.169  22.992  1.00  0.00     0.041 A 
ATOM     17  C   UNL A   1      34.914  23.303  23.418  1.00  0.00     0.029 A 
ATOM     18  C   UNL A   1      32.833  22.095  23.453  1.00  0.00     0.029 A 
ATOM     19  C   UNL A   1      35.544  22.285  24.141  1.00  0.00    -0.049 A 
ATOM     20  C   UNL A   1      33.429  21.086  24.222  1.00  0.00    -0.049 A 
ATOM     21  C   UNL A   1      37.000  22.383  24.490  1.00  0.00     0.044 C 
ATOM     22  C   UNL A   1      34.793  21.172  24.532  1.00  0.00     0.007 A 
ATOM     23  C   UNL A   1      32.638  19.896  24.679  1.00  0.00     0.044 C 
ENDBRANCH  14  16
ENDBRANCH  11  12
ENDBRANCH   5  11
ENDBRANCH   3   5
ENDBRANCH   2   3
ENDBRANCH   1   2
BRANCH   1  24
ATOM     24  C   UNL A   1      32.339  30.065  26.825  1.00  0.00     0.275 C 
BRANCH  24  25
ATOM     25  O   UNL A   1      33.765  30.250  26.745  1.00  0.00    -0.458 OA
BRANCH  25  26
ATOM     26  C   UNL A   1      34.240  31.218  27.563  1.00  0.00     0.338 C 
ATOM     27  O   UNL A   1      33.662  32.240  27.881  1.00  0.00    -0.246 OA
BRANCH  26  28
ATOM     28  C   UNL A   1      35.543  30.825  28.122  1.00  0.00     0.060 A 
ATOM     29  C   UNL A   1      35.611  29.669  28.904  1.00  0.00     0.016 A 
ATOM     30  C   UNL A   1      36.660  31.646  27.976  1.00  0.00     0.016 A 
ATOM     31  C   UNL A   1      36.791  29.337  29.565  1.00  0.00     0.010 A 
ATOM     32  C   UNL A   1      37.851  31.302  28.626  1.00  0.00     0.010 A 
ATOM     33  C   UNL A   1      37.920  30.155  29.438  1.00  0.00    -0.014 A 
BRANCH  33  34
ATOM     34  C   UNL A   1      39.164  29.830  30.182  1.00  0.00     0.031 A 
ATOM     35  C   UNL A   1      40.076  28.742  29.686  1.00  0.00     0.074 A 
ATOM     36  C   UNL A   1      39.480  30.517  31.295  1.00  0.00     0.049 A 
ATOM     37  N   UNL A   1      41.153  28.252  30.245  1.00  0.00    -0.248 NA
ATOM     38  C   UNL A   1      39.730  28.124  28.397  1.00  0.00     0.031 C 
ATOM     39  C   UNL A   1      38.706  31.627  31.854  1.00  0.00     0.029 A 
ATOM     40  N   UNL A   1      40.538  30.378  32.160  1.00  0.00    -0.354 N 
ATOM     41  C   UNL A   1      41.601  27.250  29.392  1.00  0.00     0.074 A 
ATOM     42  C   UNL A   1      40.674  27.199  28.280  1.00  0.00     0.031 C 
ATOM     43  C   UNL A   1      39.319  32.073  32.963  1.00  0.00     0.029 A 
ATOM     44  C   UNL A   1      40.498  31.250  33.221  1.00  0.00     0.049 A 
ATOM     45  H   UNL A   1      41.255  29.716  32.032  1.00  0.00     0.167 HD
ATOM     46  C   UNL A   1      42.682  26.445  29.525  1.00  0.00     0.031 A 
ATOM     47  C   UNL A   1      41.304  31.359  34.294  1.00  0.00     0.031 A 
ATOM     48  C   UNL A   1      43.608  26.501  30.624  1.00  0.00     0.049 A 
ATOM     49  C   UNL A   1      42.466  30.417  34.448  1.00  0.00     0.074 A 
ATOM     50  C   UNL A   1      44.740  25.731  30.838  1.00  0.00     0.029 A 
ATOM     51  N   UNL A   1      43.513  27.375  31.697  1.00  0.00    -0.354 N 
ATOM     52  N   UNL A   1      42.864  29.465  33.640  1.00  0.00    -0.248 NA
ATOM     53  C   UNL A   1      43.281  30.562  35.662  1.00  0.00     0.031 C 
ATOM     54  C   UNL A   1      45.307  26.115  32.059  1.00  0.00     0.029 A 
ATOM     55  C   UNL A   1      44.553  27.152  32.584  1.00  0.00     0.049 A 
ATOM     56  H   UNL A   1      42.808  28.054  31.810  1.00  0.00     0.167 HD
ATOM     57  C   UNL A   1      43.987  28.906  34.240  1.00  0.00     0.074 A 
ATOM     58  C   UNL A   1      44.211  29.635  35.471  1.00  0.00     0.031 C 
ATOM     59  C   UNL A   1      44.761  27.882  33.807  1.00  0.00     0.031 A 
BRANCH  46  60
ATOM     60  C   UNL A   1      42.902  25.401  28.464  1.00  0.00    -0.014 A 
ATOM     61  C   UNL A   1      43.658  25.680  27.312  1.00  0.00     0.010 A 
ATOM     62  C   UNL A   1      42.374  24.110  28.644  1.00  0.00     0.010 A 
ATOM     63  C   UNL A   1      43.853  24.693  26.340  1.00  0.00     0.020 A 
ATOM     64  C   UNL A   1      42.585  23.115  27.685  1.00  0.00     0.020 A 
ATOM     65  C   UNL A   1      43.309  23.418  26.530  1.00  0.00     0.054 A 
BRANCH  65  66
ATOM     66  S   UNL A   1      43.590  22.148  25.266  1.00  0.00     0.124 S 
ATOM     67  O   UNL A   1      43.464  22.918  24.031  1.00  0.00    -0.237 OA
ATOM     68  O   UNL A   1      44.938  21.676  25.575  1.00  0.00    -0.237 OA
ATOM     69  O   UNL A   1      42.525  21.178  25.508  1.00  0.00    -0.744 OA
ENDBRANCH  65  66
ENDBRANCH  46  60
BRANCH  47  70
ATOM     70  C   UNL A   1      41.019  32.389  35.328  1.00  0.00    -0.014 A 
ATOM     71  C   UNL A   1      41.505  33.700  35.180  1.00  0.00     0.010 A 
ATOM     72  C   UNL A   1      40.245  32.068  36.458  1.00  0.00     0.010 A 
ATOM     73  C   UNL A   1      41.226  34.670  36.147  1.00  0.00     0.020 A 
ATOM     74  C   UNL A   1      39.947  33.040  37.416  1.00  0.00     0.020 A 
ATOM     75  C   UNL A   1      40.447  34.334  37.258  1.00  0.00     0.054 A 
BRANCH  75  76
ATOM     76  S   UNL A   1      40.038  35.623  38.469  1.00  0.00     0.124 S 
ATOM     77  O   UNL A   1      38.849  35.070  39.108  1.00  0.00    -0.237 OA
ATOM     78  O   UNL A   1      41.239  35.673  39.300  1.00  0.00    -0.237 OA
ATOM     79  O   UNL A   1      39.815  36.807  37.641  1.00  0.00    -0.744 OA
ENDBRANCH  75  76
ENDBRANCH  47  70
BRANCH  59  80
ATOM     80  C   UNL A   1      45.941  27.503  34.661  1.00  0.00    -0.014 A 
ATOM     81  C   UNL A   1      47.197  28.103  34.468  1.00  0.00     0.010 A 
ATOM     82  C   UNL A   1      45.777  26.567  35.697  1.00  0.00     0.010 A 
ATOM     83  C   UNL A   1      48.278  27.753  35.281  1.00  0.00     0.020 A 
ATOM     84  C   UNL A   1      46.850  26.229  36.525  1.00  0.00     0.020 A 
ATOM     85  C   UNL A   1      48.099  26.814  36.302  1.00  0.00     0.054 A 
BRANCH  85  86
ATOM     86  S   UNL A   1      49.505  26.402  37.374  1.00  0.00     0.124 S 
ATOM     87  O   UNL A   1      50.089  27.716  37.625  1.00  0.00    -0.237 OA
ATOM     88  O   UNL A   1      48.861  25.770  38.524  1.00  0.00    -0.237 OA
ATOM     89  O   UNL A   1      50.314  25.505  36.552  1.00  0.00    -0.744 OA
ENDBRANCH  85  86
ENDBRANCH  59  80
ENDBRANCH  33  34
ENDBRANCH  26  28
ENDBRANCH  25  26
ENDBRANCH  24  25
ENDBRANCH   1  24
TORSDOF 19
ENDMDL
