MODEL 1
REMARK VINA RESULT:      -9.9      0.000      0.000
REMARK SMILES O=C(OCCOC(=O)[C@@]12CCC[C@@H](C[NH2+]1)C2)c1ccc(-c2c3nc(c(-c4ccc(S(=O)(=O)[O-])cc4)c4ccc([nH]4)c(-c4ccc(S(=O)(=O)[O-])cc4)c4nc(c(-c5ccc(S(=O)(=O)[O-])cc5)c5ccc2[nH]5)C=C4)C=C3)cc1
REMARK SMILES IDX 3 1 2 2 1 3 17 4 18 5 76 6 19 7 75 8 20 9 21 10 22 11 69 12
REMARK SMILES IDX 23 13 74 14 68 15 70 16 24 17 73 18 67 19 66 20 25 22 55 23
REMARK SMILES IDX 36 24 54 25 37 26 40 27 53 28 71 29 38 30 39 31 52 33 72 34
REMARK SMILES IDX 41 35 26 36 27 37 35 38 28 39 34 40 29 41 30 42 31 43 32 44
REMARK SMILES IDX 33 45 56 46 57 47 65 48 58 49 64 50 59 51 60 52 61 53 62 54
REMARK SMILES IDX 63 55 42 56 43 57 51 58 44 59 50 60 45 61 46 62 47 63 48 64
REMARK SMILES IDX 49 65 4 66 5 67 6 68 7 69 8 70 9 71 10 72 15 73 16 74 11 75
REMARK SMILES IDX 14 76 13 79 12 80
REMARK H PARENT 70 21 40 32 15 77 15 78
REMARK Flexibility Score: inf
ROOT
ATOM      1  O   UNL A   1      40.672  21.186  26.138  1.00  0.00    -0.458 OA
ENDROOT
BRANCH   1   2
ATOM      2  C   UNL A   1      39.695  22.061  26.483  1.00  0.00     0.338 C 
ATOM      3  O   UNL A   1      38.541  21.829  26.125  1.00  0.00    -0.246 OA
BRANCH   2   4
ATOM      4  C   UNL A   1      39.982  23.381  27.133  1.00  0.00     0.060 A 
ATOM      5  C   UNL A   1      40.807  23.594  28.241  1.00  0.00     0.016 A 
ATOM      6  C   UNL A   1      39.429  24.507  26.505  1.00  0.00     0.016 A 
ATOM      7  C   UNL A   1      41.228  24.881  28.594  1.00  0.00     0.010 A 
ATOM      8  C   UNL A   1      39.856  25.794  26.849  1.00  0.00     0.010 A 
ATOM      9  C   UNL A   1      40.805  25.991  27.864  1.00  0.00    -0.014 A 
BRANCH   9  10
ATOM     10  C   UNL A   1      41.299  27.351  28.207  1.00  0.00     0.031 A 
ATOM     11  C   UNL A   1      42.722  27.690  27.871  1.00  0.00     0.074 A 
ATOM     12  C   UNL A   1      40.502  28.266  28.804  1.00  0.00     0.049 A 
ATOM     13  N   UNL A   1      43.346  28.831  27.999  1.00  0.00    -0.248 NA
ATOM     14  C   UNL A   1      43.554  26.608  27.315  1.00  0.00     0.031 C 
ATOM     15  C   UNL A   1      39.107  28.058  29.215  1.00  0.00     0.029 A 
ATOM     16  N   UNL A   1      40.754  29.561  29.196  1.00  0.00    -0.354 N 
ATOM     17  C   UNL A   1      44.614  28.612  27.479  1.00  0.00     0.074 A 
ATOM     18  C   UNL A   1      44.724  27.205  27.182  1.00  0.00     0.031 C 
ATOM     19  C   UNL A   1      38.651  29.160  29.838  1.00  0.00     0.029 A 
ATOM     20  C   UNL A   1      39.698  30.174  29.838  1.00  0.00     0.049 A 
ATOM     21  H   UNL A   1      41.615  30.011  29.033  1.00  0.00     0.167 HD
ATOM     22  C   UNL A   1      45.572  29.515  27.179  1.00  0.00     0.031 A 
ATOM     23  C   UNL A   1      39.583  31.419  30.344  1.00  0.00     0.031 A 
ATOM     24  C   UNL A   1      45.475  30.909  27.489  1.00  0.00     0.049 A 
ATOM     25  C   UNL A   1      40.720  32.389  30.116  1.00  0.00     0.074 A 
ATOM     26  C   UNL A   1      46.382  31.917  27.231  1.00  0.00     0.029 A 
ATOM     27  N   UNL A   1      44.396  31.487  28.140  1.00  0.00    -0.354 N 
ATOM     28  N   UNL A   1      41.865  32.186  29.506  1.00  0.00    -0.248 NA
ATOM     29  C   UNL A   1      40.527  33.767  30.590  1.00  0.00     0.031 C 
ATOM     30  C   UNL A   1      45.871  33.103  27.771  1.00  0.00     0.029 A 
ATOM     31  C   UNL A   1      44.620  32.839  28.312  1.00  0.00     0.049 A 
ATOM     32  H   UNL A   1      43.589  31.007  28.436  1.00  0.00     0.167 HD
ATOM     33  C   UNL A   1      42.500  33.423  29.471  1.00  0.00     0.074 A 
ATOM     34  C   UNL A   1      41.609  34.367  30.116  1.00  0.00     0.031 C 
ATOM     35  C   UNL A   1      43.705  33.755  28.944  1.00  0.00     0.031 A 
BRANCH  22  36
ATOM     36  C   UNL A   1      46.763  28.991  26.428  1.00  0.00    -0.014 A 
ATOM     37  C   UNL A   1      46.617  28.566  25.092  1.00  0.00     0.010 A 
ATOM     38  C   UNL A   1      48.009  28.864  27.060  1.00  0.00     0.010 A 
ATOM     39  C   UNL A   1      47.682  27.968  24.420  1.00  0.00     0.020 A 
ATOM     40  C   UNL A   1      49.088  28.291  26.378  1.00  0.00     0.020 A 
ATOM     41  C   UNL A   1      48.910  27.830  25.070  1.00  0.00     0.054 A 
BRANCH  41  42
ATOM     42  S   UNL A   1      50.275  27.048  24.171  1.00  0.00     0.124 S 
ATOM     43  O   UNL A   1      51.241  28.139  24.080  1.00  0.00    -0.237 OA
ATOM     44  O   UNL A   1      50.652  25.949  25.056  1.00  0.00    -0.237 OA
ATOM     45  O   UNL A   1      49.670  26.645  22.903  1.00  0.00    -0.744 OA
ENDBRANCH  41  42
ENDBRANCH  22  36
BRANCH  23  46
ATOM     46  C   UNL A   1      38.355  31.860  31.073  1.00  0.00    -0.014 A 
ATOM     47  C   UNL A   1      37.265  32.427  30.384  1.00  0.00     0.010 A 
ATOM     48  C   UNL A   1      38.298  31.789  32.477  1.00  0.00     0.010 A 
ATOM     49  C   UNL A   1      36.175  32.963  31.084  1.00  0.00     0.020 A 
ATOM     50  C   UNL A   1      37.199  32.300  33.180  1.00  0.00     0.020 A 
ATOM     51  C   UNL A   1      36.154  32.903  32.480  1.00  0.00     0.054 A 
BRANCH  51  52
ATOM     52  S   UNL A   1      34.739  33.623  33.365  1.00  0.00     0.124 S 
ATOM     53  O   UNL A   1      33.635  32.785  32.908  1.00  0.00    -0.237 OA
ATOM     54  O   UNL A   1      35.126  33.453  34.764  1.00  0.00    -0.237 OA
ATOM     55  O   UNL A   1      34.711  35.007  32.897  1.00  0.00    -0.744 OA
ENDBRANCH  51  52
ENDBRANCH  23  46
BRANCH  35  56
ATOM     56  C   UNL A   1      44.108  35.204  28.992  1.00  0.00    -0.014 A 
ATOM     57  C   UNL A   1      44.874  35.715  30.052  1.00  0.00     0.010 A 
ATOM     58  C   UNL A   1      43.769  36.047  27.917  1.00  0.00     0.010 A 
ATOM     59  C   UNL A   1      45.268  37.054  30.052  1.00  0.00     0.020 A 
ATOM     60  C   UNL A   1      44.191  37.376  27.897  1.00  0.00     0.020 A 
ATOM     61  C   UNL A   1      44.927  37.875  28.973  1.00  0.00     0.054 A 
BRANCH  61  62
ATOM     62  S   UNL A   1      45.497  39.595  28.972  1.00  0.00     0.124 S 
ATOM     63  O   UNL A   1      46.877  39.458  29.428  1.00  0.00    -0.237 OA
ATOM     64  O   UNL A   1      45.332  39.986  27.574  1.00  0.00    -0.237 OA
ATOM     65  O   UNL A   1      44.593  40.260  29.909  1.00  0.00    -0.744 OA
ENDBRANCH  61  62
ENDBRANCH  35  56
ENDBRANCH   9  10
ENDBRANCH   2   4
ENDBRANCH   1   2
BRANCH   1  66
ATOM     66  C   UNL A   1      41.408  20.280  26.977  1.00  0.00     0.275 C 
BRANCH  66  67
ATOM     67  C   UNL A   1      42.168  19.172  26.234  1.00  0.00     0.274 C 
BRANCH  67  68
ATOM     68  O   UNL A   1      42.845  19.654  25.062  1.00  0.00    -0.457 OA
BRANCH  68  69
ATOM     69  C   UNL A   1      44.174  19.970  25.209  1.00  0.00     0.368 C 
ATOM     70  O   UNL A   1      45.060  19.146  25.371  1.00  0.00    -0.245 OA
BRANCH  69  71
ATOM     71  C   UNL A   1      44.423  21.498  25.119  1.00  0.00     0.194 C 
ATOM     72  C   UNL A   1      45.624  21.786  24.192  1.00  0.00     0.081 C 
ATOM     73  N   UNL A   1      43.244  22.216  24.557  1.00  0.00    -0.332 N 
ATOM     74  C   UNL A   1      44.605  22.191  26.465  1.00  0.00     0.090 C 
ATOM     75  C   UNL A   1      46.380  23.068  24.560  1.00  0.00     0.008 C 
ATOM     76  C   UNL A   1      43.103  23.502  25.253  1.00  0.00     0.265 C 
ATOM     77  H   UNL A   1      42.403  21.656  24.694  1.00  0.00     0.347 HD
ATOM     78  H   UNL A   1      43.376  22.374  23.558  1.00  0.00     0.347 HD
ATOM     79  C   UNL A   1      44.383  23.648  26.047  1.00  0.00     0.051 C 
ATOM     80  C   UNL A   1      45.480  24.175  25.100  1.00  0.00     0.010 C 
ENDBRANCH  69  71
ENDBRANCH  68  69
ENDBRANCH  67  68
ENDBRANCH  66  67
ENDBRANCH   1  66
TORSDOF 14
ENDMDL
MODEL 2
REMARK VINA RESULT:      -9.8      4.854     12.616
REMARK SMILES O=C(OCCOC(=O)[C@@]12CCC[C@@H](C[NH2+]1)C2)c1ccc(-c2c3nc(c(-c4ccc(S(=O)(=O)[O-])cc4)c4ccc([nH]4)c(-c4ccc(S(=O)(=O)[O-])cc4)c4nc(c(-c5ccc(S(=O)(=O)[O-])cc5)c5ccc2[nH]5)C=C4)C=C3)cc1
REMARK SMILES IDX 3 1 2 2 1 3 17 4 18 5 76 6 19 7 75 8 20 9 21 10 22 11 69 12
REMARK SMILES IDX 23 13 74 14 68 15 70 16 24 17 73 18 67 19 66 20 25 22 55 23
REMARK SMILES IDX 36 24 54 25 37 26 40 27 53 28 71 29 38 30 39 31 52 33 72 34
REMARK SMILES IDX 41 35 26 36 27 37 35 38 28 39 34 40 29 41 30 42 31 43 32 44
REMARK SMILES IDX 33 45 56 46 57 47 65 48 58 49 64 50 59 51 60 52 61 53 62 54
REMARK SMILES IDX 63 55 42 56 43 57 51 58 44 59 50 60 45 61 46 62 47 63 48 64
REMARK SMILES IDX 49 65 4 66 5 67 6 68 7 69 8 70 9 71 10 72 15 73 16 74 11 75
REMARK SMILES IDX 14 76 13 79 12 80
REMARK H PARENT 70 21 40 32 15 77 15 78
REMARK Flexibility Score: inf
ROOT
ATOM      1  O   UNL A   1      33.846  32.148  28.435  1.00  0.00    -0.458 OA
ENDROOT
BRANCH   1   2
ATOM      2  C   UNL A   1      34.308  31.091  27.719  1.00  0.00     0.338 C 
ATOM      3  O   UNL A   1      33.572  30.585  26.874  1.00  0.00    -0.246 OA
BRANCH   2   4
ATOM      4  C   UNL A   1      35.606  30.409  28.029  1.00  0.00     0.060 A 
ATOM      5  C   UNL A   1      36.764  30.443  27.248  1.00  0.00     0.016 A 
ATOM      6  C   UNL A   1      35.671  29.747  29.264  1.00  0.00     0.016 A 
ATOM      7  C   UNL A   1      37.994  30.011  27.757  1.00  0.00     0.010 A 
ATOM      8  C   UNL A   1      36.901  29.324  29.779  1.00  0.00     0.010 A 
ATOM      9  C   UNL A   1      38.087  29.502  29.052  1.00  0.00    -0.014 A 
BRANCH   9  10
ATOM     10  C   UNL A   1      39.404  29.097  29.609  1.00  0.00     0.031 A 
ATOM     11  C   UNL A   1      39.984  29.921  30.722  1.00  0.00     0.074 A 
ATOM     12  C   UNL A   1      40.073  28.019  29.138  1.00  0.00     0.049 A 
ATOM     13  N   UNL A   1      41.072  29.715  31.415  1.00  0.00    -0.248 NA
ATOM     14  C   UNL A   1      39.244  31.135  31.109  1.00  0.00     0.031 C 
ATOM     15  C   UNL A   1      39.639  27.148  28.039  1.00  0.00     0.029 A 
ATOM     16  N   UNL A   1      41.282  27.477  29.510  1.00  0.00    -0.354 N 
ATOM     17  C   UNL A   1      41.102  30.735  32.355  1.00  0.00     0.074 A 
ATOM     18  C   UNL A   1      40.023  31.641  32.048  1.00  0.00     0.031 C 
ATOM     19  C   UNL A   1      40.584  26.220  27.798  1.00  0.00     0.029 A 
ATOM     20  C   UNL A   1      41.675  26.395  28.749  1.00  0.00     0.049 A 
ATOM     21  H   UNL A   1      41.821  27.831  30.255  1.00  0.00     0.167 HD
ATOM     22  C   UNL A   1      41.894  30.860  33.442  1.00  0.00     0.031 A 
ATOM     23  C   UNL A   1      42.778  25.621  28.829  1.00  0.00     0.031 A 
ATOM     24  C   UNL A   1      42.978  29.975  33.741  1.00  0.00     0.049 A 
ATOM     25  C   UNL A   1      43.730  25.854  29.978  1.00  0.00     0.074 A 
ATOM     26  C   UNL A   1      43.847  30.003  34.814  1.00  0.00     0.029 A 
ATOM     27  N   UNL A   1      43.345  28.899  32.947  1.00  0.00    -0.354 N 
ATOM     28  N   UNL A   1      43.665  26.755  30.931  1.00  0.00    -0.248 NA
ATOM     29  C   UNL A   1      44.869  24.933  30.098  1.00  0.00     0.031 C 
ATOM     30  C   UNL A   1      44.773  28.968  34.643  1.00  0.00     0.029 A 
ATOM     31  C   UNL A   1      44.442  28.263  33.494  1.00  0.00     0.049 A 
ATOM     32  H   UNL A   1      42.891  28.627  32.116  1.00  0.00     0.167 HD
ATOM     33  C   UNL A   1      44.718  26.471  31.794  1.00  0.00     0.074 A 
ATOM     34  C   UNL A   1      45.400  25.312  31.252  1.00  0.00     0.031 C 
ATOM     35  C   UNL A   1      45.086  27.100  32.938  1.00  0.00     0.031 A 
BRANCH  22  36
ATOM     36  C   UNL A   1      41.546  31.972  34.390  1.00  0.00    -0.014 A 
ATOM     37  C   UNL A   1      40.562  31.766  35.380  1.00  0.00     0.010 A 
ATOM     38  C   UNL A   1      42.145  33.234  34.266  1.00  0.00     0.010 A 
ATOM     39  C   UNL A   1      40.142  32.820  36.189  1.00  0.00     0.020 A 
ATOM     40  C   UNL A   1      41.747  34.286  35.098  1.00  0.00     0.020 A 
ATOM     41  C   UNL A   1      40.735  34.075  36.040  1.00  0.00     0.054 A 
BRANCH  41  42
ATOM     42  S   UNL A   1      40.167  35.426  37.106  1.00  0.00     0.124 S 
ATOM     43  O   UNL A   1      41.379  35.749  37.854  1.00  0.00    -0.237 OA
ATOM     44  O   UNL A   1      39.739  36.435  36.141  1.00  0.00    -0.237 OA
ATOM     45  O   UNL A   1      39.094  34.821  37.891  1.00  0.00    -0.744 OA
ENDBRANCH  41  42
ENDBRANCH  22  36
BRANCH  23  46
ATOM     46  C   UNL A   1      43.042  24.529  27.843  1.00  0.00    -0.014 A 
ATOM     47  C   UNL A   1      42.605  23.212  28.083  1.00  0.00     0.010 A 
ATOM     48  C   UNL A   1      43.807  24.783  26.689  1.00  0.00     0.010 A 
ATOM     49  C   UNL A   1      42.973  22.167  27.224  1.00  0.00     0.020 A 
ATOM     50  C   UNL A   1      44.155  23.746  25.814  1.00  0.00     0.020 A 
ATOM     51  C   UNL A   1      43.754  22.441  26.099  1.00  0.00     0.054 A 
BRANCH  51  52
ATOM     52  S   UNL A   1      44.236  21.066  25.012  1.00  0.00     0.124 S 
ATOM     53  O   UNL A   1      43.197  20.080  25.289  1.00  0.00    -0.237 OA
ATOM     54  O   UNL A   1      44.188  21.682  23.687  1.00  0.00    -0.237 OA
ATOM     55  O   UNL A   1      45.575  20.713  25.479  1.00  0.00    -0.744 OA
ENDBRANCH  51  52
ENDBRANCH  23  46
BRANCH  35  56
ATOM     56  C   UNL A   1      46.240  26.520  33.710  1.00  0.00    -0.014 A 
ATOM     57  C   UNL A   1      46.047  25.506  34.662  1.00  0.00     0.010 A 
ATOM     58  C   UNL A   1      47.547  26.955  33.421  1.00  0.00     0.010 A 
ATOM     59  C   UNL A   1      47.140  24.957  35.336  1.00  0.00     0.020 A 
ATOM     60  C   UNL A   1      48.644  26.384  34.066  1.00  0.00     0.020 A 
ATOM     61  C   UNL A   1      48.431  25.398  35.031  1.00  0.00     0.054 A 
BRANCH  61  62
ATOM     62  S   UNL A   1      49.836  24.631  35.881  1.00  0.00     0.124 S 
ATOM     63  O   UNL A   1      49.343  23.279  36.123  1.00  0.00    -0.237 OA
ATOM     64  O   UNL A   1      50.907  24.744  34.893  1.00  0.00    -0.237 OA
ATOM     65  O   UNL A   1      50.009  25.456  37.076  1.00  0.00    -0.744 OA
ENDBRANCH  61  62
ENDBRANCH  35  56
ENDBRANCH   9  10
ENDBRANCH   2   4
ENDBRANCH   1   2
BRANCH   1  66
ATOM     66  C   UNL A   1      33.458  33.451  27.969  1.00  0.00     0.275 C 
BRANCH  66  67
ATOM     67  C   UNL A   1      33.560  34.574  29.011  1.00  0.00     0.274 C 
BRANCH  67  68
ATOM     68  O   UNL A   1      34.615  34.355  29.961  1.00  0.00    -0.457 OA
BRANCH  68  69
ATOM     69  C   UNL A   1      34.280  34.478  31.288  1.00  0.00     0.368 C 
ATOM     70  O   UNL A   1      33.248  34.991  31.688  1.00  0.00    -0.245 OA
BRANCH  69  71
ATOM     71  C   UNL A   1      35.356  33.862  32.220  1.00  0.00     0.194 C 
ATOM     72  C   UNL A   1      35.768  32.467  31.703  1.00  0.00     0.081 C 
ATOM     73  N   UNL A   1      36.587  34.701  32.269  1.00  0.00    -0.332 N 
ATOM     74  C   UNL A   1      34.958  33.795  33.689  1.00  0.00     0.090 C 
ATOM     75  C   UNL A   1      36.225  31.519  32.818  1.00  0.00     0.008 C 
ATOM     76  C   UNL A   1      37.120  34.670  33.638  1.00  0.00     0.265 C 
ATOM     77  H   UNL A   1      36.360  35.660  32.010  1.00  0.00     0.347 HD
ATOM     78  H   UNL A   1      37.282  34.338  31.617  1.00  0.00     0.347 HD
ATOM     79  C   UNL A   1      36.333  33.578  34.329  1.00  0.00     0.051 C 
ATOM     80  C   UNL A   1      36.962  32.221  33.955  1.00  0.00     0.010 C 
ENDBRANCH  69  71
ENDBRANCH  68  69
ENDBRANCH  67  68
ENDBRANCH  66  67
ENDBRANCH   1  66
TORSDOF 14
ENDMDL
MODEL 3
REMARK VINA RESULT:      -9.7      1.317      1.680
REMARK SMILES O=C(OCCOC(=O)[C@@]12CCC[C@@H](C[NH2+]1)C2)c1ccc(-c2c3nc(c(-c4ccc(S(=O)(=O)[O-])cc4)c4ccc([nH]4)c(-c4ccc(S(=O)(=O)[O-])cc4)c4nc(c(-c5ccc(S(=O)(=O)[O-])cc5)c5ccc2[nH]5)C=C4)C=C3)cc1
REMARK SMILES IDX 3 1 2 2 1 3 17 4 18 5 76 6 19 7 75 8 20 9 21 10 22 11 69 12
REMARK SMILES IDX 23 13 74 14 68 15 70 16 24 17 73 18 67 19 66 20 25 22 55 23
REMARK SMILES IDX 36 24 54 25 37 26 40 27 53 28 71 29 38 30 39 31 52 33 72 34
REMARK SMILES IDX 41 35 26 36 27 37 35 38 28 39 34 40 29 41 30 42 31 43 32 44
REMARK SMILES IDX 33 45 56 46 57 47 65 48 58 49 64 50 59 51 60 52 61 53 62 54
REMARK SMILES IDX 63 55 42 56 43 57 51 58 44 59 50 60 45 61 46 62 47 63 48 64
REMARK SMILES IDX 49 65 4 66 5 67 6 68 7 69 8 70 9 71 10 72 15 73 16 74 11 75
REMARK SMILES IDX 14 76 13 79 12 80
REMARK H PARENT 70 21 40 32 15 77 15 78
REMARK Flexibility Score: inf
ROOT
ATOM      1  O   UNL A   1      39.926  21.560  26.126  1.00  0.00    -0.458 OA
ENDROOT
BRANCH   1   2
ATOM      2  C   UNL A   1      38.939  22.486  26.226  1.00  0.00     0.338 C 
ATOM      3  O   UNL A   1      37.848  22.243  25.712  1.00  0.00    -0.246 OA
BRANCH   2   4
ATOM      4  C   UNL A   1      39.169  23.856  26.786  1.00  0.00     0.060 A 
ATOM      5  C   UNL A   1      38.915  24.267  28.097  1.00  0.00     0.016 A 
ATOM      6  C   UNL A   1      39.775  24.779  25.920  1.00  0.00     0.016 A 
ATOM      7  C   UNL A   1      39.420  25.476  28.589  1.00  0.00     0.010 A 
ATOM      8  C   UNL A   1      40.290  25.983  26.411  1.00  0.00     0.010 A 
ATOM      9  C   UNL A   1      40.166  26.320  27.768  1.00  0.00    -0.014 A 
BRANCH   9  10
ATOM     10  C   UNL A   1      40.749  27.576  28.309  1.00  0.00     0.031 A 
ATOM     11  C   UNL A   1      42.244  27.676  28.404  1.00  0.00     0.074 A 
ATOM     12  C   UNL A   1      39.969  28.607  28.708  1.00  0.00     0.049 A 
ATOM     13  N   UNL A   1      42.977  28.696  28.764  1.00  0.00    -0.248 NA
ATOM     14  C   UNL A   1      43.019  26.475  28.045  1.00  0.00     0.031 C 
ATOM     15  C   UNL A   1      38.501  28.630  28.699  1.00  0.00     0.029 A 
ATOM     16  N   UNL A   1      40.300  29.838  29.224  1.00  0.00    -0.354 N 
ATOM     17  C   UNL A   1      44.290  28.273  28.609  1.00  0.00     0.074 A 
ATOM     18  C   UNL A   1      44.257  26.869  28.279  1.00  0.00     0.031 C 
ATOM     19  C   UNL A   1      38.065  29.789  29.228  1.00  0.00     0.029 A 
ATOM     20  C   UNL A   1      39.215  30.614  29.577  1.00  0.00     0.049 A 
ATOM     21  H   UNL A   1      41.231  30.139  29.334  1.00  0.00     0.167 HD
ATOM     22  C   UNL A   1      45.423  29.006  28.639  1.00  0.00     0.031 A 
ATOM     23  C   UNL A   1      39.158  31.857  30.099  1.00  0.00     0.031 A 
ATOM     24  C   UNL A   1      45.462  30.394  28.986  1.00  0.00     0.049 A 
ATOM     25  C   UNL A   1      40.450  32.625  30.251  1.00  0.00     0.074 A 
ATOM     26  C   UNL A   1      46.553  31.239  29.048  1.00  0.00     0.029 A 
ATOM     27  N   UNL A   1      44.348  31.139  29.338  1.00  0.00    -0.354 N 
ATOM     28  N   UNL A   1      41.675  32.239  29.977  1.00  0.00    -0.248 NA
ATOM     29  C   UNL A   1      40.350  34.013  30.727  1.00  0.00     0.031 C 
ATOM     30  C   UNL A   1      46.102  32.489  29.487  1.00  0.00     0.029 A 
ATOM     31  C   UNL A   1      44.723  32.434  29.640  1.00  0.00     0.049 A 
ATOM     32  H   UNL A   1      43.424  30.797  29.370  1.00  0.00     0.167 HD
ATOM     33  C   UNL A   1      42.480  33.353  30.189  1.00  0.00     0.074 A 
ATOM     34  C   UNL A   1      41.603  34.427  30.609  1.00  0.00     0.031 C 
ATOM     35  C   UNL A   1      43.822  33.484  30.040  1.00  0.00     0.031 A 
BRANCH  22  36
ATOM     36  C   UNL A   1      46.681  28.296  28.226  1.00  0.00    -0.014 A 
ATOM     37  C   UNL A   1      46.990  28.159  26.857  1.00  0.00     0.010 A 
ATOM     38  C   UNL A   1      47.525  27.716  29.184  1.00  0.00     0.010 A 
ATOM     39  C   UNL A   1      48.088  27.403  26.452  1.00  0.00     0.020 A 
ATOM     40  C   UNL A   1      48.646  26.982  28.781  1.00  0.00     0.020 A 
ATOM     41  C   UNL A   1      48.907  26.814  27.418  1.00  0.00     0.054 A 
BRANCH  41  42
ATOM     42  S   UNL A   1      50.327  25.836  26.860  1.00  0.00     0.124 S 
ATOM     43  O   UNL A   1      50.028  24.523  27.424  1.00  0.00    -0.237 OA
ATOM     44  O   UNL A   1      50.228  25.931  25.407  1.00  0.00    -0.237 OA
ATOM     45  O   UNL A   1      51.474  26.521  27.452  1.00  0.00    -0.744 OA
ENDBRANCH  41  42
ENDBRANCH  22  36
BRANCH  23  46
ATOM     46  C   UNL A   1      37.858  32.490  30.476  1.00  0.00    -0.014 A 
ATOM     47  C   UNL A   1      37.110  33.231  29.540  1.00  0.00     0.010 A 
ATOM     48  C   UNL A   1      37.396  32.425  31.804  1.00  0.00     0.010 A 
ATOM     49  C   UNL A   1      35.964  33.935  29.933  1.00  0.00     0.020 A 
ATOM     50  C   UNL A   1      36.236  33.107  32.197  1.00  0.00     0.020 A 
ATOM     51  C   UNL A   1      35.540  33.875  31.264  1.00  0.00     0.054 A 
BRANCH  51  52
ATOM     52  S   UNL A   1      34.063  34.815  31.754  1.00  0.00     0.124 S 
ATOM     53  O   UNL A   1      33.472  35.149  30.462  1.00  0.00    -0.237 OA
ATOM     54  O   UNL A   1      33.324  33.841  32.555  1.00  0.00    -0.237 OA
ATOM     55  O   UNL A   1      34.609  35.943  32.504  1.00  0.00    -0.744 OA
ENDBRANCH  51  52
ENDBRANCH  23  46
BRANCH  35  56
ATOM     56  C   UNL A   1      44.418  34.845  30.278  1.00  0.00    -0.014 A 
ATOM     57  C   UNL A   1      44.928  35.210  31.534  1.00  0.00     0.010 A 
ATOM     58  C   UNL A   1      44.528  35.744  29.201  1.00  0.00     0.010 A 
ATOM     59  C   UNL A   1      45.512  36.465  31.717  1.00  0.00     0.020 A 
ATOM     60  C   UNL A   1      45.142  36.985  29.372  1.00  0.00     0.020 A 
ATOM     61  C   UNL A   1      45.617  37.343  30.635  1.00  0.00     0.054 A 
BRANCH  61  62
ATOM     62  S   UNL A   1      46.428  38.945  30.887  1.00  0.00     0.124 S 
ATOM     63  O   UNL A   1      46.831  38.863  32.287  1.00  0.00    -0.237 OA
ATOM     64  O   UNL A   1      47.518  38.908  29.914  1.00  0.00    -0.237 OA
ATOM     65  O   UNL A   1      45.373  39.915  30.596  1.00  0.00    -0.744 OA
ENDBRANCH  61  62
ENDBRANCH  35  56
ENDBRANCH   9  10
ENDBRANCH   2   4
ENDBRANCH   1   2
BRANCH   1  66
ATOM     66  C   UNL A   1      40.791  21.049  27.154  1.00  0.00     0.275 C 
BRANCH  66  67
ATOM     67  C   UNL A   1      41.734  19.920  26.714  1.00  0.00     0.274 C 
BRANCH  67  68
ATOM     68  O   UNL A   1      42.307  20.150  25.417  1.00  0.00    -0.457 OA
BRANCH  68  69
ATOM     69  C   UNL A   1      43.676  20.248  25.362  1.00  0.00     0.368 C 
ATOM     70  O   UNL A   1      44.434  19.294  25.421  1.00  0.00    -0.245 OA
BRANCH  69  71
ATOM     71  C   UNL A   1      44.148  21.716  25.187  1.00  0.00     0.194 C 
ATOM     72  C   UNL A   1      45.343  21.775  24.211  1.00  0.00     0.081 C 
ATOM     73  N   UNL A   1      43.069  22.578  24.626  1.00  0.00    -0.332 N 
ATOM     74  C   UNL A   1      44.482  22.433  26.490  1.00  0.00     0.090 C 
ATOM     75  C   UNL A   1      46.295  22.944  24.491  1.00  0.00     0.008 C 
ATOM     76  C   UNL A   1      43.149  23.901  25.260  1.00  0.00     0.265 C 
ATOM     77  H   UNL A   1      42.160  22.159  24.817  1.00  0.00     0.347 HD
ATOM     78  H   UNL A   1      43.186  22.668  23.616  1.00  0.00     0.347 HD
ATOM     79  C   UNL A   1      44.466  23.886  26.006  1.00  0.00     0.051 C 
ATOM     80  C   UNL A   1      45.593  24.198  25.001  1.00  0.00     0.010 C 
ENDBRANCH  69  71
ENDBRANCH  68  69
ENDBRANCH  67  68
ENDBRANCH  66  67
ENDBRANCH   1  66
TORSDOF 14
ENDMDL
