MODEL 1
REMARK VINA RESULT:     -10.3      0.000      0.000
REMARK SMILES COc1cccc(C(=O)NCc2ccc(OC)c(C(=O)OCCOC(=O)c3ccc(-c4c5nc(c(-c6ccc(S(=O)(=O)[O-])cc6)c6ccc([nH]6)c(-c6ccc(S(=O)(=O)[O-])cc6)c6nc(c(-c7ccc(S(=O)(=O)[O-])cc7)c7ccc4[nH]7)C=C6)C=C5)cc3)c2)c1
REMARK SMILES IDX 22 1 21 2 19 3 20 4 18 5 12 6 13 7 87 8 14 9 15 10 11 11
REMARK SMILES IDX 10 12 8 13 9 14 7 16 3 17 4 18 88 19 5 20 6 21 2 22 1 23
REMARK SMILES IDX 16 24 17 25 23 26 24 27 25 28 26 29 27 30 28 31 86 32 29 33
REMARK SMILES IDX 85 34 30 35 31 36 32 37 79 38 33 39 84 40 78 41 80 42 34 43
REMARK SMILES IDX 83 44 77 45 76 46 35 48 65 49 46 50 64 51 47 52 50 53 63 54
REMARK SMILES IDX 81 55 48 56 49 57 62 59 82 60 51 61 36 62 37 63 45 64 38 65
REMARK SMILES IDX 44 66 39 67 40 68 41 69 42 70 43 71 66 72 67 73 75 74 68 75
REMARK SMILES IDX 74 76 69 77 70 78 71 79 72 80 73 81 52 82 53 83 61 84 54 85
REMARK SMILES IDX 60 86 55 87 56 88 57 89 58 90 59 91
REMARK H PARENT 10 15 80 47 50 58
REMARK Flexibility Score: inf
ROOT
ATOM      1  C   UNL A   1      33.062  28.431  25.268  1.00  0.00     0.275 C 
ENDROOT
BRANCH   1   2
ATOM      2  O   UNL A   1      31.877  27.689  25.611  1.00  0.00    -0.458 OA
BRANCH   2   3
ATOM      3  C   UNL A   1      31.047  27.383  24.586  1.00  0.00     0.342 C 
ATOM      4  O   UNL A   1      30.220  28.116  24.072  1.00  0.00    -0.246 OA
BRANCH   3   5
ATOM      5  C   UNL A   1      31.292  25.983  24.195  1.00  0.00     0.102 A 
ATOM      6  C   UNL A   1      31.034  23.642  24.897  1.00  0.00    -0.028 A 
ATOM      7  C   UNL A   1      31.624  23.250  23.693  1.00  0.00     0.009 A 
ATOM      8  C   UNL A   1      30.911  25.014  25.151  1.00  0.00     0.025 A 
ATOM      9  C   UNL A   1      32.003  24.206  22.746  1.00  0.00     0.047 A 
ATOM     10  C   UNL A   1      31.818  25.582  22.962  1.00  0.00     0.133 A 
BRANCH   6  11
ATOM     11  C   UNL A   1      30.470  22.609  25.838  1.00  0.00     0.152 C 
BRANCH  11  12
ATOM     12  N   UNL A   1      31.265  22.402  27.026  1.00  0.00    -0.348 N 
ATOM     13  C   UNL A   1      32.573  22.578  27.380  1.00  0.00     0.251 C 
ATOM     14  O   UNL A   1      32.799  22.536  28.595  1.00  0.00    -0.269 OA
ATOM     15  H   UNL A   1      30.729  22.044  27.769  1.00  0.00     0.164 HD
BRANCH  13  16
ATOM     16  C   UNL A   1      33.733  22.786  26.457  1.00  0.00     0.043 A 
ATOM     17  C   UNL A   1      35.581  22.111  25.014  1.00  0.00     0.119 A 
ATOM     18  C   UNL A   1      35.943  23.446  24.837  1.00  0.00     0.046 A 
ATOM     19  C   UNL A   1      34.481  21.788  25.823  1.00  0.00     0.060 A 
ATOM     20  C   UNL A   1      35.211  24.457  25.447  1.00  0.00     0.005 A 
ATOM     21  C   UNL A   1      34.115  24.127  26.244  1.00  0.00     0.014 A 
BRANCH  17  22
ATOM     22  O   UNL A   1      36.387  21.219  24.358  1.00  0.00    -0.497 OA
ATOM     23  C   UNL A   1      37.651  20.929  24.939  1.00  0.00     0.278 C 
ENDBRANCH  17  22
ENDBRANCH  13  16
ENDBRANCH  11  12
ENDBRANCH   6  11
BRANCH  10  24
ATOM     24  O   UNL A   1      32.239  26.306  21.887  1.00  0.00    -0.496 OA
ATOM     25  C   UNL A   1      33.384  27.137  21.957  1.00  0.00     0.278 C 
ENDBRANCH  10  24
ENDBRANCH   3   5
ENDBRANCH   2   3
ENDBRANCH   1   2
BRANCH   1  26
ATOM     26  C   UNL A   1      34.113  28.246  26.365  1.00  0.00     0.275 C 
BRANCH  26  27
ATOM     27  O   UNL A   1      33.781  29.052  27.512  1.00  0.00    -0.458 OA
BRANCH  27  28
ATOM     28  C   UNL A   1      34.504  30.199  27.628  1.00  0.00     0.338 C 
ATOM     29  O   UNL A   1      34.092  31.335  27.512  1.00  0.00    -0.246 OA
BRANCH  28  30
ATOM     30  C   UNL A   1      35.873  29.868  28.081  1.00  0.00     0.060 A 
ATOM     31  C   UNL A   1      36.914  30.004  27.156  1.00  0.00     0.016 A 
ATOM     32  C   UNL A   1      36.144  29.445  29.385  1.00  0.00     0.016 A 
ATOM     33  C   UNL A   1      38.232  29.759  27.543  1.00  0.00     0.010 A 
ATOM     34  C   UNL A   1      37.462  29.163  29.762  1.00  0.00     0.010 A 
ATOM     35  C   UNL A   1      38.511  29.320  28.843  1.00  0.00    -0.014 A 
BRANCH  35  36
ATOM     36  C   UNL A   1      39.892  28.916  29.197  1.00  0.00     0.031 A 
ATOM     37  C   UNL A   1      40.770  29.893  29.923  1.00  0.00     0.074 A 
ATOM     38  C   UNL A   1      40.356  27.691  28.892  1.00  0.00     0.049 A 
ATOM     39  N   UNL A   1      41.993  29.741  30.356  1.00  0.00    -0.248 NA
ATOM     40  C   UNL A   1      40.186  31.215  30.199  1.00  0.00     0.031 C 
ATOM     41  C   UNL A   1      39.590  26.641  28.225  1.00  0.00     0.029 A 
ATOM     42  N   UNL A   1      41.589  27.126  29.103  1.00  0.00    -0.354 N 
ATOM     43  C   UNL A   1      42.324  30.940  30.973  1.00  0.00     0.074 A 
ATOM     44  C   UNL A   1      41.181  31.819  30.831  1.00  0.00     0.031 C 
ATOM     45  C   UNL A   1      40.372  25.558  28.074  1.00  0.00     0.029 A 
ATOM     46  C   UNL A   1      41.702  25.847  28.610  1.00  0.00     0.049 A 
ATOM     47  H   UNL A   1      42.323  27.590  29.566  1.00  0.00     0.167 HD
ATOM     48  C   UNL A   1      43.474  31.281  31.600  1.00  0.00     0.031 A 
ATOM     49  C   UNL A   1      42.759  25.012  28.579  1.00  0.00     0.031 A 
ATOM     50  C   UNL A   1      44.634  30.434  31.679  1.00  0.00     0.049 A 
ATOM     51  C   UNL A   1      44.064  25.451  29.191  1.00  0.00     0.074 A 
ATOM     52  C   UNL A   1      45.853  30.697  32.278  1.00  0.00     0.029 A 
ATOM     53  N   UNL A   1      44.727  29.167  31.120  1.00  0.00    -0.354 N 
ATOM     54  N   UNL A   1      44.349  26.573  29.809  1.00  0.00    -0.248 NA
ATOM     55  C   UNL A   1      45.189  24.508  29.107  1.00  0.00     0.031 C 
ATOM     56  C   UNL A   1      46.705  29.616  32.026  1.00  0.00     0.029 A 
ATOM     57  C   UNL A   1      45.995  28.650  31.329  1.00  0.00     0.049 A 
ATOM     58  H   UNL A   1      44.000  28.705  30.644  1.00  0.00     0.167 HD
ATOM     59  C   UNL A   1      45.676  26.460  30.209  1.00  0.00     0.074 A 
ATOM     60  C   UNL A   1      46.135  25.157  29.774  1.00  0.00     0.031 C 
ATOM     61  C   UNL A   1      46.443  27.354  30.883  1.00  0.00     0.031 A 
BRANCH  48  62
ATOM     62  C   UNL A   1      43.538  32.661  32.196  1.00  0.00    -0.014 A 
ATOM     63  C   UNL A   1      43.209  32.885  33.545  1.00  0.00     0.010 A 
ATOM     64  C   UNL A   1      43.922  33.748  31.393  1.00  0.00     0.010 A 
ATOM     65  C   UNL A   1      43.209  34.182  34.065  1.00  0.00     0.020 A 
ATOM     66  C   UNL A   1      43.949  35.044  31.916  1.00  0.00     0.020 A 
ATOM     67  C   UNL A   1      43.570  35.254  33.244  1.00  0.00     0.054 A 
BRANCH  67  68
ATOM     68  S   UNL A   1      43.544  36.929  33.937  1.00  0.00     0.124 S 
ATOM     69  O   UNL A   1      43.659  37.754  32.735  1.00  0.00    -0.237 OA
ATOM     70  O   UNL A   1      42.248  36.979  34.610  1.00  0.00    -0.237 OA
ATOM     71  O   UNL A   1      44.705  36.957  34.823  1.00  0.00    -0.744 OA
ENDBRANCH  67  68
ENDBRANCH  48  62
BRANCH  49  72
ATOM     72  C   UNL A   1      42.632  23.678  27.928  1.00  0.00    -0.014 A 
ATOM     73  C   UNL A   1      43.078  23.473  26.612  1.00  0.00     0.010 A 
ATOM     74  C   UNL A   1      42.067  22.599  28.633  1.00  0.00     0.010 A 
ATOM     75  C   UNL A   1      42.954  22.217  26.008  1.00  0.00     0.020 A 
ATOM     76  C   UNL A   1      41.965  21.336  28.044  1.00  0.00     0.020 A 
ATOM     77  C   UNL A   1      42.402  21.154  26.731  1.00  0.00     0.054 A 
BRANCH  77  78
ATOM     78  S   UNL A   1      42.309  19.519  25.952  1.00  0.00     0.124 S 
ATOM     79  O   UNL A   1      40.881  19.393  25.677  1.00  0.00    -0.237 OA
ATOM     80  O   UNL A   1      43.167  19.678  24.782  1.00  0.00    -0.237 OA
ATOM     81  O   UNL A   1      42.831  18.619  26.980  1.00  0.00    -0.744 OA
ENDBRANCH  77  78
ENDBRANCH  49  72
BRANCH  61  82
ATOM     82  C   UNL A   1      47.857  26.949  31.219  1.00  0.00    -0.014 A 
ATOM     83  C   UNL A   1      48.149  26.198  32.372  1.00  0.00     0.010 A 
ATOM     84  C   UNL A   1      48.899  27.270  30.329  1.00  0.00     0.010 A 
ATOM     85  C   UNL A   1      49.462  25.799  32.640  1.00  0.00     0.020 A 
ATOM     86  C   UNL A   1      50.207  26.849  30.579  1.00  0.00     0.020 A 
ATOM     87  C   UNL A   1      50.482  26.125  31.742  1.00  0.00     0.054 A 
BRANCH  87  88
ATOM     88  S   UNL A   1      52.169  25.550  32.086  1.00  0.00     0.124 S 
ATOM     89  O   UNL A   1      52.534  26.357  33.246  1.00  0.00    -0.237 OA
ATOM     90  O   UNL A   1      51.976  24.126  32.346  1.00  0.00    -0.237 OA
ATOM     91  O   UNL A   1      52.898  25.859  30.858  1.00  0.00    -0.744 OA
ENDBRANCH  87  88
ENDBRANCH  61  82
ENDBRANCH  35  36
ENDBRANCH  28  30
ENDBRANCH  27  28
ENDBRANCH  26  27
ENDBRANCH   1  26
TORSDOF 19
ENDMDL
MODEL 2
REMARK VINA RESULT:     -10.0      2.631      3.460
REMARK SMILES COc1cccc(C(=O)NCc2ccc(OC)c(C(=O)OCCOC(=O)c3ccc(-c4c5nc(c(-c6ccc(S(=O)(=O)[O-])cc6)c6ccc([nH]6)c(-c6ccc(S(=O)(=O)[O-])cc6)c6nc(c(-c7ccc(S(=O)(=O)[O-])cc7)c7ccc4[nH]7)C=C6)C=C5)cc3)c2)c1
REMARK SMILES IDX 22 1 21 2 19 3 20 4 18 5 12 6 13 7 87 8 14 9 15 10 11 11
REMARK SMILES IDX 10 12 8 13 9 14 7 16 3 17 4 18 88 19 5 20 6 21 2 22 1 23
REMARK SMILES IDX 16 24 17 25 23 26 24 27 25 28 26 29 27 30 28 31 86 32 29 33
REMARK SMILES IDX 85 34 30 35 31 36 32 37 79 38 33 39 84 40 78 41 80 42 34 43
REMARK SMILES IDX 83 44 77 45 76 46 35 48 65 49 46 50 64 51 47 52 50 53 63 54
REMARK SMILES IDX 81 55 48 56 49 57 62 59 82 60 51 61 36 62 37 63 45 64 38 65
REMARK SMILES IDX 44 66 39 67 40 68 41 69 42 70 43 71 66 72 67 73 75 74 68 75
REMARK SMILES IDX 74 76 69 77 70 78 71 79 72 80 73 81 52 82 53 83 61 84 54 85
REMARK SMILES IDX 60 86 55 87 56 88 57 89 58 90 59 91
REMARK H PARENT 10 15 80 47 50 58
REMARK Flexibility Score: inf
ROOT
ATOM      1  C   UNL A   1      33.216  28.126  26.633  1.00  0.00     0.275 C 
ENDROOT
BRANCH   1   2
ATOM      2  O   UNL A   1      34.020  27.035  26.149  1.00  0.00    -0.458 OA
BRANCH   2   3
ATOM      3  C   UNL A   1      33.474  26.281  25.166  1.00  0.00     0.342 C 
ATOM      4  O   UNL A   1      33.498  26.510  23.969  1.00  0.00    -0.246 OA
BRANCH   3   5
ATOM      5  C   UNL A   1      32.809  25.122  25.789  1.00  0.00     0.102 A 
ATOM      6  C   UNL A   1      33.189  22.958  26.890  1.00  0.00    -0.028 A 
ATOM      7  C   UNL A   1      31.806  22.823  27.030  1.00  0.00     0.009 A 
ATOM      8  C   UNL A   1      33.674  24.095  26.231  1.00  0.00     0.025 A 
ATOM      9  C   UNL A   1      30.947  23.836  26.593  1.00  0.00     0.047 A 
ATOM     10  C   UNL A   1      31.429  25.013  25.995  1.00  0.00     0.133 A 
BRANCH   6  11
ATOM     11  C   UNL A   1      34.119  21.950  27.516  1.00  0.00     0.152 C 
BRANCH  11  12
ATOM     12  N   UNL A   1      35.226  21.570  26.670  1.00  0.00    -0.348 N 
ATOM     13  C   UNL A   1      35.378  20.932  25.471  1.00  0.00     0.251 C 
ATOM     14  O   UNL A   1      36.494  21.049  24.952  1.00  0.00    -0.269 OA
ATOM     15  H   UNL A   1      36.090  21.840  27.054  1.00  0.00     0.164 HD
BRANCH  13  16
ATOM     16  C   UNL A   1      34.354  20.105  24.758  1.00  0.00     0.043 A 
ATOM     17  C   UNL A   1      33.360  18.054  23.889  1.00  0.00     0.119 A 
ATOM     18  C   UNL A   1      32.350  18.793  23.273  1.00  0.00     0.046 A 
ATOM     19  C   UNL A   1      34.355  18.712  24.626  1.00  0.00     0.060 A 
ATOM     20  C   UNL A   1      32.320  20.176  23.397  1.00  0.00     0.005 A 
ATOM     21  C   UNL A   1      33.310  20.822  24.137  1.00  0.00     0.014 A 
BRANCH  17  22
ATOM     22  O   UNL A   1      33.270  16.703  23.685  1.00  0.00    -0.497 OA
ATOM     23  C   UNL A   1      33.188  15.870  24.834  1.00  0.00     0.278 C 
ENDBRANCH  17  22
ENDBRANCH  13  16
ENDBRANCH  11  12
ENDBRANCH   6  11
BRANCH  10  24
ATOM     24  O   UNL A   1      30.404  25.855  25.680  1.00  0.00    -0.496 OA
ATOM     25  C   UNL A   1      29.922  25.972  24.354  1.00  0.00     0.278 C 
ENDBRANCH  10  24
ENDBRANCH   3   5
ENDBRANCH   2   3
ENDBRANCH   1   2
BRANCH   1  26
ATOM     26  C   UNL A   1      33.989  29.437  26.473  1.00  0.00     0.275 C 
BRANCH  26  27
ATOM     27  O   UNL A   1      33.865  30.236  27.665  1.00  0.00    -0.458 OA
BRANCH  27  28
ATOM     28  C   UNL A   1      34.758  31.258  27.758  1.00  0.00     0.338 C 
ATOM     29  O   UNL A   1      34.581  32.413  27.427  1.00  0.00    -0.246 OA
BRANCH  28  30
ATOM     30  C   UNL A   1      35.960  30.790  28.483  1.00  0.00     0.060 A 
ATOM     31  C   UNL A   1      37.167  31.453  28.235  1.00  0.00     0.016 A 
ATOM     32  C   UNL A   1      35.914  29.735  29.397  1.00  0.00     0.016 A 
ATOM     33  C   UNL A   1      38.321  31.091  28.929  1.00  0.00     0.010 A 
ATOM     34  C   UNL A   1      37.081  29.347  30.066  1.00  0.00     0.010 A 
ATOM     35  C   UNL A   1      38.289  30.025  29.836  1.00  0.00    -0.014 A 
BRANCH  35  36
ATOM     36  C   UNL A   1      39.550  29.550  30.453  1.00  0.00     0.031 A 
ATOM     37  C   UNL A   1      40.054  30.233  31.690  1.00  0.00     0.074 A 
ATOM     38  C   UNL A   1      40.231  28.515  29.929  1.00  0.00     0.049 A 
ATOM     39  N   UNL A   1      41.112  29.964  32.409  1.00  0.00    -0.248 NA
ATOM     40  C   UNL A   1      39.255  31.366  32.182  1.00  0.00     0.031 C 
ATOM     41  C   UNL A   1      39.825  27.746  28.755  1.00  0.00     0.029 A 
ATOM     42  N   UNL A   1      41.413  27.936  30.319  1.00  0.00    -0.354 N 
ATOM     43  C   UNL A   1      41.099  30.882  33.451  1.00  0.00     0.074 A 
ATOM     44  C   UNL A   1      39.945  31.733  33.252  1.00  0.00     0.031 C 
ATOM     45  C   UNL A   1      40.747  26.798  28.514  1.00  0.00     0.029 A 
ATOM     46  C   UNL A   1      41.821  26.909  29.500  1.00  0.00     0.049 A 
ATOM     47  H   UNL A   1      41.920  28.226  31.111  1.00  0.00     0.167 HD
ATOM     48  C   UNL A   1      41.971  31.007  34.480  1.00  0.00     0.031 A 
ATOM     49  C   UNL A   1      42.938  26.157  29.532  1.00  0.00     0.031 A 
ATOM     50  C   UNL A   1      43.156  30.208  34.637  1.00  0.00     0.049 A 
ATOM     51  C   UNL A   1      43.949  26.383  30.627  1.00  0.00     0.074 A 
ATOM     52  C   UNL A   1      44.110  30.271  35.637  1.00  0.00     0.029 A 
ATOM     53  N   UNL A   1      43.563  29.215  33.758  1.00  0.00    -0.354 N 
ATOM     54  N   UNL A   1      43.902  27.227  31.630  1.00  0.00    -0.248 NA
ATOM     55  C   UNL A   1      45.159  25.549  30.598  1.00  0.00     0.031 C 
ATOM     56  C   UNL A   1      45.127  29.361  35.328  1.00  0.00     0.029 A 
ATOM     57  C   UNL A   1      44.772  28.682  34.173  1.00  0.00     0.049 A 
ATOM     58  H   UNL A   1      43.066  28.932  32.957  1.00  0.00     0.167 HD
ATOM     59  C   UNL A   1      45.064  27.008  32.365  1.00  0.00     0.074 A 
ATOM     60  C   UNL A   1      45.787  25.945  31.698  1.00  0.00     0.031 C 
ATOM     61  C   UNL A   1      45.488  27.629  33.495  1.00  0.00     0.031 A 
BRANCH  48  62
ATOM     62  C   UNL A   1      41.689  32.097  35.478  1.00  0.00    -0.014 A 
ATOM     63  C   UNL A   1      40.853  31.868  36.586  1.00  0.00     0.010 A 
ATOM     64  C   UNL A   1      42.258  33.369  35.298  1.00  0.00     0.010 A 
ATOM     65  C   UNL A   1      40.547  32.909  37.466  1.00  0.00     0.020 A 
ATOM     66  C   UNL A   1      41.976  34.407  36.191  1.00  0.00     0.020 A 
ATOM     67  C   UNL A   1      41.104  34.175  37.257  1.00  0.00     0.054 A 
BRANCH  67  68
ATOM     68  S   UNL A   1      40.678  35.514  38.402  1.00  0.00     0.124 S 
ATOM     69  O   UNL A   1      39.217  35.457  38.402  1.00  0.00    -0.237 OA
ATOM     70  O   UNL A   1      41.321  35.092  39.644  1.00  0.00    -0.237 OA
ATOM     71  O   UNL A   1      41.253  36.702  37.777  1.00  0.00    -0.744 OA
ENDBRANCH  67  68
ENDBRANCH  48  62
BRANCH  49  72
ATOM     72  C   UNL A   1      43.171  25.128  28.480  1.00  0.00    -0.014 A 
ATOM     73  C   UNL A   1      42.620  23.841  28.595  1.00  0.00     0.010 A 
ATOM     74  C   UNL A   1      43.945  25.441  27.346  1.00  0.00     0.010 A 
ATOM     75  C   UNL A   1      42.845  22.882  27.601  1.00  0.00     0.020 A 
ATOM     76  C   UNL A   1      44.152  24.495  26.339  1.00  0.00     0.020 A 
ATOM     77  C   UNL A   1      43.606  23.217  26.476  1.00  0.00     0.054 A 
BRANCH  77  78
ATOM     78  S   UNL A   1      43.833  21.979  25.170  1.00  0.00     0.124 S 
ATOM     79  O   UNL A   1      43.470  22.730  23.972  1.00  0.00    -0.237 OA
ATOM     80  O   UNL A   1      45.247  21.638  25.300  1.00  0.00    -0.237 OA
ATOM     81  O   UNL A   1      42.906  20.912  25.545  1.00  0.00    -0.744 OA
ENDBRANCH  77  78
ENDBRANCH  49  72
BRANCH  61  82
ATOM     82  C   UNL A   1      46.785  27.160  34.105  1.00  0.00    -0.014 A 
ATOM     83  C   UNL A   1      46.821  26.097  35.023  1.00  0.00     0.010 A 
ATOM     84  C   UNL A   1      47.995  27.754  33.698  1.00  0.00     0.010 A 
ATOM     85  C   UNL A   1      48.040  25.653  35.544  1.00  0.00     0.020 A 
ATOM     86  C   UNL A   1      49.218  27.295  34.194  1.00  0.00     0.020 A 
ATOM     87  C   UNL A   1      49.231  26.253  35.124  1.00  0.00     0.054 A 
BRANCH  87  88
ATOM     88  S   UNL A   1      50.805  25.624  35.773  1.00  0.00     0.124 S 
ATOM     89  O   UNL A   1      51.728  25.934  34.685  1.00  0.00    -0.237 OA
ATOM     90  O   UNL A   1      50.985  26.407  36.993  1.00  0.00    -0.237 OA
ATOM     91  O   UNL A   1      50.548  24.202  35.986  1.00  0.00    -0.744 OA
ENDBRANCH  87  88
ENDBRANCH  61  82
ENDBRANCH  35  36
ENDBRANCH  28  30
ENDBRANCH  27  28
ENDBRANCH  26  27
ENDBRANCH   1  26
TORSDOF 19
ENDMDL
MODEL 3
REMARK VINA RESULT:     -10.0      2.434      3.129
REMARK SMILES COc1cccc(C(=O)NCc2ccc(OC)c(C(=O)OCCOC(=O)c3ccc(-c4c5nc(c(-c6ccc(S(=O)(=O)[O-])cc6)c6ccc([nH]6)c(-c6ccc(S(=O)(=O)[O-])cc6)c6nc(c(-c7ccc(S(=O)(=O)[O-])cc7)c7ccc4[nH]7)C=C6)C=C5)cc3)c2)c1
REMARK SMILES IDX 22 1 21 2 19 3 20 4 18 5 12 6 13 7 87 8 14 9 15 10 11 11
REMARK SMILES IDX 10 12 8 13 9 14 7 16 3 17 4 18 88 19 5 20 6 21 2 22 1 23
REMARK SMILES IDX 16 24 17 25 23 26 24 27 25 28 26 29 27 30 28 31 86 32 29 33
REMARK SMILES IDX 85 34 30 35 31 36 32 37 79 38 33 39 84 40 78 41 80 42 34 43
REMARK SMILES IDX 83 44 77 45 76 46 35 48 65 49 46 50 64 51 47 52 50 53 63 54
REMARK SMILES IDX 81 55 48 56 49 57 62 59 82 60 51 61 36 62 37 63 45 64 38 65
REMARK SMILES IDX 44 66 39 67 40 68 41 69 42 70 43 71 66 72 67 73 75 74 68 75
REMARK SMILES IDX 74 76 69 77 70 78 71 79 72 80 73 81 52 82 53 83 61 84 54 85
REMARK SMILES IDX 60 86 55 87 56 88 57 89 58 90 59 91
REMARK H PARENT 10 15 80 47 50 58
REMARK Flexibility Score: inf
ROOT
ATOM      1  C   UNL A   1      32.585  28.749  25.026  1.00  0.00     0.275 C 
ENDROOT
BRANCH   1   2
ATOM      2  O   UNL A   1      32.823  27.581  25.832  1.00  0.00    -0.458 OA
BRANCH   2   3
ATOM      3  C   UNL A   1      31.727  26.981  26.352  1.00  0.00     0.342 C 
ATOM      4  O   UNL A   1      31.052  27.375  27.286  1.00  0.00    -0.246 OA
BRANCH   3   5
ATOM      5  C   UNL A   1      31.486  25.732  25.605  1.00  0.00     0.102 A 
ATOM      6  C   UNL A   1      31.743  23.289  25.669  1.00  0.00    -0.028 A 
ATOM      7  C   UNL A   1      31.133  23.225  24.414  1.00  0.00     0.009 A 
ATOM      8  C   UNL A   1      31.949  24.554  26.235  1.00  0.00     0.025 A 
ATOM      9  C   UNL A   1      30.675  24.389  23.789  1.00  0.00     0.047 A 
ATOM     10  C   UNL A   1      30.813  25.656  24.382  1.00  0.00     0.133 A 
BRANCH   6  11
ATOM     11  C   UNL A   1      32.079  22.024  26.417  1.00  0.00     0.152 C 
BRANCH  11  12
ATOM     12  N   UNL A   1      32.355  20.894  25.561  1.00  0.00    -0.348 N 
ATOM     13  C   UNL A   1      33.447  20.391  24.912  1.00  0.00     0.251 C 
ATOM     14  O   UNL A   1      33.324  19.234  24.496  1.00  0.00    -0.269 OA
ATOM     15  H   UNL A   1      31.552  20.348  25.405  1.00  0.00     0.164 HD
BRANCH  13  16
ATOM     16  C   UNL A   1      34.738  21.101  24.644  1.00  0.00     0.043 A 
ATOM     17  C   UNL A   1      37.130  21.527  24.854  1.00  0.00     0.119 A 
ATOM     18  C   UNL A   1      37.005  22.670  24.065  1.00  0.00     0.046 A 
ATOM     19  C   UNL A   1      35.998  20.750  25.140  1.00  0.00     0.060 A 
ATOM     20  C   UNL A   1      35.767  23.035  23.553  1.00  0.00     0.005 A 
ATOM     21  C   UNL A   1      34.648  22.254  23.837  1.00  0.00     0.014 A 
BRANCH  17  22
ATOM     22  O   UNL A   1      38.405  21.286  25.294  1.00  0.00    -0.497 OA
ATOM     23  C   UNL A   1      38.968  22.213  26.212  1.00  0.00     0.278 C 
ENDBRANCH  17  22
ENDBRANCH  13  16
ENDBRANCH  11  12
ENDBRANCH   6  11
BRANCH  10  24
ATOM     24  O   UNL A   1      30.266  26.625  23.594  1.00  0.00    -0.496 OA
ATOM     25  C   UNL A   1      30.885  27.035  22.389  1.00  0.00     0.278 C 
ENDBRANCH  10  24
ENDBRANCH   3   5
ENDBRANCH   2   3
ENDBRANCH   1   2
BRANCH   1  26
ATOM     26  C   UNL A   1      32.785  30.005  25.878  1.00  0.00     0.275 C 
BRANCH  26  27
ATOM     27  O   UNL A   1      33.758  29.754  26.911  1.00  0.00    -0.458 OA
BRANCH  27  28
ATOM     28  C   UNL A   1      34.280  30.874  27.482  1.00  0.00     0.338 C 
ATOM     29  O   UNL A   1      33.782  31.982  27.501  1.00  0.00    -0.246 OA
BRANCH  28  30
ATOM     30  C   UNL A   1      35.501  30.513  28.236  1.00  0.00     0.060 A 
ATOM     31  C   UNL A   1      36.715  31.058  27.804  1.00  0.00     0.016 A 
ATOM     32  C   UNL A   1      35.467  29.670  29.350  1.00  0.00     0.016 A 
ATOM     33  C   UNL A   1      37.890  30.797  28.507  1.00  0.00     0.010 A 
ATOM     34  C   UNL A   1      36.653  29.377  30.033  1.00  0.00     0.010 A 
ATOM     35  C   UNL A   1      37.869  29.941  29.616  1.00  0.00    -0.014 A 
BRANCH  35  36
ATOM     36  C   UNL A   1      39.143  29.549  30.262  1.00  0.00     0.031 A 
ATOM     37  C   UNL A   1      39.592  30.289  31.488  1.00  0.00     0.074 A 
ATOM     38  C   UNL A   1      39.885  28.539  29.775  1.00  0.00     0.049 A 
ATOM     39  N   UNL A   1      40.651  30.094  32.229  1.00  0.00    -0.248 NA
ATOM     40  C   UNL A   1      38.728  31.390  31.939  1.00  0.00     0.031 C 
ATOM     41  C   UNL A   1      39.538  27.720  28.616  1.00  0.00     0.029 A 
ATOM     42  N   UNL A   1      41.089  28.032  30.196  1.00  0.00    -0.354 N 
ATOM     43  C   UNL A   1      40.575  31.036  33.246  1.00  0.00     0.074 A 
ATOM     44  C   UNL A   1      39.380  31.820  33.009  1.00  0.00     0.031 C 
ATOM     45  C   UNL A   1      40.512  26.816  28.412  1.00  0.00     0.029 A 
ATOM     46  C   UNL A   1      41.563  27.008  29.410  1.00  0.00     0.049 A 
ATOM     47  H   UNL A   1      41.569  28.369  30.988  1.00  0.00     0.167 HD
ATOM     48  C   UNL A   1      41.422  31.232  34.283  1.00  0.00     0.031 A 
ATOM     49  C   UNL A   1      42.718  26.317  29.478  1.00  0.00     0.031 A 
ATOM     50  C   UNL A   1      42.645  30.500  34.478  1.00  0.00     0.049 A 
ATOM     51  C   UNL A   1      43.699  26.623  30.580  1.00  0.00     0.074 A 
ATOM     52  C   UNL A   1      43.579  30.639  35.489  1.00  0.00     0.029 A 
ATOM     53  N   UNL A   1      43.117  29.508  33.631  1.00  0.00    -0.354 N 
ATOM     54  N   UNL A   1      43.592  27.488  31.560  1.00  0.00    -0.248 NA
ATOM     55  C   UNL A   1      44.951  25.853  30.590  1.00  0.00     0.031 C 
ATOM     56  C   UNL A   1      44.647  29.776  35.219  1.00  0.00     0.029 A 
ATOM     57  C   UNL A   1      44.346  29.050  34.076  1.00  0.00     0.049 A 
ATOM     58  H   UNL A   1      42.648  29.180  32.831  1.00  0.00     0.167 HD
ATOM     59  C   UNL A   1      44.752  27.350  32.317  1.00  0.00     0.074 A 
ATOM     60  C   UNL A   1      45.540  26.310  31.688  1.00  0.00     0.031 C 
ATOM     61  C   UNL A   1      45.126  28.020  33.436  1.00  0.00     0.031 A 
BRANCH  48  62
ATOM     62  C   UNL A   1      41.069  32.330  35.249  1.00  0.00    -0.014 A 
ATOM     63  C   UNL A   1      41.493  33.654  35.031  1.00  0.00     0.010 A 
ATOM     64  C   UNL A   1      40.311  32.032  36.395  1.00  0.00     0.010 A 
ATOM     65  C   UNL A   1      41.214  34.648  35.972  1.00  0.00     0.020 A 
ATOM     66  C   UNL A   1      40.007  33.029  37.325  1.00  0.00     0.020 A 
ATOM     67  C   UNL A   1      40.480  34.327  37.118  1.00  0.00     0.054 A 
BRANCH  67  68
ATOM     68  S   UNL A   1      40.146  35.631  38.332  1.00  0.00     0.124 S 
ATOM     69  O   UNL A   1      41.385  35.646  39.106  1.00  0.00    -0.237 OA
ATOM     70  O   UNL A   1      39.917  36.803  37.490  1.00  0.00    -0.237 OA
ATOM     71  O   UNL A   1      38.970  35.144  39.051  1.00  0.00    -0.744 OA
ENDBRANCH  67  68
ENDBRANCH  48  62
BRANCH  49  72
ATOM     72  C   UNL A   1      43.020  25.275  28.455  1.00  0.00    -0.014 A 
ATOM     73  C   UNL A   1      42.588  23.950  28.627  1.00  0.00     0.010 A 
ATOM     74  C   UNL A   1      43.740  25.615  27.295  1.00  0.00     0.010 A 
ATOM     75  C   UNL A   1      42.878  22.979  27.661  1.00  0.00     0.020 A 
ATOM     76  C   UNL A   1      44.010  24.655  26.315  1.00  0.00     0.020 A 
ATOM     77  C   UNL A   1      43.583  23.340  26.509  1.00  0.00     0.054 A 
BRANCH  77  78
ATOM     78  S   UNL A   1      43.893  22.080  25.240  1.00  0.00     0.124 S 
ATOM     79  O   UNL A   1      45.257  21.665  25.550  1.00  0.00    -0.237 OA
ATOM     80  O   UNL A   1      42.852  21.093  25.516  1.00  0.00    -0.237 OA
ATOM     81  O   UNL A   1      43.729  22.810  23.985  1.00  0.00    -0.744 OA
ENDBRANCH  77  78
ENDBRANCH  49  72
BRANCH  61  82
ATOM     82  C   UNL A   1      46.436  27.635  34.076  1.00  0.00    -0.014 A 
ATOM     83  C   UNL A   1      46.507  26.623  35.049  1.00  0.00     0.010 A 
ATOM     84  C   UNL A   1      47.624  28.254  33.645  1.00  0.00     0.010 A 
ATOM     85  C   UNL A   1      47.739  26.256  35.598  1.00  0.00     0.020 A 
ATOM     86  C   UNL A   1      48.861  27.870  34.170  1.00  0.00     0.020 A 
ATOM     87  C   UNL A   1      48.909  26.880  35.153  1.00  0.00     0.054 A 
BRANCH  87  88
ATOM     88  S   UNL A   1      50.502  26.349  35.843  1.00  0.00     0.124 S 
ATOM     89  O   UNL A   1      50.083  25.488  36.945  1.00  0.00    -0.237 OA
ATOM     90  O   UNL A   1      51.128  25.665  34.714  1.00  0.00    -0.237 OA
ATOM     91  O   UNL A   1      51.143  27.601  36.238  1.00  0.00    -0.744 OA
ENDBRANCH  87  88
ENDBRANCH  61  82
ENDBRANCH  35  36
ENDBRANCH  28  30
ENDBRANCH  27  28
ENDBRANCH  26  27
ENDBRANCH   1  26
TORSDOF 19
ENDMDL
