MODEL 1
REMARK VINA RESULT:     -11.3      0.000      0.000
REMARK SMILES Cc1cc(OC(F)(F)F)cc2c1O[C@@H](C(F)(F)F)C(C(=O)OCCOC(=O)c1ccc(-c3c4nc(c(-c5ccc(S(=O)(=O)[O-])cc5)c5ccc([nH]5)c(-c5ccc(S(=O)(=O)[O-])cc5)c5nc(c(-c6ccc(S(=O)(=O)[O-])cc6)c6ccc3[nH]6)C=C5)C=C4)cc1)=C2
REMARK SMILES IDX 24 1 23 2 22 3 20 4 21 5 19 6 1 7 2 8 3 9 12 10 4 11 11 12
REMARK SMILES IDX 13 13 10 14 88 15 14 16 5 17 6 18 7 19 8 20 9 21 15 22 16 23
REMARK SMILES IDX 17 24 18 25 25 26 26 27 27 28 28 29 29 30 87 31 30 32 86 33
REMARK SMILES IDX 31 34 32 35 33 36 80 37 34 38 85 39 79 40 81 41 35 42 84 43
REMARK SMILES IDX 78 44 77 45 36 47 66 48 47 49 65 50 48 51 51 52 64 53 82 54
REMARK SMILES IDX 49 55 50 56 63 58 83 59 52 60 37 61 38 62 46 63 39 64 45 65
REMARK SMILES IDX 40 66 41 67 42 68 43 69 44 70 67 71 68 72 76 73 69 74 75 75
REMARK SMILES IDX 70 76 71 77 72 78 73 79 74 80 53 81 54 82 62 83 55 84 61 85
REMARK SMILES IDX 56 86 57 87 58 88 59 89 60 90
REMARK H PARENT 81 46 51 57
REMARK Flexibility Score: inf
ROOT
ATOM      1  C   UNL A   1      34.406  31.207  27.591  1.00  0.00     0.275 C 
ENDROOT
BRANCH   1   2
ATOM      2  C   UNL A   1      33.122  30.577  27.055  1.00  0.00     0.275 C 
BRANCH   2   3
ATOM      3  O   UNL A   1      33.405  29.733  25.918  1.00  0.00    -0.459 OA
BRANCH   3   4
ATOM      4  C   UNL A   1      32.321  29.244  25.277  1.00  0.00     0.338 C 
ATOM      5  O   UNL A   1      31.307  29.867  25.003  1.00  0.00    -0.246 OA
BRANCH   4   6
ATOM      6  C   UNL A   1      32.529  27.833  24.898  1.00  0.00     0.087 C 
ATOM      7  C   UNL A   1      33.178  23.593  22.033  1.00  0.00     0.048 C 
ATOM      8  C   UNL A   1      33.690  24.129  23.340  1.00  0.00    -0.005 A 
ATOM      9  C   UNL A   1      34.596  23.340  24.080  1.00  0.00     0.054 A 
ATOM     10  C   UNL A   1      33.294  25.374  23.847  1.00  0.00     0.131 A 
ATOM     11  C   UNL A   1      35.114  23.787  25.296  1.00  0.00     0.130 A 
ATOM     12  C   UNL A   1      33.822  25.828  25.057  1.00  0.00     0.021 A 
ATOM     13  O   UNL A   1      32.442  26.143  23.090  1.00  0.00    -0.475 OA
ATOM     14  C   UNL A   1      34.716  25.032  25.783  1.00  0.00     0.058 A 
ATOM     15  C   UNL A   1      33.521  27.174  25.509  1.00  0.00     0.027 C 
ATOM     16  C   UNL A   1      31.744  27.231  23.769  1.00  0.00     0.316 C 
BRANCH  11  17
ATOM     17  O   UNL A   1      36.004  23.131  26.096  1.00  0.00    -0.406 OA
BRANCH  17  18
ATOM     18  C   UNL A   1      37.386  23.293  25.827  1.00  0.00     0.573 C 
ATOM     19  F   UNL A   1      38.056  22.138  26.025  1.00  0.00    -0.132 F 
ATOM     20  F   UNL A   1      37.587  23.711  24.557  1.00  0.00    -0.132 F 
ATOM     21  F   UNL A   1      37.892  24.226  26.660  1.00  0.00    -0.132 F 
ENDBRANCH  17  18
ENDBRANCH  11  17
BRANCH  16  22
ATOM     22  C   UNL A   1      30.299  26.814  24.109  1.00  0.00     0.430 C 
ATOM     23  F   UNL A   1      30.120  26.593  25.433  1.00  0.00    -0.167 F 
ATOM     24  F   UNL A   1      29.371  27.721  23.735  1.00  0.00    -0.167 F 
ATOM     25  F   UNL A   1      29.989  25.652  23.475  1.00  0.00    -0.167 F 
ENDBRANCH  16  22
ENDBRANCH   4   6
ENDBRANCH   3   4
ENDBRANCH   2   3
ENDBRANCH   1   2
BRANCH   1  26
ATOM     26  O   UNL A   1      35.081  30.279  28.460  1.00  0.00    -0.458 OA
BRANCH  26  27
ATOM     27  C   UNL A   1      36.031  30.808  29.265  1.00  0.00     0.338 C 
ATOM     28  O   UNL A   1      35.897  31.727  30.055  1.00  0.00    -0.246 OA
BRANCH  27  29
ATOM     29  C   UNL A   1      37.319  30.115  29.065  1.00  0.00     0.060 A 
ATOM     30  C   UNL A   1      38.105  29.748  30.155  1.00  0.00     0.016 A 
ATOM     31  C   UNL A   1      37.805  29.953  27.767  1.00  0.00     0.016 A 
ATOM     32  C   UNL A   1      39.423  29.337  29.956  1.00  0.00     0.010 A 
ATOM     33  C   UNL A   1      39.090  29.436  27.567  1.00  0.00     0.010 A 
ATOM     34  C   UNL A   1      39.933  29.170  28.659  1.00  0.00    -0.014 A 
BRANCH  34  35
ATOM     35  C   UNL A   1      41.350  28.762  28.442  1.00  0.00     0.031 A 
ATOM     36  C   UNL A   1      42.464  29.767  28.612  1.00  0.00     0.074 A 
ATOM     37  C   UNL A   1      41.650  27.490  28.108  1.00  0.00     0.049 A 
ATOM     38  N   UNL A   1      43.736  29.640  28.332  1.00  0.00    -0.248 NA
ATOM     39  C   UNL A   1      42.102  31.085  29.162  1.00  0.00     0.031 C 
ATOM     40  C   UNL A   1      40.681  26.401  27.954  1.00  0.00     0.029 A 
ATOM     41  N   UNL A   1      42.860  26.892  27.851  1.00  0.00    -0.354 N 
ATOM     42  C   UNL A   1      44.315  30.872  28.622  1.00  0.00     0.074 A 
ATOM     43  C   UNL A   1      43.257  31.735  29.097  1.00  0.00     0.031 C 
ATOM     44  C   UNL A   1      41.337  25.262  27.683  1.00  0.00     0.029 A 
ATOM     45  C   UNL A   1      42.762  25.551  27.559  1.00  0.00     0.049 A 
ATOM     46  H   UNL A   1      43.716  27.376  27.875  1.00  0.00     0.167 HD
ATOM     47  C   UNL A   1      45.610  31.248  28.506  1.00  0.00     0.031 A 
ATOM     48  C   UNL A   1      43.700  24.654  27.197  1.00  0.00     0.031 A 
ATOM     49  C   UNL A   1      46.671  30.376  28.080  1.00  0.00     0.049 A 
ATOM     50  C   UNL A   1      45.123  25.103  27.033  1.00  0.00     0.074 A 
ATOM     51  C   UNL A   1      48.018  30.667  27.943  1.00  0.00     0.029 A 
ATOM     52  N   UNL A   1      46.512  29.042  27.741  1.00  0.00    -0.354 N 
ATOM     53  N   UNL A   1      45.636  26.289  27.250  1.00  0.00    -0.248 NA
ATOM     54  C   UNL A   1      46.087  24.104  26.551  1.00  0.00     0.031 C 
ATOM     55  C   UNL A   1      48.669  29.517  27.488  1.00  0.00     0.029 A 
ATOM     56  C   UNL A   1      47.734  28.499  27.382  1.00  0.00     0.049 A 
ATOM     57  H   UNL A   1      45.658  28.552  27.755  1.00  0.00     0.167 HD
ATOM     58  C   UNL A   1      46.984  26.181  26.932  1.00  0.00     0.074 A 
ATOM     59  C   UNL A   1      47.211  24.810  26.522  1.00  0.00     0.031 C 
ATOM     60  C   UNL A   1      47.944  27.135  26.972  1.00  0.00     0.031 A 
BRANCH  47  61
ATOM     61  C   UNL A   1      45.965  32.675  28.824  1.00  0.00    -0.014 A 
ATOM     62  C   UNL A   1      46.402  33.048  30.106  1.00  0.00     0.010 A 
ATOM     63  C   UNL A   1      45.944  33.638  27.799  1.00  0.00     0.010 A 
ATOM     64  C   UNL A   1      46.798  34.364  30.361  1.00  0.00     0.020 A 
ATOM     65  C   UNL A   1      46.358  34.951  28.044  1.00  0.00     0.020 A 
ATOM     66  C   UNL A   1      46.779  35.305  29.326  1.00  0.00     0.054 A 
BRANCH  66  67
ATOM     67  S   UNL A   1      47.335  36.996  29.682  1.00  0.00     0.124 S 
ATOM     68  O   UNL A   1      47.565  37.531  28.341  1.00  0.00    -0.237 OA
ATOM     69  O   UNL A   1      46.191  37.559  30.395  1.00  0.00    -0.237 OA
ATOM     70  O   UNL A   1      48.539  36.806  30.487  1.00  0.00    -0.744 OA
ENDBRANCH  66  67
ENDBRANCH  47  61
BRANCH  48  71
ATOM     71  C   UNL A   1      43.301  23.247  26.931  1.00  0.00    -0.014 A 
ATOM     72  C   UNL A   1      43.276  22.753  25.616  1.00  0.00     0.010 A 
ATOM     73  C   UNL A   1      43.008  22.378  27.998  1.00  0.00     0.010 A 
ATOM     74  C   UNL A   1      42.981  21.407  25.373  1.00  0.00     0.020 A 
ATOM     75  C   UNL A   1      42.735  21.028  27.761  1.00  0.00     0.020 A 
ATOM     76  C   UNL A   1      42.727  20.551  26.449  1.00  0.00     0.054 A 
BRANCH  76  77
ATOM     77  S   UNL A   1      42.430  18.793  26.109  1.00  0.00     0.124 S 
ATOM     78  O   UNL A   1      42.677  18.182  27.411  1.00  0.00    -0.237 OA
ATOM     79  O   UNL A   1      41.038  18.796  25.664  1.00  0.00    -0.237 OA
ATOM     80  O   UNL A   1      43.408  18.473  25.072  1.00  0.00    -0.744 OA
ENDBRANCH  76  77
ENDBRANCH  48  71
BRANCH  60  81
ATOM     81  C   UNL A   1      49.337  26.748  26.568  1.00  0.00    -0.014 A 
ATOM     82  C   UNL A   1      50.231  26.214  27.511  1.00  0.00     0.010 A 
ATOM     83  C   UNL A   1      49.713  26.807  25.214  1.00  0.00     0.010 A 
ATOM     84  C   UNL A   1      51.480  25.738  27.105  1.00  0.00     0.020 A 
ATOM     85  C   UNL A   1      50.954  26.318  24.802  1.00  0.00     0.020 A 
ATOM     86  C   UNL A   1      51.829  25.784  25.751  1.00  0.00     0.054 A 
BRANCH  86  87
ATOM     87  S   UNL A   1      53.428  25.091  25.246  1.00  0.00     0.124 S 
ATOM     88  O   UNL A   1      53.181  23.654  25.334  1.00  0.00    -0.237 OA
ATOM     89  O   UNL A   1      53.586  25.621  23.894  1.00  0.00    -0.237 OA
ATOM     90  O   UNL A   1      54.365  25.620  26.234  1.00  0.00    -0.744 OA
ENDBRANCH  86  87
ENDBRANCH  60  81
ENDBRANCH  34  35
ENDBRANCH  27  29
ENDBRANCH  26  27
ENDBRANCH   1  26
TORSDOF 17
ENDMDL
MODEL 2
REMARK VINA RESULT:     -11.3      2.449      3.095
REMARK SMILES Cc1cc(OC(F)(F)F)cc2c1O[C@@H](C(F)(F)F)C(C(=O)OCCOC(=O)c1ccc(-c3c4nc(c(-c5ccc(S(=O)(=O)[O-])cc5)c5ccc([nH]5)c(-c5ccc(S(=O)(=O)[O-])cc5)c5nc(c(-c6ccc(S(=O)(=O)[O-])cc6)c6ccc3[nH]6)C=C5)C=C4)cc1)=C2
REMARK SMILES IDX 24 1 23 2 22 3 20 4 21 5 19 6 1 7 2 8 3 9 12 10 4 11 11 12
REMARK SMILES IDX 13 13 10 14 88 15 14 16 5 17 6 18 7 19 8 20 9 21 15 22 16 23
REMARK SMILES IDX 17 24 18 25 25 26 26 27 27 28 28 29 29 30 87 31 30 32 86 33
REMARK SMILES IDX 31 34 32 35 33 36 80 37 34 38 85 39 79 40 81 41 35 42 84 43
REMARK SMILES IDX 78 44 77 45 36 47 66 48 47 49 65 50 48 51 51 52 64 53 82 54
REMARK SMILES IDX 49 55 50 56 63 58 83 59 52 60 37 61 38 62 46 63 39 64 45 65
REMARK SMILES IDX 40 66 41 67 42 68 43 69 44 70 67 71 68 72 76 73 69 74 75 75
REMARK SMILES IDX 70 76 71 77 72 78 73 79 74 80 53 81 54 82 62 83 55 84 61 85
REMARK SMILES IDX 56 86 57 87 58 88 59 89 60 90
REMARK H PARENT 81 46 51 57
REMARK Flexibility Score: inf
ROOT
ATOM      1  C   UNL A   1      32.500  30.239  27.132  1.00  0.00     0.275 C 
ENDROOT
BRANCH   1   2
ATOM      2  C   UNL A   1      32.035  28.843  26.720  1.00  0.00     0.275 C 
BRANCH   2   3
ATOM      3  O   UNL A   1      31.655  28.823  25.327  1.00  0.00    -0.459 OA
BRANCH   3   4
ATOM      4  C   UNL A   1      32.627  28.449  24.467  1.00  0.00     0.338 C 
ATOM      5  O   UNL A   1      33.375  29.198  23.859  1.00  0.00    -0.246 OA
BRANCH   4   6
ATOM      6  C   UNL A   1      32.706  26.979  24.374  1.00  0.00     0.087 C 
ATOM      7  C   UNL A   1      32.664  22.201  22.429  1.00  0.00     0.048 C 
ATOM      8  C   UNL A   1      33.420  22.954  23.488  1.00  0.00    -0.005 A 
ATOM      9  C   UNL A   1      34.407  22.265  24.224  1.00  0.00     0.054 A 
ATOM     10  C   UNL A   1      33.170  24.303  23.770  1.00  0.00     0.131 A 
ATOM     11  C   UNL A   1      35.149  22.912  25.213  1.00  0.00     0.130 A 
ATOM     12  C   UNL A   1      33.922  24.955  24.751  1.00  0.00     0.021 A 
ATOM     13  O   UNL A   1      32.232  24.964  23.014  1.00  0.00    -0.475 OA
ATOM     14  C   UNL A   1      34.896  24.258  25.476  1.00  0.00     0.058 A 
ATOM     15  C   UNL A   1      33.761  26.384  24.944  1.00  0.00     0.027 C 
ATOM     16  C   UNL A   1      31.711  26.220  23.545  1.00  0.00     0.316 C 
BRANCH  11  17
ATOM     17  O   UNL A   1      36.138  22.367  25.980  1.00  0.00    -0.406 OA
BRANCH  17  18
ATOM     18  C   UNL A   1      37.244  21.776  25.320  1.00  0.00     0.573 C 
ATOM     19  F   UNL A   1      37.471  22.370  24.129  1.00  0.00    -0.132 F 
ATOM     20  F   UNL A   1      38.361  21.856  26.078  1.00  0.00    -0.132 F 
ATOM     21  F   UNL A   1      36.980  20.471  25.101  1.00  0.00    -0.132 F 
ENDBRANCH  17  18
ENDBRANCH  11  17
BRANCH  16  22
ATOM     22  C   UNL A   1      30.331  25.997  24.198  1.00  0.00     0.430 C 
ATOM     23  F   UNL A   1      29.484  27.032  23.989  1.00  0.00    -0.167 F 
ATOM     24  F   UNL A   1      29.701  24.883  23.767  1.00  0.00    -0.167 F 
ATOM     25  F   UNL A   1      30.469  25.873  25.545  1.00  0.00    -0.167 F 
ENDBRANCH  16  22
ENDBRANCH   4   6
ENDBRANCH   3   4
ENDBRANCH   2   3
ENDBRANCH   1   2
BRANCH   1  26
ATOM     26  O   UNL A   1      33.930  30.339  26.997  1.00  0.00    -0.458 OA
BRANCH  26  27
ATOM     27  C   UNL A   1      34.585  30.890  28.044  1.00  0.00     0.338 C 
ATOM     28  O   UNL A   1      34.210  31.821  28.737  1.00  0.00    -0.246 OA
BRANCH  27  29
ATOM     29  C   UNL A   1      35.873  30.205  28.262  1.00  0.00     0.060 A 
ATOM     30  C   UNL A   1      36.162  29.608  29.488  1.00  0.00     0.016 A 
ATOM     31  C   UNL A   1      36.856  30.281  27.275  1.00  0.00     0.016 A 
ATOM     32  C   UNL A   1      37.464  29.199  29.774  1.00  0.00     0.010 A 
ATOM     33  C   UNL A   1      38.133  29.769  27.525  1.00  0.00     0.010 A 
ATOM     34  C   UNL A   1      38.468  29.268  28.795  1.00  0.00    -0.014 A 
BRANCH  34  35
ATOM     35  C   UNL A   1      39.867  28.862  29.106  1.00  0.00     0.031 A 
ATOM     36  C   UNL A   1      40.787  29.808  29.841  1.00  0.00     0.074 A 
ATOM     37  C   UNL A   1      40.319  27.642  28.749  1.00  0.00     0.049 A 
ATOM     38  N   UNL A   1      42.070  29.692  30.075  1.00  0.00    -0.248 NA
ATOM     39  C   UNL A   1      40.192  31.045  30.375  1.00  0.00     0.031 C 
ATOM     40  C   UNL A   1      39.529  26.608  28.076  1.00  0.00     0.029 A 
ATOM     41  N   UNL A   1      41.551  27.058  28.916  1.00  0.00    -0.354 N 
ATOM     42  C   UNL A   1      42.443  30.858  30.736  1.00  0.00     0.074 A 
ATOM     43  C   UNL A   1      41.254  31.671  30.865  1.00  0.00     0.031 C 
ATOM     44  C   UNL A   1      40.277  25.503  27.936  1.00  0.00     0.029 A 
ATOM     45  C   UNL A   1      41.623  25.773  28.429  1.00  0.00     0.049 A 
ATOM     46  H   UNL A   1      42.310  27.515  29.344  1.00  0.00     0.167 HD
ATOM     47  C   UNL A   1      43.664  31.216  31.198  1.00  0.00     0.031 A 
ATOM     48  C   UNL A   1      42.659  24.914  28.352  1.00  0.00     0.031 A 
ATOM     49  C   UNL A   1      44.837  30.388  31.114  1.00  0.00     0.049 A 
ATOM     50  C   UNL A   1      44.013  25.348  28.830  1.00  0.00     0.074 A 
ATOM     51  C   UNL A   1      46.116  30.665  31.565  1.00  0.00     0.029 A 
ATOM     52  N   UNL A   1      44.871  29.118  30.562  1.00  0.00    -0.354 N 
ATOM     53  N   UNL A   1      44.357  26.481  29.393  1.00  0.00    -0.248 NA
ATOM     54  C   UNL A   1      45.123  24.404  28.640  1.00  0.00     0.031 C 
ATOM     55  C   UNL A   1      46.933  29.574  31.255  1.00  0.00     0.029 A 
ATOM     56  C   UNL A   1      46.152  28.603  30.648  1.00  0.00     0.049 A 
ATOM     57  H   UNL A   1      44.099  28.651  30.168  1.00  0.00     0.167 HD
ATOM     58  C   UNL A   1      45.723  26.387  29.625  1.00  0.00     0.074 A 
ATOM     59  C   UNL A   1      46.141  25.081  29.157  1.00  0.00     0.031 C 
ATOM     60  C   UNL A   1      46.555  27.304  30.173  1.00  0.00     0.031 A 
BRANCH  47  61
ATOM     61  C   UNL A   1      43.814  32.578  31.822  1.00  0.00    -0.014 A 
ATOM     62  C   UNL A   1      44.110  33.708  31.041  1.00  0.00     0.010 A 
ATOM     63  C   UNL A   1      43.568  32.739  33.198  1.00  0.00     0.010 A 
ATOM     64  C   UNL A   1      44.171  34.974  31.629  1.00  0.00     0.020 A 
ATOM     65  C   UNL A   1      43.608  34.006  33.786  1.00  0.00     0.020 A 
ATOM     66  C   UNL A   1      43.913  35.116  32.997  1.00  0.00     0.054 A 
BRANCH  66  67
ATOM     67  S   UNL A   1      43.965  36.779  33.721  1.00  0.00     0.124 S 
ATOM     68  O   UNL A   1      42.837  36.743  34.650  1.00  0.00    -0.237 OA
ATOM     69  O   UNL A   1      45.287  36.812  34.340  1.00  0.00    -0.237 OA
ATOM     70  O   UNL A   1      43.792  37.666  32.573  1.00  0.00    -0.744 OA
ENDBRANCH  66  67
ENDBRANCH  47  61
BRANCH  48  71
ATOM     71  C   UNL A   1      42.446  23.567  27.759  1.00  0.00    -0.014 A 
ATOM     72  C   UNL A   1      42.705  23.342  26.397  1.00  0.00     0.010 A 
ATOM     73  C   UNL A   1      42.048  22.489  28.571  1.00  0.00     0.010 A 
ATOM     74  C   UNL A   1      42.585  22.056  25.859  1.00  0.00     0.020 A 
ATOM     75  C   UNL A   1      41.948  21.199  28.042  1.00  0.00     0.020 A 
ATOM     76  C   UNL A   1      42.222  20.991  26.689  1.00  0.00     0.054 A 
BRANCH  76  77
ATOM     77  S   UNL A   1      42.156  19.321  25.981  1.00  0.00     0.124 S 
ATOM     78  O   UNL A   1      42.646  18.500  27.083  1.00  0.00    -0.237 OA
ATOM     79  O   UNL A   1      40.736  19.176  25.665  1.00  0.00    -0.237 OA
ATOM     80  O   UNL A   1      43.041  19.404  24.821  1.00  0.00    -0.744 OA
ENDBRANCH  76  77
ENDBRANCH  48  71
BRANCH  60  81
ATOM     81  C   UNL A   1      48.006  26.944  30.309  1.00  0.00    -0.014 A 
ATOM     82  C   UNL A   1      48.924  27.283  29.300  1.00  0.00     0.010 A 
ATOM     83  C   UNL A   1      48.473  26.370  31.505  1.00  0.00     0.010 A 
ATOM     84  C   UNL A   1      50.289  27.059  29.488  1.00  0.00     0.020 A 
ATOM     85  C   UNL A   1      49.839  26.159  31.702  1.00  0.00     0.020 A 
ATOM     86  C   UNL A   1      50.739  26.508  30.693  1.00  0.00     0.054 A 
BRANCH  86  87
ATOM     87  S   UNL A   1      52.524  26.298  30.934  1.00  0.00     0.124 S 
ATOM     88  O   UNL A   1      52.589  25.043  31.678  1.00  0.00    -0.237 OA
ATOM     89  O   UNL A   1      53.021  26.240  29.561  1.00  0.00    -0.237 OA
ATOM     90  O   UNL A   1      52.917  27.486  31.687  1.00  0.00    -0.744 OA
ENDBRANCH  86  87
ENDBRANCH  60  81
ENDBRANCH  34  35
ENDBRANCH  27  29
ENDBRANCH  26  27
ENDBRANCH   1  26
TORSDOF 17
ENDMDL
MODEL 3
REMARK VINA RESULT:     -11.1      2.560      4.711
REMARK SMILES Cc1cc(OC(F)(F)F)cc2c1O[C@@H](C(F)(F)F)C(C(=O)OCCOC(=O)c1ccc(-c3c4nc(c(-c5ccc(S(=O)(=O)[O-])cc5)c5ccc([nH]5)c(-c5ccc(S(=O)(=O)[O-])cc5)c5nc(c(-c6ccc(S(=O)(=O)[O-])cc6)c6ccc3[nH]6)C=C5)C=C4)cc1)=C2
REMARK SMILES IDX 24 1 23 2 22 3 20 4 21 5 19 6 1 7 2 8 3 9 12 10 4 11 11 12
REMARK SMILES IDX 13 13 10 14 88 15 14 16 5 17 6 18 7 19 8 20 9 21 15 22 16 23
REMARK SMILES IDX 17 24 18 25 25 26 26 27 27 28 28 29 29 30 87 31 30 32 86 33
REMARK SMILES IDX 31 34 32 35 33 36 80 37 34 38 85 39 79 40 81 41 35 42 84 43
REMARK SMILES IDX 78 44 77 45 36 47 66 48 47 49 65 50 48 51 51 52 64 53 82 54
REMARK SMILES IDX 49 55 50 56 63 58 83 59 52 60 37 61 38 62 46 63 39 64 45 65
REMARK SMILES IDX 40 66 41 67 42 68 43 69 44 70 67 71 68 72 76 73 69 74 75 75
REMARK SMILES IDX 70 76 71 77 72 78 73 79 74 80 53 81 54 82 62 83 55 84 61 85
REMARK SMILES IDX 56 86 57 87 58 88 59 89 60 90
REMARK H PARENT 81 46 51 57
REMARK Flexibility Score: inf
ROOT
ATOM      1  C   UNL A   1      32.783  29.632  27.105  1.00  0.00     0.275 C 
ENDROOT
BRANCH   1   2
ATOM      2  C   UNL A   1      33.172  28.188  26.789  1.00  0.00     0.275 C 
BRANCH   2   3
ATOM      3  O   UNL A   1      33.846  28.110  25.514  1.00  0.00    -0.459 OA
BRANCH   3   4
ATOM      4  C   UNL A   1      33.512  27.049  24.748  1.00  0.00     0.338 C 
ATOM      5  O   UNL A   1      34.201  26.060  24.551  1.00  0.00    -0.246 OA
BRANCH   4   6
ATOM      6  C   UNL A   1      32.157  27.212  24.188  1.00  0.00     0.087 C 
ATOM      7  C   UNL A   1      27.015  27.219  23.775  1.00  0.00     0.048 C 
ATOM      8  C   UNL A   1      28.161  28.063  23.292  1.00  0.00    -0.005 A 
ATOM      9  C   UNL A   1      27.874  29.187  22.490  1.00  0.00     0.054 A 
ATOM     10  C   UNL A   1      29.494  27.766  23.604  1.00  0.00     0.131 A 
ATOM     11  C   UNL A   1      28.894  30.015  22.019  1.00  0.00     0.130 A 
ATOM     12  C   UNL A   1      30.514  28.602  23.144  1.00  0.00     0.021 A 
ATOM     13  O   UNL A   1      29.747  26.689  24.420  1.00  0.00    -0.475 OA
ATOM     14  C   UNL A   1      30.215  29.711  22.346  1.00  0.00     0.058 A 
ATOM     15  C   UNL A   1      31.879  28.374  23.585  1.00  0.00     0.027 C 
ATOM     16  C   UNL A   1      31.110  26.164  24.429  1.00  0.00     0.316 C 
BRANCH  11  17
ATOM     17  O   UNL A   1      28.749  31.135  21.253  1.00  0.00    -0.406 OA
BRANCH  17  18
ATOM     18  C   UNL A   1      28.260  32.310  21.877  1.00  0.00     0.573 C 
ATOM     19  F   UNL A   1      29.271  33.043  22.390  1.00  0.00    -0.132 F 
ATOM     20  F   UNL A   1      27.560  33.068  21.002  1.00  0.00    -0.132 F 
ATOM     21  F   UNL A   1      27.432  31.963  22.884  1.00  0.00    -0.132 F 
ENDBRANCH  17  18
ENDBRANCH  11  17
BRANCH  16  22
ATOM     22  C   UNL A   1      31.208  24.907  23.540  1.00  0.00     0.430 C 
ATOM     23  F   UNL A   1      31.864  23.891  24.148  1.00  0.00    -0.167 F 
ATOM     24  F   UNL A   1      30.008  24.422  23.154  1.00  0.00    -0.167 F 
ATOM     25  F   UNL A   1      31.900  25.193  22.405  1.00  0.00    -0.167 F 
ENDBRANCH  16  22
ENDBRANCH   4   6
ENDBRANCH   3   4
ENDBRANCH   2   3
ENDBRANCH   1   2
BRANCH   1  26
ATOM     26  O   UNL A   1      33.930  30.490  26.962  1.00  0.00    -0.458 OA
BRANCH  26  27
ATOM     27  C   UNL A   1      34.518  30.886  28.114  1.00  0.00     0.338 C 
ATOM     28  O   UNL A   1      34.072  31.668  28.936  1.00  0.00    -0.246 OA
BRANCH  27  29
ATOM     29  C   UNL A   1      35.833  30.234  28.271  1.00  0.00     0.060 A 
ATOM     30  C   UNL A   1      36.258  29.782  29.519  1.00  0.00     0.016 A 
ATOM     31  C   UNL A   1      36.704  30.198  27.181  1.00  0.00     0.016 A 
ATOM     32  C   UNL A   1      37.589  29.412  29.708  1.00  0.00     0.010 A 
ATOM     33  C   UNL A   1      38.008  29.722  27.351  1.00  0.00     0.010 A 
ATOM     34  C   UNL A   1      38.482  29.371  28.627  1.00  0.00    -0.014 A 
BRANCH  34  35
ATOM     35  C   UNL A   1      39.913  29.007  28.831  1.00  0.00     0.031 A 
ATOM     36  C   UNL A   1      40.874  30.007  29.427  1.00  0.00     0.074 A 
ATOM     37  C   UNL A   1      40.357  27.777  28.500  1.00  0.00     0.049 A 
ATOM     38  N   UNL A   1      42.175  29.927  29.550  1.00  0.00    -0.248 NA
ATOM     39  C   UNL A   1      40.302  31.262  29.946  1.00  0.00     0.031 C 
ATOM     40  C   UNL A   1      39.533  26.694  27.958  1.00  0.00     0.029 A 
ATOM     41  N   UNL A   1      41.612  27.224  28.586  1.00  0.00    -0.354 N 
ATOM     42  C   UNL A   1      42.580  31.134  30.111  1.00  0.00     0.074 A 
ATOM     43  C   UNL A   1      41.390  31.932  30.303  1.00  0.00     0.031 C 
ATOM     44  C   UNL A   1      40.291  25.595  27.810  1.00  0.00     0.029 A 
ATOM     45  C   UNL A   1      41.669  25.915  28.164  1.00  0.00     0.049 A 
ATOM     46  H   UNL A   1      42.396  27.717  28.918  1.00  0.00     0.167 HD
ATOM     47  C   UNL A   1      43.829  31.538  30.440  1.00  0.00     0.031 A 
ATOM     48  C   UNL A   1      42.712  25.071  28.039  1.00  0.00     0.031 A 
ATOM     49  C   UNL A   1      45.007  30.727  30.295  1.00  0.00     0.049 A 
ATOM     50  C   UNL A   1      44.094  25.555  28.369  1.00  0.00     0.074 A 
ATOM     51  C   UNL A   1      46.316  31.050  30.613  1.00  0.00     0.029 A 
ATOM     52  N   UNL A   1      45.020  29.429  29.811  1.00  0.00    -0.354 N 
ATOM     53  N   UNL A   1      44.462  26.723  28.837  1.00  0.00    -0.248 NA
ATOM     54  C   UNL A   1      45.203  24.621  28.130  1.00  0.00     0.031 C 
ATOM     55  C   UNL A   1      47.125  29.958  30.289  1.00  0.00     0.029 A 
ATOM     56  C   UNL A   1      46.315  28.941  29.808  1.00  0.00     0.049 A 
ATOM     57  H   UNL A   1      44.226  28.928  29.514  1.00  0.00     0.167 HD
ATOM     58  C   UNL A   1      45.845  26.665  28.949  1.00  0.00     0.074 A 
ATOM     59  C   UNL A   1      46.248  25.343  28.515  1.00  0.00     0.031 C 
ATOM     60  C   UNL A   1      46.702  27.626  29.369  1.00  0.00     0.031 A 
BRANCH  47  61
ATOM     61  C   UNL A   1      44.004  32.934  30.974  1.00  0.00    -0.014 A 
ATOM     62  C   UNL A   1      44.183  34.027  30.109  1.00  0.00     0.010 A 
ATOM     63  C   UNL A   1      43.900  33.164  32.358  1.00  0.00     0.010 A 
ATOM     64  C   UNL A   1      44.268  35.325  30.622  1.00  0.00     0.020 A 
ATOM     65  C   UNL A   1      43.965  34.461  32.873  1.00  0.00     0.020 A 
ATOM     66  C   UNL A   1      44.153  35.534  32.000  1.00  0.00     0.054 A 
BRANCH  66  67
ATOM     67  S   UNL A   1      44.232  37.234  32.629  1.00  0.00     0.124 S 
ATOM     68  O   UNL A   1      43.117  37.263  33.574  1.00  0.00    -0.237 OA
ATOM     69  O   UNL A   1      45.563  37.287  33.226  1.00  0.00    -0.237 OA
ATOM     70  O   UNL A   1      44.051  38.057  31.435  1.00  0.00    -0.744 OA
ENDBRANCH  66  67
ENDBRANCH  47  61
BRANCH  48  71
ATOM     71  C   UNL A   1      42.477  23.690  27.542  1.00  0.00    -0.014 A 
ATOM     72  C   UNL A   1      42.585  23.401  26.171  1.00  0.00     0.010 A 
ATOM     73  C   UNL A   1      42.210  22.645  28.446  1.00  0.00     0.010 A 
ATOM     74  C   UNL A   1      42.447  22.087  25.714  1.00  0.00     0.020 A 
ATOM     75  C   UNL A   1      42.093  21.328  27.995  1.00  0.00     0.020 A 
ATOM     76  C   UNL A   1      42.216  21.057  26.631  1.00  0.00     0.054 A 
BRANCH  76  77
ATOM     77  S   UNL A   1      42.124  19.352  26.017  1.00  0.00     0.124 S 
ATOM     78  O   UNL A   1      42.991  19.400  24.845  1.00  0.00    -0.237 OA
ATOM     79  O   UNL A   1      42.635  18.587  27.153  1.00  0.00    -0.237 OA
ATOM     80  O   UNL A   1      40.702  19.163  25.737  1.00  0.00    -0.744 OA
ENDBRANCH  76  77
ENDBRANCH  48  71
BRANCH  60  81
ATOM     81  C   UNL A   1      48.167  27.299  29.391  1.00  0.00    -0.014 A 
ATOM     82  C   UNL A   1      49.015  27.748  28.365  1.00  0.00     0.010 A 
ATOM     83  C   UNL A   1      48.718  26.640  30.506  1.00  0.00     0.010 A 
ATOM     84  C   UNL A   1      50.394  27.549  28.456  1.00  0.00     0.020 A 
ATOM     85  C   UNL A   1      50.098  26.454  30.607  1.00  0.00     0.020 A 
ATOM     86  C   UNL A   1      50.928  26.913  29.582  1.00  0.00     0.054 A 
BRANCH  86  87
ATOM     87  S   UNL A   1      52.729  26.736  29.703  1.00  0.00     0.124 S 
ATOM     88  O   UNL A   1      53.171  28.128  29.761  1.00  0.00    -0.237 OA
ATOM     89  O   UNL A   1      52.887  25.975  30.941  1.00  0.00    -0.237 OA
ATOM     90  O   UNL A   1      53.093  26.021  28.483  1.00  0.00    -0.744 OA
ENDBRANCH  86  87
ENDBRANCH  60  81
ENDBRANCH  34  35
ENDBRANCH  27  29
ENDBRANCH  26  27
ENDBRANCH   1  26
TORSDOF 17
ENDMDL
