MODEL 1
REMARK VINA RESULT:     -11.4      0.000      0.000
REMARK SMILES O=C(OCCOC(=O)c1nn(-c2ccc(Br)cc2F)cc1CCCO)c1ccc(-c2c3nc(c(-c4ccc(S(=O)(=O)[O-])cc4)c4ccc([nH]4)c(-c4ccc(S(=O)(=O)[O-])cc4)c4nc(c(-c5ccc(S(=O)(=O)[O-])cc5)c5ccc2[nH]5)C=C4)C=C3)cc1
REMARK SMILES IDX 5 1 4 2 3 3 2 4 1 5 26 6 27 7 85 8 28 9 84 10 29 11 30 12
REMARK SMILES IDX 31 13 78 14 32 15 83 16 77 17 79 18 33 19 82 20 76 21 75 22
REMARK SMILES IDX 34 24 64 25 45 26 63 27 46 28 49 29 62 30 80 31 47 32 48 33
REMARK SMILES IDX 61 35 81 36 50 37 35 38 36 39 44 40 37 41 43 42 38 43 39 44
REMARK SMILES IDX 40 45 41 46 42 47 65 48 66 49 74 50 67 51 73 52 68 53 69 54
REMARK SMILES IDX 70 55 71 56 72 57 51 58 52 59 60 60 53 61 59 62 54 63 55 64
REMARK SMILES IDX 56 65 57 66 58 67 6 68 7 69 8 70 9 71 10 72 21 73 11 74
REMARK SMILES IDX 20 75 22 76 23 77 24 78 25 79 12 81 13 82 18 83 14 84 17 85
REMARK SMILES IDX 19 86 15 87 16 88
REMARK H PARENT 79 23 49 34 25 80
REMARK Flexibility Score: inf
ROOT
ATOM      1  C   UNL A   1      37.269  22.126  25.658  1.00  0.00     0.275 C 
ENDROOT
BRANCH   1   2
ATOM      2  C   UNL A   1      38.681  21.538  25.632  1.00  0.00     0.275 C 
BRANCH   2   3
ATOM      3  O   UNL A   1      39.345  21.868  26.852  1.00  0.00    -0.458 OA
BRANCH   3   4
ATOM      4  C   UNL A   1      40.605  22.318  26.739  1.00  0.00     0.338 C 
ATOM      5  O   UNL A   1      41.583  21.685  26.359  1.00  0.00    -0.246 OA
BRANCH   4   6
ATOM      6  C   UNL A   1      40.577  23.678  27.279  1.00  0.00     0.060 A 
ATOM      7  C   UNL A   1      41.538  24.059  28.221  1.00  0.00     0.016 A 
ATOM      8  C   UNL A   1      39.686  24.603  26.741  1.00  0.00     0.016 A 
ATOM      9  C   UNL A   1      41.586  25.379  28.642  1.00  0.00     0.010 A 
ATOM     10  C   UNL A   1      39.803  25.938  27.098  1.00  0.00     0.010 A 
ATOM     11  C   UNL A   1      40.708  26.324  28.089  1.00  0.00    -0.014 A 
BRANCH  11  12
ATOM     12  C   UNL A   1      40.748  27.691  28.607  1.00  0.00     0.031 A 
ATOM     13  C   UNL A   1      41.842  28.577  28.125  1.00  0.00     0.074 A 
ATOM     14  C   UNL A   1      39.870  28.182  29.506  1.00  0.00     0.049 A 
ATOM     15  N   UNL A   1      42.947  28.856  28.738  1.00  0.00    -0.248 NA
ATOM     16  C   UNL A   1      41.743  29.155  26.781  1.00  0.00     0.031 C 
ATOM     17  C   UNL A   1      38.599  27.614  29.963  1.00  0.00     0.029 A 
ATOM     18  N   UNL A   1      39.934  29.367  30.179  1.00  0.00    -0.354 N 
ATOM     19  C   UNL A   1      43.595  29.812  27.962  1.00  0.00     0.074 A 
ATOM     20  C   UNL A   1      42.885  29.844  26.704  1.00  0.00     0.031 C 
ATOM     21  C   UNL A   1      37.914  28.546  30.663  1.00  0.00     0.029 A 
ATOM     22  C   UNL A   1      38.777  29.693  30.866  1.00  0.00     0.049 A 
ATOM     23  H   UNL A   1      40.734  29.941  30.176  1.00  0.00     0.167 HD
ATOM     24  C   UNL A   1      44.531  30.653  28.489  1.00  0.00     0.031 A 
ATOM     25  C   UNL A   1      38.536  30.822  31.572  1.00  0.00     0.031 A 
ATOM     26  C   UNL A   1      44.965  30.228  29.796  1.00  0.00     0.049 A 
ATOM     27  C   UNL A   1      39.844  31.375  31.984  1.00  0.00     0.074 A 
ATOM     28  C   UNL A   1      45.534  29.081  30.315  1.00  0.00     0.029 A 
ATOM     29  N   UNL A   1      44.485  30.928  30.879  1.00  0.00    -0.354 N 
ATOM     30  N   UNL A   1      40.622  30.801  32.858  1.00  0.00    -0.248 NA
ATOM     31  C   UNL A   1      40.484  32.374  31.145  1.00  0.00     0.031 C 
ATOM     32  C   UNL A   1      44.936  28.920  31.600  1.00  0.00     0.029 A 
ATOM     33  C   UNL A   1      44.086  30.008  31.814  1.00  0.00     0.049 A 
ATOM     34  H   UNL A   1      44.438  31.908  30.967  1.00  0.00     0.167 HD
ATOM     35  C   UNL A   1      41.910  31.040  32.404  1.00  0.00     0.074 A 
ATOM     36  C   UNL A   1      41.763  32.108  31.418  1.00  0.00     0.031 C 
ATOM     37  C   UNL A   1      42.931  30.174  32.673  1.00  0.00     0.031 A 
BRANCH  24  38
ATOM     38  C   UNL A   1      44.781  32.063  27.999  1.00  0.00    -0.014 A 
ATOM     39  C   UNL A   1      46.090  32.437  27.624  1.00  0.00     0.010 A 
ATOM     40  C   UNL A   1      43.844  33.102  28.160  1.00  0.00     0.010 A 
ATOM     41  C   UNL A   1      46.460  33.784  27.503  1.00  0.00     0.020 A 
ATOM     42  C   UNL A   1      44.190  34.446  27.996  1.00  0.00     0.020 A 
ATOM     43  C   UNL A   1      45.507  34.781  27.708  1.00  0.00     0.054 A 
BRANCH  43  44
ATOM     44  S   UNL A   1      46.015  36.518  27.673  1.00  0.00     0.124 S 
ATOM     45  O   UNL A   1      47.309  36.436  27.003  1.00  0.00    -0.237 OA
ATOM     46  O   UNL A   1      44.940  37.141  26.906  1.00  0.00    -0.237 OA
ATOM     47  O   UNL A   1      46.060  36.888  29.086  1.00  0.00    -0.744 OA
ENDBRANCH  43  44
ENDBRANCH  24  38
BRANCH  25  48
ATOM     48  C   UNL A   1      37.262  31.561  31.700  1.00  0.00    -0.014 A 
ATOM     49  C   UNL A   1      36.747  31.887  32.965  1.00  0.00     0.010 A 
ATOM     50  C   UNL A   1      36.707  32.201  30.572  1.00  0.00     0.010 A 
ATOM     51  C   UNL A   1      35.770  32.886  33.107  1.00  0.00     0.020 A 
ATOM     52  C   UNL A   1      35.727  33.189  30.704  1.00  0.00     0.020 A 
ATOM     53  C   UNL A   1      35.287  33.550  31.975  1.00  0.00     0.054 A 
BRANCH  53  54
ATOM     54  S   UNL A   1      34.193  34.984  32.186  1.00  0.00     0.124 S 
ATOM     55  O   UNL A   1      35.006  35.878  33.005  1.00  0.00    -0.237 OA
ATOM     56  O   UNL A   1      33.970  35.417  30.808  1.00  0.00    -0.237 OA
ATOM     57  O   UNL A   1      33.018  34.426  32.853  1.00  0.00    -0.744 OA
ENDBRANCH  53  54
ENDBRANCH  25  48
BRANCH  37  58
ATOM     58  C   UNL A   1      42.753  29.154  33.776  1.00  0.00    -0.014 A 
ATOM     59  C   UNL A   1      43.017  29.402  35.136  1.00  0.00     0.010 A 
ATOM     60  C   UNL A   1      42.176  27.918  33.426  1.00  0.00     0.010 A 
ATOM     61  C   UNL A   1      42.756  28.425  36.110  1.00  0.00     0.020 A 
ATOM     62  C   UNL A   1      41.891  26.950  34.392  1.00  0.00     0.020 A 
ATOM     63  C   UNL A   1      42.196  27.202  35.728  1.00  0.00     0.054 A 
BRANCH  63  64
ATOM     64  S   UNL A   1      41.836  25.952  36.993  1.00  0.00     0.124 S 
ATOM     65  O   UNL A   1      42.909  26.160  37.961  1.00  0.00    -0.237 OA
ATOM     66  O   UNL A   1      40.498  26.324  37.446  1.00  0.00    -0.237 OA
ATOM     67  O   UNL A   1      41.901  24.687  36.261  1.00  0.00    -0.744 OA
ENDBRANCH  63  64
ENDBRANCH  37  58
ENDBRANCH  11  12
ENDBRANCH   4   6
ENDBRANCH   3   4
ENDBRANCH   2   3
ENDBRANCH   1   2
BRANCH   1  68
ATOM     68  O   UNL A   1      36.501  21.640  24.542  1.00  0.00    -0.457 OA
BRANCH  68  69
ATOM     69  C   UNL A   1      36.101  22.598  23.643  1.00  0.00     0.359 C 
ATOM     70  O   UNL A   1      36.722  22.900  22.629  1.00  0.00    -0.244 OA
BRANCH  69  71
ATOM     71  C   UNL A   1      34.818  23.197  24.016  1.00  0.00     0.173 A 
ATOM     72  N   UNL A   1      34.732  24.530  24.169  1.00  0.00    -0.160 NA
ATOM     73  C   UNL A   1      33.551  22.572  24.259  1.00  0.00     0.006 A 
ATOM     74  N   UNL A   1      33.518  24.741  24.717  1.00  0.00    -0.237 N 
ATOM     75  C   UNL A   1      32.786  23.588  24.801  1.00  0.00     0.119 A 
BRANCH  73  76
ATOM     76  C   UNL A   1      33.114  21.146  24.137  1.00  0.00     0.042 C 
BRANCH  76  77
ATOM     77  C   UNL A   1      32.872  20.396  25.451  1.00  0.00     0.033 C 
BRANCH  77  78
ATOM     78  C   UNL A   1      32.978  18.881  25.283  1.00  0.00     0.156 C 
BRANCH  78  79
ATOM     79  O   UNL A   1      32.582  18.230  26.485  1.00  0.00    -0.396 OA
ATOM     80  H   UNL A   1      32.446  17.286  26.311  1.00  0.00     0.210 HD
ENDBRANCH  78  79
ENDBRANCH  77  78
ENDBRANCH  76  77
ENDBRANCH  73  76
BRANCH  74  81
ATOM     81  C   UNL A   1      33.122  26.046  25.064  1.00  0.00     0.100 A 
ATOM     82  C   UNL A   1      33.814  26.707  26.088  1.00  0.00     0.032 A 
ATOM     83  C   UNL A   1      32.065  26.676  24.412  1.00  0.00     0.149 A 
ATOM     84  C   UNL A   1      33.464  28.013  26.426  1.00  0.00     0.018 A 
ATOM     85  C   UNL A   1      31.679  27.961  24.784  1.00  0.00     0.057 A 
ATOM     86  F   UNL A   1      31.350  26.041  23.472  1.00  0.00    -0.205 F 
ATOM     87  C   UNL A   1      32.390  28.628  25.780  1.00  0.00     0.021 A 
ATOM     88  Br  UNL A   1      31.901  30.386  26.272  1.00  0.00    -0.051 Br
ENDBRANCH  74  81
ENDBRANCH  69  71
ENDBRANCH  68  69
ENDBRANCH   1  68
TORSDOF 19
ENDMDL
MODEL 2
REMARK VINA RESULT:     -11.0      4.471      7.032
REMARK SMILES O=C(OCCOC(=O)c1nn(-c2ccc(Br)cc2F)cc1CCCO)c1ccc(-c2c3nc(c(-c4ccc(S(=O)(=O)[O-])cc4)c4ccc([nH]4)c(-c4ccc(S(=O)(=O)[O-])cc4)c4nc(c(-c5ccc(S(=O)(=O)[O-])cc5)c5ccc2[nH]5)C=C4)C=C3)cc1
REMARK SMILES IDX 5 1 4 2 3 3 2 4 1 5 26 6 27 7 85 8 28 9 84 10 29 11 30 12
REMARK SMILES IDX 31 13 78 14 32 15 83 16 77 17 79 18 33 19 82 20 76 21 75 22
REMARK SMILES IDX 34 24 64 25 45 26 63 27 46 28 49 29 62 30 80 31 47 32 48 33
REMARK SMILES IDX 61 35 81 36 50 37 35 38 36 39 44 40 37 41 43 42 38 43 39 44
REMARK SMILES IDX 40 45 41 46 42 47 65 48 66 49 74 50 67 51 73 52 68 53 69 54
REMARK SMILES IDX 70 55 71 56 72 57 51 58 52 59 60 60 53 61 59 62 54 63 55 64
REMARK SMILES IDX 56 65 57 66 58 67 6 68 7 69 8 70 9 71 10 72 21 73 11 74
REMARK SMILES IDX 20 75 22 76 23 77 24 78 25 79 12 81 13 82 18 83 14 84 17 85
REMARK SMILES IDX 19 86 15 87 16 88
REMARK H PARENT 79 23 49 34 25 80
REMARK Flexibility Score: inf
ROOT
ATOM      1  C   UNL A   1      44.063  22.973  24.498  1.00  0.00     0.275 C 
ENDROOT
BRANCH   1   2
ATOM      2  C   UNL A   1      43.319  22.169  25.566  1.00  0.00     0.275 C 
BRANCH   2   3
ATOM      3  O   UNL A   1      41.919  22.414  25.440  1.00  0.00    -0.458 OA
BRANCH   3   4
ATOM      4  C   UNL A   1      41.195  22.316  26.568  1.00  0.00     0.338 C 
ATOM      5  O   UNL A   1      40.652  21.311  27.011  1.00  0.00    -0.246 OA
BRANCH   4   6
ATOM      6  C   UNL A   1      41.098  23.683  27.082  1.00  0.00     0.060 A 
ATOM      7  C   UNL A   1      41.873  24.055  28.185  1.00  0.00     0.016 A 
ATOM      8  C   UNL A   1      40.345  24.621  26.379  1.00  0.00     0.016 A 
ATOM      9  C   UNL A   1      41.872  25.378  28.597  1.00  0.00     0.010 A 
ATOM     10  C   UNL A   1      40.425  25.958  26.741  1.00  0.00     0.010 A 
ATOM     11  C   UNL A   1      41.136  26.335  27.882  1.00  0.00    -0.014 A 
BRANCH  11  12
ATOM     12  C   UNL A   1      41.111  27.708  28.387  1.00  0.00     0.031 A 
ATOM     13  C   UNL A   1      42.250  28.595  28.027  1.00  0.00     0.074 A 
ATOM     14  C   UNL A   1      40.133  28.203  29.174  1.00  0.00     0.049 A 
ATOM     15  N   UNL A   1      43.275  28.885  28.761  1.00  0.00    -0.248 NA
ATOM     16  C   UNL A   1      42.305  29.160  26.674  1.00  0.00     0.031 C 
ATOM     17  C   UNL A   1      38.819  27.633  29.485  1.00  0.00     0.029 A 
ATOM     18  N   UNL A   1      40.114  29.394  29.837  1.00  0.00    -0.354 N 
ATOM     19  C   UNL A   1      44.005  29.836  28.056  1.00  0.00     0.074 A 
ATOM     20  C   UNL A   1      43.447  29.853  26.724  1.00  0.00     0.031 C 
ATOM     21  C   UNL A   1      38.054  28.567  30.092  1.00  0.00     0.029 A 
ATOM     22  C   UNL A   1      38.883  29.721  30.383  1.00  0.00     0.049 A 
ATOM     23  H   UNL A   1      40.907  29.971  29.922  1.00  0.00     0.167 HD
ATOM     24  C   UNL A   1      44.870  30.687  28.680  1.00  0.00     0.031 A 
ATOM     25  C   UNL A   1      38.558  30.855  31.044  1.00  0.00     0.031 A 
ATOM     26  C   UNL A   1      45.152  30.276  30.032  1.00  0.00     0.049 A 
ATOM     27  C   UNL A   1      39.807  31.418  31.600  1.00  0.00     0.074 A 
ATOM     28  C   UNL A   1      45.662  29.137  30.625  1.00  0.00     0.029 A 
ATOM     29  N   UNL A   1      44.547  30.984  31.045  1.00  0.00    -0.354 N 
ATOM     30  N   UNL A   1      40.480  30.857  32.564  1.00  0.00    -0.248 NA
ATOM     31  C   UNL A   1      40.536  32.413  30.831  1.00  0.00     0.031 C 
ATOM     32  C   UNL A   1      44.918  28.985  31.833  1.00  0.00     0.029 A 
ATOM     33  C   UNL A   1      44.046  30.071  31.936  1.00  0.00     0.049 A 
ATOM     34  H   UNL A   1      44.486  31.964  31.117  1.00  0.00     0.167 HD
ATOM     35  C   UNL A   1      41.811  31.098  32.260  1.00  0.00     0.074 A 
ATOM     36  C   UNL A   1      41.776  32.156  31.253  1.00  0.00     0.031 C 
ATOM     37  C   UNL A   1      42.798  30.239  32.655  1.00  0.00     0.031 A 
BRANCH  24  38
ATOM     38  C   UNL A   1      45.170  32.093  28.208  1.00  0.00    -0.014 A 
ATOM     39  C   UNL A   1      46.516  32.499  28.071  1.00  0.00     0.010 A 
ATOM     40  C   UNL A   1      44.194  33.107  28.168  1.00  0.00     0.010 A 
ATOM     41  C   UNL A   1      46.867  33.854  27.985  1.00  0.00     0.020 A 
ATOM     42  C   UNL A   1      44.529  34.457  28.035  1.00  0.00     0.020 A 
ATOM     43  C   UNL A   1      45.867  34.826  27.986  1.00  0.00     0.054 A 
BRANCH  43  44
ATOM     44  S   UNL A   1      46.328  36.576  28.001  1.00  0.00     0.124 S 
ATOM     45  O   UNL A   1      47.539  36.558  28.815  1.00  0.00    -0.237 OA
ATOM     46  O   UNL A   1      46.520  36.859  26.582  1.00  0.00    -0.237 OA
ATOM     47  O   UNL A   1      45.170  37.227  28.610  1.00  0.00    -0.744 OA
ENDBRANCH  43  44
ENDBRANCH  24  38
BRANCH  25  48
ATOM     48  C   UNL A   1      37.274  31.588  31.016  1.00  0.00    -0.014 A 
ATOM     49  C   UNL A   1      36.245  31.266  31.917  1.00  0.00     0.010 A 
ATOM     50  C   UNL A   1      37.176  32.800  30.301  1.00  0.00     0.010 A 
ATOM     51  C   UNL A   1      35.197  32.168  32.160  1.00  0.00     0.020 A 
ATOM     52  C   UNL A   1      36.129  33.698  30.530  1.00  0.00     0.020 A 
ATOM     53  C   UNL A   1      35.162  33.390  31.484  1.00  0.00     0.054 A 
BRANCH  53  54
ATOM     54  S   UNL A   1      33.930  34.636  31.963  1.00  0.00     0.124 S 
ATOM     55  O   UNL A   1      34.767  35.737  32.432  1.00  0.00    -0.237 OA
ATOM     56  O   UNL A   1      33.216  34.875  30.712  1.00  0.00    -0.237 OA
ATOM     57  O   UNL A   1      33.148  33.966  33.000  1.00  0.00    -0.744 OA
ENDBRANCH  53  54
ENDBRANCH  25  48
BRANCH  37  58
ATOM     58  C   UNL A   1      42.497  29.229  33.739  1.00  0.00    -0.014 A 
ATOM     59  C   UNL A   1      41.953  27.952  33.503  1.00  0.00     0.010 A 
ATOM     60  C   UNL A   1      42.893  29.550  35.051  1.00  0.00     0.010 A 
ATOM     61  C   UNL A   1      41.771  27.042  34.557  1.00  0.00     0.020 A 
ATOM     62  C   UNL A   1      42.737  28.642  36.100  1.00  0.00     0.020 A 
ATOM     63  C   UNL A   1      42.162  27.397  35.852  1.00  0.00     0.054 A 
BRANCH  63  64
ATOM     64  S   UNL A   1      41.948  26.209  37.206  1.00  0.00     0.124 S 
ATOM     65  O   UNL A   1      43.040  26.557  38.111  1.00  0.00    -0.237 OA
ATOM     66  O   UNL A   1      40.605  26.510  37.695  1.00  0.00    -0.237 OA
ATOM     67  O   UNL A   1      42.080  24.907  36.552  1.00  0.00    -0.744 OA
ENDBRANCH  63  64
ENDBRANCH  37  58
ENDBRANCH  11  12
ENDBRANCH   4   6
ENDBRANCH   3   4
ENDBRANCH   2   3
ENDBRANCH   1   2
BRANCH   1  68
ATOM     68  O   UNL A   1      44.711  24.115  25.089  1.00  0.00    -0.457 OA
BRANCH  68  69
ATOM     69  C   UNL A   1      45.763  23.827  25.924  1.00  0.00     0.359 C 
ATOM     70  O   UNL A   1      46.515  22.867  25.786  1.00  0.00    -0.244 OA
BRANCH  69  71
ATOM     71  C   UNL A   1      45.908  24.825  26.985  1.00  0.00     0.173 A 
ATOM     72  N   UNL A   1      45.903  24.429  28.270  1.00  0.00    -0.160 NA
ATOM     73  C   UNL A   1      46.071  26.246  26.890  1.00  0.00     0.006 A 
ATOM     74  N   UNL A   1      45.830  25.568  28.987  1.00  0.00    -0.237 N 
ATOM     75  C   UNL A   1      45.912  26.679  28.193  1.00  0.00     0.119 A 
BRANCH  73  76
ATOM     76  C   UNL A   1      46.221  27.146  25.703  1.00  0.00     0.042 C 
BRANCH  76  77
ATOM     77  C   UNL A   1      47.377  26.823  24.750  1.00  0.00     0.033 C 
BRANCH  77  78
ATOM     78  C   UNL A   1      47.401  27.746  23.533  1.00  0.00     0.156 C 
BRANCH  78  79
ATOM     79  O   UNL A   1      46.734  28.965  23.835  1.00  0.00    -0.396 OA
ATOM     80  H   UNL A   1      47.341  29.558  24.306  1.00  0.00     0.210 HD
ENDBRANCH  78  79
ENDBRANCH  77  78
ENDBRANCH  76  77
ENDBRANCH  73  76
BRANCH  74  81
ATOM     81  C   UNL A   1      45.750  25.509  30.391  1.00  0.00     0.100 A 
ATOM     82  C   UNL A   1      44.509  25.226  30.981  1.00  0.00     0.032 A 
ATOM     83  C   UNL A   1      46.871  25.728  31.187  1.00  0.00     0.149 A 
ATOM     84  C   UNL A   1      44.412  25.128  32.367  1.00  0.00     0.018 A 
ATOM     85  C   UNL A   1      46.764  25.683  32.574  1.00  0.00     0.057 A 
ATOM     86  F   UNL A   1      48.053  26.060  30.648  1.00  0.00    -0.205 F 
ATOM     87  C   UNL A   1      45.537  25.369  33.157  1.00  0.00     0.021 A 
ATOM     88  Br  UNL A   1      45.384  25.268  35.038  1.00  0.00    -0.051 Br
ENDBRANCH  74  81
ENDBRANCH  69  71
ENDBRANCH  68  69
ENDBRANCH   1  68
TORSDOF 19
ENDMDL
MODEL 3
REMARK VINA RESULT:     -10.8      3.473      9.861
REMARK SMILES O=C(OCCOC(=O)c1nn(-c2ccc(Br)cc2F)cc1CCCO)c1ccc(-c2c3nc(c(-c4ccc(S(=O)(=O)[O-])cc4)c4ccc([nH]4)c(-c4ccc(S(=O)(=O)[O-])cc4)c4nc(c(-c5ccc(S(=O)(=O)[O-])cc5)c5ccc2[nH]5)C=C4)C=C3)cc1
REMARK SMILES IDX 5 1 4 2 3 3 2 4 1 5 26 6 27 7 85 8 28 9 84 10 29 11 30 12
REMARK SMILES IDX 31 13 78 14 32 15 83 16 77 17 79 18 33 19 82 20 76 21 75 22
REMARK SMILES IDX 34 24 64 25 45 26 63 27 46 28 49 29 62 30 80 31 47 32 48 33
REMARK SMILES IDX 61 35 81 36 50 37 35 38 36 39 44 40 37 41 43 42 38 43 39 44
REMARK SMILES IDX 40 45 41 46 42 47 65 48 66 49 74 50 67 51 73 52 68 53 69 54
REMARK SMILES IDX 70 55 71 56 72 57 51 58 52 59 60 60 53 61 59 62 54 63 55 64
REMARK SMILES IDX 56 65 57 66 58 67 6 68 7 69 8 70 9 71 10 72 21 73 11 74
REMARK SMILES IDX 20 75 22 76 23 77 24 78 25 79 12 81 13 82 18 83 14 84 17 85
REMARK SMILES IDX 19 86 15 87 16 88
REMARK H PARENT 79 23 49 34 25 80
REMARK Flexibility Score: inf
ROOT
ATOM      1  C   UNL A   1      31.804  31.152  27.015  1.00  0.00     0.275 C 
ENDROOT
BRANCH   1   2
ATOM      2  C   UNL A   1      32.854  32.254  27.173  1.00  0.00     0.275 C 
BRANCH   2   3
ATOM      3  O   UNL A   1      34.056  31.681  27.686  1.00  0.00    -0.458 OA
BRANCH   3   4
ATOM      4  C   UNL A   1      34.967  32.543  28.168  1.00  0.00     0.338 C 
ATOM      5  O   UNL A   1      34.871  33.764  28.223  1.00  0.00    -0.246 OA
BRANCH   4   6
ATOM      6  C   UNL A   1      36.134  31.724  28.498  1.00  0.00     0.060 A 
ATOM      7  C   UNL A   1      36.138  30.370  28.149  1.00  0.00     0.016 A 
ATOM      8  C   UNL A   1      37.267  32.338  29.024  1.00  0.00     0.016 A 
ATOM      9  C   UNL A   1      37.288  29.623  28.353  1.00  0.00     0.010 A 
ATOM     10  C   UNL A   1      38.440  31.605  29.136  1.00  0.00     0.010 A 
ATOM     11  C   UNL A   1      38.443  30.237  28.860  1.00  0.00    -0.014 A 
BRANCH  11  12
ATOM     12  C   UNL A   1      39.614  29.400  29.120  1.00  0.00     0.031 A 
ATOM     13  C   UNL A   1      39.989  29.164  30.541  1.00  0.00     0.074 A 
ATOM     14  C   UNL A   1      40.379  28.854  28.153  1.00  0.00     0.049 A 
ATOM     15  N   UNL A   1      40.909  29.774  31.216  1.00  0.00    -0.248 NA
ATOM     16  C   UNL A   1      39.206  28.205  31.328  1.00  0.00     0.031 C 
ATOM     17  C   UNL A   1      40.114  28.742  26.716  1.00  0.00     0.029 A 
ATOM     18  N   UNL A   1      41.580  28.223  28.291  1.00  0.00    -0.354 N 
ATOM     19  C   UNL A   1      40.974  29.136  32.451  1.00  0.00     0.074 A 
ATOM     20  C   UNL A   1      39.808  28.286  32.518  1.00  0.00     0.031 C 
ATOM     21  C   UNL A   1      41.010  27.900  26.155  1.00  0.00     0.029 A 
ATOM     22  C   UNL A   1      42.017  27.575  27.147  1.00  0.00     0.049 A 
ATOM     23  H   UNL A   1      42.093  28.228  29.131  1.00  0.00     0.167 HD
ATOM     24  C   UNL A   1      42.090  29.196  33.234  1.00  0.00     0.031 A 
ATOM     25  C   UNL A   1      43.136  26.829  27.007  1.00  0.00     0.031 A 
ATOM     26  C   UNL A   1      43.011  30.211  32.785  1.00  0.00     0.049 A 
ATOM     27  C   UNL A   1      44.097  27.273  28.040  1.00  0.00     0.074 A 
ATOM     28  C   UNL A   1      42.942  31.575  32.578  1.00  0.00     0.029 A 
ATOM     29  N   UNL A   1      44.138  29.789  32.118  1.00  0.00    -0.354 N 
ATOM     30  N   UNL A   1      44.677  28.440  28.025  1.00  0.00    -0.248 NA
ATOM     31  C   UNL A   1      44.134  26.577  29.315  1.00  0.00     0.031 C 
ATOM     32  C   UNL A   1      43.730  31.811  31.412  1.00  0.00     0.029 A 
ATOM     33  C   UNL A   1      44.281  30.591  31.015  1.00  0.00     0.049 A 
ATOM     34  H   UNL A   1      44.732  29.050  32.383  1.00  0.00     0.167 HD
ATOM     35  C   UNL A   1      44.769  28.811  29.358  1.00  0.00     0.074 A 
ATOM     36  C   UNL A   1      44.529  27.579  30.104  1.00  0.00     0.031 C 
ATOM     37  C   UNL A   1      44.768  30.125  29.732  1.00  0.00     0.031 A 
BRANCH  24  38
ATOM     38  C   UNL A   1      42.532  28.094  34.172  1.00  0.00    -0.014 A 
ATOM     39  C   UNL A   1      42.822  28.414  35.517  1.00  0.00     0.010 A 
ATOM     40  C   UNL A   1      42.942  26.826  33.717  1.00  0.00     0.010 A 
ATOM     41  C   UNL A   1      43.557  27.543  36.334  1.00  0.00     0.020 A 
ATOM     42  C   UNL A   1      43.635  25.931  34.537  1.00  0.00     0.020 A 
ATOM     43  C   UNL A   1      43.974  26.312  35.828  1.00  0.00     0.054 A 
BRANCH  43  44
ATOM     44  S   UNL A   1      45.028  25.244  36.842  1.00  0.00     0.124 S 
ATOM     45  O   UNL A   1      44.493  25.483  38.180  1.00  0.00    -0.237 OA
ATOM     46  O   UNL A   1      44.765  23.923  36.280  1.00  0.00    -0.237 OA
ATOM     47  O   UNL A   1      46.371  25.764  36.600  1.00  0.00    -0.744 OA
ENDBRANCH  43  44
ENDBRANCH  24  38
BRANCH  25  48
ATOM     48  C   UNL A   1      43.322  25.610  26.191  1.00  0.00    -0.014 A 
ATOM     49  C   UNL A   1      44.475  25.441  25.407  1.00  0.00     0.010 A 
ATOM     50  C   UNL A   1      42.502  24.485  26.418  1.00  0.00     0.010 A 
ATOM     51  C   UNL A   1      44.844  24.170  24.938  1.00  0.00     0.020 A 
ATOM     52  C   UNL A   1      42.858  23.218  25.945  1.00  0.00     0.020 A 
ATOM     53  C   UNL A   1      44.045  23.062  25.235  1.00  0.00     0.054 A 
BRANCH  53  54
ATOM     54  S   UNL A   1      44.642  21.399  24.815  1.00  0.00     0.124 S 
ATOM     55  O   UNL A   1      43.611  20.543  25.395  1.00  0.00    -0.237 OA
ATOM     56  O   UNL A   1      44.685  21.436  23.355  1.00  0.00    -0.237 OA
ATOM     57  O   UNL A   1      45.948  21.327  25.468  1.00  0.00    -0.744 OA
ENDBRANCH  53  54
ENDBRANCH  25  48
BRANCH  37  58
ATOM     58  C   UNL A   1      45.046  31.183  28.686  1.00  0.00    -0.014 A 
ATOM     59  C   UNL A   1      44.048  31.905  28.005  1.00  0.00     0.010 A 
ATOM     60  C   UNL A   1      46.390  31.540  28.470  1.00  0.00     0.010 A 
ATOM     61  C   UNL A   1      44.389  32.924  27.101  1.00  0.00     0.020 A 
ATOM     62  C   UNL A   1      46.736  32.568  27.590  1.00  0.00     0.020 A 
ATOM     63  C   UNL A   1      45.735  33.246  26.897  1.00  0.00     0.054 A 
BRANCH  63  64
ATOM     64  S   UNL A   1      46.169  34.580  25.747  1.00  0.00     0.124 S 
ATOM     65  O   UNL A   1      45.723  35.773  26.461  1.00  0.00    -0.237 OA
ATOM     66  O   UNL A   1      47.615  34.432  25.608  1.00  0.00    -0.237 OA
ATOM     67  O   UNL A   1      45.406  34.262  24.540  1.00  0.00    -0.744 OA
ENDBRANCH  63  64
ENDBRANCH  37  58
ENDBRANCH  11  12
ENDBRANCH   4   6
ENDBRANCH   3   4
ENDBRANCH   2   3
ENDBRANCH   1   2
BRANCH   1  68
ATOM     68  O   UNL A   1      31.998  30.448  25.774  1.00  0.00    -0.457 OA
BRANCH  68  69
ATOM     69  C   UNL A   1      30.932  30.483  24.908  1.00  0.00     0.359 C 
ATOM     70  O   UNL A   1      30.148  31.421  24.809  1.00  0.00    -0.244 OA
BRANCH  69  71
ATOM     71  C   UNL A   1      30.861  29.276  24.081  1.00  0.00     0.173 A 
ATOM     72  N   UNL A   1      31.323  28.112  24.570  1.00  0.00    -0.160 NA
ATOM     73  C   UNL A   1      30.345  29.104  22.755  1.00  0.00     0.006 A 
ATOM     74  N   UNL A   1      31.324  27.267  23.519  1.00  0.00    -0.237 N 
ATOM     75  C   UNL A   1      30.758  27.831  22.408  1.00  0.00     0.119 A 
BRANCH  73  76
ATOM     76  C   UNL A   1      29.655  30.059  21.831  1.00  0.00     0.042 C 
BRANCH  76  77
ATOM     77  C   UNL A   1      28.132  29.929  21.737  1.00  0.00     0.033 C 
BRANCH  77  78
ATOM     78  C   UNL A   1      27.459  29.979  23.107  1.00  0.00     0.156 C 
BRANCH  78  79
ATOM     79  O   UNL A   1      27.299  31.330  23.522  1.00  0.00    -0.396 OA
ATOM     80  H   UNL A   1      27.631  31.923  22.829  1.00  0.00     0.210 HD
ENDBRANCH  78  79
ENDBRANCH  77  78
ENDBRANCH  76  77
ENDBRANCH  73  76
BRANCH  74  81
ATOM     81  C   UNL A   1      31.810  25.956  23.675  1.00  0.00     0.100 A 
ATOM     82  C   UNL A   1      33.075  25.643  23.156  1.00  0.00     0.032 A 
ATOM     83  C   UNL A   1      31.058  24.980  24.324  1.00  0.00     0.149 A 
ATOM     84  C   UNL A   1      33.592  24.360  23.327  1.00  0.00     0.018 A 
ATOM     85  C   UNL A   1      31.551  23.685  24.450  1.00  0.00     0.057 A 
ATOM     86  F   UNL A   1      29.822  25.240  24.775  1.00  0.00    -0.205 F 
ATOM     87  C   UNL A   1      32.823  23.386  23.963  1.00  0.00     0.021 A 
ATOM     88  Br  UNL A   1      33.521  21.640  24.158  1.00  0.00    -0.051 Br
ENDBRANCH  74  81
ENDBRANCH  69  71
ENDBRANCH  68  69
ENDBRANCH   1  68
TORSDOF 19
ENDMDL
