MODEL 1
REMARK VINA RESULT:     -10.0      0.000      0.000
REMARK SMILES O=C(CNC(=O)OCC1=Cc2ccccc2S1(=O)=O)OCCOC(=O)c1ccc(-c2c3nc(c(-c4ccc(S(=O)(=O)[O-])cc4)c4ccc([nH]4)c(-c4ccc(S(=O)(=O)[O-])cc4)c4nc(c(-c5ccc(S(=O)(=O)[O-])cc5)c5ccc2[nH]5)C=C4)C=C3)cc1
REMARK SMILES IDX 21 1 20 2 2 3 1 4 3 5 4 6 5 7 6 9 7 10 8 11 9 12 10 13 17 14
REMARK SMILES IDX 11 15 16 16 18 17 19 18 12 19 15 20 13 21 14 22 22 23 23 24
REMARK SMILES IDX 24 25 25 26 26 27 27 28 85 29 28 30 84 31 29 32 30 33 31 34
REMARK SMILES IDX 78 35 32 36 83 37 77 38 79 39 33 40 82 41 76 42 75 43 34 45
REMARK SMILES IDX 64 46 45 47 63 48 46 49 49 50 62 51 80 52 47 53 48 54 61 56
REMARK SMILES IDX 81 57 50 58 35 59 36 60 44 61 37 62 43 63 38 64 39 65 40 66
REMARK SMILES IDX 41 67 42 68 65 69 66 70 74 71 67 72 73 73 68 74 69 75 70 76
REMARK SMILES IDX 71 77 72 78 51 79 52 80 60 81 53 82 59 83 54 84 55 85 56 86
REMARK SMILES IDX 57 87 58 88
REMARK H PARENT 4 8 79 44 49 55
REMARK Flexibility Score: inf
ROOT
ATOM      1  C   UNL A   1      40.172  22.135  27.057  1.00  0.00     0.274 C 
ENDROOT
BRANCH   1   2
ATOM      2  O   UNL A   1      39.820  20.913  26.380  1.00  0.00    -0.461 OA
BRANCH   2   3
ATOM      3  C   UNL A   1      40.582  19.802  26.248  1.00  0.00     0.325 C 
ATOM      4  O   UNL A   1      40.101  18.816  25.687  1.00  0.00    -0.250 OA
BRANCH   3   5
ATOM      5  C   UNL A   1      41.980  19.718  26.863  1.00  0.00     0.242 C 
BRANCH   5   6
ATOM      6  N   UNL A   1      42.942  18.889  26.164  1.00  0.00    -0.311 N 
ATOM      7  C   UNL A   1      43.825  19.291  25.210  1.00  0.00     0.407 C 
ATOM      8  H   UNL A   1      42.958  17.934  26.403  1.00  0.00     0.167 HD
ATOM      9  O   UNL A   1      44.485  18.490  24.567  1.00  0.00    -0.225 OA
BRANCH   7  10
ATOM     10  O   UNL A   1      43.805  20.631  25.001  1.00  0.00    -0.444 OA
BRANCH  10  11
ATOM     11  C   UNL A   1      45.042  21.316  25.230  1.00  0.00     0.283 C 
BRANCH  11  12
ATOM     12  C   UNL A   1      44.839  22.425  26.186  1.00  0.00     0.087 C 
ATOM     13  C   UNL A   1      43.965  22.511  27.206  1.00  0.00     0.029 C 
ATOM     14  S   UNL A   1      45.740  23.900  25.969  1.00  0.00     0.206 S 
ATOM     15  C   UNL A   1      44.050  23.787  27.908  1.00  0.00    -0.005 A 
ATOM     16  C   UNL A   1      44.980  24.656  27.346  1.00  0.00     0.079 A 
ATOM     17  O   UNL A   1      47.136  23.720  26.304  1.00  0.00    -0.219 OA
ATOM     18  O   UNL A   1      45.283  24.595  24.782  1.00  0.00    -0.219 OA
ATOM     19  C   UNL A   1      43.362  24.184  29.043  1.00  0.00     0.009 A 
ATOM     20  C   UNL A   1      45.289  25.899  27.863  1.00  0.00     0.021 A 
ATOM     21  C   UNL A   1      43.646  25.441  29.593  1.00  0.00     0.001 A 
ATOM     22  C   UNL A   1      44.604  26.292  29.010  1.00  0.00     0.001 A 
ENDBRANCH  11  12
ENDBRANCH  10  11
ENDBRANCH   7  10
ENDBRANCH   5   6
ENDBRANCH   3   5
ENDBRANCH   2   3
ENDBRANCH   1   2
BRANCH   1  23
ATOM     23  C   UNL A   1      40.518  23.287  26.112  1.00  0.00     0.275 C 
BRANCH  23  24
ATOM     24  O   UNL A   1      39.979  24.535  26.574  1.00  0.00    -0.458 OA
BRANCH  24  25
ATOM     25  C   UNL A   1      40.706  25.628  26.219  1.00  0.00     0.338 C 
ATOM     26  O   UNL A   1      41.071  25.922  25.095  1.00  0.00    -0.246 OA
BRANCH  25  27
ATOM     27  C   UNL A   1      40.869  26.515  27.388  1.00  0.00     0.060 A 
ATOM     28  C   UNL A   1      40.177  26.182  28.556  1.00  0.00     0.016 A 
ATOM     29  C   UNL A   1      41.670  27.661  27.345  1.00  0.00     0.016 A 
ATOM     30  C   UNL A   1      40.254  27.013  29.672  1.00  0.00     0.010 A 
ATOM     31  C   UNL A   1      41.747  28.494  28.469  1.00  0.00     0.010 A 
ATOM     32  C   UNL A   1      41.016  28.190  29.630  1.00  0.00    -0.014 A 
BRANCH  32  33
ATOM     33  C   UNL A   1      40.957  29.131  30.777  1.00  0.00     0.031 A 
ATOM     34  C   UNL A   1      39.920  30.221  30.793  1.00  0.00     0.074 A 
ATOM     35  C   UNL A   1      41.778  28.973  31.832  1.00  0.00     0.049 A 
ATOM     36  N   UNL A   1      39.623  31.065  31.749  1.00  0.00    -0.248 NA
ATOM     37  C   UNL A   1      39.111  30.383  29.575  1.00  0.00     0.031 C 
ATOM     38  C   UNL A   1      42.827  27.960  31.944  1.00  0.00     0.029 A 
ATOM     39  N   UNL A   1      41.847  29.661  33.019  1.00  0.00    -0.354 N 
ATOM     40  C   UNL A   1      38.577  31.838  31.261  1.00  0.00     0.074 A 
ATOM     41  C   UNL A   1      38.332  31.405  29.902  1.00  0.00     0.031 C 
ATOM     42  C   UNL A   1      43.432  28.088  33.139  1.00  0.00     0.029 A 
ATOM     43  C   UNL A   1      42.818  29.195  33.871  1.00  0.00     0.049 A 
ATOM     44  H   UNL A   1      41.256  30.418  33.237  1.00  0.00     0.167 HD
ATOM     45  C   UNL A   1      37.866  32.803  31.892  1.00  0.00     0.031 A 
ATOM     46  C   UNL A   1      43.171  29.608  35.106  1.00  0.00     0.031 A 
ATOM     47  C   UNL A   1      38.124  33.261  33.232  1.00  0.00     0.049 A 
ATOM     48  C   UNL A   1      42.400  30.719  35.767  1.00  0.00     0.074 A 
ATOM     49  C   UNL A   1      37.452  34.233  33.954  1.00  0.00     0.029 A 
ATOM     50  N   UNL A   1      39.136  32.784  34.051  1.00  0.00    -0.354 N 
ATOM     51  N   UNL A   1      41.377  31.401  35.309  1.00  0.00    -0.248 NA
ATOM     52  C   UNL A   1      42.818  31.100  37.124  1.00  0.00     0.031 C 
ATOM     53  C   UNL A   1      38.091  34.379  35.191  1.00  0.00     0.029 A 
ATOM     54  C   UNL A   1      39.121  33.457  35.262  1.00  0.00     0.049 A 
ATOM     55  H   UNL A   1      39.770  32.072  33.808  1.00  0.00     0.167 HD
ATOM     56  C   UNL A   1      41.014  32.273  36.333  1.00  0.00     0.074 A 
ATOM     57  C   UNL A   1      41.912  32.014  37.439  1.00  0.00     0.031 C 
ATOM     58  C   UNL A   1      40.027  33.204  36.354  1.00  0.00     0.031 A 
BRANCH  45  59
ATOM     59  C   UNL A   1      36.735  33.438  31.126  1.00  0.00    -0.014 A 
ATOM     60  C   UNL A   1      36.897  33.809  29.779  1.00  0.00     0.010 A 
ATOM     61  C   UNL A   1      35.485  33.628  31.743  1.00  0.00     0.010 A 
ATOM     62  C   UNL A   1      35.842  34.391  29.072  1.00  0.00     0.020 A 
ATOM     63  C   UNL A   1      34.419  34.187  31.032  1.00  0.00     0.020 A 
ATOM     64  C   UNL A   1      34.611  34.579  29.705  1.00  0.00     0.054 A 
BRANCH  64  65
ATOM     65  S   UNL A   1      33.252  35.318  28.757  1.00  0.00     0.124 S 
ATOM     66  O   UNL A   1      33.970  36.207  27.845  1.00  0.00    -0.237 OA
ATOM     67  O   UNL A   1      32.623  34.156  28.136  1.00  0.00    -0.237 OA
ATOM     68  O   UNL A   1      32.445  35.990  29.773  1.00  0.00    -0.744 OA
ENDBRANCH  64  65
ENDBRANCH  45  59
BRANCH  46  69
ATOM     69  C   UNL A   1      44.320  28.965  35.804  1.00  0.00    -0.014 A 
ATOM     70  C   UNL A   1      45.631  29.437  35.627  1.00  0.00     0.010 A 
ATOM     71  C   UNL A   1      44.099  27.853  36.638  1.00  0.00     0.010 A 
ATOM     72  C   UNL A   1      46.705  28.791  36.248  1.00  0.00     0.020 A 
ATOM     73  C   UNL A   1      45.166  27.223  37.282  1.00  0.00     0.020 A 
ATOM     74  C   UNL A   1      46.465  27.687  37.070  1.00  0.00     0.054 A 
BRANCH  74  75
ATOM     75  S   UNL A   1      47.869  26.881  37.891  1.00  0.00     0.124 S 
ATOM     76  O   UNL A   1      47.410  25.499  37.988  1.00  0.00    -0.237 OA
ATOM     77  O   UNL A   1      48.964  27.121  36.954  1.00  0.00    -0.237 OA
ATOM     78  O   UNL A   1      47.977  27.596  39.161  1.00  0.00    -0.744 OA
ENDBRANCH  74  75
ENDBRANCH  46  69
BRANCH  58  79
ATOM     79  C   UNL A   1      39.853  33.998  37.624  1.00  0.00    -0.014 A 
ATOM     80  C   UNL A   1      40.576  35.183  37.850  1.00  0.00     0.010 A 
ATOM     81  C   UNL A   1      38.935  33.562  38.598  1.00  0.00     0.010 A 
ATOM     82  C   UNL A   1      40.425  35.888  39.048  1.00  0.00     0.020 A 
ATOM     83  C   UNL A   1      38.759  34.280  39.784  1.00  0.00     0.020 A 
ATOM     84  C   UNL A   1      39.522  35.428  40.011  1.00  0.00     0.054 A 
BRANCH  84  85
ATOM     85  S   UNL A   1      39.338  36.362  41.556  1.00  0.00     0.124 S 
ATOM     86  O   UNL A   1      38.331  35.579  42.266  1.00  0.00    -0.237 OA
ATOM     87  O   UNL A   1      40.684  36.318  42.121  1.00  0.00    -0.237 OA
ATOM     88  O   UNL A   1      38.900  37.683  41.110  1.00  0.00    -0.744 OA
ENDBRANCH  84  85
ENDBRANCH  58  79
ENDBRANCH  32  33
ENDBRANCH  25  27
ENDBRANCH  24  25
ENDBRANCH  23  24
ENDBRANCH   1  23
TORSDOF 18
ENDMDL
MODEL 2
REMARK VINA RESULT:      -9.7      3.921      9.258
REMARK SMILES O=C(CNC(=O)OCC1=Cc2ccccc2S1(=O)=O)OCCOC(=O)c1ccc(-c2c3nc(c(-c4ccc(S(=O)(=O)[O-])cc4)c4ccc([nH]4)c(-c4ccc(S(=O)(=O)[O-])cc4)c4nc(c(-c5ccc(S(=O)(=O)[O-])cc5)c5ccc2[nH]5)C=C4)C=C3)cc1
REMARK SMILES IDX 21 1 20 2 2 3 1 4 3 5 4 6 5 7 6 9 7 10 8 11 9 12 10 13 17 14
REMARK SMILES IDX 11 15 16 16 18 17 19 18 12 19 15 20 13 21 14 22 22 23 23 24
REMARK SMILES IDX 24 25 25 26 26 27 27 28 85 29 28 30 84 31 29 32 30 33 31 34
REMARK SMILES IDX 78 35 32 36 83 37 77 38 79 39 33 40 82 41 76 42 75 43 34 45
REMARK SMILES IDX 64 46 45 47 63 48 46 49 49 50 62 51 80 52 47 53 48 54 61 56
REMARK SMILES IDX 81 57 50 58 35 59 36 60 44 61 37 62 43 63 38 64 39 65 40 66
REMARK SMILES IDX 41 67 42 68 65 69 66 70 74 71 67 72 73 73 68 74 69 75 70 76
REMARK SMILES IDX 71 77 72 78 51 79 52 80 60 81 53 82 59 83 54 84 55 85 56 86
REMARK SMILES IDX 57 87 58 88
REMARK H PARENT 4 8 79 44 49 55
REMARK Flexibility Score: inf
ROOT
ATOM      1  C   UNL A   1      41.398  19.921  26.518  1.00  0.00     0.274 C 
ENDROOT
BRANCH   1   2
ATOM      2  O   UNL A   1      42.093  19.169  25.505  1.00  0.00    -0.461 OA
BRANCH   2   3
ATOM      3  C   UNL A   1      43.424  19.162  25.259  1.00  0.00     0.325 C 
ATOM      4  O   UNL A   1      43.947  18.123  24.852  1.00  0.00    -0.250 OA
BRANCH   3   5
ATOM      5  C   UNL A   1      44.297  20.379  25.568  1.00  0.00     0.242 C 
BRANCH   5   6
ATOM      6  N   UNL A   1      44.445  21.352  24.503  1.00  0.00    -0.311 N 
ATOM      7  C   UNL A   1      45.321  22.391  24.463  1.00  0.00     0.407 C 
ATOM      8  H   UNL A   1      43.847  21.249  23.727  1.00  0.00     0.167 HD
ATOM      9  O   UNL A   1      45.262  23.248  23.595  1.00  0.00    -0.225 OA
BRANCH   7  10
ATOM     10  O   UNL A   1      46.168  22.412  25.522  1.00  0.00    -0.444 OA
BRANCH  10  11
ATOM     11  C   UNL A   1      45.653  23.005  26.720  1.00  0.00     0.283 C 
BRANCH  11  12
ATOM     12  C   UNL A   1      45.788  24.476  26.657  1.00  0.00     0.087 C 
ATOM     13  C   UNL A   1      44.826  25.415  26.723  1.00  0.00     0.029 C 
ATOM     14  S   UNL A   1      47.358  25.166  26.352  1.00  0.00     0.206 S 
ATOM     15  C   UNL A   1      45.357  26.768  26.595  1.00  0.00    -0.005 A 
ATOM     16  C   UNL A   1      46.733  26.794  26.386  1.00  0.00     0.079 A 
ATOM     17  O   UNL A   1      48.228  25.024  27.499  1.00  0.00    -0.219 OA
ATOM     18  O   UNL A   1      47.772  24.885  24.992  1.00  0.00    -0.219 OA
ATOM     19  C   UNL A   1      44.671  27.967  26.695  1.00  0.00     0.009 A 
ATOM     20  C   UNL A   1      47.480  27.953  26.294  1.00  0.00     0.021 A 
ATOM     21  C   UNL A   1      45.396  29.163  26.601  1.00  0.00     0.001 A 
ATOM     22  C   UNL A   1      46.789  29.157  26.405  1.00  0.00     0.001 A 
ENDBRANCH  11  12
ENDBRANCH  10  11
ENDBRANCH   7  10
ENDBRANCH   5   6
ENDBRANCH   3   5
ENDBRANCH   2   3
ENDBRANCH   1   2
BRANCH   1  23
ATOM     23  C   UNL A   1      40.363  20.899  25.961  1.00  0.00     0.275 C 
BRANCH  23  24
ATOM     24  O   UNL A   1      40.129  21.995  26.858  1.00  0.00    -0.458 OA
BRANCH  24  25
ATOM     25  C   UNL A   1      39.213  22.898  26.417  1.00  0.00     0.338 C 
ATOM     26  O   UNL A   1      38.270  22.673  25.679  1.00  0.00    -0.246 OA
BRANCH  25  27
ATOM     27  C   UNL A   1      39.431  24.194  27.091  1.00  0.00     0.060 A 
ATOM     28  C   UNL A   1      40.174  25.162  26.409  1.00  0.00     0.016 A 
ATOM     29  C   UNL A   1      38.934  24.458  28.372  1.00  0.00     0.016 A 
ATOM     30  C   UNL A   1      40.454  26.383  27.020  1.00  0.00     0.010 A 
ATOM     31  C   UNL A   1      39.215  25.687  28.983  1.00  0.00     0.010 A 
ATOM     32  C   UNL A   1      40.002  26.645  28.322  1.00  0.00    -0.014 A 
BRANCH  32  33
ATOM     33  C   UNL A   1      40.443  27.888  29.003  1.00  0.00     0.031 A 
ATOM     34  C   UNL A   1      41.847  27.987  29.537  1.00  0.00     0.074 A 
ATOM     35  C   UNL A   1      39.620  28.951  29.084  1.00  0.00     0.049 A 
ATOM     36  N   UNL A   1      42.464  29.019  30.053  1.00  0.00    -0.248 NA
ATOM     37  C   UNL A   1      42.662  26.763  29.484  1.00  0.00     0.031 C 
ATOM     38  C   UNL A   1      38.238  28.990  28.609  1.00  0.00     0.029 A 
ATOM     39  N   UNL A   1      39.839  30.210  29.589  1.00  0.00    -0.354 N 
ATOM     40  C   UNL A   1      43.746  28.581  30.360  1.00  0.00     0.074 A 
ATOM     41  C   UNL A   1      43.799  27.172  30.029  1.00  0.00     0.031 C 
ATOM     42  C   UNL A   1      37.732  30.214  28.838  1.00  0.00     0.029 A 
ATOM     43  C   UNL A   1      38.750  31.043  29.482  1.00  0.00     0.049 A 
ATOM     44  H   UNL A   1      40.693  30.489  29.989  1.00  0.00     0.167 HD
ATOM     45  C   UNL A   1      44.794  29.288  30.847  1.00  0.00     0.031 A 
ATOM     46  C   UNL A   1      38.592  32.329  29.854  1.00  0.00     0.031 A 
ATOM     47  C   UNL A   1      44.739  30.681  31.206  1.00  0.00     0.049 A 
ATOM     48  C   UNL A   1      39.756  33.081  30.444  1.00  0.00     0.074 A 
ATOM     49  C   UNL A   1      45.754  31.481  31.706  1.00  0.00     0.029 A 
ATOM     50  N   UNL A   1      43.611  31.481  31.111  1.00  0.00    -0.354 N 
ATOM     51  N   UNL A   1      40.979  32.663  30.675  1.00  0.00    -0.248 NA
ATOM     52  C   UNL A   1      39.525  34.488  30.800  1.00  0.00     0.031 C 
ATOM     53  C   UNL A   1      45.224  32.751  31.961  1.00  0.00     0.029 A 
ATOM     54  C   UNL A   1      43.898  32.758  31.563  1.00  0.00     0.049 A 
ATOM     55  H   UNL A   1      42.737  31.184  30.772  1.00  0.00     0.167 HD
ATOM     56  C   UNL A   1      41.667  33.763  31.180  1.00  0.00     0.074 A 
ATOM     57  C   UNL A   1      40.732  34.868  31.197  1.00  0.00     0.031 C 
ATOM     58  C   UNL A   1      42.957  33.850  31.591  1.00  0.00     0.031 A 
BRANCH  45  59
ATOM     59  C   UNL A   1      46.096  28.554  31.026  1.00  0.00    -0.014 A 
ATOM     60  C   UNL A   1      46.400  27.914  32.241  1.00  0.00     0.010 A 
ATOM     61  C   UNL A   1      47.009  28.466  29.960  1.00  0.00     0.010 A 
ATOM     62  C   UNL A   1      47.608  27.230  32.400  1.00  0.00     0.020 A 
ATOM     63  C   UNL A   1      48.207  27.761  30.105  1.00  0.00     0.020 A 
ATOM     64  C   UNL A   1      48.505  27.160  31.330  1.00  0.00     0.054 A 
BRANCH  64  65
ATOM     65  S   UNL A   1      50.056  26.247  31.556  1.00  0.00     0.124 S 
ATOM     66  O   UNL A   1      49.832  25.063  30.730  1.00  0.00    -0.237 OA
ATOM     67  O   UNL A   1      51.057  27.184  31.053  1.00  0.00    -0.237 OA
ATOM     68  O   UNL A   1      50.107  26.000  32.995  1.00  0.00    -0.744 OA
ENDBRANCH  64  65
ENDBRANCH  45  59
BRANCH  46  69
ATOM     69  C   UNL A   1      37.271  32.995  29.683  1.00  0.00    -0.014 A 
ATOM     70  C   UNL A   1      36.375  33.115  30.758  1.00  0.00     0.010 A 
ATOM     71  C   UNL A   1      36.897  33.496  28.422  1.00  0.00     0.010 A 
ATOM     72  C   UNL A   1      35.117  33.696  30.570  1.00  0.00     0.020 A 
ATOM     73  C   UNL A   1      35.653  34.103  28.237  1.00  0.00     0.020 A 
ATOM     74  C   UNL A   1      34.764  34.185  29.310  1.00  0.00     0.054 A 
BRANCH  74  75
ATOM     75  S   UNL A   1      33.139  34.963  29.092  1.00  0.00     0.124 S 
ATOM     76  O   UNL A   1      32.501  34.069  28.132  1.00  0.00    -0.237 OA
ATOM     77  O   UNL A   1      32.591  34.935  30.446  1.00  0.00    -0.237 OA
ATOM     78  O   UNL A   1      33.465  36.295  28.587  1.00  0.00    -0.744 OA
ENDBRANCH  74  75
ENDBRANCH  46  69
BRANCH  58  79
ATOM     79  C   UNL A   1      43.438  35.194  32.077  1.00  0.00    -0.014 A 
ATOM     80  C   UNL A   1      44.020  36.124  31.198  1.00  0.00     0.010 A 
ATOM     81  C   UNL A   1      43.287  35.540  33.434  1.00  0.00     0.010 A 
ATOM     82  C   UNL A   1      44.490  37.352  31.673  1.00  0.00     0.020 A 
ATOM     83  C   UNL A   1      43.728  36.778  33.907  1.00  0.00     0.020 A 
ATOM     84  C   UNL A   1      44.347  37.669  33.028  1.00  0.00     0.054 A 
BRANCH  84  85
ATOM     85  S   UNL A   1      44.958  39.271  33.621  1.00  0.00     0.124 S 
ATOM     86  O   UNL A   1      46.404  39.099  33.522  1.00  0.00    -0.237 OA
ATOM     87  O   UNL A   1      44.369  40.211  32.671  1.00  0.00    -0.237 OA
ATOM     88  O   UNL A   1      44.433  39.359  34.982  1.00  0.00    -0.744 OA
ENDBRANCH  84  85
ENDBRANCH  58  79
ENDBRANCH  32  33
ENDBRANCH  25  27
ENDBRANCH  24  25
ENDBRANCH  23  24
ENDBRANCH   1  23
TORSDOF 18
ENDMDL
MODEL 3
REMARK VINA RESULT:      -9.7      2.749      9.383
REMARK SMILES O=C(CNC(=O)OCC1=Cc2ccccc2S1(=O)=O)OCCOC(=O)c1ccc(-c2c3nc(c(-c4ccc(S(=O)(=O)[O-])cc4)c4ccc([nH]4)c(-c4ccc(S(=O)(=O)[O-])cc4)c4nc(c(-c5ccc(S(=O)(=O)[O-])cc5)c5ccc2[nH]5)C=C4)C=C3)cc1
REMARK SMILES IDX 21 1 20 2 2 3 1 4 3 5 4 6 5 7 6 9 7 10 8 11 9 12 10 13 17 14
REMARK SMILES IDX 11 15 16 16 18 17 19 18 12 19 15 20 13 21 14 22 22 23 23 24
REMARK SMILES IDX 24 25 25 26 26 27 27 28 85 29 28 30 84 31 29 32 30 33 31 34
REMARK SMILES IDX 78 35 32 36 83 37 77 38 79 39 33 40 82 41 76 42 75 43 34 45
REMARK SMILES IDX 64 46 45 47 63 48 46 49 49 50 62 51 80 52 47 53 48 54 61 56
REMARK SMILES IDX 81 57 50 58 35 59 36 60 44 61 37 62 43 63 38 64 39 65 40 66
REMARK SMILES IDX 41 67 42 68 65 69 66 70 74 71 67 72 73 73 68 74 69 75 70 76
REMARK SMILES IDX 71 77 72 78 51 79 52 80 60 81 53 82 59 83 54 84 55 85 56 86
REMARK SMILES IDX 57 87 58 88
REMARK H PARENT 4 8 79 44 49 55
REMARK Flexibility Score: inf
ROOT
ATOM      1  C   UNL A   1      43.561  21.940  26.482  1.00  0.00     0.274 C 
ENDROOT
BRANCH   1   2
ATOM      2  O   UNL A   1      42.837  21.080  25.581  1.00  0.00    -0.461 OA
BRANCH   2   3
ATOM      3  C   UNL A   1      42.058  20.023  25.908  1.00  0.00     0.325 C 
ATOM      4  O   UNL A   1      42.429  18.892  25.590  1.00  0.00    -0.250 OA
BRANCH   3   5
ATOM      5  C   UNL A   1      40.694  20.215  26.573  1.00  0.00     0.242 C 
BRANCH   5   6
ATOM      6  N   UNL A   1      40.480  21.479  27.250  1.00  0.00    -0.311 N 
ATOM      7  C   UNL A   1      39.610  22.461  26.889  1.00  0.00     0.407 C 
ATOM      8  H   UNL A   1      41.022  21.645  28.055  1.00  0.00     0.167 HD
ATOM      9  O   UNL A   1      39.616  23.555  27.432  1.00  0.00    -0.225 OA
BRANCH   7  10
ATOM     10  O   UNL A   1      38.839  22.122  25.827  1.00  0.00    -0.444 OA
BRANCH  10  11
ATOM     11  C   UNL A   1      37.821  23.065  25.469  1.00  0.00     0.283 C 
BRANCH  11  12
ATOM     12  C   UNL A   1      36.573  22.356  25.117  1.00  0.00     0.087 C 
ATOM     13  C   UNL A   1      36.213  21.090  25.396  1.00  0.00     0.029 C 
ATOM     14  S   UNL A   1      35.399  23.165  24.115  1.00  0.00     0.206 S 
ATOM     15  C   UNL A   1      34.904  20.748  24.851  1.00  0.00    -0.005 A 
ATOM     16  C   UNL A   1      34.332  21.785  24.121  1.00  0.00     0.079 A 
ATOM     17  O   UNL A   1      34.726  24.222  24.839  1.00  0.00    -0.219 OA
ATOM     18  O   UNL A   1      35.911  23.315  22.768  1.00  0.00    -0.219 OA
ATOM     19  C   UNL A   1      34.195  19.569  25.011  1.00  0.00     0.009 A 
ATOM     20  C   UNL A   1      33.072  21.730  23.555  1.00  0.00     0.021 A 
ATOM     21  C   UNL A   1      32.915  19.476  24.447  1.00  0.00     0.001 A 
ATOM     22  C   UNL A   1      32.356  20.548  23.727  1.00  0.00     0.001 A 
ENDBRANCH  11  12
ENDBRANCH  10  11
ENDBRANCH   7  10
ENDBRANCH   5   6
ENDBRANCH   3   5
ENDBRANCH   2   3
ENDBRANCH   1   2
BRANCH   1  23
ATOM     23  C   UNL A   1      44.324  23.066  25.782  1.00  0.00     0.275 C 
BRANCH  23  24
ATOM     24  O   UNL A   1      44.332  24.270  26.563  1.00  0.00    -0.458 OA
BRANCH  24  25
ATOM     25  C   UNL A   1      43.600  25.287  26.038  1.00  0.00     0.338 C 
ATOM     26  O   UNL A   1      43.360  25.475  24.858  1.00  0.00    -0.246 OA
BRANCH  25  27
ATOM     27  C   UNL A   1      42.989  26.073  27.129  1.00  0.00     0.060 A 
ATOM     28  C   UNL A   1      43.354  27.418  27.242  1.00  0.00     0.016 A 
ATOM     29  C   UNL A   1      42.088  25.507  28.038  1.00  0.00     0.016 A 
ATOM     30  C   UNL A   1      42.849  28.191  28.286  1.00  0.00     0.010 A 
ATOM     31  C   UNL A   1      41.580  26.287  29.085  1.00  0.00     0.010 A 
ATOM     32  C   UNL A   1      41.981  27.626  29.232  1.00  0.00    -0.014 A 
BRANCH  32  33
ATOM     33  C   UNL A   1      41.581  28.429  30.415  1.00  0.00     0.031 A 
ATOM     34  C   UNL A   1      42.370  28.319  31.691  1.00  0.00     0.074 A 
ATOM     35  C   UNL A   1      40.560  29.304  30.332  1.00  0.00     0.049 A 
ATOM     36  N   UNL A   1      42.261  29.018  32.793  1.00  0.00    -0.248 NA
ATOM     37  C   UNL A   1      43.418  27.288  31.733  1.00  0.00     0.031 C 
ATOM     38  C   UNL A   1      39.714  29.509  29.158  1.00  0.00     0.029 A 
ATOM     39  N   UNL A   1      40.074  30.195  31.258  1.00  0.00    -0.354 N 
ATOM     40  C   UNL A   1      43.242  28.533  33.648  1.00  0.00     0.074 A 
ATOM     41  C   UNL A   1      43.896  27.439  32.961  1.00  0.00     0.031 C 
ATOM     42  C   UNL A   1      38.814  30.471  29.431  1.00  0.00     0.029 A 
ATOM     43  C   UNL A   1      39.016  30.944  30.799  1.00  0.00     0.049 A 
ATOM     44  H   UNL A   1      40.447  30.287  32.164  1.00  0.00     0.167 HD
ATOM     45  C   UNL A   1      43.588  28.971  34.882  1.00  0.00     0.031 A 
ATOM     46  C   UNL A   1      38.296  31.906  31.410  1.00  0.00     0.031 A 
ATOM     47  C   UNL A   1      42.924  30.038  35.584  1.00  0.00     0.049 A 
ATOM     48  C   UNL A   1      38.665  32.342  32.803  1.00  0.00     0.074 A 
ATOM     49  C   UNL A   1      43.208  30.552  36.838  1.00  0.00     0.029 A 
ATOM     50  N   UNL A   1      41.839  30.751  35.098  1.00  0.00    -0.354 N 
ATOM     51  N   UNL A   1      39.633  31.907  33.575  1.00  0.00    -0.248 NA
ATOM     52  C   UNL A   1      37.858  33.416  33.399  1.00  0.00     0.031 C 
ATOM     53  C   UNL A   1      42.262  31.541  37.130  1.00  0.00     0.029 A 
ATOM     54  C   UNL A   1      41.428  31.685  36.035  1.00  0.00     0.049 A 
ATOM     55  H   UNL A   1      41.423  30.614  34.217  1.00  0.00     0.167 HD
ATOM     56  C   UNL A   1      39.566  32.673  34.736  1.00  0.00     0.074 A 
ATOM     57  C   UNL A   1      38.478  33.612  34.554  1.00  0.00     0.031 C 
ATOM     58  C   UNL A   1      40.335  32.606  35.852  1.00  0.00     0.031 A 
BRANCH  45  59
ATOM     59  C   UNL A   1      44.745  28.284  35.558  1.00  0.00    -0.014 A 
ATOM     60  C   UNL A   1      46.057  28.771  35.412  1.00  0.00     0.010 A 
ATOM     61  C   UNL A   1      44.519  27.165  36.381  1.00  0.00     0.010 A 
ATOM     62  C   UNL A   1      47.125  28.132  36.046  1.00  0.00     0.020 A 
ATOM     63  C   UNL A   1      45.581  26.539  37.038  1.00  0.00     0.020 A 
ATOM     64  C   UNL A   1      46.880  27.018  36.854  1.00  0.00     0.054 A 
BRANCH  64  65
ATOM     65  S   UNL A   1      48.283  26.221  37.682  1.00  0.00     0.124 S 
ATOM     66  O   UNL A   1      48.906  25.488  36.582  1.00  0.00    -0.237 OA
ATOM     67  O   UNL A   1      49.045  27.359  38.190  1.00  0.00    -0.237 OA
ATOM     68  O   UNL A   1      47.655  25.389  38.706  1.00  0.00    -0.744 OA
ENDBRANCH  64  65
ENDBRANCH  45  59
BRANCH  46  69
ATOM     69  C   UNL A   1      37.141  32.529  30.705  1.00  0.00    -0.014 A 
ATOM     70  C   UNL A   1      37.332  33.570  29.780  1.00  0.00     0.010 A 
ATOM     71  C   UNL A   1      35.832  32.090  30.980  1.00  0.00     0.010 A 
ATOM     72  C   UNL A   1      36.234  34.180  29.165  1.00  0.00     0.020 A 
ATOM     73  C   UNL A   1      34.736  32.678  30.346  1.00  0.00     0.020 A 
ATOM     74  C   UNL A   1      34.943  33.731  29.454  1.00  0.00     0.054 A 
BRANCH  74  75
ATOM     75  S   UNL A   1      33.532  34.515  28.623  1.00  0.00     0.124 S 
ATOM     76  O   UNL A   1      33.123  33.481  27.680  1.00  0.00    -0.237 OA
ATOM     77  O   UNL A   1      32.612  34.765  29.730  1.00  0.00    -0.237 OA
ATOM     78  O   UNL A   1      34.115  35.715  28.025  1.00  0.00    -0.744 OA
ENDBRANCH  74  75
ENDBRANCH  46  69
BRANCH  58  79
ATOM     79  C   UNL A   1      40.039  33.590  36.956  1.00  0.00    -0.014 A 
ATOM     80  C   UNL A   1      40.693  34.832  37.023  1.00  0.00     0.010 A 
ATOM     81  C   UNL A   1      39.074  33.272  37.932  1.00  0.00     0.010 A 
ATOM     82  C   UNL A   1      40.429  35.717  38.072  1.00  0.00     0.020 A 
ATOM     83  C   UNL A   1      38.786  34.167  38.966  1.00  0.00     0.020 A 
ATOM     84  C   UNL A   1      39.481  35.376  39.042  1.00  0.00     0.054 A 
BRANCH  84  85
ATOM     85  S   UNL A   1      39.150  36.543  40.391  1.00  0.00     0.124 S 
ATOM     86  O   UNL A   1      38.280  35.759  41.263  1.00  0.00    -0.237 OA
ATOM     87  O   UNL A   1      40.485  36.815  40.916  1.00  0.00    -0.237 OA
ATOM     88  O   UNL A   1      38.508  37.671  39.723  1.00  0.00    -0.744 OA
ENDBRANCH  84  85
ENDBRANCH  58  79
ENDBRANCH  32  33
ENDBRANCH  25  27
ENDBRANCH  24  25
ENDBRANCH  23  24
ENDBRANCH   1  23
TORSDOF 18
ENDMDL
