MODEL 1
REMARK VINA RESULT:     -10.2      0.000      0.000
REMARK SMILES Cc1cc2c(c(C)c1Cl)C=C(C(=O)OCCOC(=O)c1ccc(-c3c4nc(c(-c5ccc(S(=O)(=O)[O-])cc5)c5ccc([nH]5)c(-c5ccc(S(=O)(=O)[O-])cc5)c5nc(c(-c6ccc(S(=O)(=O)[O-])cc6)c6ccc3[nH]6)C=C5)C=C4)cc1)[C@@H](C(F)(F)F)O2
REMARK SMILES IDX 16 1 15 2 14 3 12 4 13 5 11 6 1 7 2 8 3 9 8 10 4 11 6 12
REMARK SMILES IDX 9 13 5 14 85 15 7 16 10 17 80 18 81 19 82 20 83 21 84 22
REMARK SMILES IDX 17 23 18 24 19 25 20 26 21 27 79 28 22 29 78 30 23 31 24 32
REMARK SMILES IDX 25 33 72 34 26 35 77 36 71 37 73 38 27 39 76 40 70 41 69 42
REMARK SMILES IDX 28 44 58 45 39 46 57 47 40 48 43 49 56 50 74 51 41 52 42 53
REMARK SMILES IDX 55 55 75 56 44 57 29 58 30 59 38 60 31 61 37 62 32 63 33 64
REMARK SMILES IDX 34 65 35 66 36 67 59 68 60 69 68 70 61 71 67 72 62 73 63 74
REMARK SMILES IDX 64 75 65 76 66 77 45 78 46 79 54 80 47 81 53 82 48 83 49 84
REMARK SMILES IDX 50 85 51 86 52 87
REMARK H PARENT 73 43 43 54
REMARK Flexibility Score: inf
ROOT
ATOM      1  C   UNL A   1      33.383  33.655  27.886  1.00  0.00     0.275 C 
ENDROOT
BRANCH   1   2
ATOM      2  C   UNL A   1      33.489  34.453  29.185  1.00  0.00     0.275 C 
BRANCH   2   3
ATOM      3  O   UNL A   1      34.839  34.436  29.700  1.00  0.00    -0.459 OA
BRANCH   3   4
ATOM      4  C   UNL A   1      35.051  33.612  30.751  1.00  0.00     0.338 C 
ATOM      5  O   UNL A   1      34.413  32.608  31.030  1.00  0.00    -0.246 OA
BRANCH   4   6
ATOM      6  C   UNL A   1      36.190  34.086  31.558  1.00  0.00     0.087 C 
ATOM      7  C   UNL A   1      41.837  35.014  34.609  1.00  0.00     0.046 C 
ATOM      8  C   UNL A   1      40.730  34.802  33.613  1.00  0.00    -0.028 A 
ATOM      9  C   UNL A   1      39.405  34.988  34.031  1.00  0.00     0.052 A 
ATOM     10  C   UNL A   1      40.976  34.367  32.295  1.00  0.00     0.047 A 
ATOM     11  C   UNL A   1      38.340  34.737  33.171  1.00  0.00     0.128 A 
ATOM     12  C   UNL A   1      39.910  34.137  31.396  1.00  0.00    -0.021 A 
ATOM     13  Cl  UNL A   1      42.621  34.089  31.808  1.00  0.00    -0.084 Cl
ATOM     14  C   UNL A   1      38.578  34.305  31.862  1.00  0.00     0.022 A 
ATOM     15  O   UNL A   1      37.097  34.956  33.701  1.00  0.00    -0.475 OA
ATOM     16  C   UNL A   1      40.162  33.709  29.968  1.00  0.00     0.047 C 
ATOM     17  C   UNL A   1      37.417  33.998  31.032  1.00  0.00     0.027 C 
ATOM     18  C   UNL A   1      35.929  34.502  32.972  1.00  0.00     0.316 C 
BRANCH  18  19
ATOM     19  C   UNL A   1      35.241  33.383  33.772  1.00  0.00     0.430 C 
ATOM     20  F   UNL A   1      35.489  33.505  35.100  1.00  0.00    -0.167 F 
ATOM     21  F   UNL A   1      33.894  33.425  33.631  1.00  0.00    -0.167 F 
ATOM     22  F   UNL A   1      35.651  32.151  33.396  1.00  0.00    -0.167 F 
ENDBRANCH  18  19
ENDBRANCH   4   6
ENDBRANCH   3   4
ENDBRANCH   2   3
ENDBRANCH   1   2
BRANCH   1  23
ATOM     23  O   UNL A   1      34.606  32.940  27.644  1.00  0.00    -0.458 OA
BRANCH  23  24
ATOM     24  C   UNL A   1      34.494  31.592  27.625  1.00  0.00     0.338 C 
ATOM     25  O   UNL A   1      33.538  30.935  27.253  1.00  0.00    -0.246 OA
BRANCH  24  26
ATOM     26  C   UNL A   1      35.760  30.977  28.056  1.00  0.00     0.060 A 
ATOM     27  C   UNL A   1      35.724  29.721  28.649  1.00  0.00     0.016 A 
ATOM     28  C   UNL A   1      36.942  31.713  28.060  1.00  0.00     0.016 A 
ATOM     29  C   UNL A   1      36.811  29.275  29.394  1.00  0.00     0.010 A 
ATOM     30  C   UNL A   1      38.082  31.188  28.686  1.00  0.00     0.010 A 
ATOM     31  C   UNL A   1      38.015  29.993  29.424  1.00  0.00    -0.014 A 
BRANCH  31  32
ATOM     32  C   UNL A   1      39.155  29.522  30.275  1.00  0.00     0.031 A 
ATOM     33  C   UNL A   1      40.204  28.589  29.705  1.00  0.00     0.074 A 
ATOM     34  C   UNL A   1      39.300  29.966  31.543  1.00  0.00     0.049 A 
ATOM     35  N   UNL A   1      41.167  27.953  30.325  1.00  0.00    -0.248 NA
ATOM     36  C   UNL A   1      40.155  28.321  28.257  1.00  0.00     0.031 C 
ATOM     37  C   UNL A   1      38.413  30.916  32.220  1.00  0.00     0.029 A 
ATOM     38  N   UNL A   1      40.269  29.705  32.484  1.00  0.00    -0.354 N 
ATOM     39  C   UNL A   1      41.789  27.164  29.361  1.00  0.00     0.074 A 
ATOM     40  C   UNL A   1      41.088  27.390  28.116  1.00  0.00     0.031 C 
ATOM     41  C   UNL A   1      38.926  31.227  33.419  1.00  0.00     0.029 A 
ATOM     42  C   UNL A   1      40.104  30.403  33.659  1.00  0.00     0.049 A 
ATOM     43  H   UNL A   1      41.013  29.077  32.331  1.00  0.00     0.167 HD
ATOM     44  C   UNL A   1      42.850  26.332  29.495  1.00  0.00     0.031 A 
ATOM     45  C   UNL A   1      40.783  30.361  34.823  1.00  0.00     0.031 A 
ATOM     46  C   UNL A   1      43.590  26.159  30.718  1.00  0.00     0.049 A 
ATOM     47  C   UNL A   1      41.914  29.385  34.970  1.00  0.00     0.074 A 
ATOM     48  C   UNL A   1      44.685  25.345  30.951  1.00  0.00     0.029 A 
ATOM     49  N   UNL A   1      43.329  26.826  31.904  1.00  0.00    -0.354 N 
ATOM     50  N   UNL A   1      42.436  28.590  34.067  1.00  0.00    -0.248 NA
ATOM     51  C   UNL A   1      42.525  29.271  36.302  1.00  0.00     0.031 C 
ATOM     52  C   UNL A   1      45.054  25.483  32.292  1.00  0.00     0.029 A 
ATOM     53  C   UNL A   1      44.225  26.424  32.879  1.00  0.00     0.049 A 
ATOM     54  H   UNL A   1      42.613  27.489  32.033  1.00  0.00     0.167 HD
ATOM     55  C   UNL A   1      43.434  27.879  34.722  1.00  0.00     0.074 A 
ATOM     56  C   UNL A   1      43.464  28.359  36.089  1.00  0.00     0.031 C 
ATOM     57  C   UNL A   1      44.241  26.906  34.236  1.00  0.00     0.031 A 
BRANCH  44  58
ATOM     58  C   UNL A   1      43.267  25.514  28.297  1.00  0.00    -0.014 A 
ATOM     59  C   UNL A   1      44.229  25.981  27.384  1.00  0.00     0.010 A 
ATOM     60  C   UNL A   1      42.729  24.225  28.121  1.00  0.00     0.010 A 
ATOM     61  C   UNL A   1      44.617  25.189  26.299  1.00  0.00     0.020 A 
ATOM     62  C   UNL A   1      43.136  23.418  27.054  1.00  0.00     0.020 A 
ATOM     63  C   UNL A   1      44.068  23.912  26.141  1.00  0.00     0.054 A 
BRANCH  63  64
ATOM     64  S   UNL A   1      44.612  22.899  24.736  1.00  0.00     0.124 S 
ATOM     65  O   UNL A   1      45.244  21.767  25.407  1.00  0.00    -0.237 OA
ATOM     66  O   UNL A   1      43.356  22.602  24.052  1.00  0.00    -0.237 OA
ATOM     67  O   UNL A   1      45.524  23.776  24.006  1.00  0.00    -0.744 OA
ENDBRANCH  63  64
ENDBRANCH  44  58
BRANCH  45  68
ATOM     68  C   UNL A   1      40.364  31.229  35.960  1.00  0.00    -0.014 A 
ATOM     69  C   UNL A   1      41.278  32.109  36.562  1.00  0.00     0.010 A 
ATOM     70  C   UNL A   1      39.034  31.204  36.425  1.00  0.00     0.010 A 
ATOM     71  C   UNL A   1      40.871  32.951  37.603  1.00  0.00     0.020 A 
ATOM     72  C   UNL A   1      38.615  32.068  37.440  1.00  0.00     0.020 A 
ATOM     73  C   UNL A   1      39.539  32.932  38.027  1.00  0.00     0.054 A 
BRANCH  73  74
ATOM     74  S   UNL A   1      39.017  34.086  39.326  1.00  0.00     0.124 S 
ATOM     75  O   UNL A   1      37.768  33.485  39.783  1.00  0.00    -0.237 OA
ATOM     76  O   UNL A   1      40.132  34.025  40.268  1.00  0.00    -0.237 OA
ATOM     77  O   UNL A   1      38.879  35.358  38.619  1.00  0.00    -0.744 OA
ENDBRANCH  73  74
ENDBRANCH  45  68
BRANCH  57  78
ATOM     78  C   UNL A   1      45.232  26.284  35.181  1.00  0.00    -0.014 A 
ATOM     79  C   UNL A   1      46.495  26.868  35.381  1.00  0.00     0.010 A 
ATOM     80  C   UNL A   1      44.861  25.165  35.950  1.00  0.00     0.010 A 
ATOM     81  C   UNL A   1      47.372  26.341  36.332  1.00  0.00     0.020 A 
ATOM     82  C   UNL A   1      45.725  24.652  36.919  1.00  0.00     0.020 A 
ATOM     83  C   UNL A   1      46.977  25.242  37.102  1.00  0.00     0.054 A 
BRANCH  83  84
ATOM     84  S   UNL A   1      48.105  24.636  38.387  1.00  0.00     0.124 S 
ATOM     85  O   UNL A   1      48.248  25.808  39.245  1.00  0.00    -0.237 OA
ATOM     86  O   UNL A   1      47.358  23.521  38.965  1.00  0.00    -0.237 OA
ATOM     87  O   UNL A   1      49.305  24.257  37.646  1.00  0.00    -0.744 OA
ENDBRANCH  83  84
ENDBRANCH  57  78
ENDBRANCH  31  32
ENDBRANCH  24  26
ENDBRANCH  23  24
ENDBRANCH   1  23
TORSDOF 15
ENDMDL
MODEL 2
REMARK VINA RESULT:      -9.8      5.703     10.977
REMARK SMILES Cc1cc2c(c(C)c1Cl)C=C(C(=O)OCCOC(=O)c1ccc(-c3c4nc(c(-c5ccc(S(=O)(=O)[O-])cc5)c5ccc([nH]5)c(-c5ccc(S(=O)(=O)[O-])cc5)c5nc(c(-c6ccc(S(=O)(=O)[O-])cc6)c6ccc3[nH]6)C=C5)C=C4)cc1)[C@@H](C(F)(F)F)O2
REMARK SMILES IDX 16 1 15 2 14 3 12 4 13 5 11 6 1 7 2 8 3 9 8 10 4 11 6 12
REMARK SMILES IDX 9 13 5 14 85 15 7 16 10 17 80 18 81 19 82 20 83 21 84 22
REMARK SMILES IDX 17 23 18 24 19 25 20 26 21 27 79 28 22 29 78 30 23 31 24 32
REMARK SMILES IDX 25 33 72 34 26 35 77 36 71 37 73 38 27 39 76 40 70 41 69 42
REMARK SMILES IDX 28 44 58 45 39 46 57 47 40 48 43 49 56 50 74 51 41 52 42 53
REMARK SMILES IDX 55 55 75 56 44 57 29 58 30 59 38 60 31 61 37 62 32 63 33 64
REMARK SMILES IDX 34 65 35 66 36 67 59 68 60 69 68 70 61 71 67 72 62 73 63 74
REMARK SMILES IDX 64 75 65 76 66 77 45 78 46 79 54 80 47 81 53 82 48 83 49 84
REMARK SMILES IDX 50 85 51 86 52 87
REMARK H PARENT 73 43 43 54
REMARK Flexibility Score: inf
ROOT
ATOM      1  C   UNL A   1      32.520  30.023  27.261  1.00  0.00     0.275 C 
ENDROOT
BRANCH   1   2
ATOM      2  C   UNL A   1      32.121  28.979  26.220  1.00  0.00     0.275 C 
BRANCH   2   3
ATOM      3  O   UNL A   1      32.832  27.738  26.425  1.00  0.00    -0.459 OA
BRANCH   3   4
ATOM      4  C   UNL A   1      33.439  27.226  25.330  1.00  0.00     0.338 C 
ATOM      5  O   UNL A   1      33.927  27.858  24.406  1.00  0.00    -0.246 OA
BRANCH   4   6
ATOM      6  C   UNL A   1      33.441  25.753  25.381  1.00  0.00     0.087 C 
ATOM      7  C   UNL A   1      34.534  19.396  24.703  1.00  0.00     0.046 C 
ATOM      8  C   UNL A   1      34.617  20.875  24.964  1.00  0.00    -0.028 A 
ATOM      9  C   UNL A   1      33.427  21.611  25.048  1.00  0.00     0.052 A 
ATOM     10  C   UNL A   1      35.848  21.553  25.068  1.00  0.00     0.047 A 
ATOM     11  C   UNL A   1      33.449  22.992  25.218  1.00  0.00     0.128 A 
ATOM     12  C   UNL A   1      35.892  22.951  25.274  1.00  0.00    -0.021 A 
ATOM     13  Cl  UNL A   1      37.315  20.635  24.908  1.00  0.00    -0.084 Cl
ATOM     14  C   UNL A   1      34.668  23.670  25.322  1.00  0.00     0.022 A 
ATOM     15  O   UNL A   1      32.220  23.592  25.284  1.00  0.00    -0.475 OA
ATOM     16  C   UNL A   1      37.205  23.683  25.427  1.00  0.00     0.047 C 
ATOM     17  C   UNL A   1      34.622  25.125  25.436  1.00  0.00     0.027 C 
ATOM     18  C   UNL A   1      32.136  25.038  25.223  1.00  0.00     0.316 C 
BRANCH  18  19
ATOM     19  C   UNL A   1      31.424  25.445  23.922  1.00  0.00     0.430 C 
ATOM     20  F   UNL A   1      32.304  25.582  22.901  1.00  0.00    -0.167 F 
ATOM     21  F   UNL A   1      30.529  24.506  23.530  1.00  0.00    -0.167 F 
ATOM     22  F   UNL A   1      30.758  26.616  24.042  1.00  0.00    -0.167 F 
ENDBRANCH  18  19
ENDBRANCH   4   6
ENDBRANCH   3   4
ENDBRANCH   2   3
ENDBRANCH   1   2
BRANCH   1  23
ATOM     23  O   UNL A   1      33.849  30.503  26.995  1.00  0.00    -0.458 OA
BRANCH  23  24
ATOM     24  C   UNL A   1      34.550  30.896  28.083  1.00  0.00     0.338 C 
ATOM     25  O   UNL A   1      34.202  31.690  28.940  1.00  0.00    -0.246 OA
BRANCH  24  26
ATOM     26  C   UNL A   1      35.820  30.155  28.156  1.00  0.00     0.060 A 
ATOM     27  C   UNL A   1      36.247  29.684  29.391  1.00  0.00     0.016 A 
ATOM     28  C   UNL A   1      36.674  30.099  27.058  1.00  0.00     0.016 A 
ATOM     29  C   UNL A   1      37.579  29.322  29.571  1.00  0.00     0.010 A 
ATOM     30  C   UNL A   1      37.971  29.590  27.215  1.00  0.00     0.010 A 
ATOM     31  C   UNL A   1      38.468  29.259  28.489  1.00  0.00    -0.014 A 
BRANCH  31  32
ATOM     32  C   UNL A   1      39.909  28.918  28.713  1.00  0.00     0.031 A 
ATOM     33  C   UNL A   1      40.840  29.913  29.374  1.00  0.00     0.074 A 
ATOM     34  C   UNL A   1      40.389  27.699  28.382  1.00  0.00     0.049 A 
ATOM     35  N   UNL A   1      42.142  29.862  29.508  1.00  0.00    -0.248 NA
ATOM     36  C   UNL A   1      40.235  31.130  29.943  1.00  0.00     0.031 C 
ATOM     37  C   UNL A   1      39.610  26.605  27.796  1.00  0.00     0.029 A 
ATOM     38  N   UNL A   1      41.646  27.156  28.524  1.00  0.00    -0.354 N 
ATOM     39  C   UNL A   1      42.514  31.062  30.110  1.00  0.00     0.074 A 
ATOM     40  C   UNL A   1      41.302  31.827  30.305  1.00  0.00     0.031 C 
ATOM     41  C   UNL A   1      40.373  25.506  27.718  1.00  0.00     0.029 A 
ATOM     42  C   UNL A   1      41.732  25.844  28.120  1.00  0.00     0.049 A 
ATOM     43  H   UNL A   1      42.413  27.660  28.883  1.00  0.00     0.167 HD
ATOM     44  C   UNL A   1      43.748  31.487  30.474  1.00  0.00     0.031 A 
ATOM     45  C   UNL A   1      42.786  25.007  28.029  1.00  0.00     0.031 A 
ATOM     46  C   UNL A   1      44.945  30.697  30.342  1.00  0.00     0.049 A 
ATOM     47  C   UNL A   1      44.154  25.520  28.376  1.00  0.00     0.074 A 
ATOM     48  C   UNL A   1      46.240  31.038  30.690  1.00  0.00     0.029 A 
ATOM     49  N   UNL A   1      44.991  29.404  29.847  1.00  0.00    -0.354 N 
ATOM     50  N   UNL A   1      44.493  26.686  28.869  1.00  0.00    -0.248 NA
ATOM     51  C   UNL A   1      45.287  24.619  28.119  1.00  0.00     0.031 C 
ATOM     52  C   UNL A   1      47.077  29.968  30.358  1.00  0.00     0.029 A 
ATOM     53  C   UNL A   1      46.295  28.941  29.855  1.00  0.00     0.049 A 
ATOM     54  H   UNL A   1      44.211  28.890  29.536  1.00  0.00     0.167 HD
ATOM     55  C   UNL A   1      45.878  26.661  28.980  1.00  0.00     0.074 A 
ATOM     56  C   UNL A   1      46.311  25.354  28.530  1.00  0.00     0.031 C 
ATOM     57  C   UNL A   1      46.713  27.640  29.401  1.00  0.00     0.031 A 
BRANCH  44  58
ATOM     58  C   UNL A   1      43.883  32.885  31.026  1.00  0.00    -0.014 A 
ATOM     59  C   UNL A   1      43.802  33.144  32.406  1.00  0.00     0.010 A 
ATOM     60  C   UNL A   1      44.162  33.950  30.148  1.00  0.00     0.010 A 
ATOM     61  C   UNL A   1      43.960  34.445  32.891  1.00  0.00     0.020 A 
ATOM     62  C   UNL A   1      44.350  35.248  30.632  1.00  0.00     0.020 A 
ATOM     63  C   UNL A   1      44.233  35.490  32.002  1.00  0.00     0.054 A 
BRANCH  63  64
ATOM     64  S   UNL A   1      44.458  37.163  32.666  1.00  0.00     0.124 S 
ATOM     65  O   UNL A   1      45.914  37.272  32.725  1.00  0.00    -0.237 OA
ATOM     66  O   UNL A   1      43.806  37.997  31.660  1.00  0.00    -0.237 OA
ATOM     67  O   UNL A   1      43.787  37.117  33.963  1.00  0.00    -0.744 OA
ENDBRANCH  63  64
ENDBRANCH  44  58
BRANCH  45  68
ATOM     68  C   UNL A   1      42.591  23.617  27.527  1.00  0.00    -0.014 A 
ATOM     69  C   UNL A   1      42.718  23.326  26.158  1.00  0.00     0.010 A 
ATOM     70  C   UNL A   1      42.308  22.568  28.424  1.00  0.00     0.010 A 
ATOM     71  C   UNL A   1      42.573  22.014  25.697  1.00  0.00     0.020 A 
ATOM     72  C   UNL A   1      42.198  21.251  27.971  1.00  0.00     0.020 A 
ATOM     73  C   UNL A   1      42.324  20.983  26.608  1.00  0.00     0.054 A 
BRANCH  73  74
ATOM     74  S   UNL A   1      42.214  19.279  25.995  1.00  0.00     0.124 S 
ATOM     75  O   UNL A   1      40.787  19.144  25.724  1.00  0.00    -0.237 OA
ATOM     76  O   UNL A   1      43.083  19.311  24.821  1.00  0.00    -0.237 OA
ATOM     77  O   UNL A   1      42.719  18.481  27.110  1.00  0.00    -0.744 OA
ENDBRANCH  73  74
ENDBRANCH  45  68
BRANCH  57  78
ATOM     78  C   UNL A   1      48.189  27.347  29.399  1.00  0.00    -0.014 A 
ATOM     79  C   UNL A   1      49.007  27.800  28.350  1.00  0.00     0.010 A 
ATOM     80  C   UNL A   1      48.777  26.702  30.503  1.00  0.00     0.010 A 
ATOM     81  C   UNL A   1      50.390  27.610  28.403  1.00  0.00     0.020 A 
ATOM     82  C   UNL A   1      50.161  26.533  30.571  1.00  0.00     0.020 A 
ATOM     83  C   UNL A   1      50.959  26.986  29.518  1.00  0.00     0.054 A 
BRANCH  83  84
ATOM     84  S   UNL A   1      52.765  26.831  29.595  1.00  0.00     0.124 S 
ATOM     85  O   UNL A   1      52.968  26.302  30.941  1.00  0.00    -0.237 OA
ATOM     86  O   UNL A   1      53.051  25.902  28.505  1.00  0.00    -0.237 OA
ATOM     87  O   UNL A   1      53.241  28.196  29.385  1.00  0.00    -0.744 OA
ENDBRANCH  83  84
ENDBRANCH  57  78
ENDBRANCH  31  32
ENDBRANCH  24  26
ENDBRANCH  23  24
ENDBRANCH   1  23
TORSDOF 15
ENDMDL
MODEL 3
REMARK VINA RESULT:      -9.8      4.079      6.498
REMARK SMILES Cc1cc2c(c(C)c1Cl)C=C(C(=O)OCCOC(=O)c1ccc(-c3c4nc(c(-c5ccc(S(=O)(=O)[O-])cc5)c5ccc([nH]5)c(-c5ccc(S(=O)(=O)[O-])cc5)c5nc(c(-c6ccc(S(=O)(=O)[O-])cc6)c6ccc3[nH]6)C=C5)C=C4)cc1)[C@@H](C(F)(F)F)O2
REMARK SMILES IDX 16 1 15 2 14 3 12 4 13 5 11 6 1 7 2 8 3 9 8 10 4 11 6 12
REMARK SMILES IDX 9 13 5 14 85 15 7 16 10 17 80 18 81 19 82 20 83 21 84 22
REMARK SMILES IDX 17 23 18 24 19 25 20 26 21 27 79 28 22 29 78 30 23 31 24 32
REMARK SMILES IDX 25 33 72 34 26 35 77 36 71 37 73 38 27 39 76 40 70 41 69 42
REMARK SMILES IDX 28 44 58 45 39 46 57 47 40 48 43 49 56 50 74 51 41 52 42 53
REMARK SMILES IDX 55 55 75 56 44 57 29 58 30 59 38 60 31 61 37 62 32 63 33 64
REMARK SMILES IDX 34 65 35 66 36 67 59 68 60 69 68 70 61 71 67 72 62 73 63 74
REMARK SMILES IDX 64 75 65 76 66 77 45 78 46 79 54 80 47 81 53 82 48 83 49 84
REMARK SMILES IDX 50 85 51 86 52 87
REMARK H PARENT 73 43 43 54
REMARK Flexibility Score: inf
ROOT
ATOM      1  C   UNL A   1      32.138  30.657  26.817  1.00  0.00     0.275 C 
ENDROOT
BRANCH   1   2
ATOM      2  C   UNL A   1      31.618  30.099  25.494  1.00  0.00     0.275 C 
BRANCH   2   3
ATOM      3  O   UNL A   1      31.401  28.673  25.576  1.00  0.00    -0.459 OA
BRANCH   3   4
ATOM      4  C   UNL A   1      31.047  28.070  24.419  1.00  0.00     0.338 C 
ATOM      5  O   UNL A   1      30.124  28.388  23.684  1.00  0.00    -0.246 OA
BRANCH   4   6
ATOM      6  C   UNL A   1      31.939  26.931  24.135  1.00  0.00     0.087 C 
ATOM      7  C   UNL A   1      36.191  22.036  24.256  1.00  0.00     0.046 C 
ATOM      8  C   UNL A   1      35.044  22.983  24.479  1.00  0.00    -0.028 A 
ATOM      9  C   UNL A   1      34.804  23.983  23.527  1.00  0.00     0.052 A 
ATOM     10  C   UNL A   1      34.243  22.936  25.638  1.00  0.00     0.047 A 
ATOM     11  C   UNL A   1      33.801  24.929  23.718  1.00  0.00     0.128 A 
ATOM     12  C   UNL A   1      33.199  23.867  25.836  1.00  0.00    -0.021 A 
ATOM     13  Cl  UNL A   1      34.589  21.724  26.835  1.00  0.00    -0.084 Cl
ATOM     14  C   UNL A   1      33.003  24.887  24.866  1.00  0.00     0.022 A 
ATOM     15  O   UNL A   1      33.669  25.852  22.716  1.00  0.00    -0.475 OA
ATOM     16  C   UNL A   1      32.307  23.803  27.055  1.00  0.00     0.047 C 
ATOM     17  C   UNL A   1      32.011  25.945  25.037  1.00  0.00     0.027 C 
ATOM     18  C   UNL A   1      32.821  27.009  22.929  1.00  0.00     0.316 C 
BRANCH  18  19
ATOM     19  C   UNL A   1      33.694  28.274  22.947  1.00  0.00     0.430 C 
ATOM     20  F   UNL A   1      34.711  28.184  22.055  1.00  0.00    -0.167 F 
ATOM     21  F   UNL A   1      32.983  29.376  22.605  1.00  0.00    -0.167 F 
ATOM     22  F   UNL A   1      34.242  28.506  24.161  1.00  0.00    -0.167 F 
ENDBRANCH  18  19
ENDBRANCH   4   6
ENDBRANCH   3   4
ENDBRANCH   2   3
ENDBRANCH   1   2
BRANCH   1  23
ATOM     23  O   UNL A   1      33.572  30.574  26.859  1.00  0.00    -0.458 OA
BRANCH  23  24
ATOM     24  C   UNL A   1      34.183  31.504  27.629  1.00  0.00     0.338 C 
ATOM     25  O   UNL A   1      33.713  32.553  28.034  1.00  0.00    -0.246 OA
BRANCH  24  26
ATOM     26  C   UNL A   1      35.528  31.039  28.006  1.00  0.00     0.060 A 
ATOM     27  C   UNL A   1      35.691  29.718  28.401  1.00  0.00     0.016 A 
ATOM     28  C   UNL A   1      36.575  31.945  28.160  1.00  0.00     0.016 A 
ATOM     29  C   UNL A   1      36.829  29.341  29.107  1.00  0.00     0.010 A 
ATOM     30  C   UNL A   1      37.779  31.518  28.739  1.00  0.00     0.010 A 
ATOM     31  C   UNL A   1      37.900  30.227  29.286  1.00  0.00    -0.014 A 
BRANCH  31  32
ATOM     32  C   UNL A   1      39.094  29.819  30.094  1.00  0.00     0.031 A 
ATOM     33  C   UNL A   1      40.041  28.754  29.580  1.00  0.00     0.074 A 
ATOM     34  C   UNL A   1      39.377  30.431  31.264  1.00  0.00     0.049 A 
ATOM     35  N   UNL A   1      41.029  28.160  30.200  1.00  0.00    -0.248 NA
ATOM     36  C   UNL A   1      39.843  28.284  28.198  1.00  0.00     0.031 C 
ATOM     37  C   UNL A   1      38.602  31.518  31.868  1.00  0.00     0.029 A 
ATOM     38  N   UNL A   1      40.419  30.252  32.146  1.00  0.00    -0.354 N 
ATOM     39  C   UNL A   1      41.522  27.205  29.313  1.00  0.00     0.074 A 
ATOM     40  C   UNL A   1      40.717  27.291  28.115  1.00  0.00     0.031 C 
ATOM     41  C   UNL A   1      39.239  31.968  32.958  1.00  0.00     0.029 A 
ATOM     42  C   UNL A   1      40.397  31.120  33.214  1.00  0.00     0.049 A 
ATOM     43  H   UNL A   1      41.116  29.567  32.024  1.00  0.00     0.167 HD
ATOM     44  C   UNL A   1      42.553  26.341  29.476  1.00  0.00     0.031 A 
ATOM     45  C   UNL A   1      41.181  31.206  34.308  1.00  0.00     0.031 A 
ATOM     46  C   UNL A   1      43.397  26.303  30.643  1.00  0.00     0.049 A 
ATOM     47  C   UNL A   1      42.276  30.198  34.499  1.00  0.00     0.074 A 
ATOM     48  C   UNL A   1      44.472  25.469  30.897  1.00  0.00     0.029 A 
ATOM     49  N   UNL A   1      43.279  27.148  31.735  1.00  0.00    -0.354 N 
ATOM     50  N   UNL A   1      42.674  29.253  33.682  1.00  0.00    -0.248 NA
ATOM     51  C   UNL A   1      43.005  30.242  35.774  1.00  0.00     0.031 C 
ATOM     52  C   UNL A   1      44.972  25.776  32.166  1.00  0.00     0.029 A 
ATOM     53  C   UNL A   1      44.245  26.839  32.677  1.00  0.00     0.049 A 
ATOM     54  H   UNL A   1      42.609  27.863  31.826  1.00  0.00     0.167 HD
ATOM     55  C   UNL A   1      43.698  28.587  34.345  1.00  0.00     0.074 A 
ATOM     56  C   UNL A   1      43.878  29.256  35.618  1.00  0.00     0.031 C 
ATOM     57  C   UNL A   1      44.411  27.509  33.941  1.00  0.00     0.031 A 
BRANCH  44  58
ATOM     58  C   UNL A   1      42.818  25.337  28.382  1.00  0.00    -0.014 A 
ATOM     59  C   UNL A   1      43.750  25.589  27.360  1.00  0.00     0.010 A 
ATOM     60  C   UNL A   1      42.163  24.090  28.416  1.00  0.00     0.010 A 
ATOM     61  C   UNL A   1      43.996  24.628  26.375  1.00  0.00     0.020 A 
ATOM     62  C   UNL A   1      42.428  23.115  27.449  1.00  0.00     0.020 A 
ATOM     63  C   UNL A   1      43.334  23.397  26.426  1.00  0.00     0.054 A 
BRANCH  63  64
ATOM     64  S   UNL A   1      43.694  22.161  25.146  1.00  0.00     0.124 S 
ATOM     65  O   UNL A   1      45.057  21.761  25.487  1.00  0.00    -0.237 OA
ATOM     66  O   UNL A   1      42.666  21.150  25.380  1.00  0.00    -0.237 OA
ATOM     67  O   UNL A   1      43.561  22.905  23.896  1.00  0.00    -0.744 OA
ENDBRANCH  63  64
ENDBRANCH  44  58
BRANCH  45  68
ATOM     68  C   UNL A   1      40.910  32.252  35.336  1.00  0.00    -0.014 A 
ATOM     69  C   UNL A   1      41.548  33.502  35.269  1.00  0.00     0.010 A 
ATOM     70  C   UNL A   1      39.984  32.012  36.370  1.00  0.00     0.010 A 
ATOM     71  C   UNL A   1      41.261  34.494  36.212  1.00  0.00     0.020 A 
ATOM     72  C   UNL A   1      39.669  33.013  37.294  1.00  0.00     0.020 A 
ATOM     73  C   UNL A   1      40.316  34.247  37.213  1.00  0.00     0.054 A 
BRANCH  73  74
ATOM     74  S   UNL A   1      39.906  35.574  38.379  1.00  0.00     0.124 S 
ATOM     75  O   UNL A   1      38.719  35.043  39.040  1.00  0.00    -0.237 OA
ATOM     76  O   UNL A   1      41.110  35.653  39.201  1.00  0.00    -0.237 OA
ATOM     77  O   UNL A   1      39.676  36.730  37.514  1.00  0.00    -0.744 OA
ENDBRANCH  73  74
ENDBRANCH  45  68
BRANCH  57  78
ATOM     78  C   UNL A   1      45.458  26.973  34.878  1.00  0.00    -0.014 A 
ATOM     79  C   UNL A   1      46.754  27.518  34.891  1.00  0.00     0.010 A 
ATOM     80  C   UNL A   1      45.116  25.986  35.821  1.00  0.00     0.010 A 
ATOM     81  C   UNL A   1      47.691  27.082  35.830  1.00  0.00     0.020 A 
ATOM     82  C   UNL A   1      46.043  25.567  36.777  1.00  0.00     0.020 A 
ATOM     83  C   UNL A   1      47.327  26.116  36.773  1.00  0.00     0.054 A 
BRANCH  83  84
ATOM     84  S   UNL A   1      48.541  25.634  38.032  1.00  0.00     0.124 S 
ATOM     85  O   UNL A   1      48.736  26.884  38.761  1.00  0.00    -0.237 OA
ATOM     86  O   UNL A   1      47.839  24.582  38.764  1.00  0.00    -0.237 OA
ATOM     87  O   UNL A   1      49.691  25.183  37.253  1.00  0.00    -0.744 OA
ENDBRANCH  83  84
ENDBRANCH  57  78
ENDBRANCH  31  32
ENDBRANCH  24  26
ENDBRANCH  23  24
ENDBRANCH   1  23
TORSDOF 15
ENDMDL
