MODEL 1
REMARK VINA RESULT:     -10.9      0.000      0.000
REMARK SMILES Cc1ccc(NC(=O)NC2(C(=O)OCCOC(=O)c3ccc(-c4c5nc(c(-c6ccc(S(=O)(=O)[O-])cc6)c6ccc([nH]6)c(-c6ccc(S(=O)(=O)[O-])cc6)c6nc(c(-c7ccc(S(=O)(=O)[O-])cc7)c7ccc4[nH]7)C=C6)C=C5)cc3)CC2)c(C)n1
REMARK SMILES IDX 15 1 14 2 13 3 11 4 12 5 10 6 79 7 80 8 9 9 6 10 7 11 8 13
REMARK SMILES IDX 5 15 1 16 2 17 3 18 83 19 4 20 81 21 82 22 16 23 17 24 18 25
REMARK SMILES IDX 19 26 20 27 78 28 21 29 77 30 22 31 23 32 24 33 71 34 25 35
REMARK SMILES IDX 76 36 70 37 72 38 26 39 75 40 69 41 68 42 27 44 57 45 38 46
REMARK SMILES IDX 56 47 39 48 42 49 55 50 73 51 40 52 41 53 54 55 74 56 43 57
REMARK SMILES IDX 28 58 29 59 37 60 30 61 36 62 31 63 32 64 33 65 34 66 35 67
REMARK SMILES IDX 58 68 59 69 67 70 60 71 66 72 61 73 62 74 63 75 64 76 65 77
REMARK SMILES IDX 44 78 45 79 53 80 46 81 52 82 47 83 48 84 49 85 50 86 51 87
REMARK H PARENT 6 12 9 14 72 43 42 54
REMARK Flexibility Score: inf
ROOT
ATOM      1  C   UNL A   1      32.656  28.670  27.157  1.00  0.00     0.275 C 
ENDROOT
BRANCH   1   2
ATOM      2  C   UNL A   1      32.581  27.741  25.939  1.00  0.00     0.274 C 
BRANCH   2   3
ATOM      3  O   UNL A   1      32.172  26.419  26.360  1.00  0.00    -0.460 OA
BRANCH   3   4
ATOM      4  C   UNL A   1      32.280  25.382  25.472  1.00  0.00     0.332 C 
ATOM      5  O   UNL A   1      33.341  24.959  25.024  1.00  0.00    -0.249 OA
BRANCH   4   6
ATOM      6  C   UNL A   1      30.906  24.808  25.055  1.00  0.00     0.139 C 
ATOM      7  C   UNL A   1      30.935  24.061  23.716  1.00  0.00     0.043 C 
ATOM      8  C   UNL A   1      29.976  25.172  23.883  1.00  0.00     0.043 C 
BRANCH   6   9
ATOM      9  N   UNL A   1      30.127  24.380  26.149  1.00  0.00    -0.322 N 
ATOM     10  N   UNL A   1      31.154  22.279  26.677  1.00  0.00    -0.306 N 
ATOM     11  C   UNL A   1      30.225  23.229  26.807  1.00  0.00     0.320 C 
ATOM     12  H   UNL A   1      30.806  21.512  27.186  1.00  0.00     0.171 HD
ATOM     13  O   UNL A   1      29.365  23.019  27.674  1.00  0.00    -0.248 OA
ATOM     14  H   UNL A   1      29.430  25.002  26.460  1.00  0.00     0.166 HD
BRANCH  10  15
ATOM     15  C   UNL A   1      32.411  21.835  26.157  1.00  0.00     0.064 A 
ATOM     16  C   UNL A   1      36.608  21.386  25.324  1.00  0.00     0.067 C 
ATOM     17  C   UNL A   1      35.182  21.513  25.728  1.00  0.00     0.038 A 
ATOM     18  C   UNL A   1      34.767  21.938  26.956  1.00  0.00     0.025 A 
ATOM     19  N   UNL A   1      34.300  21.190  24.782  1.00  0.00    -0.256 NA
ATOM     20  C   UNL A   1      33.397  22.089  27.153  1.00  0.00     0.030 A 
ATOM     21  C   UNL A   1      32.947  21.293  24.969  1.00  0.00     0.061 A 
ATOM     22  C   UNL A   1      32.413  20.529  23.806  1.00  0.00     0.069 C 
ENDBRANCH  10  15
ENDBRANCH   6   9
ENDBRANCH   4   6
ENDBRANCH   3   4
ENDBRANCH   2   3
ENDBRANCH   1   2
BRANCH   1  23
ATOM     23  O   UNL A   1      34.038  28.777  27.523  1.00  0.00    -0.458 OA
BRANCH  23  24
ATOM     24  C   UNL A   1      34.464  30.019  27.849  1.00  0.00     0.338 C 
ATOM     25  O   UNL A   1      33.798  31.036  27.934  1.00  0.00    -0.246 OA
BRANCH  24  26
ATOM     26  C   UNL A   1      35.876  29.911  28.255  1.00  0.00     0.060 A 
ATOM     27  C   UNL A   1      36.856  30.074  27.276  1.00  0.00     0.016 A 
ATOM     28  C   UNL A   1      36.227  29.490  29.532  1.00  0.00     0.016 A 
ATOM     29  C   UNL A   1      38.162  29.682  27.524  1.00  0.00     0.010 A 
ATOM     30  C   UNL A   1      37.575  29.253  29.822  1.00  0.00     0.010 A 
ATOM     31  C   UNL A   1      38.554  29.309  28.811  1.00  0.00    -0.014 A 
BRANCH  31  32
ATOM     32  C   UNL A   1      39.978  28.985  29.103  1.00  0.00     0.031 A 
ATOM     33  C   UNL A   1      40.907  30.066  29.587  1.00  0.00     0.074 A 
ATOM     34  C   UNL A   1      40.447  27.736  28.889  1.00  0.00     0.049 A 
ATOM     35  N   UNL A   1      42.213  30.098  29.564  1.00  0.00    -0.248 NA
ATOM     36  C   UNL A   1      40.287  31.287  30.135  1.00  0.00     0.031 C 
ATOM     37  C   UNL A   1      39.648  26.575  28.480  1.00  0.00     0.029 A 
ATOM     38  N   UNL A   1      41.724  27.235  28.966  1.00  0.00    -0.354 N 
ATOM     39  C   UNL A   1      42.569  31.372  29.995  1.00  0.00     0.074 A 
ATOM     40  C   UNL A   1      41.342  32.077  30.296  1.00  0.00     0.031 C 
ATOM     41  C   UNL A   1      40.439  25.502  28.372  1.00  0.00     0.029 A 
ATOM     42  C   UNL A   1      41.818  25.925  28.554  1.00  0.00     0.049 A 
ATOM     43  H   UNL A   1      42.494  27.760  29.284  1.00  0.00     0.167 HD
ATOM     44  C   UNL A   1      43.812  31.900  30.103  1.00  0.00     0.031 A 
ATOM     45  C   UNL A   1      42.888  25.165  28.253  1.00  0.00     0.031 A 
ATOM     46  C   UNL A   1      45.018  31.148  29.860  1.00  0.00     0.049 A 
ATOM     47  C   UNL A   1      44.250  25.779  28.358  1.00  0.00     0.074 A 
ATOM     48  C   UNL A   1      46.331  31.562  29.993  1.00  0.00     0.029 A 
ATOM     49  N   UNL A   1      45.056  29.823  29.449  1.00  0.00    -0.354 N 
ATOM     50  N   UNL A   1      44.576  26.998  28.715  1.00  0.00    -0.248 NA
ATOM     51  C   UNL A   1      45.387  24.923  28.002  1.00  0.00     0.031 C 
ATOM     52  C   UNL A   1      47.162  30.508  29.603  1.00  0.00     0.029 A 
ATOM     53  C   UNL A   1      46.370  29.413  29.298  1.00  0.00     0.049 A 
ATOM     54  H   UNL A   1      44.266  29.258  29.290  1.00  0.00     0.167 HD
ATOM     55  C   UNL A   1      45.961  27.052  28.644  1.00  0.00     0.074 A 
ATOM     56  C   UNL A   1      46.409  25.735  28.233  1.00  0.00     0.031 C 
ATOM     57  C   UNL A   1      46.789  28.096  28.889  1.00  0.00     0.031 A 
BRANCH  44  58
ATOM     58  C   UNL A   1      43.950  33.364  30.442  1.00  0.00    -0.014 A 
ATOM     59  C   UNL A   1      44.137  33.814  31.761  1.00  0.00     0.010 A 
ATOM     60  C   UNL A   1      43.983  34.304  29.393  1.00  0.00     0.010 A 
ATOM     61  C   UNL A   1      44.336  35.175  32.022  1.00  0.00     0.020 A 
ATOM     62  C   UNL A   1      44.211  35.659  29.646  1.00  0.00     0.020 A 
ATOM     63  C   UNL A   1      44.378  36.089  30.963  1.00  0.00     0.054 A 
BRANCH  63  64
ATOM     64  S   UNL A   1      44.701  37.837  31.326  1.00  0.00     0.124 S 
ATOM     65  O   UNL A   1      44.287  37.938  32.724  1.00  0.00    -0.237 OA
ATOM     66  O   UNL A   1      46.139  37.952  31.090  1.00  0.00    -0.237 OA
ATOM     67  O   UNL A   1      43.857  38.555  30.374  1.00  0.00    -0.744 OA
ENDBRANCH  63  64
ENDBRANCH  44  58
BRANCH  45  68
ATOM     68  C   UNL A   1      42.691  23.784  27.730  1.00  0.00    -0.014 A 
ATOM     69  C   UNL A   1      42.627  22.686  28.601  1.00  0.00     0.010 A 
ATOM     70  C   UNL A   1      42.535  23.566  26.345  1.00  0.00     0.010 A 
ATOM     71  C   UNL A   1      42.427  21.395  28.099  1.00  0.00     0.020 A 
ATOM     72  C   UNL A   1      42.294  22.286  25.844  1.00  0.00     0.020 A 
ATOM     73  C   UNL A   1      42.256  21.205  26.725  1.00  0.00     0.054 A 
BRANCH  73  74
ATOM     74  S   UNL A   1      41.948  19.530  26.104  1.00  0.00     0.124 S 
ATOM     75  O   UNL A   1      42.843  19.464  24.953  1.00  0.00    -0.237 OA
ATOM     76  O   UNL A   1      42.319  18.696  27.244  1.00  0.00    -0.237 OA
ATOM     77  O   UNL A   1      40.520  19.539  25.788  1.00  0.00    -0.744 OA
ENDBRANCH  73  74
ENDBRANCH  45  68
BRANCH  57  78
ATOM     78  C   UNL A   1      48.265  27.837  28.766  1.00  0.00    -0.014 A 
ATOM     79  C   UNL A   1      49.002  27.290  29.829  1.00  0.00     0.010 A 
ATOM     80  C   UNL A   1      48.911  28.113  27.547  1.00  0.00     0.010 A 
ATOM     81  C   UNL A   1      50.372  27.059  29.689  1.00  0.00     0.020 A 
ATOM     82  C   UNL A   1      50.273  27.852  27.392  1.00  0.00     0.020 A 
ATOM     83  C   UNL A   1      50.999  27.341  28.470  1.00  0.00     0.054 A 
BRANCH  83  84
ATOM     84  S   UNL A   1      52.769  26.996  28.301  1.00  0.00     0.124 S 
ATOM     85  O   UNL A   1      53.058  26.276  29.538  1.00  0.00    -0.237 OA
ATOM     86  O   UNL A   1      52.824  26.195  27.081  1.00  0.00    -0.237 OA
ATOM     87  O   UNL A   1      53.372  28.323  28.197  1.00  0.00    -0.744 OA
ENDBRANCH  83  84
ENDBRANCH  57  78
ENDBRANCH  31  32
ENDBRANCH  24  26
ENDBRANCH  23  24
ENDBRANCH   1  23
TORSDOF 16
ENDMDL
MODEL 2
REMARK VINA RESULT:     -10.6      1.055      1.786
REMARK SMILES Cc1ccc(NC(=O)NC2(C(=O)OCCOC(=O)c3ccc(-c4c5nc(c(-c6ccc(S(=O)(=O)[O-])cc6)c6ccc([nH]6)c(-c6ccc(S(=O)(=O)[O-])cc6)c6nc(c(-c7ccc(S(=O)(=O)[O-])cc7)c7ccc4[nH]7)C=C6)C=C5)cc3)CC2)c(C)n1
REMARK SMILES IDX 15 1 14 2 13 3 11 4 12 5 10 6 79 7 80 8 9 9 6 10 7 11 8 13
REMARK SMILES IDX 5 15 1 16 2 17 3 18 83 19 4 20 81 21 82 22 16 23 17 24 18 25
REMARK SMILES IDX 19 26 20 27 78 28 21 29 77 30 22 31 23 32 24 33 71 34 25 35
REMARK SMILES IDX 76 36 70 37 72 38 26 39 75 40 69 41 68 42 27 44 57 45 38 46
REMARK SMILES IDX 56 47 39 48 42 49 55 50 73 51 40 52 41 53 54 55 74 56 43 57
REMARK SMILES IDX 28 58 29 59 37 60 30 61 36 62 31 63 32 64 33 65 34 66 35 67
REMARK SMILES IDX 58 68 59 69 67 70 60 71 66 72 61 73 62 74 63 75 64 76 65 77
REMARK SMILES IDX 44 78 45 79 53 80 46 81 52 82 47 83 48 84 49 85 50 86 51 87
REMARK H PARENT 6 12 9 14 72 43 42 54
REMARK Flexibility Score: inf
ROOT
ATOM      1  C   UNL A   1      32.735  28.588  27.565  1.00  0.00     0.275 C 
ENDROOT
BRANCH   1   2
ATOM      2  C   UNL A   1      32.409  27.365  26.698  1.00  0.00     0.274 C 
BRANCH   2   3
ATOM      3  O   UNL A   1      32.866  27.594  25.344  1.00  0.00    -0.460 OA
BRANCH   3   4
ATOM      4  C   UNL A   1      33.250  26.519  24.588  1.00  0.00     0.332 C 
ATOM      5  O   UNL A   1      34.108  25.708  24.919  1.00  0.00    -0.249 OA
BRANCH   4   6
ATOM      6  C   UNL A   1      32.506  26.445  23.234  1.00  0.00     0.139 C 
ATOM      7  C   UNL A   1      33.101  25.419  22.263  1.00  0.00     0.043 C 
ATOM      8  C   UNL A   1      32.962  26.819  21.811  1.00  0.00     0.043 C 
BRANCH   6   9
ATOM      9  N   UNL A   1      31.118  26.668  23.350  1.00  0.00    -0.322 N 
ATOM     10  N   UNL A   1      30.380  24.608  24.328  1.00  0.00    -0.306 N 
ATOM     11  C   UNL A   1      30.198  25.813  23.784  1.00  0.00     0.320 C 
ATOM     12  H   UNL A   1      29.484  24.204  24.355  1.00  0.00     0.171 HD
ATOM     13  O   UNL A   1      29.020  26.189  23.702  1.00  0.00    -0.248 OA
ATOM     14  H   UNL A   1      30.794  27.557  23.077  1.00  0.00     0.166 HD
BRANCH  10  15
ATOM     15  C   UNL A   1      31.247  23.619  24.892  1.00  0.00     0.064 A 
ATOM     16  C   UNL A   1      33.992  21.508  27.445  1.00  0.00     0.067 C 
ATOM     17  C   UNL A   1      32.964  22.239  26.656  1.00  0.00     0.038 A 
ATOM     18  C   UNL A   1      32.080  23.130  27.188  1.00  0.00     0.025 A 
ATOM     19  N   UNL A   1      32.968  21.974  25.350  1.00  0.00    -0.256 NA
ATOM     20  C   UNL A   1      31.238  23.801  26.305  1.00  0.00     0.030 A 
ATOM     21  C   UNL A   1      32.120  22.594  24.470  1.00  0.00     0.061 A 
ATOM     22  C   UNL A   1      32.268  21.752  23.250  1.00  0.00     0.069 C 
ENDBRANCH  10  15
ENDBRANCH   6   9
ENDBRANCH   4   6
ENDBRANCH   3   4
ENDBRANCH   2   3
ENDBRANCH   1   2
BRANCH   1  23
ATOM     23  O   UNL A   1      34.140  28.837  27.435  1.00  0.00    -0.458 OA
BRANCH  23  24
ATOM     24  C   UNL A   1      34.564  30.045  27.870  1.00  0.00     0.338 C 
ATOM     25  O   UNL A   1      33.896  31.050  28.046  1.00  0.00    -0.246 OA
BRANCH  24  26
ATOM     26  C   UNL A   1      35.977  29.904  28.263  1.00  0.00     0.060 A 
ATOM     27  C   UNL A   1      36.954  30.118  27.292  1.00  0.00     0.016 A 
ATOM     28  C   UNL A   1      36.330  29.408  29.513  1.00  0.00     0.016 A 
ATOM     29  C   UNL A   1      38.258  29.703  27.511  1.00  0.00     0.010 A 
ATOM     30  C   UNL A   1      37.677  29.145  29.783  1.00  0.00     0.010 A 
ATOM     31  C   UNL A   1      38.653  29.253  28.773  1.00  0.00    -0.014 A 
BRANCH  31  32
ATOM     32  C   UNL A   1      40.075  28.903  29.040  1.00  0.00     0.031 A 
ATOM     33  C   UNL A   1      41.032  29.967  29.509  1.00  0.00     0.074 A 
ATOM     34  C   UNL A   1      40.518  27.646  28.818  1.00  0.00     0.049 A 
ATOM     35  N   UNL A   1      42.338  29.975  29.462  1.00  0.00    -0.248 NA
ATOM     36  C   UNL A   1      40.444  31.199  30.067  1.00  0.00     0.031 C 
ATOM     37  C   UNL A   1      39.690  26.500  28.423  1.00  0.00     0.029 A 
ATOM     38  N   UNL A   1      41.786  27.122  28.873  1.00  0.00    -0.354 N 
ATOM     39  C   UNL A   1      42.725  31.242  29.887  1.00  0.00     0.074 A 
ATOM     40  C   UNL A   1      41.516  31.969  30.210  1.00  0.00     0.031 C 
ATOM     41  C   UNL A   1      40.460  25.412  28.301  1.00  0.00     0.029 A 
ATOM     42  C   UNL A   1      41.849  25.810  28.459  1.00  0.00     0.049 A 
ATOM     43  H   UNL A   1      42.571  27.632  29.177  1.00  0.00     0.167 HD
ATOM     44  C   UNL A   1      43.979  31.747  29.974  1.00  0.00     0.031 A 
ATOM     45  C   UNL A   1      42.899  25.031  28.140  1.00  0.00     0.031 A 
ATOM     46  C   UNL A   1      45.166  30.973  29.710  1.00  0.00     0.049 A 
ATOM     47  C   UNL A   1      44.274  25.620  28.220  1.00  0.00     0.074 A 
ATOM     48  C   UNL A   1      46.489  31.364  29.820  1.00  0.00     0.029 A 
ATOM     49  N   UNL A   1      45.173  29.648  29.298  1.00  0.00    -0.354 N 
ATOM     50  N   UNL A   1      44.628  26.833  28.572  1.00  0.00    -0.248 NA
ATOM     51  C   UNL A   1      45.389  24.744  27.845  1.00  0.00     0.031 C 
ATOM     52  C   UNL A   1      47.294  30.295  29.415  1.00  0.00     0.029 A 
ATOM     53  C   UNL A   1      46.476  29.215  29.124  1.00  0.00     0.049 A 
ATOM     54  H   UNL A   1      44.370  29.097  29.152  1.00  0.00     0.167 HD
ATOM     55  C   UNL A   1      46.013  26.861  28.477  1.00  0.00     0.074 A 
ATOM     56  C   UNL A   1      46.430  25.537  28.058  1.00  0.00     0.031 C 
ATOM     57  C   UNL A   1      46.864  27.891  28.708  1.00  0.00     0.031 A 
BRANCH  44  58
ATOM     58  C   UNL A   1      44.150  33.208  30.311  1.00  0.00    -0.014 A 
ATOM     59  C   UNL A   1      44.104  34.215  29.331  1.00  0.00     0.010 A 
ATOM     60  C   UNL A   1      44.268  33.583  31.664  1.00  0.00     0.010 A 
ATOM     61  C   UNL A   1      44.193  35.563  29.696  1.00  0.00     0.020 A 
ATOM     62  C   UNL A   1      44.326  34.929  32.036  1.00  0.00     0.020 A 
ATOM     63  C   UNL A   1      44.296  35.913  31.047  1.00  0.00     0.054 A 
BRANCH  63  64
ATOM     64  S   UNL A   1      44.343  37.671  31.496  1.00  0.00     0.124 S 
ATOM     65  O   UNL A   1      45.779  37.913  31.623  1.00  0.00    -0.237 OA
ATOM     66  O   UNL A   1      43.699  38.310  30.351  1.00  0.00    -0.237 OA
ATOM     67  O   UNL A   1      43.589  37.733  32.745  1.00  0.00    -0.744 OA
ENDBRANCH  63  64
ENDBRANCH  44  58
BRANCH  45  68
ATOM     68  C   UNL A   1      42.668  23.654  27.619  1.00  0.00    -0.014 A 
ATOM     69  C   UNL A   1      42.624  23.405  26.238  1.00  0.00     0.010 A 
ATOM     70  C   UNL A   1      42.521  22.574  28.513  1.00  0.00     0.010 A 
ATOM     71  C   UNL A   1      42.422  22.105  25.761  1.00  0.00     0.020 A 
ATOM     72  C   UNL A   1      42.360  21.270  28.040  1.00  0.00     0.020 A 
ATOM     73  C   UNL A   1      42.296  21.046  26.665  1.00  0.00     0.054 A 
BRANCH  73  74
ATOM     74  S   UNL A   1      42.086  19.365  26.021  1.00  0.00     0.124 S 
ATOM     75  O   UNL A   1      42.577  18.552  27.130  1.00  0.00    -0.237 OA
ATOM     76  O   UNL A   1      40.647  19.298  25.775  1.00  0.00    -0.237 OA
ATOM     77  O   UNL A   1      42.916  19.352  24.818  1.00  0.00    -0.744 OA
ENDBRANCH  73  74
ENDBRANCH  45  68
BRANCH  57  78
ATOM     78  C   UNL A   1      48.332  27.604  28.559  1.00  0.00    -0.014 A 
ATOM     79  C   UNL A   1      49.022  27.918  27.376  1.00  0.00     0.010 A 
ATOM     80  C   UNL A   1      49.036  27.043  29.641  1.00  0.00     0.010 A 
ATOM     81  C   UNL A   1      50.386  27.641  27.263  1.00  0.00     0.020 A 
ATOM     82  C   UNL A   1      50.406  26.796  29.544  1.00  0.00     0.020 A 
ATOM     83  C   UNL A   1      51.069  27.083  28.349  1.00  0.00     0.054 A 
BRANCH  83  84
ATOM     84  S   UNL A   1      52.847  26.769  28.190  1.00  0.00     0.124 S 
ATOM     85  O   UNL A   1      53.227  26.470  29.567  1.00  0.00    -0.237 OA
ATOM     86  O   UNL A   1      52.890  25.639  27.266  1.00  0.00    -0.237 OA
ATOM     87  O   UNL A   1      53.374  28.024  27.657  1.00  0.00    -0.744 OA
ENDBRANCH  83  84
ENDBRANCH  57  78
ENDBRANCH  31  32
ENDBRANCH  24  26
ENDBRANCH  23  24
ENDBRANCH   1  23
TORSDOF 16
ENDMDL
MODEL 3
REMARK VINA RESULT:     -10.5      1.515      2.355
REMARK SMILES Cc1ccc(NC(=O)NC2(C(=O)OCCOC(=O)c3ccc(-c4c5nc(c(-c6ccc(S(=O)(=O)[O-])cc6)c6ccc([nH]6)c(-c6ccc(S(=O)(=O)[O-])cc6)c6nc(c(-c7ccc(S(=O)(=O)[O-])cc7)c7ccc4[nH]7)C=C6)C=C5)cc3)CC2)c(C)n1
REMARK SMILES IDX 15 1 14 2 13 3 11 4 12 5 10 6 79 7 80 8 9 9 6 10 7 11 8 13
REMARK SMILES IDX 5 15 1 16 2 17 3 18 83 19 4 20 81 21 82 22 16 23 17 24 18 25
REMARK SMILES IDX 19 26 20 27 78 28 21 29 77 30 22 31 23 32 24 33 71 34 25 35
REMARK SMILES IDX 76 36 70 37 72 38 26 39 75 40 69 41 68 42 27 44 57 45 38 46
REMARK SMILES IDX 56 47 39 48 42 49 55 50 73 51 40 52 41 53 54 55 74 56 43 57
REMARK SMILES IDX 28 58 29 59 37 60 30 61 36 62 31 63 32 64 33 65 34 66 35 67
REMARK SMILES IDX 58 68 59 69 67 70 60 71 66 72 61 73 62 74 63 75 64 76 65 77
REMARK SMILES IDX 44 78 45 79 53 80 46 81 52 82 47 83 48 84 49 85 50 86 51 87
REMARK H PARENT 6 12 9 14 72 43 42 54
REMARK Flexibility Score: inf
ROOT
ATOM      1  C   UNL A   1      32.437  29.340  27.156  1.00  0.00     0.275 C 
ENDROOT
BRANCH   1   2
ATOM      2  C   UNL A   1      31.640  29.317  25.846  1.00  0.00     0.274 C 
BRANCH   2   3
ATOM      3  O   UNL A   1      31.770  28.018  25.220  1.00  0.00    -0.460 OA
BRANCH   3   4
ATOM      4  C   UNL A   1      31.561  27.914  23.870  1.00  0.00     0.332 C 
ATOM      5  O   UNL A   1      30.463  27.747  23.349  1.00  0.00    -0.249 OA
BRANCH   4   6
ATOM      6  C   UNL A   1      32.872  27.994  23.055  1.00  0.00     0.139 C 
ATOM      7  C   UNL A   1      34.134  28.017  23.925  1.00  0.00     0.043 C 
ATOM      8  C   UNL A   1      33.929  29.110  22.953  1.00  0.00     0.043 C 
BRANCH   6   9
ATOM      9  N   UNL A   1      32.807  27.304  21.827  1.00  0.00    -0.322 N 
ATOM     10  N   UNL A   1      33.213  25.046  22.524  1.00  0.00    -0.306 N 
ATOM     11  C   UNL A   1      33.020  26.008  21.619  1.00  0.00     0.320 C 
ATOM     12  H   UNL A   1      33.512  24.266  22.004  1.00  0.00     0.171 HD
ATOM     13  O   UNL A   1      33.011  25.635  20.437  1.00  0.00    -0.248 OA
ATOM     14  H   UNL A   1      32.579  27.842  21.034  1.00  0.00     0.166 HD
BRANCH  10  15
ATOM     15  C   UNL A   1      33.194  24.599  23.883  1.00  0.00     0.064 A 
ATOM     16  C   UNL A   1      34.180  22.715  27.623  1.00  0.00     0.067 C 
ATOM     17  C   UNL A   1      33.943  23.430  26.340  1.00  0.00     0.038 A 
ATOM     18  C   UNL A   1      34.933  23.840  25.497  1.00  0.00     0.025 A 
ATOM     19  N   UNL A   1      32.660  23.640  26.045  1.00  0.00    -0.256 NA
ATOM     20  C   UNL A   1      34.547  24.417  24.289  1.00  0.00     0.030 A 
ATOM     21  C   UNL A   1      32.261  24.243  24.880  1.00  0.00     0.061 A 
ATOM     22  C   UNL A   1      30.830  24.543  25.161  1.00  0.00     0.069 C 
ENDBRANCH  10  15
ENDBRANCH   6   9
ENDBRANCH   4   6
ENDBRANCH   3   4
ENDBRANCH   2   3
ENDBRANCH   1   2
BRANCH   1  23
ATOM     23  O   UNL A   1      33.762  29.784  26.837  1.00  0.00    -0.458 OA
BRANCH  23  24
ATOM     24  C   UNL A   1      34.341  30.601  27.746  1.00  0.00     0.338 C 
ATOM     25  O   UNL A   1      33.828  31.527  28.349  1.00  0.00    -0.246 OA
BRANCH  24  26
ATOM     26  C   UNL A   1      35.689  30.072  28.021  1.00  0.00     0.060 A 
ATOM     27  C   UNL A   1      36.000  29.715  29.333  1.00  0.00     0.016 A 
ATOM     28  C   UNL A   1      36.680  30.087  27.047  1.00  0.00     0.016 A 
ATOM     29  C   UNL A   1      37.319  29.513  29.707  1.00  0.00     0.010 A 
ATOM     30  C   UNL A   1      37.984  29.722  27.400  1.00  0.00     0.010 A 
ATOM     31  C   UNL A   1      38.327  29.467  28.742  1.00  0.00    -0.014 A 
BRANCH  31  32
ATOM     32  C   UNL A   1      39.730  29.150  29.128  1.00  0.00     0.031 A 
ATOM     33  C   UNL A   1      40.618  30.234  29.677  1.00  0.00     0.074 A 
ATOM     34  C   UNL A   1      40.219  27.904  28.941  1.00  0.00     0.049 A 
ATOM     35  N   UNL A   1      41.923  30.273  29.742  1.00  0.00    -0.248 NA
ATOM     36  C   UNL A   1      39.956  31.449  30.186  1.00  0.00     0.031 C 
ATOM     37  C   UNL A   1      39.455  26.741  28.474  1.00  0.00     0.029 A 
ATOM     38  N   UNL A   1      41.490  27.409  29.101  1.00  0.00    -0.354 N 
ATOM     39  C   UNL A   1      42.242  31.547  30.201  1.00  0.00     0.074 A 
ATOM     40  C   UNL A   1      40.994  32.244  30.421  1.00  0.00     0.031 C 
ATOM     41  C   UNL A   1      40.258  25.672  28.415  1.00  0.00     0.029 A 
ATOM     42  C   UNL A   1      41.618  26.102  28.691  1.00  0.00     0.049 A 
ATOM     43  H   UNL A   1      42.234  27.937  29.472  1.00  0.00     0.167 HD
ATOM     44  C   UNL A   1      43.472  32.080  30.394  1.00  0.00     0.031 A 
ATOM     45  C   UNL A   1      42.710  25.349  28.460  1.00  0.00     0.031 A 
ATOM     46  C   UNL A   1      44.695  31.335  30.229  1.00  0.00     0.049 A 
ATOM     47  C   UNL A   1      44.059  25.969  28.658  1.00  0.00     0.074 A 
ATOM     48  C   UNL A   1      45.995  31.756  30.452  1.00  0.00     0.029 A 
ATOM     49  N   UNL A   1      44.768  30.012  29.817  1.00  0.00    -0.354 N 
ATOM     50  N   UNL A   1      44.354  27.188  29.041  1.00  0.00    -0.248 NA
ATOM     51  C   UNL A   1      45.222  25.120  28.377  1.00  0.00     0.031 C 
ATOM     52  C   UNL A   1      46.856  30.708  30.115  1.00  0.00     0.029 A 
ATOM     53  C   UNL A   1      46.092  29.610  29.752  1.00  0.00     0.049 A 
ATOM     54  H   UNL A   1      43.994  29.444  29.603  1.00  0.00     0.167 HD
ATOM     55  C   UNL A   1      45.740  27.249  29.064  1.00  0.00     0.074 A 
ATOM     56  C   UNL A   1      46.222  25.936  28.678  1.00  0.00     0.031 C 
ATOM     57  C   UNL A   1      46.544  28.297  29.368  1.00  0.00     0.031 A 
BRANCH  44  58
ATOM     58  C   UNL A   1      43.580  33.543  30.747  1.00  0.00    -0.014 A 
ATOM     59  C   UNL A   1      43.706  33.987  32.075  1.00  0.00     0.010 A 
ATOM     60  C   UNL A   1      43.645  34.490  29.706  1.00  0.00     0.010 A 
ATOM     61  C   UNL A   1      43.878  35.349  32.352  1.00  0.00     0.020 A 
ATOM     62  C   UNL A   1      43.847  35.847  29.976  1.00  0.00     0.020 A 
ATOM     63  C   UNL A   1      43.954  36.270  31.301  1.00  0.00     0.054 A 
BRANCH  63  64
ATOM     64  S   UNL A   1      44.242  38.019  31.688  1.00  0.00     0.124 S 
ATOM     65  O   UNL A   1      43.467  38.190  32.915  1.00  0.00    -0.237 OA
ATOM     66  O   UNL A   1      45.693  38.075  31.851  1.00  0.00    -0.237 OA
ATOM     67  O   UNL A   1      43.721  38.726  30.521  1.00  0.00    -0.744 OA
ENDBRANCH  63  64
ENDBRANCH  44  58
BRANCH  45  68
ATOM     68  C   UNL A   1      42.556  23.969  27.919  1.00  0.00    -0.014 A 
ATOM     69  C   UNL A   1      42.404  22.870  28.780  1.00  0.00     0.010 A 
ATOM     70  C   UNL A   1      42.532  23.752  26.526  1.00  0.00     0.010 A 
ATOM     71  C   UNL A   1      42.245  21.582  28.260  1.00  0.00     0.020 A 
ATOM     72  C   UNL A   1      42.332  22.473  26.003  1.00  0.00     0.020 A 
ATOM     73  C   UNL A   1      42.205  21.392  26.875  1.00  0.00     0.054 A 
BRANCH  73  74
ATOM     74  S   UNL A   1      41.947  19.719  26.227  1.00  0.00     0.124 S 
ATOM     75  O   UNL A   1      40.512  19.717  25.957  1.00  0.00    -0.237 OA
ATOM     76  O   UNL A   1      42.813  19.699  25.050  1.00  0.00    -0.237 OA
ATOM     77  O   UNL A   1      42.381  18.856  27.323  1.00  0.00    -0.744 OA
ENDBRANCH  73  74
ENDBRANCH  45  68
BRANCH  57  78
ATOM     78  C   UNL A   1      48.026  28.045  29.343  1.00  0.00    -0.014 A 
ATOM     79  C   UNL A   1      48.705  27.562  30.474  1.00  0.00     0.010 A 
ATOM     80  C   UNL A   1      48.739  28.264  28.150  1.00  0.00     0.010 A 
ATOM     81  C   UNL A   1      50.082  27.337  30.424  1.00  0.00     0.020 A 
ATOM     82  C   UNL A   1      50.110  28.008  28.087  1.00  0.00     0.020 A 
ATOM     83  C   UNL A   1      50.776  27.561  29.230  1.00  0.00     0.054 A 
BRANCH  83  84
ATOM     84  S   UNL A   1      52.556  27.224  29.181  1.00  0.00     0.124 S 
ATOM     85  O   UNL A   1      53.122  28.556  29.375  1.00  0.00    -0.237 OA
ATOM     86  O   UNL A   1      52.736  26.296  30.294  1.00  0.00    -0.237 OA
ATOM     87  O   UNL A   1      52.762  26.646  27.855  1.00  0.00    -0.744 OA
ENDBRANCH  83  84
ENDBRANCH  57  78
ENDBRANCH  31  32
ENDBRANCH  24  26
ENDBRANCH  23  24
ENDBRANCH   1  23
TORSDOF 16
ENDMDL
