MODEL 1
REMARK VINA RESULT:     -11.5      0.000      0.000
REMARK SMILES O=C(OCCOC(=O)c1c(S(=O)(=O)N2CCO[C@@H](CCO)C2)sc2c1CC[NH2+]C2)c1ccc(-c2c3nc(c(-c4ccc(S(=O)(=O)[O-])cc4)c4ccc([nH]4)c(-c4ccc(S(=O)(=O)[O-])cc4)c4nc(c(-c5ccc(S(=O)(=O)[O-])cc5)c5ccc2[nH]5)C=C4)C=C3)cc1
REMARK SMILES IDX 5 1 4 2 3 3 2 4 1 5 30 6 31 7 89 8 32 9 88 10 33 11 34 12
REMARK SMILES IDX 35 13 82 14 36 15 87 16 81 17 83 18 37 19 86 20 80 21 79 22
REMARK SMILES IDX 38 24 68 25 49 26 67 27 50 28 53 29 66 30 84 31 51 32 52 33
REMARK SMILES IDX 65 35 85 36 54 37 39 38 40 39 48 40 41 41 47 42 42 43 43 44
REMARK SMILES IDX 44 45 45 46 46 47 69 48 70 49 78 50 71 51 77 52 72 53 73 54
REMARK SMILES IDX 74 55 75 56 76 57 55 58 56 59 64 60 57 61 63 62 58 63 59 64
REMARK SMILES IDX 60 65 61 66 62 67 6 68 7 69 8 70 9 71 10 72 25 73 23 74
REMARK SMILES IDX 24 75 26 76 29 77 27 78 28 79 11 82 12 83 13 84 14 85 15 86
REMARK SMILES IDX 22 87 16 88 18 89 17 90 19 91 20 92 21 93
REMARK H PARENT 83 23 53 34 28 80 28 81 21 94
REMARK Flexibility Score: inf
ROOT
ATOM      1  C   UNL A   1      36.930  23.415  24.458  1.00  0.00     0.275 C 
ENDROOT
BRANCH   1   2
ATOM      2  C   UNL A   1      37.332  22.119  25.180  1.00  0.00     0.275 C 
BRANCH   2   3
ATOM      3  O   UNL A   1      38.032  22.255  26.426  1.00  0.00    -0.458 OA
BRANCH   3   4
ATOM      4  C   UNL A   1      39.376  22.278  26.402  1.00  0.00     0.338 C 
ATOM      5  O   UNL A   1      40.051  21.499  25.746  1.00  0.00    -0.246 OA
BRANCH   4   6
ATOM      6  C   UNL A   1      39.955  23.474  27.050  1.00  0.00     0.060 A 
ATOM      7  C   UNL A   1      41.147  23.495  27.792  1.00  0.00     0.016 A 
ATOM      8  C   UNL A   1      39.258  24.656  26.825  1.00  0.00     0.016 A 
ATOM      9  C   UNL A   1      41.580  24.674  28.388  1.00  0.00     0.010 A 
ATOM     10  C   UNL A   1      39.756  25.842  27.311  1.00  0.00     0.010 A 
ATOM     11  C   UNL A   1      40.846  25.837  28.187  1.00  0.00    -0.014 A 
BRANCH  11  12
ATOM     12  C   UNL A   1      41.191  27.080  28.875  1.00  0.00     0.031 A 
ATOM     13  C   UNL A   1      42.420  27.803  28.417  1.00  0.00     0.074 A 
ATOM     14  C   UNL A   1      40.257  27.660  29.661  1.00  0.00     0.049 A 
ATOM     15  N   UNL A   1      43.398  28.294  29.104  1.00  0.00    -0.248 NA
ATOM     16  C   UNL A   1      42.606  27.956  26.970  1.00  0.00     0.031 C 
ATOM     17  C   UNL A   1      38.898  27.179  29.969  1.00  0.00     0.029 A 
ATOM     18  N   UNL A   1      40.245  28.908  30.185  1.00  0.00    -0.354 N 
ATOM     19  C   UNL A   1      44.223  28.973  28.200  1.00  0.00     0.074 A 
ATOM     20  C   UNL A   1      43.749  28.632  26.886  1.00  0.00     0.031 C 
ATOM     21  C   UNL A   1      38.122  28.226  30.322  1.00  0.00     0.029 A 
ATOM     22  C   UNL A   1      38.972  29.389  30.472  1.00  0.00     0.049 A 
ATOM     23  H   UNL A   1      41.065  29.430  30.348  1.00  0.00     0.167 HD
ATOM     24  C   UNL A   1      45.123  29.921  28.588  1.00  0.00     0.031 A 
ATOM     25  C   UNL A   1      38.633  30.669  30.761  1.00  0.00     0.031 A 
ATOM     26  C   UNL A   1      45.384  29.863  29.999  1.00  0.00     0.049 A 
ATOM     27  C   UNL A   1      39.882  31.346  31.190  1.00  0.00     0.074 A 
ATOM     28  C   UNL A   1      45.907  28.903  30.842  1.00  0.00     0.029 A 
ATOM     29  N   UNL A   1      44.700  30.740  30.808  1.00  0.00    -0.354 N 
ATOM     30  N   UNL A   1      40.563  30.976  32.242  1.00  0.00    -0.248 NA
ATOM     31  C   UNL A   1      40.636  32.089  30.192  1.00  0.00     0.031 C 
ATOM     32  C   UNL A   1      45.067  28.949  31.994  1.00  0.00     0.029 A 
ATOM     33  C   UNL A   1      44.150  29.989  31.819  1.00  0.00     0.049 A 
ATOM     34  H   UNL A   1      44.621  31.713  30.687  1.00  0.00     0.167 HD
ATOM     35  C   UNL A   1      41.894  31.053  31.855  1.00  0.00     0.074 A 
ATOM     36  C   UNL A   1      41.879  31.836  30.617  1.00  0.00     0.031 C 
ATOM     37  C   UNL A   1      42.849  30.241  32.404  1.00  0.00     0.031 A 
BRANCH  24  38
ATOM     38  C   UNL A   1      45.496  31.127  27.759  1.00  0.00    -0.014 A 
ATOM     39  C   UNL A   1      46.809  31.233  27.254  1.00  0.00     0.010 A 
ATOM     40  C   UNL A   1      44.694  32.287  27.706  1.00  0.00     0.010 A 
ATOM     41  C   UNL A   1      47.319  32.459  26.801  1.00  0.00     0.020 A 
ATOM     42  C   UNL A   1      45.181  33.504  27.220  1.00  0.00     0.020 A 
ATOM     43  C   UNL A   1      46.504  33.591  26.808  1.00  0.00     0.054 A 
BRANCH  43  44
ATOM     44  S   UNL A   1      47.218  35.197  26.362  1.00  0.00     0.124 S 
ATOM     45  O   UNL A   1      48.222  34.815  25.374  1.00  0.00    -0.237 OA
ATOM     46  O   UNL A   1      46.059  35.918  25.843  1.00  0.00    -0.237 OA
ATOM     47  O   UNL A   1      47.743  35.700  27.629  1.00  0.00    -0.744 OA
ENDBRANCH  43  44
ENDBRANCH  24  38
BRANCH  25  48
ATOM     48  C   UNL A   1      37.399  31.376  30.334  1.00  0.00    -0.014 A 
ATOM     49  C   UNL A   1      36.411  31.755  31.258  1.00  0.00     0.010 A 
ATOM     50  C   UNL A   1      37.310  31.906  29.027  1.00  0.00     0.010 A 
ATOM     51  C   UNL A   1      35.398  32.665  30.901  1.00  0.00     0.020 A 
ATOM     52  C   UNL A   1      36.304  32.810  28.663  1.00  0.00     0.020 A 
ATOM     53  C   UNL A   1      35.362  33.201  29.610  1.00  0.00     0.054 A 
BRANCH  53  54
ATOM     54  S   UNL A   1      34.152  34.500  29.211  1.00  0.00     0.124 S 
ATOM     55  O   UNL A   1      33.094  33.747  28.544  1.00  0.00    -0.237 OA
ATOM     56  O   UNL A   1      33.813  35.033  30.528  1.00  0.00    -0.237 OA
ATOM     57  O   UNL A   1      34.898  35.416  28.349  1.00  0.00    -0.744 OA
ENDBRANCH  53  54
ENDBRANCH  25  48
BRANCH  37  58
ATOM     58  C   UNL A   1      42.459  29.336  33.559  1.00  0.00    -0.014 A 
ATOM     59  C   UNL A   1      41.744  28.132  33.392  1.00  0.00     0.010 A 
ATOM     60  C   UNL A   1      43.009  29.606  34.823  1.00  0.00     0.010 A 
ATOM     61  C   UNL A   1      41.569  27.234  34.458  1.00  0.00     0.020 A 
ATOM     62  C   UNL A   1      42.851  28.710  35.887  1.00  0.00     0.020 A 
ATOM     63  C   UNL A   1      42.127  27.531  35.703  1.00  0.00     0.054 A 
BRANCH  63  64
ATOM     64  S   UNL A   1      41.948  26.345  37.065  1.00  0.00     0.124 S 
ATOM     65  O   UNL A   1      42.088  25.059  36.389  1.00  0.00    -0.237 OA
ATOM     66  O   UNL A   1      43.046  26.708  37.960  1.00  0.00    -0.237 OA
ATOM     67  O   UNL A   1      40.613  26.623  37.596  1.00  0.00    -0.744 OA
ENDBRANCH  63  64
ENDBRANCH  37  58
ENDBRANCH  11  12
ENDBRANCH   4   6
ENDBRANCH   3   4
ENDBRANCH   2   3
ENDBRANCH   1   2
BRANCH   1  68
ATOM     68  O   UNL A   1      35.700  23.954  24.980  1.00  0.00    -0.458 OA
BRANCH  68  69
ATOM     69  C   UNL A   1      34.681  24.247  24.117  1.00  0.00     0.340 C 
ATOM     70  O   UNL A   1      34.714  24.110  22.895  1.00  0.00    -0.246 OA
BRANCH  69  71
ATOM     71  C   UNL A   1      33.519  24.719  24.850  1.00  0.00     0.095 A 
ATOM     72  C   UNL A   1      32.608  23.804  25.369  1.00  0.00     0.150 A 
ATOM     73  C   UNL A   1      33.140  26.055  25.265  1.00  0.00    -0.007 A 
ATOM     74  S   UNL A   1      31.108  24.575  25.582  1.00  0.00    -0.120 S 
ATOM     75  C   UNL A   1      31.909  26.033  25.893  1.00  0.00     0.064 A 
ATOM     76  C   UNL A   1      33.848  27.370  25.111  1.00  0.00     0.099 C 
ATOM     77  C   UNL A   1      31.310  27.162  26.662  1.00  0.00     0.308 C 
ATOM     78  C   UNL A   1      33.124  28.550  25.827  1.00  0.00     0.265 C 
ATOM     79  N   UNL A   1      31.670  28.435  26.042  1.00  0.00    -0.342 N 
ATOM     80  H   UNL A   1      31.197  28.509  25.141  1.00  0.00     0.346 HD
ATOM     81  H   UNL A   1      31.382  29.186  26.669  1.00  0.00     0.346 HD
BRANCH  72  82
ATOM     82  S   UNL A   1      32.713  22.080  25.754  1.00  0.00     0.253 S 
ATOM     83  O   UNL A   1      33.624  21.987  26.873  1.00  0.00    -0.206 OA
ATOM     84  O   UNL A   1      31.325  21.682  25.891  1.00  0.00    -0.206 OA
BRANCH  82  85
ATOM     85  N   UNL A   1      33.342  21.195  24.450  1.00  0.00    -0.192 NA
ATOM     86  C   UNL A   1      32.711  21.254  23.108  1.00  0.00     0.131 C 
ATOM     87  C   UNL A   1      34.008  19.891  24.701  1.00  0.00     0.134 C 
ATOM     88  C   UNL A   1      31.969  19.963  22.708  1.00  0.00     0.177 C 
ATOM     89  C   UNL A   1      33.000  18.755  24.505  1.00  0.00     0.135 C 
ATOM     90  O   UNL A   1      32.599  18.741  23.122  1.00  0.00    -0.375 OA
BRANCH  89  91
ATOM     91  C   UNL A   1      33.510  17.356  24.863  1.00  0.00     0.061 C 
BRANCH  91  92
ATOM     92  C   UNL A   1      33.355  16.323  23.757  1.00  0.00     0.159 C 
BRANCH  92  93
ATOM     93  O   UNL A   1      34.206  16.647  22.668  1.00  0.00    -0.396 OA
ATOM     94  H   UNL A   1      33.677  17.007  21.940  1.00  0.00     0.210 HD
ENDBRANCH  92  93
ENDBRANCH  91  92
ENDBRANCH  89  91
ENDBRANCH  82  85
ENDBRANCH  72  82
ENDBRANCH  69  71
ENDBRANCH  68  69
ENDBRANCH   1  68
TORSDOF 19
ENDMDL
MODEL 2
REMARK VINA RESULT:     -11.3      1.212      2.009
REMARK SMILES O=C(OCCOC(=O)c1c(S(=O)(=O)N2CCO[C@@H](CCO)C2)sc2c1CC[NH2+]C2)c1ccc(-c2c3nc(c(-c4ccc(S(=O)(=O)[O-])cc4)c4ccc([nH]4)c(-c4ccc(S(=O)(=O)[O-])cc4)c4nc(c(-c5ccc(S(=O)(=O)[O-])cc5)c5ccc2[nH]5)C=C4)C=C3)cc1
REMARK SMILES IDX 5 1 4 2 3 3 2 4 1 5 30 6 31 7 89 8 32 9 88 10 33 11 34 12
REMARK SMILES IDX 35 13 82 14 36 15 87 16 81 17 83 18 37 19 86 20 80 21 79 22
REMARK SMILES IDX 38 24 68 25 49 26 67 27 50 28 53 29 66 30 84 31 51 32 52 33
REMARK SMILES IDX 65 35 85 36 54 37 39 38 40 39 48 40 41 41 47 42 42 43 43 44
REMARK SMILES IDX 44 45 45 46 46 47 69 48 70 49 78 50 71 51 77 52 72 53 73 54
REMARK SMILES IDX 74 55 75 56 76 57 55 58 56 59 64 60 57 61 63 62 58 63 59 64
REMARK SMILES IDX 60 65 61 66 62 67 6 68 7 69 8 70 9 71 10 72 25 73 23 74
REMARK SMILES IDX 24 75 26 76 29 77 27 78 28 79 11 82 12 83 13 84 14 85 15 86
REMARK SMILES IDX 22 87 16 88 18 89 17 90 19 91 20 92 21 93
REMARK H PARENT 83 23 53 34 28 80 28 81 21 94
REMARK Flexibility Score: inf
ROOT
ATOM      1  C   UNL A   1      36.004  23.230  26.121  1.00  0.00     0.275 C 
ENDROOT
BRANCH   1   2
ATOM      2  C   UNL A   1      36.945  22.485  25.161  1.00  0.00     0.275 C 
BRANCH   2   3
ATOM      3  O   UNL A   1      38.343  22.809  25.232  1.00  0.00    -0.458 OA
BRANCH   3   4
ATOM      4  C   UNL A   1      39.027  22.434  26.327  1.00  0.00     0.338 C 
ATOM      5  O   UNL A   1      39.215  21.267  26.638  1.00  0.00    -0.246 OA
BRANCH   4   6
ATOM      6  C   UNL A   1      39.732  23.552  26.990  1.00  0.00     0.060 A 
ATOM      7  C   UNL A   1      40.875  23.423  27.796  1.00  0.00     0.016 A 
ATOM      8  C   UNL A   1      39.218  24.814  26.711  1.00  0.00     0.016 A 
ATOM      9  C   UNL A   1      41.436  24.544  28.399  1.00  0.00     0.010 A 
ATOM     10  C   UNL A   1      39.851  25.930  27.207  1.00  0.00     0.010 A 
ATOM     11  C   UNL A   1      40.881  25.793  28.142  1.00  0.00    -0.014 A 
BRANCH  11  12
ATOM     12  C   UNL A   1      41.359  26.990  28.832  1.00  0.00     0.031 A 
ATOM     13  C   UNL A   1      42.646  27.591  28.357  1.00  0.00     0.074 A 
ATOM     14  C   UNL A   1      40.500  27.654  29.636  1.00  0.00     0.049 A 
ATOM     15  N   UNL A   1      43.679  27.978  29.031  1.00  0.00    -0.248 NA
ATOM     16  C   UNL A   1      42.824  27.735  26.909  1.00  0.00     0.031 C 
ATOM     17  C   UNL A   1      39.105  27.309  29.963  1.00  0.00     0.029 A 
ATOM     18  N   UNL A   1      40.620  28.894  30.167  1.00  0.00    -0.354 N 
ATOM     19  C   UNL A   1      44.553  28.578  28.118  1.00  0.00     0.074 A 
ATOM     20  C   UNL A   1      44.028  28.295  26.809  1.00  0.00     0.031 C 
ATOM     21  C   UNL A   1      38.442  28.424  30.334  1.00  0.00     0.029 A 
ATOM     22  C   UNL A   1      39.406  29.496  30.477  1.00  0.00     0.049 A 
ATOM     23  H   UNL A   1      41.491  29.330  30.320  1.00  0.00     0.167 HD
ATOM     24  C   UNL A   1      45.549  29.429  28.497  1.00  0.00     0.031 A 
ATOM     25  C   UNL A   1      39.200  30.801  30.779  1.00  0.00     0.031 A 
ATOM     26  C   UNL A   1      45.825  29.334  29.902  1.00  0.00     0.049 A 
ATOM     27  C   UNL A   1      40.517  31.348  31.192  1.00  0.00     0.074 A 
ATOM     28  C   UNL A   1      46.263  28.321  30.731  1.00  0.00     0.029 A 
ATOM     29  N   UNL A   1      45.244  30.270  30.728  1.00  0.00    -0.354 N 
ATOM     30  N   UNL A   1      41.174  30.905  32.230  1.00  0.00    -0.248 NA
ATOM     31  C   UNL A   1      41.325  32.020  30.186  1.00  0.00     0.031 C 
ATOM     32  C   UNL A   1      45.450  28.442  31.898  1.00  0.00     0.029 A 
ATOM     33  C   UNL A   1      44.638  29.570  31.743  1.00  0.00     0.049 A 
ATOM     34  H   UNL A   1      45.260  31.247  30.614  1.00  0.00     0.167 HD
ATOM     35  C   UNL A   1      42.500  30.852  31.822  1.00  0.00     0.074 A 
ATOM     36  C   UNL A   1      42.543  31.641  30.589  1.00  0.00     0.031 C 
ATOM     37  C   UNL A   1      43.378  29.945  32.351  1.00  0.00     0.031 A 
BRANCH  24  38
ATOM     38  C   UNL A   1      46.027  30.598  27.668  1.00  0.00    -0.014 A 
ATOM     39  C   UNL A   1      47.396  30.938  27.687  1.00  0.00     0.010 A 
ATOM     40  C   UNL A   1      45.140  31.543  27.110  1.00  0.00     0.010 A 
ATOM     41  C   UNL A   1      47.841  32.194  27.248  1.00  0.00     0.020 A 
ATOM     42  C   UNL A   1      45.579  32.782  26.634  1.00  0.00     0.020 A 
ATOM     43  C   UNL A   1      46.923  33.115  26.744  1.00  0.00     0.054 A 
BRANCH  43  44
ATOM     44  S   UNL A   1      47.487  34.785  26.321  1.00  0.00     0.124 S 
ATOM     45  O   UNL A   1      48.383  35.090  27.432  1.00  0.00    -0.237 OA
ATOM     46  O   UNL A   1      48.131  34.576  25.027  1.00  0.00    -0.237 OA
ATOM     47  O   UNL A   1      46.251  35.563  26.278  1.00  0.00    -0.744 OA
ENDBRANCH  43  44
ENDBRANCH  24  38
BRANCH  25  48
ATOM     48  C   UNL A   1      38.037  31.631  30.376  1.00  0.00    -0.014 A 
ATOM     49  C   UNL A   1      38.124  32.560  29.325  1.00  0.00     0.010 A 
ATOM     50  C   UNL A   1      36.750  31.326  30.874  1.00  0.00     0.010 A 
ATOM     51  C   UNL A   1      36.964  33.126  28.763  1.00  0.00     0.020 A 
ATOM     52  C   UNL A   1      35.592  31.887  30.322  1.00  0.00     0.020 A 
ATOM     53  C   UNL A   1      35.704  32.772  29.253  1.00  0.00     0.054 A 
BRANCH  53  54
ATOM     54  S   UNL A   1      34.210  33.381  28.412  1.00  0.00     0.124 S 
ATOM     55  O   UNL A   1      33.464  33.995  29.505  1.00  0.00    -0.237 OA
ATOM     56  O   UNL A   1      34.757  34.306  27.423  1.00  0.00    -0.237 OA
ATOM     57  O   UNL A   1      33.608  32.169  27.856  1.00  0.00    -0.744 OA
ENDBRANCH  53  54
ENDBRANCH  25  48
BRANCH  37  58
ATOM     58  C   UNL A   1      42.918  29.075  33.507  1.00  0.00    -0.014 A 
ATOM     59  C   UNL A   1      42.318  27.811  33.334  1.00  0.00     0.010 A 
ATOM     60  C   UNL A   1      43.290  29.455  34.807  1.00  0.00     0.010 A 
ATOM     61  C   UNL A   1      42.081  26.960  34.425  1.00  0.00     0.020 A 
ATOM     62  C   UNL A   1      43.071  28.607  35.899  1.00  0.00     0.020 A 
ATOM     63  C   UNL A   1      42.461  27.367  35.706  1.00  0.00     0.054 A 
BRANCH  63  64
ATOM     64  S   UNL A   1      42.206  26.245  37.110  1.00  0.00     0.124 S 
ATOM     65  O   UNL A   1      40.846  26.568  37.532  1.00  0.00    -0.237 OA
ATOM     66  O   UNL A   1      42.380  24.923  36.508  1.00  0.00    -0.237 OA
ATOM     67  O   UNL A   1      43.254  26.626  38.056  1.00  0.00    -0.744 OA
ENDBRANCH  63  64
ENDBRANCH  37  58
ENDBRANCH  11  12
ENDBRANCH   4   6
ENDBRANCH   3   4
ENDBRANCH   2   3
ENDBRANCH   1   2
BRANCH   1  68
ATOM     68  O   UNL A   1      35.341  24.329  25.466  1.00  0.00    -0.458 OA
BRANCH  68  69
ATOM     69  C   UNL A   1      34.063  24.650  25.830  1.00  0.00     0.340 C 
ATOM     70  O   UNL A   1      33.393  24.068  26.682  1.00  0.00    -0.246 OA
BRANCH  69  71
ATOM     71  C   UNL A   1      33.602  25.810  25.089  1.00  0.00     0.095 A 
ATOM     72  C   UNL A   1      33.530  25.762  23.700  1.00  0.00     0.150 A 
ATOM     73  C   UNL A   1      33.067  27.076  25.550  1.00  0.00    -0.007 A 
ATOM     74  S   UNL A   1      33.597  27.346  23.086  1.00  0.00    -0.120 S 
ATOM     75  C   UNL A   1      32.816  27.911  24.478  1.00  0.00     0.064 A 
ATOM     76  C   UNL A   1      32.777  27.574  26.936  1.00  0.00     0.099 C 
ATOM     77  C   UNL A   1      32.045  29.187  24.537  1.00  0.00     0.308 C 
ATOM     78  C   UNL A   1      32.082  28.970  26.959  1.00  0.00     0.265 C 
ATOM     79  N   UNL A   1      32.298  29.864  25.807  1.00  0.00    -0.342 N 
ATOM     80  H   UNL A   1      33.264  30.191  25.820  1.00  0.00     0.346 HD
ATOM     81  H   UNL A   1      31.646  30.644  25.886  1.00  0.00     0.346 HD
BRANCH  72  82
ATOM     82  S   UNL A   1      33.455  24.429  22.539  1.00  0.00     0.253 S 
ATOM     83  O   UNL A   1      33.203  25.044  21.256  1.00  0.00    -0.206 OA
ATOM     84  O   UNL A   1      34.686  23.701  22.785  1.00  0.00    -0.206 OA
BRANCH  82  85
ATOM     85  N   UNL A   1      32.186  23.364  22.905  1.00  0.00    -0.192 NA
ATOM     86  C   UNL A   1      31.015  23.812  23.700  1.00  0.00     0.131 C 
ATOM     87  C   UNL A   1      32.470  21.918  23.088  1.00  0.00     0.134 C 
ATOM     88  C   UNL A   1      30.970  23.231  25.128  1.00  0.00     0.177 C 
ATOM     89  C   UNL A   1      32.657  21.617  24.578  1.00  0.00     0.135 C 
ATOM     90  O   UNL A   1      31.407  21.869  25.249  1.00  0.00    -0.375 OA
BRANCH  89  91
ATOM     91  C   UNL A   1      33.091  20.186  24.909  1.00  0.00     0.061 C 
BRANCH  91  92
ATOM     92  C   UNL A   1      32.245  19.101  24.261  1.00  0.00     0.159 C 
BRANCH  92  93
ATOM     93  O   UNL A   1      32.259  17.931  25.065  1.00  0.00    -0.396 OA
ATOM     94  H   UNL A   1      31.350  17.629  25.212  1.00  0.00     0.210 HD
ENDBRANCH  92  93
ENDBRANCH  91  92
ENDBRANCH  89  91
ENDBRANCH  82  85
ENDBRANCH  72  82
ENDBRANCH  69  71
ENDBRANCH  68  69
ENDBRANCH   1  68
TORSDOF 19
ENDMDL
MODEL 3
REMARK VINA RESULT:     -11.0      3.089      9.536
REMARK SMILES O=C(OCCOC(=O)c1c(S(=O)(=O)N2CCO[C@@H](CCO)C2)sc2c1CC[NH2+]C2)c1ccc(-c2c3nc(c(-c4ccc(S(=O)(=O)[O-])cc4)c4ccc([nH]4)c(-c4ccc(S(=O)(=O)[O-])cc4)c4nc(c(-c5ccc(S(=O)(=O)[O-])cc5)c5ccc2[nH]5)C=C4)C=C3)cc1
REMARK SMILES IDX 5 1 4 2 3 3 2 4 1 5 30 6 31 7 89 8 32 9 88 10 33 11 34 12
REMARK SMILES IDX 35 13 82 14 36 15 87 16 81 17 83 18 37 19 86 20 80 21 79 22
REMARK SMILES IDX 38 24 68 25 49 26 67 27 50 28 53 29 66 30 84 31 51 32 52 33
REMARK SMILES IDX 65 35 85 36 54 37 39 38 40 39 48 40 41 41 47 42 42 43 43 44
REMARK SMILES IDX 44 45 45 46 46 47 69 48 70 49 78 50 71 51 77 52 72 53 73 54
REMARK SMILES IDX 74 55 75 56 76 57 55 58 56 59 64 60 57 61 63 62 58 63 59 64
REMARK SMILES IDX 60 65 61 66 62 67 6 68 7 69 8 70 9 71 10 72 25 73 23 74
REMARK SMILES IDX 24 75 26 76 29 77 27 78 28 79 11 82 12 83 13 84 14 85 15 86
REMARK SMILES IDX 22 87 16 88 18 89 17 90 19 91 20 92 21 93
REMARK H PARENT 83 23 53 34 28 80 28 81 21 94
REMARK Flexibility Score: inf
ROOT
ATOM      1  C   UNL A   1      33.330  29.183  25.251  1.00  0.00     0.275 C 
ENDROOT
BRANCH   1   2
ATOM      2  C   UNL A   1      33.020  30.053  26.479  1.00  0.00     0.275 C 
BRANCH   2   3
ATOM      3  O   UNL A   1      33.868  29.891  27.627  1.00  0.00    -0.458 OA
BRANCH   3   4
ATOM      4  C   UNL A   1      34.691  30.901  27.956  1.00  0.00     0.338 C 
ATOM      5  O   UNL A   1      34.299  32.010  28.290  1.00  0.00    -0.246 OA
BRANCH   4   6
ATOM      6  C   UNL A   1      36.102  30.483  28.106  1.00  0.00     0.060 A 
ATOM      7  C   UNL A   1      36.628  29.248  27.694  1.00  0.00     0.016 A 
ATOM      8  C   UNL A   1      36.943  31.450  28.646  1.00  0.00     0.016 A 
ATOM      9  C   UNL A   1      37.967  28.948  27.917  1.00  0.00     0.010 A 
ATOM     10  C   UNL A   1      38.291  31.196  28.750  1.00  0.00     0.010 A 
ATOM     11  C   UNL A   1      38.783  29.912  28.499  1.00  0.00    -0.014 A 
BRANCH  11  12
ATOM     12  C   UNL A   1      40.170  29.616  28.856  1.00  0.00     0.031 A 
ATOM     13  C   UNL A   1      40.506  29.542  30.313  1.00  0.00     0.074 A 
ATOM     14  C   UNL A   1      40.992  29.140  27.895  1.00  0.00     0.049 A 
ATOM     15  N   UNL A   1      41.478  30.085  30.969  1.00  0.00    -0.248 NA
ATOM     16  C   UNL A   1      39.589  28.788  31.174  1.00  0.00     0.031 C 
ATOM     17  C   UNL A   1      40.691  28.903  26.472  1.00  0.00     0.029 A 
ATOM     18  N   UNL A   1      42.211  28.566  28.029  1.00  0.00    -0.354 N 
ATOM     19  C   UNL A   1      41.403  29.596  32.278  1.00  0.00     0.074 A 
ATOM     20  C   UNL A   1      40.152  28.894  32.376  1.00  0.00     0.031 C 
ATOM     21  C   UNL A   1      41.538  27.972  25.983  1.00  0.00     0.029 A 
ATOM     22  C   UNL A   1      42.555  27.718  26.982  1.00  0.00     0.049 A 
ATOM     23  H   UNL A   1      42.801  28.734  28.801  1.00  0.00     0.167 HD
ATOM     24  C   UNL A   1      42.455  29.636  33.144  1.00  0.00     0.031 A 
ATOM     25  C   UNL A   1      43.577  26.829  26.960  1.00  0.00     0.031 A 
ATOM     26  C   UNL A   1      43.475  30.545  32.703  1.00  0.00     0.049 A 
ATOM     27  C   UNL A   1      44.528  27.256  28.016  1.00  0.00     0.074 A 
ATOM     28  C   UNL A   1      43.515  31.903  32.461  1.00  0.00     0.029 A 
ATOM     29  N   UNL A   1      44.552  30.013  32.031  1.00  0.00    -0.354 N 
ATOM     30  N   UNL A   1      45.141  28.410  27.993  1.00  0.00    -0.248 NA
ATOM     31  C   UNL A   1      44.417  26.638  29.328  1.00  0.00     0.031 C 
ATOM     32  C   UNL A   1      44.257  32.026  31.249  1.00  0.00     0.029 A 
ATOM     33  C   UNL A   1      44.696  30.751  30.881  1.00  0.00     0.049 A 
ATOM     34  H   UNL A   1      45.109  29.254  32.319  1.00  0.00     0.167 HD
ATOM     35  C   UNL A   1      45.108  28.862  29.305  1.00  0.00     0.074 A 
ATOM     36  C   UNL A   1      44.737  27.686  30.096  1.00  0.00     0.031 C 
ATOM     37  C   UNL A   1      45.098  30.197  29.604  1.00  0.00     0.031 A 
BRANCH  24  38
ATOM     38  C   UNL A   1      42.722  28.593  34.203  1.00  0.00    -0.014 A 
ATOM     39  C   UNL A   1      43.481  27.452  33.867  1.00  0.00     0.010 A 
ATOM     40  C   UNL A   1      42.012  28.553  35.423  1.00  0.00     0.010 A 
ATOM     41  C   UNL A   1      43.460  26.301  34.668  1.00  0.00     0.020 A 
ATOM     42  C   UNL A   1      42.017  27.424  36.247  1.00  0.00     0.020 A 
ATOM     43  C   UNL A   1      42.709  26.290  35.844  1.00  0.00     0.054 A 
BRANCH  43  44
ATOM     44  S   UNL A   1      42.570  24.750  36.790  1.00  0.00     0.124 S 
ATOM     45  O   UNL A   1      41.226  24.861  37.347  1.00  0.00    -0.237 OA
ATOM     46  O   UNL A   1      42.747  23.734  35.757  1.00  0.00    -0.237 OA
ATOM     47  O   UNL A   1      43.661  24.845  37.757  1.00  0.00    -0.744 OA
ENDBRANCH  43  44
ENDBRANCH  24  38
BRANCH  25  48
ATOM     48  C   UNL A   1      43.564  25.479  26.340  1.00  0.00    -0.014 A 
ATOM     49  C   UNL A   1      44.234  25.217  25.133  1.00  0.00     0.010 A 
ATOM     50  C   UNL A   1      43.089  24.372  27.078  1.00  0.00     0.010 A 
ATOM     51  C   UNL A   1      44.460  23.896  24.703  1.00  0.00     0.020 A 
ATOM     52  C   UNL A   1      43.308  23.054  26.656  1.00  0.00     0.020 A 
ATOM     53  C   UNL A   1      44.011  22.822  25.478  1.00  0.00     0.054 A 
BRANCH  53  54
ATOM     54  S   UNL A   1      44.454  21.123  24.999  1.00  0.00     0.124 S 
ATOM     55  O   UNL A   1      43.337  20.348  25.529  1.00  0.00    -0.237 OA
ATOM     56  O   UNL A   1      44.526  21.213  23.544  1.00  0.00    -0.237 OA
ATOM     57  O   UNL A   1      45.736  20.899  25.667  1.00  0.00    -0.744 OA
ENDBRANCH  53  54
ENDBRANCH  25  48
BRANCH  37  58
ATOM     58  C   UNL A   1      45.267  31.198  28.476  1.00  0.00    -0.014 A 
ATOM     59  C   UNL A   1      44.214  31.589  27.624  1.00  0.00     0.010 A 
ATOM     60  C   UNL A   1      46.473  31.915  28.405  1.00  0.00     0.010 A 
ATOM     61  C   UNL A   1      44.365  32.652  26.718  1.00  0.00     0.020 A 
ATOM     62  C   UNL A   1      46.627  32.985  27.515  1.00  0.00     0.020 A 
ATOM     63  C   UNL A   1      45.576  33.345  26.671  1.00  0.00     0.054 A 
BRANCH  63  64
ATOM     64  S   UNL A   1      45.753  34.754  25.540  1.00  0.00     0.124 S 
ATOM     65  O   UNL A   1      44.676  34.529  24.580  1.00  0.00    -0.237 OA
ATOM     66  O   UNL A   1      45.578  35.906  26.423  1.00  0.00    -0.237 OA
ATOM     67  O   UNL A   1      47.104  34.600  25.000  1.00  0.00    -0.744 OA
ENDBRANCH  63  64
ENDBRANCH  37  58
ENDBRANCH  11  12
ENDBRANCH   4   6
ENDBRANCH   3   4
ENDBRANCH   2   3
ENDBRANCH   1   2
BRANCH   1  68
ATOM     68  O   UNL A   1      33.879  27.906  25.631  1.00  0.00    -0.458 OA
BRANCH  68  69
ATOM     69  C   UNL A   1      33.047  26.826  25.736  1.00  0.00     0.340 C 
ATOM     70  O   UNL A   1      32.121  26.711  26.537  1.00  0.00    -0.246 OA
BRANCH  69  71
ATOM     71  C   UNL A   1      33.384  25.829  24.737  1.00  0.00     0.095 A 
ATOM     72  C   UNL A   1      32.753  25.848  23.497  1.00  0.00     0.150 A 
ATOM     73  C   UNL A   1      34.399  24.793  24.738  1.00  0.00    -0.007 A 
ATOM     74  S   UNL A   1      32.831  24.295  22.811  1.00  0.00    -0.120 S 
ATOM     75  C   UNL A   1      34.312  24.033  23.587  1.00  0.00     0.064 A 
ATOM     76  C   UNL A   1      35.453  24.451  25.751  1.00  0.00     0.099 C 
ATOM     77  C   UNL A   1      35.329  23.044  23.125  1.00  0.00     0.308 C 
ATOM     78  C   UNL A   1      36.422  23.324  25.279  1.00  0.00     0.265 C 
ATOM     79  N   UNL A   1      35.925  22.367  24.274  1.00  0.00    -0.342 N 
ATOM     80  H   UNL A   1      35.220  21.770  24.708  1.00  0.00     0.346 HD
ATOM     81  H   UNL A   1      36.717  21.817  23.943  1.00  0.00     0.346 HD
BRANCH  72  82
ATOM     82  S   UNL A   1      31.883  27.104  22.603  1.00  0.00     0.253 S 
ATOM     83  O   UNL A   1      32.875  28.103  22.275  1.00  0.00    -0.206 OA
ATOM     84  O   UNL A   1      31.202  26.361  21.560  1.00  0.00    -0.206 OA
BRANCH  82  85
ATOM     85  N   UNL A   1      30.673  27.813  23.557  1.00  0.00    -0.192 NA
ATOM     86  C   UNL A   1      29.590  26.993  24.155  1.00  0.00     0.131 C 
ATOM     87  C   UNL A   1      30.235  29.203  23.274  1.00  0.00     0.134 C 
ATOM     88  C   UNL A   1      28.210  27.208  23.501  1.00  0.00     0.177 C 
ATOM     89  C   UNL A   1      28.994  29.176  22.377  1.00  0.00     0.135 C 
ATOM     90  O   UNL A   1      27.920  28.559  23.112  1.00  0.00    -0.375 OA
BRANCH  89  91
ATOM     91  C   UNL A   1      28.507  30.544  21.889  1.00  0.00     0.061 C 
BRANCH  91  92
ATOM     92  C   UNL A   1      28.673  31.673  22.895  1.00  0.00     0.159 C 
BRANCH  92  93
ATOM     93  O   UNL A   1      29.518  32.678  22.357  1.00  0.00    -0.396 OA
ATOM     94  H   UNL A   1      30.379  32.650  22.804  1.00  0.00     0.210 HD
ENDBRANCH  92  93
ENDBRANCH  91  92
ENDBRANCH  89  91
ENDBRANCH  82  85
ENDBRANCH  72  82
ENDBRANCH  69  71
ENDBRANCH  68  69
ENDBRANCH   1  68
TORSDOF 19
ENDMDL
