MODEL 1
REMARK VINA RESULT:     -10.3      0.000      0.000
REMARK SMILES CCSc1ccc(-c2cc(Cl)cc3c2O[C@H](C(F)(F)F)C(C(=O)OCCOC(=O)c2ccc(-c4c5nc(c(-c6ccc(S(=O)(=O)[O-])cc6)c6ccc([nH]6)c(-c6ccc(S(=O)(=O)[O-])cc6)c6nc(c(-c7ccc(S(=O)(=O)[O-])cc7)c7ccc4[nH]7)C=C6)C=C5)cc2)=C3)cc1
REMARK SMILES IDX 25 1 24 2 22 3 23 4 21 5 8 6 9 7 14 8 10 9 13 10 15 11 11 12
REMARK SMILES IDX 12 13 90 14 16 15 7 16 4 17 5 18 92 19 6 20 91 21 3 22 2 23
REMARK SMILES IDX 1 24 17 25 18 26 19 27 20 28 26 29 27 30 28 31 29 32 30 33
REMARK SMILES IDX 31 34 89 35 32 36 88 37 33 38 34 39 35 40 82 41 36 42 87 43
REMARK SMILES IDX 81 44 83 45 37 46 86 47 80 48 79 49 38 51 68 52 49 53 67 54
REMARK SMILES IDX 50 55 53 56 66 57 84 58 51 59 52 60 65 62 85 63 54 64 39 65
REMARK SMILES IDX 40 66 48 67 41 68 47 69 42 70 43 71 44 72 45 73 46 74 69 75
REMARK SMILES IDX 70 76 78 77 71 78 77 79 72 80 73 81 74 82 75 83 76 84 55 85
REMARK SMILES IDX 56 86 64 87 57 88 63 89 58 90 59 91 60 92 61 93 62 94
REMARK H PARENT 83 50 53 61
REMARK Flexibility Score: inf
ROOT
ATOM      1  C   UNL A   1      44.793  23.434  25.590  1.00  0.00     0.275 C 
ENDROOT
BRANCH   1   2
ATOM      2  O   UNL A   1      43.399  23.328  25.972  1.00  0.00    -0.459 OA
BRANCH   2   3
ATOM      3  C   UNL A   1      43.223  22.711  27.170  1.00  0.00     0.338 C 
ATOM      4  O   UNL A   1      43.898  22.944  28.167  1.00  0.00    -0.246 OA
BRANCH   3   5
ATOM      5  C   UNL A   1      42.106  21.730  27.201  1.00  0.00     0.087 C 
ATOM      6  C   UNL A   1      38.476  22.994  25.941  1.00  0.00     0.026 A 
ATOM      7  C   UNL A   1      38.625  24.387  26.138  1.00  0.00     0.033 A 
ATOM      8  C   UNL A   1      39.490  22.230  26.520  1.00  0.00     0.135 A 
ATOM      9  C   UNL A   1      39.555  24.954  27.010  1.00  0.00     0.042 A 
ATOM     10  C   UNL A   1      40.239  22.780  27.591  1.00  0.00     0.019 A 
ATOM     11  O   UNL A   1      39.998  21.052  25.974  1.00  0.00    -0.475 OA
ATOM     12  Cl  UNL A   1      39.899  26.633  27.080  1.00  0.00    -0.084 Cl
ATOM     13  C   UNL A   1      40.272  24.138  27.845  1.00  0.00     0.032 A 
ATOM     14  C   UNL A   1      41.266  21.937  28.230  1.00  0.00     0.027 C 
ATOM     15  C   UNL A   1      41.514  21.039  25.984  1.00  0.00     0.316 C 
BRANCH   6  16
ATOM     16  C   UNL A   1      37.144  22.593  25.389  1.00  0.00    -0.015 A 
ATOM     17  C   UNL A   1      34.269  22.382  25.146  1.00  0.00     0.007 A 
ATOM     18  C   UNL A   1      35.031  23.213  24.308  1.00  0.00     0.015 A 
ATOM     19  C   UNL A   1      34.963  21.603  26.062  1.00  0.00     0.015 A 
ATOM     20  C   UNL A   1      36.443  23.293  24.403  1.00  0.00     0.010 A 
ATOM     21  C   UNL A   1      36.367  21.705  26.173  1.00  0.00     0.010 A 
BRANCH  17  22
ATOM     22  S   UNL A   1      32.495  22.384  24.901  1.00  0.00    -0.126 SA
BRANCH  22  23
ATOM     23  C   UNL A   1      32.105  20.970  23.799  1.00  0.00     0.071 C 
ATOM     24  C   UNL A   1      32.134  21.345  22.328  1.00  0.00     0.016 C 
ENDBRANCH  22  23
ENDBRANCH  17  22
ENDBRANCH   6  16
BRANCH  15  25
ATOM     25  C   UNL A   1      42.053  19.603  26.032  1.00  0.00     0.430 C 
ATOM     26  F   UNL A   1      41.069  18.688  25.846  1.00  0.00    -0.167 F 
ATOM     27  F   UNL A   1      43.008  19.374  25.108  1.00  0.00    -0.167 F 
ATOM     28  F   UNL A   1      42.606  19.332  27.246  1.00  0.00    -0.167 F 
ENDBRANCH  15  25
ENDBRANCH   3   5
ENDBRANCH   2   3
ENDBRANCH   1   2
BRANCH   1  29
ATOM     29  C   UNL A   1      45.216  24.852  25.195  1.00  0.00     0.275 C 
BRANCH  29  30
ATOM     30  O   UNL A   1      44.107  25.770  25.226  1.00  0.00    -0.458 OA
BRANCH  30  31
ATOM     31  C   UNL A   1      44.450  27.032  25.582  1.00  0.00     0.338 C 
ATOM     32  O   UNL A   1      45.046  27.834  24.871  1.00  0.00    -0.246 OA
BRANCH  31  33
ATOM     33  C   UNL A   1      43.907  27.398  26.913  1.00  0.00     0.060 A 
ATOM     34  C   UNL A   1      43.924  28.752  27.233  1.00  0.00     0.016 A 
ATOM     35  C   UNL A   1      43.399  26.487  27.852  1.00  0.00     0.016 A 
ATOM     36  C   UNL A   1      43.391  29.186  28.446  1.00  0.00     0.010 A 
ATOM     37  C   UNL A   1      42.854  26.942  29.077  1.00  0.00     0.010 A 
ATOM     38  C   UNL A   1      42.808  28.309  29.379  1.00  0.00    -0.014 A 
BRANCH  38  39
ATOM     39  C   UNL A   1      42.226  28.920  30.630  1.00  0.00     0.031 A 
ATOM     40  C   UNL A   1      43.104  29.042  31.841  1.00  0.00     0.074 A 
ATOM     41  C   UNL A   1      41.033  29.558  30.664  1.00  0.00     0.049 A 
ATOM     42  N   UNL A   1      42.922  29.752  32.923  1.00  0.00    -0.248 NA
ATOM     43  C   UNL A   1      44.353  28.268  31.820  1.00  0.00     0.031 C 
ATOM     44  C   UNL A   1      40.072  29.577  29.578  1.00  0.00     0.029 A 
ATOM     45  N   UNL A   1      40.459  30.399  31.596  1.00  0.00    -0.354 N 
ATOM     46  C   UNL A   1      44.037  29.520  33.711  1.00  0.00     0.074 A 
ATOM     47  C   UNL A   1      44.902  28.623  32.970  1.00  0.00     0.031 C 
ATOM     48  C   UNL A   1      39.156  30.532  29.790  1.00  0.00     0.029 A 
ATOM     49  C   UNL A   1      39.333  31.061  31.136  1.00  0.00     0.049 A 
ATOM     50  H   UNL A   1      40.818  30.518  32.505  1.00  0.00     0.167 HD
ATOM     51  C   UNL A   1      44.301  29.963  34.963  1.00  0.00     0.031 A 
ATOM     52  C   UNL A   1      38.504  31.953  31.726  1.00  0.00     0.031 A 
ATOM     53  C   UNL A   1      43.394  30.732  35.769  1.00  0.00     0.049 A 
ATOM     54  C   UNL A   1      38.728  32.283  33.178  1.00  0.00     0.074 A 
ATOM     55  C   UNL A   1      43.533  31.099  37.096  1.00  0.00     0.029 A 
ATOM     56  N   UNL A   1      42.167  31.219  35.346  1.00  0.00    -0.354 N 
ATOM     57  N   UNL A   1      39.756  31.992  33.935  1.00  0.00    -0.248 NA
ATOM     58  C   UNL A   1      37.666  33.033  33.867  1.00  0.00     0.031 C 
ATOM     59  C   UNL A   1      42.355  31.738  37.497  1.00  0.00     0.029 A 
ATOM     60  C   UNL A   1      41.517  31.845  36.399  1.00  0.00     0.049 A 
ATOM     61  H   UNL A   1      41.810  31.135  34.432  1.00  0.00     0.167 HD
ATOM     62  C   UNL A   1      39.471  32.524  35.187  1.00  0.00     0.074 A 
ATOM     63  C   UNL A   1      38.184  33.180  35.080  1.00  0.00     0.031 C 
ATOM     64  C   UNL A   1      40.221  32.474  36.315  1.00  0.00     0.031 A 
BRANCH  51  65
ATOM     65  C   UNL A   1      45.580  29.465  35.569  1.00  0.00    -0.014 A 
ATOM     66  C   UNL A   1      46.798  30.138  35.361  1.00  0.00     0.010 A 
ATOM     67  C   UNL A   1      45.570  28.252  36.279  1.00  0.00     0.010 A 
ATOM     68  C   UNL A   1      47.995  29.565  35.796  1.00  0.00     0.020 A 
ATOM     69  C   UNL A   1      46.761  27.691  36.739  1.00  0.00     0.020 A 
ATOM     70  C   UNL A   1      47.968  28.337  36.467  1.00  0.00     0.054 A 
BRANCH  70  71
ATOM     71  S   UNL A   1      49.540  27.581  36.959  1.00  0.00     0.124 S 
ATOM     72  O   UNL A   1      49.179  26.167  37.039  1.00  0.00    -0.237 OA
ATOM     73  O   UNL A   1      50.428  27.943  35.858  1.00  0.00    -0.237 OA
ATOM     74  O   UNL A   1      49.845  28.218  38.238  1.00  0.00    -0.744 OA
ENDBRANCH  70  71
ENDBRANCH  51  65
BRANCH  52  75
ATOM     75  C   UNL A   1      37.335  32.539  30.992  1.00  0.00    -0.014 A 
ATOM     76  C   UNL A   1      36.052  31.962  31.078  1.00  0.00     0.010 A 
ATOM     77  C   UNL A   1      37.499  33.675  30.176  1.00  0.00     0.010 A 
ATOM     78  C   UNL A   1      34.968  32.512  30.378  1.00  0.00     0.020 A 
ATOM     79  C   UNL A   1      36.415  34.252  29.510  1.00  0.00     0.020 A 
ATOM     80  C   UNL A   1      35.155  33.663  29.608  1.00  0.00     0.054 A 
BRANCH  80  81
ATOM     81  S   UNL A   1      33.727  34.411  28.772  1.00  0.00     0.124 S 
ATOM     82  O   UNL A   1      32.827  34.682  29.888  1.00  0.00    -0.237 OA
ATOM     83  O   UNL A   1      34.316  35.586  28.133  1.00  0.00    -0.237 OA
ATOM     84  O   UNL A   1      33.287  33.367  27.850  1.00  0.00    -0.744 OA
ENDBRANCH  80  81
ENDBRANCH  52  75
BRANCH  64  85
ATOM     85  C   UNL A   1      39.684  33.154  37.548  1.00  0.00    -0.014 A 
ATOM     86  C   UNL A   1      38.685  32.560  38.341  1.00  0.00     0.010 A 
ATOM     87  C   UNL A   1      40.241  34.379  37.960  1.00  0.00     0.010 A 
ATOM     88  C   UNL A   1      38.239  33.190  39.508  1.00  0.00     0.020 A 
ATOM     89  C   UNL A   1      39.822  34.996  39.141  1.00  0.00     0.020 A 
ATOM     90  C   UNL A   1      38.814  34.402  39.903  1.00  0.00     0.054 A 
BRANCH  90  91
ATOM     91  S   UNL A   1      38.263  35.167  41.454  1.00  0.00     0.124 S 
ATOM     92  O   UNL A   1      39.267  34.690  42.401  1.00  0.00    -0.237 OA
ATOM     93  O   UNL A   1      38.320  36.593  41.144  1.00  0.00    -0.237 OA
ATOM     94  O   UNL A   1      36.918  34.631  41.647  1.00  0.00    -0.744 OA
ENDBRANCH  90  91
ENDBRANCH  64  85
ENDBRANCH  38  39
ENDBRANCH  31  33
ENDBRANCH  30  31
ENDBRANCH  29  30
ENDBRANCH   1  29
TORSDOF 18
ENDMDL
MODEL 2
REMARK VINA RESULT:     -10.0      4.041      6.447
REMARK SMILES CCSc1ccc(-c2cc(Cl)cc3c2O[C@H](C(F)(F)F)C(C(=O)OCCOC(=O)c2ccc(-c4c5nc(c(-c6ccc(S(=O)(=O)[O-])cc6)c6ccc([nH]6)c(-c6ccc(S(=O)(=O)[O-])cc6)c6nc(c(-c7ccc(S(=O)(=O)[O-])cc7)c7ccc4[nH]7)C=C6)C=C5)cc2)=C3)cc1
REMARK SMILES IDX 25 1 24 2 22 3 23 4 21 5 8 6 9 7 14 8 10 9 13 10 15 11 11 12
REMARK SMILES IDX 12 13 90 14 16 15 7 16 4 17 5 18 92 19 6 20 91 21 3 22 2 23
REMARK SMILES IDX 1 24 17 25 18 26 19 27 20 28 26 29 27 30 28 31 29 32 30 33
REMARK SMILES IDX 31 34 89 35 32 36 88 37 33 38 34 39 35 40 82 41 36 42 87 43
REMARK SMILES IDX 81 44 83 45 37 46 86 47 80 48 79 49 38 51 68 52 49 53 67 54
REMARK SMILES IDX 50 55 53 56 66 57 84 58 51 59 52 60 65 62 85 63 54 64 39 65
REMARK SMILES IDX 40 66 48 67 41 68 47 69 42 70 43 71 44 72 45 73 46 74 69 75
REMARK SMILES IDX 70 76 78 77 71 78 77 79 72 80 73 81 74 82 75 83 76 84 55 85
REMARK SMILES IDX 56 86 64 87 57 88 63 89 58 90 59 91 60 92 61 93 62 94
REMARK H PARENT 83 50 53 61
REMARK Flexibility Score: inf
ROOT
ATOM      1  C   UNL A   1      43.987  26.226  25.362  1.00  0.00     0.275 C 
ENDROOT
BRANCH   1   2
ATOM      2  O   UNL A   1      44.393  27.138  26.412  1.00  0.00    -0.459 OA
BRANCH   2   3
ATOM      3  C   UNL A   1      45.358  26.621  27.219  1.00  0.00     0.338 C 
ATOM      4  O   UNL A   1      46.203  25.814  26.848  1.00  0.00    -0.246 OA
BRANCH   3   5
ATOM      5  C   UNL A   1      45.339  27.139  28.613  1.00  0.00     0.087 C 
ATOM      6  C   UNL A   1      44.594  24.491  31.578  1.00  0.00     0.026 A 
ATOM      7  C   UNL A   1      43.911  23.493  30.844  1.00  0.00     0.033 A 
ATOM      8  C   UNL A   1      44.780  25.682  30.876  1.00  0.00     0.135 A 
ATOM      9  C   UNL A   1      43.274  23.725  29.623  1.00  0.00     0.042 A 
ATOM     10  C   UNL A   1      43.919  25.981  29.790  1.00  0.00     0.019 A 
ATOM     11  O   UNL A   1      45.902  26.500  30.997  1.00  0.00    -0.475 OA
ATOM     12  Cl  UNL A   1      42.649  22.482  28.621  1.00  0.00    -0.084 Cl
ATOM     13  C   UNL A   1      43.161  25.010  29.164  1.00  0.00     0.032 A 
ATOM     14  C   UNL A   1      44.092  27.271  29.098  1.00  0.00     0.027 C 
ATOM     15  C   UNL A   1      46.435  26.923  29.643  1.00  0.00     0.316 C 
BRANCH   6  16
ATOM     16  C   UNL A   1      44.751  24.178  33.034  1.00  0.00    -0.015 A 
ATOM     17  C   UNL A   1      45.466  22.714  35.425  1.00  0.00     0.007 A 
ATOM     18  C   UNL A   1      46.210  23.817  34.973  1.00  0.00     0.015 A 
ATOM     19  C   UNL A   1      44.320  22.392  34.710  1.00  0.00     0.015 A 
ATOM     20  C   UNL A   1      45.843  24.557  33.820  1.00  0.00     0.010 A 
ATOM     21  C   UNL A   1      43.972  23.113  33.547  1.00  0.00     0.010 A 
BRANCH  17  22
ATOM     22  S   UNL A   1      46.050  21.885  36.899  1.00  0.00    -0.126 SA
BRANCH  22  23
ATOM     23  C   UNL A   1      45.806  23.044  38.299  1.00  0.00     0.071 C 
ATOM     24  C   UNL A   1      45.742  22.340  39.643  1.00  0.00     0.016 C 
ENDBRANCH  22  23
ENDBRANCH  17  22
ENDBRANCH   6  16
BRANCH  15  25
ATOM     25  C   UNL A   1      47.175  28.264  29.734  1.00  0.00     0.430 C 
ATOM     26  F   UNL A   1      48.503  28.094  29.948  1.00  0.00    -0.167 F 
ATOM     27  F   UNL A   1      47.030  29.015  28.624  1.00  0.00    -0.167 F 
ATOM     28  F   UNL A   1      46.708  29.006  30.775  1.00  0.00    -0.167 F 
ENDBRANCH  15  25
ENDBRANCH   3   5
ENDBRANCH   2   3
ENDBRANCH   1   2
BRANCH   1  29
ATOM     29  C   UNL A   1      42.535  25.754  25.485  1.00  0.00     0.275 C 
BRANCH  29  30
ATOM     30  O   UNL A   1      41.680  26.785  26.013  1.00  0.00    -0.458 OA
BRANCH  30  31
ATOM     31  C   UNL A   1      40.555  26.315  26.604  1.00  0.00     0.338 C 
ATOM     32  O   UNL A   1      39.798  25.477  26.127  1.00  0.00    -0.246 OA
BRANCH  31  33
ATOM     33  C   UNL A   1      40.391  26.844  27.981  1.00  0.00     0.060 A 
ATOM     34  C   UNL A   1      41.065  28.028  28.268  1.00  0.00     0.016 A 
ATOM     35  C   UNL A   1      39.627  26.238  28.990  1.00  0.00     0.016 A 
ATOM     36  C   UNL A   1      40.928  28.617  29.525  1.00  0.00     0.010 A 
ATOM     37  C   UNL A   1      39.492  26.851  30.259  1.00  0.00     0.010 A 
ATOM     38  C   UNL A   1      40.113  28.075  30.536  1.00  0.00    -0.014 A 
BRANCH  38  39
ATOM     39  C   UNL A   1      40.019  28.843  31.831  1.00  0.00     0.031 A 
ATOM     40  C   UNL A   1      41.200  28.827  32.758  1.00  0.00     0.074 A 
ATOM     41  C   UNL A   1      39.024  29.716  32.111  1.00  0.00     0.049 A 
ATOM     42  N   UNL A   1      41.456  29.602  33.779  1.00  0.00    -0.248 NA
ATOM     43  C   UNL A   1      42.226  27.810  32.489  1.00  0.00     0.031 C 
ATOM     44  C   UNL A   1      37.826  29.892  31.313  1.00  0.00     0.029 A 
ATOM     45  N   UNL A   1      38.895  30.695  33.077  1.00  0.00    -0.354 N 
ATOM     46  C   UNL A   1      42.678  29.174  34.272  1.00  0.00     0.074 A 
ATOM     47  C   UNL A   1      43.123  28.088  33.420  1.00  0.00     0.031 C 
ATOM     48  C   UNL A   1      37.201  31.025  31.663  1.00  0.00     0.029 A 
ATOM     49  C   UNL A   1      37.833  31.558  32.862  1.00  0.00     0.049 A 
ATOM     50  H   UNL A   1      39.503  30.772  33.848  1.00  0.00     0.167 HD
ATOM     51  C   UNL A   1      43.350  29.601  35.366  1.00  0.00     0.031 A 
ATOM     52  C   UNL A   1      37.381  32.625  33.559  1.00  0.00     0.031 A 
ATOM     53  C   UNL A   1      42.859  30.574  36.303  1.00  0.00     0.049 A 
ATOM     54  C   UNL A   1      38.049  32.959  34.867  1.00  0.00     0.074 A 
ATOM     55  C   UNL A   1      43.420  30.957  37.508  1.00  0.00     0.029 A 
ATOM     56  N   UNL A   1      41.679  31.289  36.166  1.00  0.00    -0.354 N 
ATOM     57  N   UNL A   1      39.169  32.490  35.358  1.00  0.00    -0.248 NA
ATOM     58  C   UNL A   1      37.376  33.940  35.732  1.00  0.00     0.031 C 
ATOM     59  C   UNL A   1      42.539  31.842  38.138  1.00  0.00     0.029 A 
ATOM     60  C   UNL A   1      41.471  32.077  37.287  1.00  0.00     0.049 A 
ATOM     61  H   UNL A   1      41.079  31.245  35.387  1.00  0.00     0.167 HD
ATOM     62  C   UNL A   1      39.340  33.119  36.585  1.00  0.00     0.074 A 
ATOM     63  C   UNL A   1      38.221  34.024  36.753  1.00  0.00     0.031 C 
ATOM     64  C   UNL A   1      40.344  32.959  37.481  1.00  0.00     0.031 A 
BRANCH  51  65
ATOM     65  C   UNL A   1      44.627  28.873  35.667  1.00  0.00    -0.014 A 
ATOM     66  C   UNL A   1      44.652  27.771  36.541  1.00  0.00     0.010 A 
ATOM     67  C   UNL A   1      45.833  29.365  35.136  1.00  0.00     0.010 A 
ATOM     68  C   UNL A   1      45.873  27.219  36.932  1.00  0.00     0.020 A 
ATOM     69  C   UNL A   1      47.052  28.797  35.504  1.00  0.00     0.020 A 
ATOM     70  C   UNL A   1      47.065  27.747  36.423  1.00  0.00     0.054 A 
BRANCH  70  71
ATOM     71  S   UNL A   1      48.638  27.058  37.000  1.00  0.00     0.124 S 
ATOM     72  O   UNL A   1      48.751  27.646  38.333  1.00  0.00    -0.237 OA
ATOM     73  O   UNL A   1      48.389  25.619  36.966  1.00  0.00    -0.237 OA
ATOM     74  O   UNL A   1      49.609  27.544  36.022  1.00  0.00    -0.744 OA
ENDBRANCH  70  71
ENDBRANCH  51  65
BRANCH  52  75
ATOM     75  C   UNL A   1      36.190  33.412  33.099  1.00  0.00    -0.014 A 
ATOM     76  C   UNL A   1      36.335  34.554  32.287  1.00  0.00     0.010 A 
ATOM     77  C   UNL A   1      34.891  33.036  33.491  1.00  0.00     0.010 A 
ATOM     78  C   UNL A   1      35.214  35.289  31.873  1.00  0.00     0.020 A 
ATOM     79  C   UNL A   1      33.767  33.739  33.047  1.00  0.00     0.020 A 
ATOM     80  C   UNL A   1      33.935  34.867  32.246  1.00  0.00     0.054 A 
BRANCH  80  81
ATOM     81  S   UNL A   1      32.488  35.780  31.636  1.00  0.00     0.124 S 
ATOM     82  O   UNL A   1      31.432  35.309  32.526  1.00  0.00    -0.237 OA
ATOM     83  O   UNL A   1      32.895  37.172  31.816  1.00  0.00    -0.237 OA
ATOM     84  O   UNL A   1      32.375  35.348  30.245  1.00  0.00    -0.744 OA
ENDBRANCH  80  81
ENDBRANCH  52  75
BRANCH  64  85
ATOM     85  C   UNL A   1      40.301  33.784  38.742  1.00  0.00    -0.014 A 
ATOM     86  C   UNL A   1      40.859  35.075  38.796  1.00  0.00     0.010 A 
ATOM     87  C   UNL A   1      39.628  33.285  39.872  1.00  0.00     0.010 A 
ATOM     88  C   UNL A   1      40.763  35.839  39.965  1.00  0.00     0.020 A 
ATOM     89  C   UNL A   1      39.502  34.057  41.030  1.00  0.00     0.020 A 
ATOM     90  C   UNL A   1      40.081  35.326  41.072  1.00  0.00     0.054 A 
BRANCH  90  91
ATOM     91  S   UNL A   1      39.915  36.362  42.553  1.00  0.00     0.124 S 
ATOM     92  O   UNL A   1      38.754  35.769  43.210  1.00  0.00    -0.237 OA
ATOM     93  O   UNL A   1      41.193  36.158  43.230  1.00  0.00    -0.237 OA
ATOM     94  O   UNL A   1      39.710  37.706  42.016  1.00  0.00    -0.744 OA
ENDBRANCH  90  91
ENDBRANCH  64  85
ENDBRANCH  38  39
ENDBRANCH  31  33
ENDBRANCH  30  31
ENDBRANCH  29  30
ENDBRANCH   1  29
TORSDOF 18
ENDMDL
MODEL 3
REMARK VINA RESULT:      -9.7     10.518     17.554
REMARK SMILES CCSc1ccc(-c2cc(Cl)cc3c2O[C@H](C(F)(F)F)C(C(=O)OCCOC(=O)c2ccc(-c4c5nc(c(-c6ccc(S(=O)(=O)[O-])cc6)c6ccc([nH]6)c(-c6ccc(S(=O)(=O)[O-])cc6)c6nc(c(-c7ccc(S(=O)(=O)[O-])cc7)c7ccc4[nH]7)C=C6)C=C5)cc2)=C3)cc1
REMARK SMILES IDX 25 1 24 2 22 3 23 4 21 5 8 6 9 7 14 8 10 9 13 10 15 11 11 12
REMARK SMILES IDX 12 13 90 14 16 15 7 16 4 17 5 18 92 19 6 20 91 21 3 22 2 23
REMARK SMILES IDX 1 24 17 25 18 26 19 27 20 28 26 29 27 30 28 31 29 32 30 33
REMARK SMILES IDX 31 34 89 35 32 36 88 37 33 38 34 39 35 40 82 41 36 42 87 43
REMARK SMILES IDX 81 44 83 45 37 46 86 47 80 48 79 49 38 51 68 52 49 53 67 54
REMARK SMILES IDX 50 55 53 56 66 57 84 58 51 59 52 60 65 62 85 63 54 64 39 65
REMARK SMILES IDX 40 66 48 67 41 68 47 69 42 70 43 71 44 72 45 73 46 74 69 75
REMARK SMILES IDX 70 76 78 77 71 78 77 79 72 80 73 81 74 82 75 83 76 84 55 85
REMARK SMILES IDX 56 86 64 87 57 88 63 89 58 90 59 91 60 92 61 93 62 94
REMARK H PARENT 83 50 53 61
REMARK Flexibility Score: inf
ROOT
ATOM      1  C   UNL A   1      44.772  39.950  26.172  1.00  0.00     0.275 C 
ENDROOT
BRANCH   1   2
ATOM      2  O   UNL A   1      44.825  41.387  25.986  1.00  0.00    -0.459 OA
BRANCH   2   3
ATOM      3  C   UNL A   1      45.136  41.745  24.713  1.00  0.00     0.338 C 
ATOM      4  O   UNL A   1      46.038  41.233  24.057  1.00  0.00    -0.246 OA
BRANCH   3   5
ATOM      5  C   UNL A   1      44.266  42.805  24.139  1.00  0.00     0.087 C 
ATOM      6  C   UNL A   1      46.015  45.580  21.773  1.00  0.00     0.026 A 
ATOM      7  C   UNL A   1      47.349  45.485  22.236  1.00  0.00     0.033 A 
ATOM      8  C   UNL A   1      45.090  44.907  22.572  1.00  0.00     0.135 A 
ATOM      9  C   UNL A   1      47.703  44.972  23.485  1.00  0.00     0.042 A 
ATOM     10  C   UNL A   1      45.416  44.641  23.926  1.00  0.00     0.019 A 
ATOM     11  O   UNL A   1      43.958  44.255  22.087  1.00  0.00    -0.475 OA
ATOM     12  Cl  UNL A   1      49.318  44.640  23.957  1.00  0.00    -0.084 Cl
ATOM     13  C   UNL A   1      46.718  44.677  24.389  1.00  0.00     0.032 A 
ATOM     14  C   UNL A   1      44.403  43.984  24.771  1.00  0.00     0.027 C 
ATOM     15  C   UNL A   1      43.806  42.874  22.692  1.00  0.00     0.316 C 
BRANCH   6  16
ATOM     16  C   UNL A   1      45.818  46.586  20.682  1.00  0.00    -0.015 A 
ATOM     17  C   UNL A   1      44.457  48.191  18.696  1.00  0.00     0.007 A 
ATOM     18  C   UNL A   1      44.888  48.725  19.922  1.00  0.00     0.015 A 
ATOM     19  C   UNL A   1      44.774  46.863  18.441  1.00  0.00     0.015 A 
ATOM     20  C   UNL A   1      45.585  47.949  20.883  1.00  0.00     0.010 A 
ATOM     21  C   UNL A   1      45.443  46.086  19.410  1.00  0.00     0.010 A 
BRANCH  17  22
ATOM     22  S   UNL A   1      43.596  49.297  17.583  1.00  0.00    -0.126 SA
BRANCH  22  23
ATOM     23  C   UNL A   1      42.542  48.256  16.502  1.00  0.00     0.071 C 
ATOM     24  C   UNL A   1      41.150  48.038  17.069  1.00  0.00     0.016 C 
ENDBRANCH  22  23
ENDBRANCH  17  22
ENDBRANCH   6  16
BRANCH  15  25
ATOM     25  C   UNL A   1      42.334  42.440  22.714  1.00  0.00     0.430 C 
ATOM     26  F   UNL A   1      42.004  41.721  21.613  1.00  0.00    -0.167 F 
ATOM     27  F   UNL A   1      42.026  41.698  23.798  1.00  0.00    -0.167 F 
ATOM     28  F   UNL A   1      41.509  43.522  22.730  1.00  0.00    -0.167 F 
ENDBRANCH  15  25
ENDBRANCH   3   5
ENDBRANCH   2   3
ENDBRANCH   1   2
BRANCH   1  29
ATOM     29  C   UNL A   1      45.926  39.397  27.015  1.00  0.00     0.275 C 
BRANCH  29  30
ATOM     30  O   UNL A   1      45.643  38.074  27.507  1.00  0.00    -0.458 OA
BRANCH  30  31
ATOM     31  C   UNL A   1      46.739  37.401  27.933  1.00  0.00     0.338 C 
ATOM     32  O   UNL A   1      47.811  37.911  28.241  1.00  0.00    -0.246 OA
BRANCH  31  33
ATOM     33  C   UNL A   1      46.465  35.954  28.111  1.00  0.00     0.060 A 
ATOM     34  C   UNL A   1      45.859  35.307  27.038  1.00  0.00     0.016 A 
ATOM     35  C   UNL A   1      46.763  35.215  29.266  1.00  0.00     0.016 A 
ATOM     36  C   UNL A   1      45.608  33.937  27.105  1.00  0.00     0.010 A 
ATOM     37  C   UNL A   1      46.509  33.823  29.318  1.00  0.00     0.010 A 
ATOM     38  C   UNL A   1      45.958  33.152  28.220  1.00  0.00    -0.014 A 
BRANCH  38  39
ATOM     39  C   UNL A   1      45.673  31.673  28.138  1.00  0.00     0.031 A 
ATOM     40  C   UNL A   1      44.274  31.200  28.409  1.00  0.00     0.074 A 
ATOM     41  C   UNL A   1      46.544  30.770  27.630  1.00  0.00     0.049 A 
ATOM     42  N   UNL A   1      43.732  30.039  28.150  1.00  0.00    -0.248 NA
ATOM     43  C   UNL A   1      43.370  32.168  29.046  1.00  0.00     0.031 C 
ATOM     44  C   UNL A   1      47.921  31.055  27.277  1.00  0.00     0.029 A 
ATOM     45  N   UNL A   1      46.386  29.462  27.218  1.00  0.00    -0.354 N 
ATOM     46  C   UNL A   1      42.420  30.137  28.583  1.00  0.00     0.074 A 
ATOM     47  C   UNL A   1      42.242  31.481  29.097  1.00  0.00     0.031 C 
ATOM     48  C   UNL A   1      48.418  30.067  26.521  1.00  0.00     0.029 A 
ATOM     49  C   UNL A   1      47.465  28.965  26.505  1.00  0.00     0.049 A 
ATOM     50  H   UNL A   1      45.581  28.930  27.414  1.00  0.00     0.167 HD
ATOM     51  C   UNL A   1      41.460  29.184  28.608  1.00  0.00     0.031 A 
ATOM     52  C   UNL A   1      47.695  27.759  25.938  1.00  0.00     0.031 A 
ATOM     53  C   UNL A   1      41.657  27.809  28.239  1.00  0.00     0.049 A 
ATOM     54  C   UNL A   1      46.677  26.668  26.142  1.00  0.00     0.074 A 
ATOM     55  C   UNL A   1      40.771  26.755  28.367  1.00  0.00     0.029 A 
ATOM     56  N   UNL A   1      42.826  27.286  27.707  1.00  0.00    -0.354 N 
ATOM     57  N   UNL A   1      45.463  26.761  26.625  1.00  0.00    -0.248 NA
ATOM     58  C   UNL A   1      47.069  25.303  25.757  1.00  0.00     0.031 C 
ATOM     59  C   UNL A   1      41.431  25.581  27.989  1.00  0.00     0.029 A 
ATOM     60  C   UNL A   1      42.700  25.915  27.545  1.00  0.00     0.049 A 
ATOM     61  H   UNL A   1      43.627  27.812  27.476  1.00  0.00     0.167 HD
ATOM     62  C   UNL A   1      44.942  25.473  26.599  1.00  0.00     0.074 A 
ATOM     63  C   UNL A   1      45.964  24.619  26.028  1.00  0.00     0.031 C 
ATOM     64  C   UNL A   1      43.722  25.048  27.007  1.00  0.00     0.031 A 
BRANCH  51  65
ATOM     65  C   UNL A   1      40.150  29.600  29.212  1.00  0.00    -0.014 A 
ATOM     66  C   UNL A   1      39.070  30.005  28.408  1.00  0.00     0.010 A 
ATOM     67  C   UNL A   1      40.040  29.674  30.611  1.00  0.00     0.010 A 
ATOM     68  C   UNL A   1      37.924  30.544  28.997  1.00  0.00     0.020 A 
ATOM     69  C   UNL A   1      38.886  30.186  31.204  1.00  0.00     0.020 A 
ATOM     70  C   UNL A   1      37.848  30.645  30.390  1.00  0.00     0.054 A 
BRANCH  70  71
ATOM     71  S   UNL A   1      36.381  31.411  31.128  1.00  0.00     0.124 S 
ATOM     72  O   UNL A   1      35.525  31.603  29.959  1.00  0.00    -0.237 OA
ATOM     73  O   UNL A   1      35.932  30.396  32.076  1.00  0.00    -0.237 OA
ATOM     74  O   UNL A   1      36.896  32.640  31.729  1.00  0.00    -0.744 OA
ENDBRANCH  70  71
ENDBRANCH  51  65
BRANCH  52  75
ATOM     75  C   UNL A   1      48.968  27.471  25.199  1.00  0.00    -0.014 A 
ATOM     76  C   UNL A   1      49.009  27.452  23.791  1.00  0.00     0.010 A 
ATOM     77  C   UNL A   1      50.155  27.191  25.903  1.00  0.00     0.010 A 
ATOM     78  C   UNL A   1      50.204  27.171  23.111  1.00  0.00     0.020 A 
ATOM     79  C   UNL A   1      51.357  26.951  25.231  1.00  0.00     0.020 A 
ATOM     80  C   UNL A   1      51.374  26.935  23.837  1.00  0.00     0.054 A 
BRANCH  80  81
ATOM     81  S   UNL A   1      52.930  26.653  22.944  1.00  0.00     0.124 S 
ATOM     82  O   UNL A   1      53.597  27.943  23.078  1.00  0.00    -0.237 OA
ATOM     83  O   UNL A   1      53.527  25.549  23.693  1.00  0.00    -0.237 OA
ATOM     84  O   UNL A   1      52.490  26.311  21.593  1.00  0.00    -0.744 OA
ENDBRANCH  80  81
ENDBRANCH  52  75
BRANCH  64  85
ATOM     85  C   UNL A   1      43.397  23.584  26.853  1.00  0.00    -0.014 A 
ATOM     86  C   UNL A   1      43.006  22.797  27.951  1.00  0.00     0.010 A 
ATOM     87  C   UNL A   1      43.414  23.004  25.570  1.00  0.00     0.010 A 
ATOM     88  C   UNL A   1      42.663  21.452  27.772  1.00  0.00     0.020 A 
ATOM     89  C   UNL A   1      43.041  21.671  25.383  1.00  0.00     0.020 A 
ATOM     90  C   UNL A   1      42.678  20.900  26.488  1.00  0.00     0.054 A 
BRANCH  90  91
ATOM     91  S   UNL A   1      42.167  19.171  26.274  1.00  0.00     0.124 S 
ATOM     92  O   UNL A   1      42.429  18.611  27.596  1.00  0.00    -0.237 OA
ATOM     93  O   UNL A   1      40.758  19.297  25.913  1.00  0.00    -0.237 OA
ATOM     94  O   UNL A   1      43.036  18.682  25.205  1.00  0.00    -0.744 OA
ENDBRANCH  90  91
ENDBRANCH  64  85
ENDBRANCH  38  39
ENDBRANCH  31  33
ENDBRANCH  30  31
ENDBRANCH  29  30
ENDBRANCH   1  29
TORSDOF 18
ENDMDL
