MODEL 1
REMARK VINA RESULT:     -10.0      0.000      0.000
REMARK SMILES CC[NH+](CC)[C@](C)(C(=O)OCCOC(=O)c1ccc(-c2c3nc(c(-c4ccc(S(=O)(=O)[O-])cc4)c4ccc([nH]4)c(-c4ccc(S(=O)(=O)[O-])cc4)c4nc(c(-c5ccc(S(=O)(=O)[O-])cc5)c5ccc2[nH]5)C=C4)C=C3)cc1)c1cc(F)c(C)cc1F
REMARK SMILES IDX 12 1 11 2 10 3 8 4 9 5 6 6 7 7 3 8 2 10 1 11 4 12 5 13 76 14
REMARK SMILES IDX 77 15 83 16 78 17 82 18 84 19 79 20 80 21 81 22 13 23 14 24
REMARK SMILES IDX 15 25 16 26 17 27 75 28 18 29 74 30 19 31 20 32 21 33 68 34
REMARK SMILES IDX 22 35 73 36 67 37 69 38 23 39 72 40 66 41 65 42 24 44 54 45
REMARK SMILES IDX 35 46 53 47 36 48 39 49 52 50 70 51 37 52 38 53 51 55 71 56
REMARK SMILES IDX 40 57 25 58 26 59 34 60 27 61 33 62 28 63 29 64 30 65 31 66
REMARK SMILES IDX 32 67 55 68 56 69 64 70 57 71 63 72 58 73 59 74 60 75 61 76
REMARK SMILES IDX 62 77 41 78 42 79 50 80 43 81 49 82 44 83 45 84 46 85 47 86
REMARK SMILES IDX 48 87
REMARK H PARENT 3 9 69 43 39 54
REMARK Flexibility Score: inf
ROOT
ATOM      1  C   UNL A   1      32.761  30.911  27.120  1.00  0.00     0.275 C 
ENDROOT
BRANCH   1   2
ATOM      2  C   UNL A   1      32.163  29.968  26.081  1.00  0.00     0.274 C 
BRANCH   2   3
ATOM      3  O   UNL A   1      32.695  28.634  26.265  1.00  0.00    -0.457 OA
BRANCH   3   4
ATOM      4  C   UNL A   1      33.118  27.980  25.136  1.00  0.00     0.373 C 
ATOM      5  O   UNL A   1      34.053  28.372  24.444  1.00  0.00    -0.244 OA
BRANCH   4   6
ATOM      6  C   UNL A   1      32.237  26.702  24.819  1.00  0.00     0.221 C 
ATOM      7  C   UNL A   1      31.436  26.245  26.073  1.00  0.00     0.098 C 
BRANCH   6   8
ATOM      8  N   UNL A   1      31.256  27.033  23.697  1.00  0.00    -0.318 N 
ATOM      9  H   UNL A   1      31.273  26.157  23.173  1.00  0.00     0.349 HD
BRANCH   8  10
ATOM     10  C   UNL A   1      31.643  28.103  22.746  1.00  0.00     0.259 C 
ATOM     11  C   UNL A   1      30.638  29.199  22.425  1.00  0.00     0.071 C 
ENDBRANCH   8  10
BRANCH   8  12
ATOM     12  C   UNL A   1      29.892  27.349  24.197  1.00  0.00     0.259 C 
ATOM     13  C   UNL A   1      28.873  26.278  23.796  1.00  0.00     0.071 C 
ENDBRANCH   8  12
ENDBRANCH   6   8
BRANCH   6  14
ATOM     14  C   UNL A   1      33.285  25.586  24.467  1.00  0.00     0.062 A 
ATOM     15  C   UNL A   1      34.376  25.354  25.335  1.00  0.00     0.053 A 
ATOM     16  C   UNL A   1      33.280  24.820  23.287  1.00  0.00     0.133 A 
ATOM     17  C   UNL A   1      35.347  24.385  25.062  1.00  0.00     0.126 A 
ATOM     18  C   UNL A   1      34.239  23.829  23.029  1.00  0.00     0.046 A 
ATOM     19  F   UNL A   1      32.344  24.993  22.347  1.00  0.00    -0.206 F 
ATOM     20  F   UNL A   1      36.361  24.239  25.925  1.00  0.00    -0.207 F 
ATOM     21  C   UNL A   1      35.288  23.598  23.919  1.00  0.00    -0.012 A 
ATOM     22  C   UNL A   1      36.361  22.597  23.610  1.00  0.00     0.047 C 
ENDBRANCH   6  14
ENDBRANCH   4   6
ENDBRANCH   3   4
ENDBRANCH   2   3
ENDBRANCH   1   2
BRANCH   1  23
ATOM     23  O   UNL A   1      33.921  30.252  27.639  1.00  0.00    -0.458 OA
BRANCH  23  24
ATOM     24  C   UNL A   1      34.702  30.950  28.490  1.00  0.00     0.338 C 
ATOM     25  O   UNL A   1      34.380  31.886  29.196  1.00  0.00    -0.246 OA
BRANCH  24  26
ATOM     26  C   UNL A   1      36.027  30.302  28.488  1.00  0.00     0.060 A 
ATOM     27  C   UNL A   1      36.546  29.834  29.696  1.00  0.00     0.016 A 
ATOM     28  C   UNL A   1      36.796  30.250  27.326  1.00  0.00     0.016 A 
ATOM     29  C   UNL A   1      37.864  29.396  29.757  1.00  0.00     0.010 A 
ATOM     30  C   UNL A   1      38.095  29.726  27.382  1.00  0.00     0.010 A 
ATOM     31  C   UNL A   1      38.666  29.338  28.609  1.00  0.00    -0.014 A 
BRANCH  31  32
ATOM     32  C   UNL A   1      40.116  28.989  28.728  1.00  0.00     0.031 A 
ATOM     33  C   UNL A   1      41.077  29.964  29.364  1.00  0.00     0.074 A 
ATOM     34  C   UNL A   1      40.581  27.771  28.374  1.00  0.00     0.049 A 
ATOM     35  N   UNL A   1      42.386  29.941  29.383  1.00  0.00    -0.248 NA
ATOM     36  C   UNL A   1      40.492  31.120  30.064  1.00  0.00     0.031 C 
ATOM     37  C   UNL A   1      39.775  26.667  27.849  1.00  0.00     0.029 A 
ATOM     38  N   UNL A   1      41.847  27.240  28.453  1.00  0.00    -0.354 N 
ATOM     39  C   UNL A   1      42.779  31.117  30.014  1.00  0.00     0.074 A 
ATOM     40  C   UNL A   1      41.571  31.820  30.387  1.00  0.00     0.031 C 
ATOM     41  C   UNL A   1      40.538  25.567  27.760  1.00  0.00     0.029 A 
ATOM     42  C   UNL A   1      41.917  25.917  28.082  1.00  0.00     0.049 A 
ATOM     43  H   UNL A   1      42.630  27.758  28.748  1.00  0.00     0.167 HD
ATOM     44  C   UNL A   1      44.032  31.577  30.246  1.00  0.00     0.031 A 
ATOM     45  C   UNL A   1      42.972  25.086  27.962  1.00  0.00     0.031 A 
ATOM     46  C   UNL A   1      45.232  30.848  29.938  1.00  0.00     0.049 A 
ATOM     47  C   UNL A   1      44.358  25.627  28.176  1.00  0.00     0.074 A 
ATOM     48  C   UNL A   1      46.549  31.256  30.070  1.00  0.00     0.029 A 
ATOM     49  N   UNL A   1      45.263  29.543  29.472  1.00  0.00    -0.354 N 
ATOM     50  N   UNL A   1      44.723  26.812  28.606  1.00  0.00    -0.248 NA
ATOM     51  C   UNL A   1      45.476  24.737  27.833  1.00  0.00     0.031 C 
ATOM     52  C   UNL A   1      47.376  30.205  29.655  1.00  0.00     0.029 A 
ATOM     53  C   UNL A   1      46.574  29.131  29.304  1.00  0.00     0.049 A 
ATOM     54  H   UNL A   1      44.469  28.991  29.287  1.00  0.00     0.167 HD
ATOM     55  C   UNL A   1      46.112  26.816  28.560  1.00  0.00     0.074 A 
ATOM     56  C   UNL A   1      46.524  25.504  28.106  1.00  0.00     0.031 C 
ATOM     57  C   UNL A   1      46.969  27.826  28.845  1.00  0.00     0.031 A 
BRANCH  44  58
ATOM     58  C   UNL A   1      44.166  32.973  30.787  1.00  0.00    -0.014 A 
ATOM     59  C   UNL A   1      44.267  33.232  32.164  1.00  0.00     0.010 A 
ATOM     60  C   UNL A   1      44.213  34.048  29.880  1.00  0.00     0.010 A 
ATOM     61  C   UNL A   1      44.378  34.547  32.626  1.00  0.00     0.020 A 
ATOM     62  C   UNL A   1      44.344  35.361  30.336  1.00  0.00     0.020 A 
ATOM     63  C   UNL A   1      44.407  35.604  31.710  1.00  0.00     0.054 A 
BRANCH  63  64
ATOM     64  S   UNL A   1      44.557  37.303  32.329  1.00  0.00     0.124 S 
ATOM     65  O   UNL A   1      43.882  38.064  31.281  1.00  0.00    -0.237 OA
ATOM     66  O   UNL A   1      43.860  37.243  33.610  1.00  0.00    -0.237 OA
ATOM     67  O   UNL A   1      46.000  37.514  32.418  1.00  0.00    -0.744 OA
ENDBRANCH  63  64
ENDBRANCH  44  58
BRANCH  45  68
ATOM     68  C   UNL A   1      42.769  23.679  27.514  1.00  0.00    -0.014 A 
ATOM     69  C   UNL A   1      42.505  22.659  28.445  1.00  0.00     0.010 A 
ATOM     70  C   UNL A   1      42.840  23.353  26.147  1.00  0.00     0.010 A 
ATOM     71  C   UNL A   1      42.318  21.341  28.017  1.00  0.00     0.020 A 
ATOM     72  C   UNL A   1      42.618  22.046  25.712  1.00  0.00     0.020 A 
ATOM     73  C   UNL A   1      42.373  21.044  26.651  1.00  0.00     0.054 A 
BRANCH  73  74
ATOM     74  S   UNL A   1      42.066  19.344  26.095  1.00  0.00     0.124 S 
ATOM     75  O   UNL A   1      42.537  18.565  27.235  1.00  0.00    -0.237 OA
ATOM     76  O   UNL A   1      40.621  19.333  25.873  1.00  0.00    -0.237 OA
ATOM     77  O   UNL A   1      42.873  19.236  24.882  1.00  0.00    -0.744 OA
ENDBRANCH  73  74
ENDBRANCH  45  68
BRANCH  57  78
ATOM     78  C   UNL A   1      48.437  27.555  28.670  1.00  0.00    -0.014 A 
ATOM     79  C   UNL A   1      49.087  27.882  27.466  1.00  0.00     0.010 A 
ATOM     80  C   UNL A   1      49.183  27.016  29.731  1.00  0.00     0.010 A 
ATOM     81  C   UNL A   1      50.457  27.652  27.319  1.00  0.00     0.020 A 
ATOM     82  C   UNL A   1      50.557  26.802  29.595  1.00  0.00     0.020 A 
ATOM     83  C   UNL A   1      51.184  27.111  28.385  1.00  0.00     0.054 A 
BRANCH  83  84
ATOM     84  S   UNL A   1      52.970  26.864  28.190  1.00  0.00     0.124 S 
ATOM     85  O   UNL A   1      53.399  26.648  29.570  1.00  0.00    -0.237 OA
ATOM     86  O   UNL A   1      53.042  25.692  27.319  1.00  0.00    -0.237 OA
ATOM     87  O   UNL A   1      53.426  28.112  27.583  1.00  0.00    -0.744 OA
ENDBRANCH  83  84
ENDBRANCH  57  78
ENDBRANCH  31  32
ENDBRANCH  24  26
ENDBRANCH  23  24
ENDBRANCH   1  23
TORSDOF 18
ENDMDL
MODEL 2
REMARK VINA RESULT:     -10.0      5.797     11.128
REMARK SMILES CC[NH+](CC)[C@](C)(C(=O)OCCOC(=O)c1ccc(-c2c3nc(c(-c4ccc(S(=O)(=O)[O-])cc4)c4ccc([nH]4)c(-c4ccc(S(=O)(=O)[O-])cc4)c4nc(c(-c5ccc(S(=O)(=O)[O-])cc5)c5ccc2[nH]5)C=C4)C=C3)cc1)c1cc(F)c(C)cc1F
REMARK SMILES IDX 12 1 11 2 10 3 8 4 9 5 6 6 7 7 3 8 2 10 1 11 4 12 5 13 76 14
REMARK SMILES IDX 77 15 83 16 78 17 82 18 84 19 79 20 80 21 81 22 13 23 14 24
REMARK SMILES IDX 15 25 16 26 17 27 75 28 18 29 74 30 19 31 20 32 21 33 68 34
REMARK SMILES IDX 22 35 73 36 67 37 69 38 23 39 72 40 66 41 65 42 24 44 54 45
REMARK SMILES IDX 35 46 53 47 36 48 39 49 52 50 70 51 37 52 38 53 51 55 71 56
REMARK SMILES IDX 40 57 25 58 26 59 34 60 27 61 33 62 28 63 29 64 30 65 31 66
REMARK SMILES IDX 32 67 55 68 56 69 64 70 57 71 63 72 58 73 59 74 60 75 61 76
REMARK SMILES IDX 62 77 41 78 42 79 50 80 43 81 49 82 44 83 45 84 46 85 47 86
REMARK SMILES IDX 48 87
REMARK H PARENT 3 9 69 43 39 54
REMARK Flexibility Score: inf
ROOT
ATOM      1  C   UNL A   1      38.650  23.567  26.487  1.00  0.00     0.275 C 
ENDROOT
BRANCH   1   2
ATOM      2  C   UNL A   1      37.624  23.437  25.367  1.00  0.00     0.274 C 
BRANCH   2   3
ATOM      3  O   UNL A   1      36.316  23.169  25.927  1.00  0.00    -0.457 OA
BRANCH   3   4
ATOM      4  C   UNL A   1      35.284  23.021  25.036  1.00  0.00     0.373 C 
ATOM      5  O   UNL A   1      35.389  23.275  23.840  1.00  0.00    -0.244 OA
BRANCH   4   6
ATOM      6  C   UNL A   1      33.951  22.531  25.739  1.00  0.00     0.221 C 
ATOM      7  C   UNL A   1      34.237  21.982  27.167  1.00  0.00     0.098 C 
BRANCH   6   8
ATOM      8  N   UNL A   1      32.978  23.703  25.844  1.00  0.00    -0.318 N 
ATOM      9  H   UNL A   1      32.558  23.677  24.914  1.00  0.00     0.349 HD
BRANCH   8  10
ATOM     10  C   UNL A   1      33.557  25.058  26.009  1.00  0.00     0.259 C 
ATOM     11  C   UNL A   1      33.554  26.009  24.821  1.00  0.00     0.071 C 
ENDBRANCH   8  10
BRANCH   8  12
ATOM     12  C   UNL A   1      31.962  23.517  26.913  1.00  0.00     0.259 C 
ATOM     13  C   UNL A   1      30.577  23.205  26.339  1.00  0.00     0.071 C 
ENDBRANCH   8  12
ENDBRANCH   6   8
BRANCH   6  14
ATOM     14  C   UNL A   1      33.453  21.343  24.840  1.00  0.00     0.062 A 
ATOM     15  C   UNL A   1      33.889  20.027  25.119  1.00  0.00     0.053 A 
ATOM     16  C   UNL A   1      32.644  21.481  23.698  1.00  0.00     0.133 A 
ATOM     17  C   UNL A   1      33.491  18.935  24.341  1.00  0.00     0.126 A 
ATOM     18  C   UNL A   1      32.222  20.380  22.937  1.00  0.00     0.046 A 
ATOM     19  F   UNL A   1      32.224  22.681  23.283  1.00  0.00    -0.206 F 
ATOM     20  F   UNL A   1      33.963  17.722  24.657  1.00  0.00    -0.207 F 
ATOM     21  C   UNL A   1      32.642  19.088  23.253  1.00  0.00    -0.012 A 
ATOM     22  C   UNL A   1      32.261  17.918  22.396  1.00  0.00     0.047 C 
ENDBRANCH   6  14
ENDBRANCH   4   6
ENDBRANCH   3   4
ENDBRANCH   2   3
ENDBRANCH   1   2
BRANCH   1  23
ATOM     23  O   UNL A   1      38.641  24.944  26.881  1.00  0.00    -0.458 OA
BRANCH  23  24
ATOM     24  C   UNL A   1      39.836  25.547  27.053  1.00  0.00     0.338 C 
ATOM     25  O   UNL A   1      40.850  25.388  26.402  1.00  0.00    -0.246 OA
BRANCH  24  26
ATOM     26  C   UNL A   1      39.668  26.531  28.139  1.00  0.00     0.060 A 
ATOM     27  C   UNL A   1      40.252  27.792  27.997  1.00  0.00     0.016 A 
ATOM     28  C   UNL A   1      39.030  26.183  29.329  1.00  0.00     0.016 A 
ATOM     29  C   UNL A   1      40.275  28.667  29.077  1.00  0.00     0.010 A 
ATOM     30  C   UNL A   1      38.984  27.107  30.382  1.00  0.00     0.010 A 
ATOM     31  C   UNL A   1      39.650  28.344  30.289  1.00  0.00    -0.014 A 
BRANCH  31  32
ATOM     32  C   UNL A   1      39.803  29.247  31.472  1.00  0.00     0.031 A 
ATOM     33  C   UNL A   1      41.069  29.205  32.293  1.00  0.00     0.074 A 
ATOM     34  C   UNL A   1      38.877  30.184  31.770  1.00  0.00     0.049 A 
ATOM     35  N   UNL A   1      41.317  29.752  33.458  1.00  0.00    -0.248 NA
ATOM     36  C   UNL A   1      42.201  28.443  31.741  1.00  0.00     0.031 C 
ATOM     37  C   UNL A   1      37.648  30.442  31.018  1.00  0.00     0.029 A 
ATOM     38  N   UNL A   1      38.854  31.132  32.766  1.00  0.00    -0.354 N 
ATOM     39  C   UNL A   1      42.593  29.328  33.813  1.00  0.00     0.074 A 
ATOM     40  C   UNL A   1      43.080  28.499  32.731  1.00  0.00     0.031 C 
ATOM     41  C   UNL A   1      37.054  31.541  31.507  1.00  0.00     0.029 A 
ATOM     42  C   UNL A   1      37.777  31.985  32.695  1.00  0.00     0.049 A 
ATOM     43  H   UNL A   1      39.545  31.197  33.464  1.00  0.00     0.167 HD
ATOM     44  C   UNL A   1      43.290  29.591  34.945  1.00  0.00     0.031 A 
ATOM     45  C   UNL A   1      37.378  32.978  33.514  1.00  0.00     0.031 A 
ATOM     46  C   UNL A   1      42.836  30.469  35.989  1.00  0.00     0.049 A 
ATOM     47  C   UNL A   1      38.135  33.223  34.790  1.00  0.00     0.074 A 
ATOM     48  C   UNL A   1      43.435  30.747  37.207  1.00  0.00     0.029 A 
ATOM     49  N   UNL A   1      41.688  31.243  35.923  1.00  0.00    -0.354 N 
ATOM     50  N   UNL A   1      39.256  32.680  35.199  1.00  0.00    -0.248 NA
ATOM     51  C   UNL A   1      37.540  34.174  35.740  1.00  0.00     0.031 C 
ATOM     52  C   UNL A   1      42.632  31.668  37.889  1.00  0.00     0.029 A 
ATOM     53  C   UNL A   1      41.556  31.993  37.079  1.00  0.00     0.049 A 
ATOM     54  H   UNL A   1      41.059  31.257  35.166  1.00  0.00     0.167 HD
ATOM     55  C   UNL A   1      39.486  33.204  36.466  1.00  0.00     0.074 A 
ATOM     56  C   UNL A   1      38.416  34.141  36.736  1.00  0.00     0.031 C 
ATOM     57  C   UNL A   1      40.483  32.916  37.338  1.00  0.00     0.031 A 
BRANCH  44  58
ATOM     58  C   UNL A   1      44.581  28.850  35.150  1.00  0.00    -0.014 A 
ATOM     59  C   UNL A   1      44.628  27.592  35.773  1.00  0.00     0.010 A 
ATOM     60  C   UNL A   1      45.775  29.429  34.680  1.00  0.00     0.010 A 
ATOM     61  C   UNL A   1      45.852  26.942  35.956  1.00  0.00     0.020 A 
ATOM     62  C   UNL A   1      46.998  28.774  34.841  1.00  0.00     0.020 A 
ATOM     63  C   UNL A   1      47.031  27.541  35.495  1.00  0.00     0.054 A 
BRANCH  63  64
ATOM     64  S   UNL A   1      48.609  26.679  35.735  1.00  0.00     0.124 S 
ATOM     65  O   UNL A   1      48.649  26.526  37.187  1.00  0.00    -0.237 OA
ATOM     66  O   UNL A   1      48.422  25.444  34.979  1.00  0.00    -0.237 OA
ATOM     67  O   UNL A   1      49.596  27.601  35.180  1.00  0.00    -0.744 OA
ENDBRANCH  63  64
ENDBRANCH  44  58
BRANCH  45  68
ATOM     68  C   UNL A   1      36.138  33.747  33.209  1.00  0.00    -0.014 A 
ATOM     69  C   UNL A   1      36.208  35.015  32.606  1.00  0.00     0.010 A 
ATOM     70  C   UNL A   1      34.876  33.210  33.524  1.00  0.00     0.010 A 
ATOM     71  C   UNL A   1      35.039  35.731  32.326  1.00  0.00     0.020 A 
ATOM     72  C   UNL A   1      33.706  33.905  33.213  1.00  0.00     0.020 A 
ATOM     73  C   UNL A   1      33.795  35.169  32.629  1.00  0.00     0.054 A 
BRANCH  73  74
ATOM     74  S   UNL A   1      32.281  36.073  32.204  1.00  0.00     0.124 S 
ATOM     75  O   UNL A   1      32.401  37.268  33.033  1.00  0.00    -0.237 OA
ATOM     76  O   UNL A   1      32.422  36.283  30.765  1.00  0.00    -0.237 OA
ATOM     77  O   UNL A   1      31.217  35.147  32.586  1.00  0.00    -0.744 OA
ENDBRANCH  73  74
ENDBRANCH  45  68
BRANCH  57  78
ATOM     78  C   UNL A   1      40.461  33.617  38.667  1.00  0.00    -0.014 A 
ATOM     79  C   UNL A   1      40.977  34.918  38.798  1.00  0.00     0.010 A 
ATOM     80  C   UNL A   1      39.876  32.992  39.781  1.00  0.00     0.010 A 
ATOM     81  C   UNL A   1      40.930  35.575  40.030  1.00  0.00     0.020 A 
ATOM     82  C   UNL A   1      39.809  33.653  41.010  1.00  0.00     0.020 A 
ATOM     83  C   UNL A   1      40.347  34.937  41.130  1.00  0.00     0.054 A 
BRANCH  83  84
ATOM     84  S   UNL A   1      40.254  35.826  42.708  1.00  0.00     0.124 S 
ATOM     85  O   UNL A   1      41.653  35.846  43.129  1.00  0.00    -0.237 OA
ATOM     86  O   UNL A   1      39.695  37.119  42.321  1.00  0.00    -0.237 OA
ATOM     87  O   UNL A   1      39.371  34.992  43.521  1.00  0.00    -0.744 OA
ENDBRANCH  83  84
ENDBRANCH  57  78
ENDBRANCH  31  32
ENDBRANCH  24  26
ENDBRANCH  23  24
ENDBRANCH   1  23
TORSDOF 18
ENDMDL
MODEL 3
REMARK VINA RESULT:     -10.0      1.241      2.902
REMARK SMILES CC[NH+](CC)[C@](C)(C(=O)OCCOC(=O)c1ccc(-c2c3nc(c(-c4ccc(S(=O)(=O)[O-])cc4)c4ccc([nH]4)c(-c4ccc(S(=O)(=O)[O-])cc4)c4nc(c(-c5ccc(S(=O)(=O)[O-])cc5)c5ccc2[nH]5)C=C4)C=C3)cc1)c1cc(F)c(C)cc1F
REMARK SMILES IDX 12 1 11 2 10 3 8 4 9 5 6 6 7 7 3 8 2 10 1 11 4 12 5 13 76 14
REMARK SMILES IDX 77 15 83 16 78 17 82 18 84 19 79 20 80 21 81 22 13 23 14 24
REMARK SMILES IDX 15 25 16 26 17 27 75 28 18 29 74 30 19 31 20 32 21 33 68 34
REMARK SMILES IDX 22 35 73 36 67 37 69 38 23 39 72 40 66 41 65 42 24 44 54 45
REMARK SMILES IDX 35 46 53 47 36 48 39 49 52 50 70 51 37 52 38 53 51 55 71 56
REMARK SMILES IDX 40 57 25 58 26 59 34 60 27 61 33 62 28 63 29 64 30 65 31 66
REMARK SMILES IDX 32 67 55 68 56 69 64 70 57 71 63 72 58 73 59 74 60 75 61 76
REMARK SMILES IDX 62 77 41 78 42 79 50 80 43 81 49 82 44 83 45 84 46 85 47 86
REMARK SMILES IDX 48 87
REMARK H PARENT 3 9 69 43 39 54
REMARK Flexibility Score: inf
ROOT
ATOM      1  C   UNL A   1      33.109  30.519  27.245  1.00  0.00     0.275 C 
ENDROOT
BRANCH   1   2
ATOM      2  C   UNL A   1      32.708  29.094  27.612  1.00  0.00     0.274 C 
BRANCH   2   3
ATOM      3  O   UNL A   1      33.374  28.155  26.734  1.00  0.00    -0.457 OA
BRANCH   3   4
ATOM      4  C   UNL A   1      32.575  27.252  26.081  1.00  0.00     0.373 C 
ATOM      5  O   UNL A   1      31.882  26.424  26.665  1.00  0.00    -0.244 OA
BRANCH   4   6
ATOM      6  C   UNL A   1      32.689  27.380  24.506  1.00  0.00     0.221 C 
ATOM      7  C   UNL A   1      33.684  28.507  24.104  1.00  0.00     0.098 C 
BRANCH   6   8
ATOM      8  N   UNL A   1      33.181  26.056  23.928  1.00  0.00    -0.318 N 
ATOM      9  H   UNL A   1      32.362  25.468  24.089  1.00  0.00     0.349 HD
BRANCH   8  10
ATOM     10  C   UNL A   1      34.318  25.393  24.612  1.00  0.00     0.259 C 
ATOM     11  C   UNL A   1      34.120  23.995  25.180  1.00  0.00     0.071 C 
ENDBRANCH   8  10
BRANCH   8  12
ATOM     12  C   UNL A   1      33.519  26.145  22.483  1.00  0.00     0.259 C 
ATOM     13  C   UNL A   1      32.661  25.200  21.635  1.00  0.00     0.071 C 
ENDBRANCH   8  12
ENDBRANCH   6   8
BRANCH   6  14
ATOM     14  C   UNL A   1      31.247  27.802  24.046  1.00  0.00     0.062 A 
ATOM     15  C   UNL A   1      30.939  29.172  23.886  1.00  0.00     0.053 A 
ATOM     16  C   UNL A   1      30.175  26.915  23.843  1.00  0.00     0.133 A 
ATOM     17  C   UNL A   1      29.668  29.605  23.495  1.00  0.00     0.126 A 
ATOM     18  C   UNL A   1      28.908  27.349  23.423  1.00  0.00     0.046 A 
ATOM     19  F   UNL A   1      30.314  25.598  24.032  1.00  0.00    -0.206 F 
ATOM     20  F   UNL A   1      29.449  30.922  23.385  1.00  0.00    -0.207 F 
ATOM     21  C   UNL A   1      28.640  28.706  23.242  1.00  0.00    -0.012 A 
ATOM     22  C   UNL A   1      27.267  29.182  22.872  1.00  0.00     0.047 C 
ENDBRANCH   6  14
ENDBRANCH   4   6
ENDBRANCH   3   4
ENDBRANCH   2   3
ENDBRANCH   1   2
BRANCH   1  23
ATOM     23  O   UNL A   1      34.540  30.553  27.272  1.00  0.00    -0.458 OA
BRANCH  23  24
ATOM     24  C   UNL A   1      35.131  30.805  28.459  1.00  0.00     0.338 C 
ATOM     25  O   UNL A   1      34.665  31.400  29.411  1.00  0.00    -0.246 OA
BRANCH  24  26
ATOM     26  C   UNL A   1      36.444  30.132  28.437  1.00  0.00     0.060 A 
ATOM     27  C   UNL A   1      37.017  29.741  29.649  1.00  0.00     0.016 A 
ATOM     28  C   UNL A   1      37.150  29.979  27.244  1.00  0.00     0.016 A 
ATOM     29  C   UNL A   1      38.329  29.283  29.674  1.00  0.00     0.010 A 
ATOM     30  C   UNL A   1      38.442  29.435  27.273  1.00  0.00     0.010 A 
ATOM     31  C   UNL A   1      39.069  29.125  28.494  1.00  0.00    -0.014 A 
BRANCH  31  32
ATOM     32  C   UNL A   1      40.517  28.756  28.565  1.00  0.00     0.031 A 
ATOM     33  C   UNL A   1      41.514  29.723  29.158  1.00  0.00     0.074 A 
ATOM     34  C   UNL A   1      40.952  27.529  28.206  1.00  0.00     0.049 A 
ATOM     35  N   UNL A   1      42.823  29.681  29.130  1.00  0.00    -0.248 NA
ATOM     36  C   UNL A   1      40.971  30.894  29.868  1.00  0.00     0.031 C 
ATOM     37  C   UNL A   1      40.112  26.433  27.719  1.00  0.00     0.029 A 
ATOM     38  N   UNL A   1      42.212  26.980  28.244  1.00  0.00    -0.354 N 
ATOM     39  C   UNL A   1      43.254  30.857  29.736  1.00  0.00     0.074 A 
ATOM     40  C   UNL A   1      42.070  31.580  30.146  1.00  0.00     0.031 C 
ATOM     41  C   UNL A   1      40.857  25.321  27.613  1.00  0.00     0.029 A 
ATOM     42  C   UNL A   1      42.251  25.654  27.883  1.00  0.00     0.049 A 
ATOM     43  H   UNL A   1      43.013  27.490  28.506  1.00  0.00     0.167 HD
ATOM     44  C   UNL A   1      44.521  31.301  29.920  1.00  0.00     0.031 A 
ATOM     45  C   UNL A   1      43.289  24.807  27.733  1.00  0.00     0.031 A 
ATOM     46  C   UNL A   1      45.700  30.552  29.576  1.00  0.00     0.049 A 
ATOM     47  C   UNL A   1      44.690  25.330  27.893  1.00  0.00     0.074 A 
ATOM     48  C   UNL A   1      47.026  30.942  29.658  1.00  0.00     0.029 A 
ATOM     49  N   UNL A   1      45.695  29.243  29.120  1.00  0.00    -0.354 N 
ATOM     50  N   UNL A   1      45.086  26.512  28.299  1.00  0.00    -0.248 NA
ATOM     51  C   UNL A   1      45.782  24.421  27.518  1.00  0.00     0.031 C 
ATOM     52  C   UNL A   1      47.823  29.876  29.223  1.00  0.00     0.029 A 
ATOM     53  C   UNL A   1      46.993  28.811  28.910  1.00  0.00     0.049 A 
ATOM     54  H   UNL A   1      44.888  28.701  28.969  1.00  0.00     0.167 HD
ATOM     55  C   UNL A   1      46.472  26.497  28.204  1.00  0.00     0.074 A 
ATOM     56  C   UNL A   1      46.849  25.175  27.747  1.00  0.00     0.031 C 
ATOM     57  C   UNL A   1      47.354  27.497  28.448  1.00  0.00     0.031 A 
BRANCH  44  58
ATOM     58  C   UNL A   1      44.694  32.699  30.443  1.00  0.00    -0.014 A 
ATOM     59  C   UNL A   1      44.803  33.807  29.586  1.00  0.00     0.010 A 
ATOM     60  C   UNL A   1      44.724  32.902  31.836  1.00  0.00     0.010 A 
ATOM     61  C   UNL A   1      44.976  35.090  30.113  1.00  0.00     0.020 A 
ATOM     62  C   UNL A   1      44.875  34.185  32.367  1.00  0.00     0.020 A 
ATOM     63  C   UNL A   1      45.019  35.270  31.501  1.00  0.00     0.054 A 
BRANCH  63  64
ATOM     64  S   UNL A   1      45.237  36.943  32.166  1.00  0.00     0.124 S 
ATOM     65  O   UNL A   1      46.481  36.807  32.920  1.00  0.00    -0.237 OA
ATOM     66  O   UNL A   1      45.321  37.763  30.960  1.00  0.00    -0.237 OA
ATOM     67  O   UNL A   1      44.040  37.154  32.976  1.00  0.00    -0.744 OA
ENDBRANCH  63  64
ENDBRANCH  44  58
BRANCH  45  68
ATOM     68  C   UNL A   1      43.050  23.399  27.305  1.00  0.00    -0.014 A 
ATOM     69  C   UNL A   1      42.246  22.540  28.075  1.00  0.00     0.010 A 
ATOM     70  C   UNL A   1      43.631  22.910  26.120  1.00  0.00     0.010 A 
ATOM     71  C   UNL A   1      42.030  21.220  27.667  1.00  0.00     0.020 A 
ATOM     72  C   UNL A   1      43.388  21.605  25.692  1.00  0.00     0.020 A 
ATOM     73  C   UNL A   1      42.600  20.762  26.475  1.00  0.00     0.054 A 
BRANCH  73  74
ATOM     74  S   UNL A   1      42.263  19.068  25.918  1.00  0.00     0.124 S 
ATOM     75  O   UNL A   1      40.812  19.087  25.759  1.00  0.00    -0.237 OA
ATOM     76  O   UNL A   1      43.035  18.975  24.681  1.00  0.00    -0.237 OA
ATOM     77  O   UNL A   1      42.764  18.246  27.017  1.00  0.00    -0.744 OA
ENDBRANCH  73  74
ENDBRANCH  45  68
BRANCH  57  78
ATOM     78  C   UNL A   1      48.810  27.203  28.224  1.00  0.00    -0.014 A 
ATOM     79  C   UNL A   1      49.407  27.455  26.976  1.00  0.00     0.010 A 
ATOM     80  C   UNL A   1      49.600  26.718  29.280  1.00  0.00     0.010 A 
ATOM     81  C   UNL A   1      50.768  27.205  26.781  1.00  0.00     0.020 A 
ATOM     82  C   UNL A   1      50.965  26.484  29.095  1.00  0.00     0.020 A 
ATOM     83  C   UNL A   1      51.538  26.719  27.843  1.00  0.00     0.054 A 
BRANCH  83  84
ATOM     84  S   UNL A   1      53.312  26.445  27.582  1.00  0.00     0.124 S 
ATOM     85  O   UNL A   1      53.733  27.715  26.996  1.00  0.00    -0.237 OA
ATOM     86  O   UNL A   1      53.802  26.184  28.934  1.00  0.00    -0.237 OA
ATOM     87  O   UNL A   1      53.355  25.297  26.680  1.00  0.00    -0.744 OA
ENDBRANCH  83  84
ENDBRANCH  57  78
ENDBRANCH  31  32
ENDBRANCH  24  26
ENDBRANCH  23  24
ENDBRANCH   1  23
TORSDOF 18
ENDMDL
