MODEL 1
REMARK VINA RESULT:     -10.7      0.000      0.000
REMARK SMILES CC(C)[NH2+]CC[C@H](c1ccccc1)c1cc(C(=O)OCCOC(=O)c2ccc(-c3c4nc(c(-c5ccc(S(=O)(=O)[O-])cc5)c5ccc([nH]5)c(-c5ccc(S(=O)(=O)[O-])cc5)c5nc(c(-c6ccc(S(=O)(=O)[O-])cc6)c6ccc3[nH]6)C=C5)C=C4)cc2)ccc1O
REMARK SMILES IDX 20 1 19 2 17 3 18 4 16 5 14 6 15 7 87 8 86 9 85 10 7 11 6 12
REMARK SMILES IDX 5 13 4 14 2 17 1 18 3 19 8 20 9 21 13 22 10 23 12 24 11 25
REMARK SMILES IDX 88 26 21 28 22 29 23 30 24 31 25 32 26 33 84 34 27 35 83 36
REMARK SMILES IDX 28 37 29 38 30 39 77 40 31 41 82 42 76 43 78 44 32 45 81 46
REMARK SMILES IDX 75 47 74 48 33 50 63 51 44 52 62 53 45 54 48 55 61 56 79 57
REMARK SMILES IDX 46 58 47 59 60 61 80 62 49 63 34 64 35 65 43 66 36 67 42 68
REMARK SMILES IDX 37 69 38 70 39 71 40 72 41 73 64 74 65 75 73 76 66 77 72 78
REMARK SMILES IDX 67 79 68 80 69 81 70 82 71 83 50 84 51 85 59 86 52 87 58 88
REMARK SMILES IDX 53 89 54 90 55 91 56 92 57 93
REMARK H PARENT 4 15 4 16 88 27 78 49 48 60
REMARK Flexibility Score: inf
ROOT
ATOM      1  C   UNL A   1      32.256  26.891  26.468  1.00  0.00     0.275 C 
ENDROOT
BRANCH   1   2
ATOM      2  O   UNL A   1      30.862  26.527  26.453  1.00  0.00    -0.458 OA
BRANCH   2   3
ATOM      3  C   UNL A   1      30.579  25.240  26.131  1.00  0.00     0.338 C 
ATOM      4  O   UNL A   1      29.855  24.478  26.741  1.00  0.00    -0.246 OA
BRANCH   3   5
ATOM      5  C   UNL A   1      31.199  24.907  24.825  1.00  0.00     0.060 A 
ATOM      6  C   UNL A   1      32.649  23.387  23.542  1.00  0.00     0.002 A 
ATOM      7  C   UNL A   1      32.107  23.836  24.759  1.00  0.00     0.023 A 
ATOM      8  C   UNL A   1      32.433  24.223  22.440  1.00  0.00     0.119 A 
ATOM      9  C   UNL A   1      31.541  25.298  22.488  1.00  0.00     0.047 A 
ATOM     10  C   UNL A   1      30.889  25.620  23.672  1.00  0.00     0.019 A 
BRANCH   6  11
ATOM     11  C   UNL A   1      33.376  22.022  23.540  1.00  0.00     0.059 C 
BRANCH  11  12
ATOM     12  C   UNL A   1      32.420  20.855  23.893  1.00  0.00     0.074 C 
BRANCH  12  13
ATOM     13  C   UNL A   1      32.182  19.734  22.867  1.00  0.00     0.261 C 
BRANCH  13  14
ATOM     14  N   UNL A   1      32.173  18.366  23.352  1.00  0.00    -0.344 N 
ATOM     15  H   UNL A   1      31.371  18.284  23.976  1.00  0.00     0.346 HD
ATOM     16  H   UNL A   1      32.165  17.818  22.491  1.00  0.00     0.346 HD
BRANCH  14  17
ATOM     17  C   UNL A   1      33.318  17.830  24.070  1.00  0.00     0.176 C 
ATOM     18  C   UNL A   1      32.856  17.519  25.499  1.00  0.00     0.075 C 
ATOM     19  C   UNL A   1      33.940  16.564  23.489  1.00  0.00     0.075 C 
ENDBRANCH  14  17
ENDBRANCH  13  14
ENDBRANCH  12  13
ENDBRANCH  11  12
BRANCH  11  20
ATOM     20  C   UNL A   1      34.783  22.028  24.156  1.00  0.00    -0.040 A 
ATOM     21  C   UNL A   1      35.376  20.920  24.780  1.00  0.00     0.004 A 
ATOM     22  C   UNL A   1      35.572  23.194  24.042  1.00  0.00     0.004 A 
ATOM     23  C   UNL A   1      36.693  20.961  25.254  1.00  0.00     0.000 A 
ATOM     24  C   UNL A   1      36.887  23.237  24.521  1.00  0.00     0.000 A 
ATOM     25  C   UNL A   1      37.449  22.118  25.124  1.00  0.00     0.000 A 
ENDBRANCH  11  20
ENDBRANCH   6  11
BRANCH   8  26
ATOM     26  O   UNL A   1      33.107  24.108  21.261  1.00  0.00    -0.508 OA
ATOM     27  H   UNL A   1      33.348  24.877  20.782  1.00  0.00     0.293 HD
ENDBRANCH   8  26
ENDBRANCH   3   5
ENDBRANCH   2   3
ENDBRANCH   1   2
BRANCH   1  28
ATOM     28  C   UNL A   1      32.470  28.173  27.273  1.00  0.00     0.275 C 
BRANCH  28  29
ATOM     29  O   UNL A   1      33.874  28.491  27.341  1.00  0.00    -0.458 OA
BRANCH  29  30
ATOM     30  C   UNL A   1      34.162  29.773  27.659  1.00  0.00     0.338 C 
ATOM     31  O   UNL A   1      33.406  30.729  27.640  1.00  0.00    -0.246 OA
BRANCH  30  32
ATOM     32  C   UNL A   1      35.542  29.870  28.162  1.00  0.00     0.060 A 
ATOM     33  C   UNL A   1      36.524  30.239  27.252  1.00  0.00     0.016 A 
ATOM     34  C   UNL A   1      35.905  29.418  29.424  1.00  0.00     0.016 A 
ATOM     35  C   UNL A   1      37.869  30.018  27.526  1.00  0.00     0.010 A 
ATOM     36  C   UNL A   1      37.268  29.308  29.746  1.00  0.00     0.010 A 
ATOM     37  C   UNL A   1      38.268  29.538  28.779  1.00  0.00    -0.014 A 
BRANCH  37  38
ATOM     38  C   UNL A   1      39.702  29.190  29.027  1.00  0.00     0.031 A 
ATOM     39  C   UNL A   1      40.615  30.187  29.704  1.00  0.00     0.074 A 
ATOM     40  C   UNL A   1      40.192  27.972  28.710  1.00  0.00     0.049 A 
ATOM     41  N   UNL A   1      41.912  30.132  29.888  1.00  0.00    -0.248 NA
ATOM     42  C   UNL A   1      39.994  31.414  30.227  1.00  0.00     0.031 C 
ATOM     43  C   UNL A   1      39.432  26.878  28.102  1.00  0.00     0.029 A 
ATOM     44  N   UNL A   1      41.452  27.443  28.872  1.00  0.00    -0.354 N 
ATOM     45  C   UNL A   1      42.268  31.345  30.470  1.00  0.00     0.074 A 
ATOM     46  C   UNL A   1      41.052  32.115  30.609  1.00  0.00     0.031 C 
ATOM     47  C   UNL A   1      40.220  25.797  27.995  1.00  0.00     0.029 A 
ATOM     48  C   UNL A   1      41.567  26.143  28.435  1.00  0.00     0.049 A 
ATOM     49  H   UNL A   1      42.201  27.947  29.265  1.00  0.00     0.167 HD
ATOM     50  C   UNL A   1      43.493  31.782  30.851  1.00  0.00     0.031 A 
ATOM     51  C   UNL A   1      42.637  25.325  28.358  1.00  0.00     0.031 A 
ATOM     52  C   UNL A   1      44.697  30.997  30.775  1.00  0.00     0.049 A 
ATOM     53  C   UNL A   1      43.985  25.827  28.791  1.00  0.00     0.074 A 
ATOM     54  C   UNL A   1      45.981  31.351  31.155  1.00  0.00     0.029 A 
ATOM     55  N   UNL A   1      44.766  29.693  30.307  1.00  0.00    -0.354 N 
ATOM     56  N   UNL A   1      44.309  27.001  29.278  1.00  0.00    -0.248 NA
ATOM     57  C   UNL A   1      45.114  24.896  28.656  1.00  0.00     0.031 C 
ATOM     58  C   UNL A   1      46.833  30.274  30.881  1.00  0.00     0.029 A 
ATOM     59  C   UNL A   1      46.070  29.232  30.382  1.00  0.00     0.049 A 
ATOM     60  H   UNL A   1      44.001  29.173  29.972  1.00  0.00     0.167 HD
ATOM     61  C   UNL A   1      45.677  26.943  29.521  1.00  0.00     0.074 A 
ATOM     62  C   UNL A   1      46.114  25.613  29.148  1.00  0.00     0.031 C 
ATOM     63  C   UNL A   1      46.498  27.908  30.004  1.00  0.00     0.031 A 
BRANCH  50  64
ATOM     64  C   UNL A   1      43.600  33.205  31.340  1.00  0.00    -0.014 A 
ATOM     65  C   UNL A   1      43.911  34.268  30.476  1.00  0.00     0.010 A 
ATOM     66  C   UNL A   1      43.366  33.478  32.702  1.00  0.00     0.010 A 
ATOM     67  C   UNL A   1      44.041  35.569  30.973  1.00  0.00     0.020 A 
ATOM     68  C   UNL A   1      43.464  34.781  33.197  1.00  0.00     0.020 A 
ATOM     69  C   UNL A   1      43.825  35.815  32.332  1.00  0.00     0.054 A 
BRANCH  69  70
ATOM     70  S   UNL A   1      44.000  37.511  32.954  1.00  0.00     0.124 S 
ATOM     71  O   UNL A   1      43.825  38.296  31.735  1.00  0.00    -0.237 OA
ATOM     72  O   UNL A   1      42.916  37.611  33.927  1.00  0.00    -0.237 OA
ATOM     73  O   UNL A   1      45.346  37.534  33.522  1.00  0.00    -0.744 OA
ENDBRANCH  69  70
ENDBRANCH  50  64
BRANCH  51  74
ATOM     74  C   UNL A   1      42.476  23.950  27.806  1.00  0.00    -0.014 A 
ATOM     75  C   UNL A   1      42.645  23.702  26.433  1.00  0.00     0.010 A 
ATOM     76  C   UNL A   1      42.174  22.874  28.662  1.00  0.00     0.010 A 
ATOM     77  C   UNL A   1      42.512  22.404  25.926  1.00  0.00     0.020 A 
ATOM     78  C   UNL A   1      42.072  21.573  28.164  1.00  0.00     0.020 A 
ATOM     79  C   UNL A   1      42.233  21.347  26.797  1.00  0.00     0.054 A 
BRANCH  79  80
ATOM     80  S   UNL A   1      42.144  19.661  26.133  1.00  0.00     0.124 S 
ATOM     81  O   UNL A   1      43.084  19.723  25.018  1.00  0.00    -0.237 OA
ATOM     82  O   UNL A   1      42.566  18.849  27.273  1.00  0.00    -0.237 OA
ATOM     83  O   UNL A   1      40.739  19.515  25.762  1.00  0.00    -0.744 OA
ENDBRANCH  79  80
ENDBRANCH  51  74
BRANCH  63  84
ATOM     84  C   UNL A   1      47.947  27.549  30.195  1.00  0.00    -0.014 A 
ATOM     85  C   UNL A   1      48.907  27.824  29.204  1.00  0.00     0.010 A 
ATOM     86  C   UNL A   1      48.358  26.943  31.397  1.00  0.00     0.010 A 
ATOM     87  C   UNL A   1      50.243  27.457  29.394  1.00  0.00     0.020 A 
ATOM     88  C   UNL A   1      49.696  26.598  31.600  1.00  0.00     0.020 A 
ATOM     89  C   UNL A   1      50.627  26.839  30.588  1.00  0.00     0.054 A 
BRANCH  89  90
ATOM     90  S   UNL A   1      52.367  26.382  30.817  1.00  0.00     0.124 S 
ATOM     91  O   UNL A   1      52.258  25.166  31.619  1.00  0.00    -0.237 OA
ATOM     92  O   UNL A   1      52.835  26.191  29.447  1.00  0.00    -0.237 OA
ATOM     93  O   UNL A   1      52.940  27.535  31.509  1.00  0.00    -0.744 OA
ENDBRANCH  89  90
ENDBRANCH  63  84
ENDBRANCH  37  38
ENDBRANCH  30  32
ENDBRANCH  29  30
ENDBRANCH  28  29
ENDBRANCH   1  28
TORSDOF 21
ENDMDL
MODEL 2
REMARK VINA RESULT:     -10.4      3.179      4.490
REMARK SMILES CC(C)[NH2+]CC[C@H](c1ccccc1)c1cc(C(=O)OCCOC(=O)c2ccc(-c3c4nc(c(-c5ccc(S(=O)(=O)[O-])cc5)c5ccc([nH]5)c(-c5ccc(S(=O)(=O)[O-])cc5)c5nc(c(-c6ccc(S(=O)(=O)[O-])cc6)c6ccc3[nH]6)C=C5)C=C4)cc2)ccc1O
REMARK SMILES IDX 20 1 19 2 17 3 18 4 16 5 14 6 15 7 87 8 86 9 85 10 7 11 6 12
REMARK SMILES IDX 5 13 4 14 2 17 1 18 3 19 8 20 9 21 13 22 10 23 12 24 11 25
REMARK SMILES IDX 88 26 21 28 22 29 23 30 24 31 25 32 26 33 84 34 27 35 83 36
REMARK SMILES IDX 28 37 29 38 30 39 77 40 31 41 82 42 76 43 78 44 32 45 81 46
REMARK SMILES IDX 75 47 74 48 33 50 63 51 44 52 62 53 45 54 48 55 61 56 79 57
REMARK SMILES IDX 46 58 47 59 60 61 80 62 49 63 34 64 35 65 43 66 36 67 42 68
REMARK SMILES IDX 37 69 38 70 39 71 40 72 41 73 64 74 65 75 73 76 66 77 72 78
REMARK SMILES IDX 67 79 68 80 69 81 70 82 71 83 50 84 51 85 59 86 52 87 58 88
REMARK SMILES IDX 53 89 54 90 55 91 56 92 57 93
REMARK H PARENT 4 15 4 16 88 27 78 49 48 60
REMARK Flexibility Score: inf
ROOT
ATOM      1  C   UNL A   1      33.896  30.557  27.681  1.00  0.00     0.275 C 
ENDROOT
BRANCH   1   2
ATOM      2  O   UNL A   1      33.930  29.228  27.127  1.00  0.00    -0.458 OA
BRANCH   2   3
ATOM      3  C   UNL A   1      32.769  28.765  26.598  1.00  0.00     0.338 C 
ATOM      4  O   UNL A   1      31.681  28.739  27.140  1.00  0.00    -0.246 OA
BRANCH   3   5
ATOM      5  C   UNL A   1      32.985  28.388  25.180  1.00  0.00     0.060 A 
ATOM      6  C   UNL A   1      33.510  26.609  23.561  1.00  0.00     0.002 A 
ATOM      7  C   UNL A   1      33.394  27.076  24.882  1.00  0.00     0.023 A 
ATOM      8  C   UNL A   1      33.442  27.592  22.566  1.00  0.00     0.119 A 
ATOM      9  C   UNL A   1      33.045  28.903  22.843  1.00  0.00     0.047 A 
ATOM     10  C   UNL A   1      32.776  29.297  24.148  1.00  0.00     0.019 A 
BRANCH   6  11
ATOM     11  C   UNL A   1      33.654  25.085  23.349  1.00  0.00     0.059 C 
BRANCH  11  12
ATOM     12  C   UNL A   1      32.495  24.505  22.499  1.00  0.00     0.074 C 
BRANCH  12  13
ATOM     13  C   UNL A   1      31.110  25.172  22.552  1.00  0.00     0.261 C 
BRANCH  13  14
ATOM     14  N   UNL A   1      30.252  24.858  23.680  1.00  0.00    -0.344 N 
ATOM     15  H   UNL A   1      29.556  24.194  23.341  1.00  0.00     0.346 HD
ATOM     16  H   UNL A   1      30.913  24.536  24.387  1.00  0.00     0.346 HD
BRANCH  14  17
ATOM     17  C   UNL A   1      29.523  25.911  24.368  1.00  0.00     0.176 C 
ATOM     18  C   UNL A   1      29.960  25.882  25.839  1.00  0.00     0.075 C 
ATOM     19  C   UNL A   1      29.735  27.327  23.842  1.00  0.00     0.075 C 
ENDBRANCH  14  17
ENDBRANCH  13  14
ENDBRANCH  12  13
ENDBRANCH  11  12
BRANCH  11  20
ATOM     20  C   UNL A   1      34.128  24.294  24.578  1.00  0.00    -0.040 A 
ATOM     21  C   UNL A   1      35.474  24.123  24.935  1.00  0.00     0.004 A 
ATOM     22  C   UNL A   1      33.162  23.749  25.452  1.00  0.00     0.004 A 
ATOM     23  C   UNL A   1      35.843  23.457  26.111  1.00  0.00     0.000 A 
ATOM     24  C   UNL A   1      33.531  23.079  26.625  1.00  0.00     0.000 A 
ATOM     25  C   UNL A   1      34.873  22.936  26.956  1.00  0.00     0.000 A 
ENDBRANCH  11  20
ENDBRANCH   6  11
BRANCH   8  26
ATOM     26  O   UNL A   1      33.810  27.381  21.271  1.00  0.00    -0.508 OA
ATOM     27  H   UNL A   1      33.174  27.103  20.641  1.00  0.00     0.293 HD
ENDBRANCH   8  26
ENDBRANCH   3   5
ENDBRANCH   2   3
ENDBRANCH   1   2
BRANCH   1  28
ATOM     28  C   UNL A   1      35.199  30.867  28.419  1.00  0.00     0.275 C 
BRANCH  28  29
ATOM     29  O   UNL A   1      36.010  29.680  28.521  1.00  0.00    -0.458 OA
BRANCH  29  30
ATOM     30  C   UNL A   1      36.965  29.712  29.478  1.00  0.00     0.338 C 
ATOM     31  O   UNL A   1      36.838  30.059  30.640  1.00  0.00    -0.246 OA
BRANCH  30  32
ATOM     32  C   UNL A   1      38.220  29.146  28.958  1.00  0.00     0.060 A 
ATOM     33  C   UNL A   1      39.086  28.572  29.878  1.00  0.00     0.016 A 
ATOM     34  C   UNL A   1      38.638  29.349  27.649  1.00  0.00     0.016 A 
ATOM     35  C   UNL A   1      40.417  28.338  29.554  1.00  0.00     0.010 A 
ATOM     36  C   UNL A   1      39.950  29.001  27.287  1.00  0.00     0.010 A 
ATOM     37  C   UNL A   1      40.879  28.557  28.251  1.00  0.00    -0.014 A 
BRANCH  37  38
ATOM     38  C   UNL A   1      42.336  28.418  27.938  1.00  0.00     0.031 A 
ATOM     39  C   UNL A   1      43.290  29.544  28.263  1.00  0.00     0.074 A 
ATOM     40  C   UNL A   1      42.834  27.275  27.417  1.00  0.00     0.049 A 
ATOM     41  N   UNL A   1      44.557  29.674  27.951  1.00  0.00    -0.248 NA
ATOM     42  C   UNL A   1      42.747  30.681  29.023  1.00  0.00     0.031 C 
ATOM     43  C   UNL A   1      42.059  26.075  27.096  1.00  0.00     0.029 A 
ATOM     44  N   UNL A   1      44.123  26.930  27.082  1.00  0.00    -0.354 N 
ATOM     45  C   UNL A   1      44.935  30.935  28.403  1.00  0.00     0.074 A 
ATOM     46  C   UNL A   1      43.765  31.530  29.010  1.00  0.00     0.031 C 
ATOM     47  C   UNL A   1      42.890  25.112  26.665  1.00  0.00     0.029 A 
ATOM     48  C   UNL A   1      44.244  25.651  26.587  1.00  0.00     0.049 A 
ATOM     49  H   UNL A   1      44.888  27.541  27.187  1.00  0.00     0.167 HD
ATOM     50  C   UNL A   1      46.142  31.546  28.318  1.00  0.00     0.031 A 
ATOM     51  C   UNL A   1      45.309  24.990  26.089  1.00  0.00     0.031 A 
ATOM     52  C   UNL A   1      47.326  30.936  27.773  1.00  0.00     0.049 A 
ATOM     53  C   UNL A   1      46.640  25.683  26.010  1.00  0.00     0.074 A 
ATOM     54  C   UNL A   1      48.598  31.473  27.663  1.00  0.00     0.029 A 
ATOM     55  N   UNL A   1      47.393  29.647  27.266  1.00  0.00    -0.354 N 
ATOM     56  N   UNL A   1      46.958  26.899  26.384  1.00  0.00    -0.248 NA
ATOM     57  C   UNL A   1      47.753  24.917  25.432  1.00  0.00     0.031 C 
ATOM     58  C   UNL A   1      49.425  30.522  27.053  1.00  0.00     0.029 A 
ATOM     59  C   UNL A   1      48.681  29.374  26.836  1.00  0.00     0.049 A 
ATOM     60  H   UNL A   1      46.637  29.019  27.220  1.00  0.00     0.167 HD
ATOM     61  C   UNL A   1      48.312  27.038  26.100  1.00  0.00     0.074 A 
ATOM     62  C   UNL A   1      48.756  25.776  25.544  1.00  0.00     0.031 C 
ATOM     63  C   UNL A   1      49.114  28.117  26.279  1.00  0.00     0.031 A 
BRANCH  50  64
ATOM     64  C   UNL A   1      46.228  32.978  28.784  1.00  0.00    -0.014 A 
ATOM     65  C   UNL A   1      45.954  34.058  27.926  1.00  0.00     0.010 A 
ATOM     66  C   UNL A   1      46.578  33.242  30.122  1.00  0.00     0.010 A 
ATOM     67  C   UNL A   1      46.083  35.374  28.382  1.00  0.00     0.020 A 
ATOM     68  C   UNL A   1      46.678  34.554  30.591  1.00  0.00     0.020 A 
ATOM     69  C   UNL A   1      46.453  35.613  29.710  1.00  0.00     0.054 A 
BRANCH  69  70
ATOM     70  S   UNL A   1      46.614  37.328  30.278  1.00  0.00     0.124 S 
ATOM     71  O   UNL A   1      45.956  37.276  31.580  1.00  0.00    -0.237 OA
ATOM     72  O   UNL A   1      48.062  37.521  30.314  1.00  0.00    -0.237 OA
ATOM     73  O   UNL A   1      45.912  38.099  29.255  1.00  0.00    -0.744 OA
ENDBRANCH  69  70
ENDBRANCH  50  64
BRANCH  51  74
ATOM     74  C   UNL A   1      45.144  23.597  25.587  1.00  0.00    -0.014 A 
ATOM     75  C   UNL A   1      44.844  23.350  24.236  1.00  0.00     0.010 A 
ATOM     76  C   UNL A   1      45.309  22.505  26.461  1.00  0.00     0.010 A 
ATOM     77  C   UNL A   1      44.710  22.037  23.769  1.00  0.00     0.020 A 
ATOM     78  C   UNL A   1      45.208  21.193  25.991  1.00  0.00     0.020 A 
ATOM     79  C   UNL A   1      44.900  20.967  24.648  1.00  0.00     0.054 A 
BRANCH  79  80
ATOM     80  S   UNL A   1      44.802  19.273  24.007  1.00  0.00     0.124 S 
ATOM     81  O   UNL A   1      46.106  18.733  24.375  1.00  0.00    -0.237 OA
ATOM     82  O   UNL A   1      43.660  18.724  24.736  1.00  0.00    -0.237 OA
ATOM     83  O   UNL A   1      44.582  19.464  22.575  1.00  0.00    -0.744 OA
ENDBRANCH  79  80
ENDBRANCH  51  74
BRANCH  63  84
ATOM     84  C   UNL A   1      50.564  27.967  25.906  1.00  0.00    -0.014 A 
ATOM     85  C   UNL A   1      51.546  27.693  26.876  1.00  0.00     0.010 A 
ATOM     86  C   UNL A   1      50.949  28.082  24.557  1.00  0.00     0.010 A 
ATOM     87  C   UNL A   1      52.890  27.583  26.509  1.00  0.00     0.020 A 
ATOM     88  C   UNL A   1      52.288  27.947  24.184  1.00  0.00     0.020 A 
ATOM     89  C   UNL A   1      53.253  27.719  25.166  1.00  0.00     0.054 A 
BRANCH  89  90
ATOM     90  S   UNL A   1      55.003  27.562  24.711  1.00  0.00     0.124 S 
ATOM     91  O   UNL A   1      54.965  26.479  23.732  1.00  0.00    -0.237 OA
ATOM     92  O   UNL A   1      55.318  28.883  24.175  1.00  0.00    -0.237 OA
ATOM     93  O   UNL A   1      55.660  27.236  25.976  1.00  0.00    -0.744 OA
ENDBRANCH  89  90
ENDBRANCH  63  84
ENDBRANCH  37  38
ENDBRANCH  30  32
ENDBRANCH  29  30
ENDBRANCH  28  29
ENDBRANCH   1  28
TORSDOF 21
ENDMDL
MODEL 3
REMARK VINA RESULT:     -10.4      2.900      4.238
REMARK SMILES CC(C)[NH2+]CC[C@H](c1ccccc1)c1cc(C(=O)OCCOC(=O)c2ccc(-c3c4nc(c(-c5ccc(S(=O)(=O)[O-])cc5)c5ccc([nH]5)c(-c5ccc(S(=O)(=O)[O-])cc5)c5nc(c(-c6ccc(S(=O)(=O)[O-])cc6)c6ccc3[nH]6)C=C5)C=C4)cc2)ccc1O
REMARK SMILES IDX 20 1 19 2 17 3 18 4 16 5 14 6 15 7 87 8 86 9 85 10 7 11 6 12
REMARK SMILES IDX 5 13 4 14 2 17 1 18 3 19 8 20 9 21 13 22 10 23 12 24 11 25
REMARK SMILES IDX 88 26 21 28 22 29 23 30 24 31 25 32 26 33 84 34 27 35 83 36
REMARK SMILES IDX 28 37 29 38 30 39 77 40 31 41 82 42 76 43 78 44 32 45 81 46
REMARK SMILES IDX 75 47 74 48 33 50 63 51 44 52 62 53 45 54 48 55 61 56 79 57
REMARK SMILES IDX 46 58 47 59 60 61 80 62 49 63 34 64 35 65 43 66 36 67 42 68
REMARK SMILES IDX 37 69 38 70 39 71 40 72 41 73 64 74 65 75 73 76 66 77 72 78
REMARK SMILES IDX 67 79 68 80 69 81 70 82 71 83 50 84 51 85 59 86 52 87 58 88
REMARK SMILES IDX 53 89 54 90 55 91 56 92 57 93
REMARK H PARENT 4 15 4 16 88 27 78 49 48 60
REMARK Flexibility Score: inf
ROOT
ATOM      1  C   UNL A   1      33.975  30.451  27.183  1.00  0.00     0.275 C 
ENDROOT
BRANCH   1   2
ATOM      2  O   UNL A   1      33.808  29.056  26.869  1.00  0.00    -0.458 OA
BRANCH   2   3
ATOM      3  C   UNL A   1      33.200  28.772  25.689  1.00  0.00     0.338 C 
ATOM      4  O   UNL A   1      33.278  29.410  24.658  1.00  0.00    -0.246 OA
BRANCH   3   5
ATOM      5  C   UNL A   1      32.494  27.472  25.794  1.00  0.00     0.060 A 
ATOM      6  C   UNL A   1      32.639  25.016  25.702  1.00  0.00     0.002 A 
ATOM      7  C   UNL A   1      33.203  26.290  25.516  1.00  0.00     0.023 A 
ATOM      8  C   UNL A   1      31.258  24.995  25.933  1.00  0.00     0.119 A 
ATOM      9  C   UNL A   1      30.533  26.160  26.203  1.00  0.00     0.047 A 
ATOM     10  C   UNL A   1      31.158  27.401  26.174  1.00  0.00     0.019 A 
BRANCH   6  11
ATOM     11  C   UNL A   1      33.591  23.799  25.674  1.00  0.00     0.059 C 
BRANCH  11  12
ATOM     12  C   UNL A   1      35.080  24.228  25.617  1.00  0.00     0.074 C 
BRANCH  12  13
ATOM     13  C   UNL A   1      35.978  23.695  24.488  1.00  0.00     0.261 C 
BRANCH  13  14
ATOM     14  N   UNL A   1      37.336  23.313  24.830  1.00  0.00    -0.344 N 
ATOM     15  H   UNL A   1      37.947  23.769  24.152  1.00  0.00     0.346 HD
ATOM     16  H   UNL A   1      37.414  23.595  25.807  1.00  0.00     0.346 HD
BRANCH  14  17
ATOM     17  C   UNL A   1      37.723  21.911  24.862  1.00  0.00     0.176 C 
ATOM     18  C   UNL A   1      38.787  21.756  25.956  1.00  0.00     0.075 C 
ATOM     19  C   UNL A   1      36.604  20.914  25.148  1.00  0.00     0.075 C 
ENDBRANCH  14  17
ENDBRANCH  13  14
ENDBRANCH  12  13
ENDBRANCH  11  12
BRANCH  11  20
ATOM     20  C   UNL A   1      33.132  22.627  24.793  1.00  0.00    -0.040 A 
ATOM     21  C   UNL A   1      32.915  21.324  25.264  1.00  0.00     0.004 A 
ATOM     22  C   UNL A   1      32.845  22.870  23.432  1.00  0.00     0.004 A 
ATOM     23  C   UNL A   1      32.421  20.314  24.429  1.00  0.00     0.000 A 
ATOM     24  C   UNL A   1      32.356  21.859  22.595  1.00  0.00     0.000 A 
ATOM     25  C   UNL A   1      32.140  20.581  23.096  1.00  0.00     0.000 A 
ENDBRANCH  11  20
ENDBRANCH   6  11
BRANCH   8  26
ATOM     26  O   UNL A   1      30.497  23.869  25.855  1.00  0.00    -0.508 OA
ATOM     27  H   UNL A   1      29.568  23.920  25.975  1.00  0.00     0.293 HD
ENDBRANCH   8  26
ENDBRANCH   3   5
ENDBRANCH   2   3
ENDBRANCH   1   2
BRANCH   1  28
ATOM     28  C   UNL A   1      35.037  30.637  28.266  1.00  0.00     0.275 C 
BRANCH  28  29
ATOM     29  O   UNL A   1      35.785  29.419  28.447  1.00  0.00    -0.458 OA
BRANCH  29  30
ATOM     30  C   UNL A   1      36.763  29.472  29.379  1.00  0.00     0.338 C 
ATOM     31  O   UNL A   1      36.654  29.797  30.549  1.00  0.00    -0.246 OA
BRANCH  30  32
ATOM     32  C   UNL A   1      38.024  28.961  28.817  1.00  0.00     0.060 A 
ATOM     33  C   UNL A   1      38.842  28.224  29.662  1.00  0.00     0.016 A 
ATOM     34  C   UNL A   1      38.496  29.358  27.572  1.00  0.00     0.016 A 
ATOM     35  C   UNL A   1      40.179  28.008  29.350  1.00  0.00     0.010 A 
ATOM     36  C   UNL A   1      39.812  29.034  27.204  1.00  0.00     0.010 A 
ATOM     37  C   UNL A   1      40.694  28.418  28.115  1.00  0.00    -0.014 A 
BRANCH  37  38
ATOM     38  C   UNL A   1      42.158  28.290  27.832  1.00  0.00     0.031 A 
ATOM     39  C   UNL A   1      43.097  29.424  28.175  1.00  0.00     0.074 A 
ATOM     40  C   UNL A   1      42.676  27.150  27.325  1.00  0.00     0.049 A 
ATOM     41  N   UNL A   1      44.368  29.564  27.890  1.00  0.00    -0.248 NA
ATOM     42  C   UNL A   1      42.529  30.558  28.922  1.00  0.00     0.031 C 
ATOM     43  C   UNL A   1      41.918  25.943  26.989  1.00  0.00     0.029 A 
ATOM     44  N   UNL A   1      43.974  26.815  27.016  1.00  0.00    -0.354 N 
ATOM     45  C   UNL A   1      44.727  30.828  28.347  1.00  0.00     0.074 A 
ATOM     46  C   UNL A   1      43.540  31.415  28.929  1.00  0.00     0.031 C 
ATOM     47  C   UNL A   1      42.765  24.987  26.577  1.00  0.00     0.029 A 
ATOM     48  C   UNL A   1      44.116  25.536  26.526  1.00  0.00     0.049 A 
ATOM     49  H   UNL A   1      44.733  27.432  27.136  1.00  0.00     0.167 HD
ATOM     50  C   UNL A   1      45.930  31.449  28.287  1.00  0.00     0.031 A 
ATOM     51  C   UNL A   1      45.196  24.883  26.052  1.00  0.00     0.031 A 
ATOM     52  C   UNL A   1      47.131  30.847  27.767  1.00  0.00     0.049 A 
ATOM     53  C   UNL A   1      46.523  25.586  25.999  1.00  0.00     0.074 A 
ATOM     54  C   UNL A   1      48.400  31.394  27.683  1.00  0.00     0.029 A 
ATOM     55  N   UNL A   1      47.219  29.558  27.264  1.00  0.00    -0.354 N 
ATOM     56  N   UNL A   1      46.824  26.806  26.378  1.00  0.00    -0.248 NA
ATOM     57  C   UNL A   1      47.654  24.829  25.447  1.00  0.00     0.031 C 
ATOM     58  C   UNL A   1      49.247  30.448  27.093  1.00  0.00     0.029 A 
ATOM     59  C   UNL A   1      48.517  29.295  26.861  1.00  0.00     0.049 A 
ATOM     60  H   UNL A   1      46.469  28.924  27.204  1.00  0.00     0.167 HD
ATOM     61  C   UNL A   1      48.183  26.955  26.122  1.00  0.00     0.074 A 
ATOM     62  C   UNL A   1      48.648  25.695  25.578  1.00  0.00     0.031 C 
ATOM     63  C   UNL A   1      48.972  28.040  26.316  1.00  0.00     0.031 A 
BRANCH  50  64
ATOM     64  C   UNL A   1      45.995  32.882  28.752  1.00  0.00    -0.014 A 
ATOM     65  C   UNL A   1      45.824  33.961  27.867  1.00  0.00     0.010 A 
ATOM     66  C   UNL A   1      46.220  33.148  30.117  1.00  0.00     0.010 A 
ATOM     67  C   UNL A   1      45.931  35.277  28.327  1.00  0.00     0.020 A 
ATOM     68  C   UNL A   1      46.296  34.462  30.586  1.00  0.00     0.020 A 
ATOM     69  C   UNL A   1      46.175  35.518  29.683  1.00  0.00     0.054 A 
BRANCH  69  70
ATOM     70  S   UNL A   1      46.310  37.235  30.256  1.00  0.00     0.124 S 
ATOM     71  O   UNL A   1      45.458  37.937  29.301  1.00  0.00    -0.237 OA
ATOM     72  O   UNL A   1      45.794  37.160  31.620  1.00  0.00    -0.237 OA
ATOM     73  O   UNL A   1      47.738  37.524  30.149  1.00  0.00    -0.744 OA
ENDBRANCH  69  70
ENDBRANCH  50  64
BRANCH  51  74
ATOM     74  C   UNL A   1      45.052  23.488  25.549  1.00  0.00    -0.014 A 
ATOM     75  C   UNL A   1      44.704  23.238  24.210  1.00  0.00     0.010 A 
ATOM     76  C   UNL A   1      45.287  22.397  26.409  1.00  0.00     0.010 A 
ATOM     77  C   UNL A   1      44.591  21.924  23.741  1.00  0.00     0.020 A 
ATOM     78  C   UNL A   1      45.206  21.085  25.935  1.00  0.00     0.020 A 
ATOM     79  C   UNL A   1      44.850  20.857  24.605  1.00  0.00     0.054 A 
BRANCH  79  80
ATOM     80  S   UNL A   1      44.776  19.163  23.958  1.00  0.00     0.124 S 
ATOM     81  O   UNL A   1      43.685  18.588  24.738  1.00  0.00    -0.237 OA
ATOM     82  O   UNL A   1      44.497  19.378  22.540  1.00  0.00    -0.237 OA
ATOM     83  O   UNL A   1      46.105  18.630  24.248  1.00  0.00    -0.744 OA
ENDBRANCH  79  80
ENDBRANCH  51  74
BRANCH  63  84
ATOM     84  C   UNL A   1      50.431  27.901  25.974  1.00  0.00    -0.014 A 
ATOM     85  C   UNL A   1      50.907  28.159  24.675  1.00  0.00     0.010 A 
ATOM     86  C   UNL A   1      51.344  27.525  26.976  1.00  0.00     0.010 A 
ATOM     87  C   UNL A   1      52.263  27.998  24.375  1.00  0.00     0.020 A 
ATOM     88  C   UNL A   1      52.704  27.389  26.685  1.00  0.00     0.020 A 
ATOM     89  C   UNL A   1      53.151  27.606  25.381  1.00  0.00     0.054 A 
BRANCH  89  90
ATOM     90  S   UNL A   1      54.908  27.414  24.972  1.00  0.00     0.124 S 
ATOM     91  O   UNL A   1      54.846  26.744  23.676  1.00  0.00    -0.237 OA
ATOM     92  O   UNL A   1      55.387  28.793  24.944  1.00  0.00    -0.237 OA
ATOM     93  O   UNL A   1      55.432  26.602  26.069  1.00  0.00    -0.744 OA
ENDBRANCH  89  90
ENDBRANCH  63  84
ENDBRANCH  37  38
ENDBRANCH  30  32
ENDBRANCH  29  30
ENDBRANCH  28  29
ENDBRANCH   1  28
TORSDOF 21
ENDMDL
