MODEL 1
REMARK VINA RESULT:     -10.5      0.000      0.000
REMARK SMILES CCc1ccc(C(=O)NCc2ccc(C(=O)OCCOC(=O)c3ccc(-c4c5nc(c(-c6ccc(S(=O)(=O)[O-])cc6)c6ccc([nH]6)c(-c6ccc(S(=O)(=O)[O-])cc6)c6nc(c(-c7ccc(S(=O)(=O)[O-])cc7)c7ccc4[nH]7)C=C6)C=C5)cc3)cc2)cc1
REMARK SMILES IDX 18 1 17 2 15 3 16 4 14 5 11 6 12 7 84 8 13 9 83 10 10 11
REMARK SMILES IDX 9 12 7 13 8 14 6 16 3 17 4 18 86 19 5 20 85 21 2 22 1 23
REMARK SMILES IDX 19 24 20 25 21 26 22 27 23 28 24 29 82 30 25 31 81 32 26 33
REMARK SMILES IDX 27 34 28 35 75 36 29 37 80 38 74 39 76 40 30 41 79 42 73 43
REMARK SMILES IDX 72 44 31 46 61 47 42 48 60 49 43 50 46 51 59 52 77 53 44 54
REMARK SMILES IDX 45 55 58 57 78 58 47 59 32 60 33 61 41 62 34 63 40 64 35 65
REMARK SMILES IDX 36 66 37 67 38 68 39 69 62 70 63 71 71 72 64 73 70 74 65 75
REMARK SMILES IDX 66 76 67 77 68 78 69 79 48 80 49 81 57 82 50 83 56 84 51 85
REMARK SMILES IDX 52 86 53 87 54 88 55 89
REMARK H PARENT 9 15 76 45 46 56
REMARK Flexibility Score: inf
ROOT
ATOM      1  C   UNL A   1      31.949  29.816  26.155  1.00  0.00     0.275 C 
ENDROOT
BRANCH   1   2
ATOM      2  O   UNL A   1      31.254  28.684  25.589  1.00  0.00    -0.458 OA
BRANCH   2   3
ATOM      3  C   UNL A   1      31.241  27.565  26.357  1.00  0.00     0.338 C 
ATOM      4  O   UNL A   1      31.014  27.509  27.555  1.00  0.00    -0.246 OA
BRANCH   3   5
ATOM      5  C   UNL A   1      31.429  26.353  25.521  1.00  0.00     0.060 A 
ATOM      6  C   UNL A   1      31.651  24.019  23.955  1.00  0.00    -0.029 A 
ATOM      7  C   UNL A   1      30.752  24.074  25.026  1.00  0.00     0.006 A 
ATOM      8  C   UNL A   1      32.451  25.147  23.694  1.00  0.00     0.006 A 
ATOM      9  C   UNL A   1      30.656  25.223  25.813  1.00  0.00     0.016 A 
ATOM     10  C   UNL A   1      32.338  26.309  24.465  1.00  0.00     0.016 A 
BRANCH   6  11
ATOM     11  C   UNL A   1      31.752  22.751  23.137  1.00  0.00     0.152 C 
BRANCH  11  12
ATOM     12  N   UNL A   1      31.826  21.576  23.974  1.00  0.00    -0.348 N 
ATOM     13  C   UNL A   1      32.753  21.060  24.832  1.00  0.00     0.251 C 
ATOM     14  O   UNL A   1      32.416  20.048  25.451  1.00  0.00    -0.269 OA
ATOM     15  H   UNL A   1      31.017  21.018  23.912  1.00  0.00     0.164 HD
BRANCH  13  16
ATOM     16  C   UNL A   1      34.124  21.608  25.067  1.00  0.00     0.039 A 
ATOM     17  C   UNL A   1      36.622  22.789  25.747  1.00  0.00    -0.048 A 
ATOM     18  C   UNL A   1      35.426  23.338  26.212  1.00  0.00     0.004 A 
ATOM     19  C   UNL A   1      36.557  21.631  24.964  1.00  0.00     0.004 A 
ATOM     20  C   UNL A   1      34.199  22.762  25.867  1.00  0.00     0.014 A 
ATOM     21  C   UNL A   1      35.326  21.045  24.634  1.00  0.00     0.014 A 
BRANCH  17  22
ATOM     22  C   UNL A   1      37.965  23.361  26.128  1.00  0.00     0.032 C 
ATOM     23  C   UNL A   1      39.070  22.324  26.282  1.00  0.00     0.009 C 
ENDBRANCH  17  22
ENDBRANCH  13  16
ENDBRANCH  11  12
ENDBRANCH   6  11
ENDBRANCH   3   5
ENDBRANCH   2   3
ENDBRANCH   1   2
BRANCH   1  24
ATOM     24  C   UNL A   1      33.461  29.611  26.065  1.00  0.00     0.275 C 
BRANCH  24  25
ATOM     25  O   UNL A   1      33.977  29.304  27.370  1.00  0.00    -0.458 OA
BRANCH  25  26
ATOM     26  C   UNL A   1      34.575  30.320  28.033  1.00  0.00     0.338 C 
ATOM     27  O   UNL A   1      34.055  31.366  28.398  1.00  0.00    -0.246 OA
BRANCH  26  28
ATOM     28  C   UNL A   1      35.998  29.995  28.259  1.00  0.00     0.060 A 
ATOM     29  C   UNL A   1      36.920  30.104  27.221  1.00  0.00     0.016 A 
ATOM     30  C   UNL A   1      36.412  29.512  29.500  1.00  0.00     0.016 A 
ATOM     31  C   UNL A   1      38.237  29.674  27.394  1.00  0.00     0.010 A 
ATOM     32  C   UNL A   1      37.759  29.183  29.703  1.00  0.00     0.010 A 
ATOM     33  C   UNL A   1      38.689  29.242  28.649  1.00  0.00    -0.014 A 
BRANCH  33  34
ATOM     34  C   UNL A   1      40.119  28.865  28.870  1.00  0.00     0.031 A 
ATOM     35  C   UNL A   1      41.108  29.885  29.381  1.00  0.00     0.074 A 
ATOM     36  C   UNL A   1      40.554  27.617  28.591  1.00  0.00     0.049 A 
ATOM     37  N   UNL A   1      42.416  29.828  29.402  1.00  0.00    -0.248 NA
ATOM     38  C   UNL A   1      40.554  31.135  29.925  1.00  0.00     0.031 C 
ATOM     39  C   UNL A   1      39.717  26.503  28.136  1.00  0.00     0.029 A 
ATOM     40  N   UNL A   1      41.816  27.073  28.647  1.00  0.00    -0.354 N 
ATOM     41  C   UNL A   1      42.843  31.057  29.894  1.00  0.00     0.074 A 
ATOM     42  C   UNL A   1      41.654  31.835  30.169  1.00  0.00     0.031 C 
ATOM     43  C   UNL A   1      40.476  25.406  27.998  1.00  0.00     0.029 A 
ATOM     44  C   UNL A   1      41.870  25.759  28.240  1.00  0.00     0.049 A 
ATOM     45  H   UNL A   1      42.607  27.577  28.950  1.00  0.00     0.167 HD
ATOM     46  C   UNL A   1      44.110  31.500  30.089  1.00  0.00     0.031 A 
ATOM     47  C   UNL A   1      42.915  24.939  28.017  1.00  0.00     0.031 A 
ATOM     48  C   UNL A   1      45.290  30.707  29.859  1.00  0.00     0.049 A 
ATOM     49  C   UNL A   1      44.311  25.467  28.178  1.00  0.00     0.074 A 
ATOM     50  C   UNL A   1      46.615  31.059  30.055  1.00  0.00     0.029 A 
ATOM     51  N   UNL A   1      45.289  29.402  29.393  1.00  0.00    -0.354 N 
ATOM     52  N   UNL A   1      44.698  26.652  28.586  1.00  0.00    -0.248 NA
ATOM     53  C   UNL A   1      45.409  24.562  27.814  1.00  0.00     0.031 C 
ATOM     54  C   UNL A   1      47.417  29.982  29.665  1.00  0.00     0.029 A 
ATOM     55  C   UNL A   1      46.590  28.944  29.269  1.00  0.00     0.049 A 
ATOM     56  H   UNL A   1      44.483  28.878  29.182  1.00  0.00     0.167 HD
ATOM     57  C   UNL A   1      46.086  26.638  28.516  1.00  0.00     0.074 A 
ATOM     58  C   UNL A   1      46.472  25.319  28.057  1.00  0.00     0.031 C 
ATOM     59  C   UNL A   1      46.960  27.635  28.795  1.00  0.00     0.031 A 
BRANCH  46  60
ATOM     60  C   UNL A   1      44.294  32.928  30.530  1.00  0.00    -0.014 A 
ATOM     61  C   UNL A   1      44.401  33.275  31.887  1.00  0.00     0.010 A 
ATOM     62  C   UNL A   1      44.414  33.937  29.554  1.00  0.00     0.010 A 
ATOM     63  C   UNL A   1      44.590  34.609  32.263  1.00  0.00     0.020 A 
ATOM     64  C   UNL A   1      44.626  35.268  29.925  1.00  0.00     0.020 A 
ATOM     65  C   UNL A   1      44.695  35.598  31.279  1.00  0.00     0.054 A 
BRANCH  65  66
ATOM     66  S   UNL A   1      44.960  37.319  31.791  1.00  0.00     0.124 S 
ATOM     67  O   UNL A   1      46.410  37.358  31.967  1.00  0.00    -0.237 OA
ATOM     68  O   UNL A   1      44.445  38.077  30.654  1.00  0.00    -0.237 OA
ATOM     69  O   UNL A   1      44.181  37.440  33.020  1.00  0.00    -0.744 OA
ENDBRANCH  65  66
ENDBRANCH  46  60
BRANCH  47  70
ATOM     70  C   UNL A   1      42.674  23.555  27.524  1.00  0.00    -0.014 A 
ATOM     71  C   UNL A   1      42.805  23.248  26.159  1.00  0.00     0.010 A 
ATOM     72  C   UNL A   1      42.350  22.527  28.430  1.00  0.00     0.010 A 
ATOM     73  C   UNL A   1      42.627  21.935  25.711  1.00  0.00     0.020 A 
ATOM     74  C   UNL A   1      42.200  21.210  27.989  1.00  0.00     0.020 A 
ATOM     75  C   UNL A   1      42.333  20.924  26.630  1.00  0.00     0.054 A 
BRANCH  75  76
ATOM     76  S   UNL A   1      42.198  19.212  26.044  1.00  0.00     0.124 S 
ATOM     77  O   UNL A   1      40.771  19.103  25.753  1.00  0.00    -0.237 OA
ATOM     78  O   UNL A   1      43.083  19.201  24.881  1.00  0.00    -0.237 OA
ATOM     79  O   UNL A   1      42.669  18.425  27.181  1.00  0.00    -0.744 OA
ENDBRANCH  75  76
ENDBRANCH  47  70
BRANCH  59  80
ATOM     80  C   UNL A   1      48.421  27.340  28.610  1.00  0.00    -0.014 A 
ATOM     81  C   UNL A   1      49.101  27.777  27.460  1.00  0.00     0.010 A 
ATOM     82  C   UNL A   1      49.135  26.668  29.619  1.00  0.00     0.010 A 
ATOM     83  C   UNL A   1      50.469  27.533  27.314  1.00  0.00     0.020 A 
ATOM     84  C   UNL A   1      50.506  26.441  29.485  1.00  0.00     0.020 A 
ATOM     85  C   UNL A   1      51.163  26.866  28.327  1.00  0.00     0.054 A 
BRANCH  85  86
ATOM     86  S   UNL A   1      52.950  26.610  28.141  1.00  0.00     0.124 S 
ATOM     87  O   UNL A   1      53.384  27.894  27.595  1.00  0.00    -0.237 OA
ATOM     88  O   UNL A   1      53.380  26.332  29.508  1.00  0.00    -0.237 OA
ATOM     89  O   UNL A   1      53.043  25.478  27.222  1.00  0.00    -0.744 OA
ENDBRANCH  85  86
ENDBRANCH  59  80
ENDBRANCH  33  34
ENDBRANCH  26  28
ENDBRANCH  25  26
ENDBRANCH  24  25
ENDBRANCH   1  24
TORSDOF 18
ENDMDL
MODEL 2
REMARK VINA RESULT:     -10.4      5.533     10.342
REMARK SMILES CCc1ccc(C(=O)NCc2ccc(C(=O)OCCOC(=O)c3ccc(-c4c5nc(c(-c6ccc(S(=O)(=O)[O-])cc6)c6ccc([nH]6)c(-c6ccc(S(=O)(=O)[O-])cc6)c6nc(c(-c7ccc(S(=O)(=O)[O-])cc7)c7ccc4[nH]7)C=C6)C=C5)cc3)cc2)cc1
REMARK SMILES IDX 18 1 17 2 15 3 16 4 14 5 11 6 12 7 84 8 13 9 83 10 10 11
REMARK SMILES IDX 9 12 7 13 8 14 6 16 3 17 4 18 86 19 5 20 85 21 2 22 1 23
REMARK SMILES IDX 19 24 20 25 21 26 22 27 23 28 24 29 82 30 25 31 81 32 26 33
REMARK SMILES IDX 27 34 28 35 75 36 29 37 80 38 74 39 76 40 30 41 79 42 73 43
REMARK SMILES IDX 72 44 31 46 61 47 42 48 60 49 43 50 46 51 59 52 77 53 44 54
REMARK SMILES IDX 45 55 58 57 78 58 47 59 32 60 33 61 41 62 34 63 40 64 35 65
REMARK SMILES IDX 36 66 37 67 38 68 39 69 62 70 63 71 71 72 64 73 70 74 65 75
REMARK SMILES IDX 66 76 67 77 68 78 69 79 48 80 49 81 57 82 50 83 56 84 51 85
REMARK SMILES IDX 52 86 53 87 54 88 55 89
REMARK H PARENT 9 15 76 45 46 56
REMARK Flexibility Score: inf
ROOT
ATOM      1  C   UNL A   1      40.686  22.155  26.408  1.00  0.00     0.275 C 
ENDROOT
BRANCH   1   2
ATOM      2  O   UNL A   1      39.264  22.366  26.540  1.00  0.00    -0.458 OA
BRANCH   2   3
ATOM      3  C   UNL A   1      38.489  21.682  25.659  1.00  0.00     0.338 C 
ATOM      4  O   UNL A   1      38.612  20.509  25.343  1.00  0.00    -0.246 OA
BRANCH   3   5
ATOM      5  C   UNL A   1      37.360  22.523  25.190  1.00  0.00     0.060 A 
ATOM      6  C   UNL A   1      35.170  24.012  24.221  1.00  0.00    -0.029 A 
ATOM      7  C   UNL A   1      35.764  23.022  23.430  1.00  0.00     0.006 A 
ATOM      8  C   UNL A   1      35.705  24.256  25.500  1.00  0.00     0.006 A 
ATOM      9  C   UNL A   1      36.860  22.299  23.902  1.00  0.00     0.016 A 
ATOM     10  C   UNL A   1      36.788  23.514  25.986  1.00  0.00     0.016 A 
BRANCH   6  11
ATOM     11  C   UNL A   1      34.001  24.798  23.672  1.00  0.00     0.152 C 
BRANCH  11  12
ATOM     12  N   UNL A   1      32.793  24.564  24.430  1.00  0.00    -0.348 N 
ATOM     13  C   UNL A   1      32.002  23.480  24.672  1.00  0.00     0.251 C 
ATOM     14  O   UNL A   1      31.070  23.653  25.463  1.00  0.00    -0.269 OA
ATOM     15  H   UNL A   1      32.466  25.378  24.876  1.00  0.00     0.164 HD
BRANCH  13  16
ATOM     16  C   UNL A   1      32.164  22.126  24.058  1.00  0.00     0.039 A 
ATOM     17  C   UNL A   1      32.428  19.441  23.155  1.00  0.00    -0.048 A 
ATOM     18  C   UNL A   1      32.603  19.759  24.503  1.00  0.00     0.004 A 
ATOM     19  C   UNL A   1      32.094  20.473  22.271  1.00  0.00     0.004 A 
ATOM     20  C   UNL A   1      32.484  21.082  24.942  1.00  0.00     0.014 A 
ATOM     21  C   UNL A   1      31.957  21.796  22.717  1.00  0.00     0.014 A 
BRANCH  17  22
ATOM     22  C   UNL A   1      32.514  18.021  22.651  1.00  0.00     0.032 C 
ATOM     23  C   UNL A   1      33.576  17.173  23.339  1.00  0.00     0.009 C 
ENDBRANCH  17  22
ENDBRANCH  13  16
ENDBRANCH  11  12
ENDBRANCH   6  11
ENDBRANCH   3   5
ENDBRANCH   2   3
ENDBRANCH   1   2
BRANCH   1  24
ATOM     24  C   UNL A   1      41.432  23.486  26.499  1.00  0.00     0.275 C 
BRANCH  24  25
ATOM     25  O   UNL A   1      40.514  24.563  26.247  1.00  0.00    -0.458 OA
BRANCH  25  26
ATOM     26  C   UNL A   1      41.058  25.795  26.119  1.00  0.00     0.338 C 
ATOM     27  O   UNL A   1      41.610  26.256  25.128  1.00  0.00    -0.246 OA
BRANCH  26  28
ATOM     28  C   UNL A   1      40.901  26.540  27.385  1.00  0.00     0.060 A 
ATOM     29  C   UNL A   1      39.995  26.107  28.350  1.00  0.00     0.016 A 
ATOM     30  C   UNL A   1      41.614  27.720  27.590  1.00  0.00     0.016 A 
ATOM     31  C   UNL A   1      39.749  26.876  29.488  1.00  0.00     0.010 A 
ATOM     32  C   UNL A   1      41.446  28.435  28.784  1.00  0.00     0.010 A 
ATOM     33  C   UNL A   1      40.498  28.034  29.744  1.00  0.00    -0.014 A 
BRANCH  33  34
ATOM     34  C   UNL A   1      40.307  28.818  31.003  1.00  0.00     0.031 A 
ATOM     35  C   UNL A   1      39.238  29.881  31.086  1.00  0.00     0.074 A 
ATOM     36  C   UNL A   1      41.105  28.610  32.073  1.00  0.00     0.049 A 
ATOM     37  N   UNL A   1      39.077  30.822  31.982  1.00  0.00    -0.248 NA
ATOM     38  C   UNL A   1      38.226  29.893  30.016  1.00  0.00     0.031 C 
ATOM     39  C   UNL A   1      42.153  27.590  32.171  1.00  0.00     0.029 A 
ATOM     40  N   UNL A   1      41.159  29.249  33.290  1.00  0.00    -0.354 N 
ATOM     41  C   UNL A   1      37.993  31.579  31.549  1.00  0.00     0.074 A 
ATOM     42  C   UNL A   1      37.529  30.981  30.315  1.00  0.00     0.031 C 
ATOM     43  C   UNL A   1      42.711  27.644  33.389  1.00  0.00     0.029 A 
ATOM     44  C   UNL A   1      42.148  28.772  34.120  1.00  0.00     0.049 A 
ATOM     45  H   UNL A   1      40.548  29.979  33.542  1.00  0.00     0.167 HD
ATOM     46  C   UNL A   1      37.443  32.679  32.120  1.00  0.00     0.031 A 
ATOM     47  C   UNL A   1      42.607  29.221  35.305  1.00  0.00     0.031 A 
ATOM     48  C   UNL A   1      37.877  33.245  33.372  1.00  0.00     0.049 A 
ATOM     49  C   UNL A   1      42.027  30.475  35.890  1.00  0.00     0.074 A 
ATOM     50  C   UNL A   1      37.362  34.340  34.045  1.00  0.00     0.029 A 
ATOM     51  N   UNL A   1      38.920  32.756  34.143  1.00  0.00    -0.354 N 
ATOM     52  N   UNL A   1      41.043  31.214  35.437  1.00  0.00    -0.248 NA
ATOM     53  C   UNL A   1      42.643  30.976  37.127  1.00  0.00     0.031 C 
ATOM     54  C   UNL A   1      38.124  34.541  35.201  1.00  0.00     0.029 A 
ATOM     55  C   UNL A   1      39.083  33.544  35.271  1.00  0.00     0.049 A 
ATOM     56  H   UNL A   1      39.464  31.966  33.922  1.00  0.00     0.167 HD
ATOM     57  C   UNL A   1      40.930  32.275  36.327  1.00  0.00     0.074 A 
ATOM     58  C   UNL A   1      41.923  32.067  37.361  1.00  0.00     0.031 C 
ATOM     59  C   UNL A   1      40.086  33.334  36.282  1.00  0.00     0.031 A 
BRANCH  46  60
ATOM     60  C   UNL A   1      36.338  33.379  31.375  1.00  0.00    -0.014 A 
ATOM     61  C   UNL A   1      35.099  33.654  31.977  1.00  0.00     0.010 A 
ATOM     62  C   UNL A   1      36.569  33.817  30.056  1.00  0.00     0.010 A 
ATOM     63  C   UNL A   1      34.098  34.322  31.264  1.00  0.00     0.020 A 
ATOM     64  C   UNL A   1      35.580  34.504  29.347  1.00  0.00     0.020 A 
ATOM     65  C   UNL A   1      34.343  34.737  29.951  1.00  0.00     0.054 A 
BRANCH  65  66
ATOM     66  S   UNL A   1      33.037  35.621  29.052  1.00  0.00     0.124 S 
ATOM     67  O   UNL A   1      32.179  36.077  30.144  1.00  0.00    -0.237 OA
ATOM     68  O   UNL A   1      33.777  36.670  28.356  1.00  0.00    -0.237 OA
ATOM     69  O   UNL A   1      32.454  34.596  28.190  1.00  0.00    -0.744 OA
ENDBRANCH  65  66
ENDBRANCH  46  60
BRANCH  47  70
ATOM     70  C   UNL A   1      43.743  28.522  35.966  1.00  0.00    -0.014 A 
ATOM     71  C   UNL A   1      45.067  28.942  35.749  1.00  0.00     0.010 A 
ATOM     72  C   UNL A   1      43.500  27.455  36.852  1.00  0.00     0.010 A 
ATOM     73  C   UNL A   1      46.125  28.313  36.414  1.00  0.00     0.020 A 
ATOM     74  C   UNL A   1      44.551  26.846  37.539  1.00  0.00     0.020 A 
ATOM     75  C   UNL A   1      45.859  27.275  37.311  1.00  0.00     0.054 A 
BRANCH  75  76
ATOM     76  S   UNL A   1      47.234  26.534  38.234  1.00  0.00     0.124 S 
ATOM     77  O   UNL A   1      47.493  25.319  37.468  1.00  0.00    -0.237 OA
ATOM     78  O   UNL A   1      48.266  27.565  38.153  1.00  0.00    -0.237 OA
ATOM     79  O   UNL A   1      46.676  26.329  39.569  1.00  0.00    -0.744 OA
ENDBRANCH  75  76
ENDBRANCH  47  70
BRANCH  59  80
ATOM     80  C   UNL A   1      40.200  34.351  37.382  1.00  0.00    -0.014 A 
ATOM     81  C   UNL A   1      39.479  34.197  38.579  1.00  0.00     0.010 A 
ATOM     82  C   UNL A   1      41.079  35.441  37.242  1.00  0.00     0.010 A 
ATOM     83  C   UNL A   1      39.622  35.126  39.612  1.00  0.00     0.020 A 
ATOM     84  C   UNL A   1      41.239  36.359  38.281  1.00  0.00     0.020 A 
ATOM     85  C   UNL A   1      40.501  36.202  39.458  1.00  0.00     0.054 A 
BRANCH  85  86
ATOM     86  S   UNL A   1      40.712  37.364  40.835  1.00  0.00     0.124 S 
ATOM     87  O   UNL A   1      39.344  37.831  41.048  1.00  0.00    -0.237 OA
ATOM     88  O   UNL A   1      41.258  36.516  41.891  1.00  0.00    -0.237 OA
ATOM     89  O   UNL A   1      41.637  38.363  40.306  1.00  0.00    -0.744 OA
ENDBRANCH  85  86
ENDBRANCH  59  80
ENDBRANCH  33  34
ENDBRANCH  26  28
ENDBRANCH  25  26
ENDBRANCH  24  25
ENDBRANCH   1  24
TORSDOF 18
ENDMDL
MODEL 3
REMARK VINA RESULT:     -10.3      3.008      9.334
REMARK SMILES CCc1ccc(C(=O)NCc2ccc(C(=O)OCCOC(=O)c3ccc(-c4c5nc(c(-c6ccc(S(=O)(=O)[O-])cc6)c6ccc([nH]6)c(-c6ccc(S(=O)(=O)[O-])cc6)c6nc(c(-c7ccc(S(=O)(=O)[O-])cc7)c7ccc4[nH]7)C=C6)C=C5)cc3)cc2)cc1
REMARK SMILES IDX 18 1 17 2 15 3 16 4 14 5 11 6 12 7 84 8 13 9 83 10 10 11
REMARK SMILES IDX 9 12 7 13 8 14 6 16 3 17 4 18 86 19 5 20 85 21 2 22 1 23
REMARK SMILES IDX 19 24 20 25 21 26 22 27 23 28 24 29 82 30 25 31 81 32 26 33
REMARK SMILES IDX 27 34 28 35 75 36 29 37 80 38 74 39 76 40 30 41 79 42 73 43
REMARK SMILES IDX 72 44 31 46 61 47 42 48 60 49 43 50 46 51 59 52 77 53 44 54
REMARK SMILES IDX 45 55 58 57 78 58 47 59 32 60 33 61 41 62 34 63 40 64 35 65
REMARK SMILES IDX 36 66 37 67 38 68 39 69 62 70 63 71 71 72 64 73 70 74 65 75
REMARK SMILES IDX 66 76 67 77 68 78 69 79 48 80 49 81 57 82 50 83 56 84 51 85
REMARK SMILES IDX 52 86 53 87 54 88 55 89
REMARK H PARENT 9 15 76 45 46 56
REMARK Flexibility Score: inf
ROOT
ATOM      1  C   UNL A   1      35.018  33.213  30.403  1.00  0.00     0.275 C 
ENDROOT
BRANCH   1   2
ATOM      2  O   UNL A   1      34.042  32.691  29.476  1.00  0.00    -0.458 OA
BRANCH   2   3
ATOM      3  C   UNL A   1      34.477  32.532  28.199  1.00  0.00     0.338 C 
ATOM      4  O   UNL A   1      35.139  33.329  27.554  1.00  0.00    -0.246 OA
BRANCH   3   5
ATOM      5  C   UNL A   1      34.143  31.177  27.696  1.00  0.00     0.060 A 
ATOM      6  C   UNL A   1      33.603  28.549  26.826  1.00  0.00    -0.029 A 
ATOM      7  C   UNL A   1      34.886  28.907  27.257  1.00  0.00     0.006 A 
ATOM      8  C   UNL A   1      32.600  29.536  26.820  1.00  0.00     0.006 A 
ATOM      9  C   UNL A   1      35.157  30.213  27.669  1.00  0.00     0.016 A 
ATOM     10  C   UNL A   1      32.863  30.839  27.258  1.00  0.00     0.016 A 
BRANCH   6  11
ATOM     11  C   UNL A   1      33.347  27.134  26.360  1.00  0.00     0.152 C 
BRANCH  11  12
ATOM     12  N   UNL A   1      33.686  26.957  24.967  1.00  0.00    -0.348 N 
ATOM     13  C   UNL A   1      33.054  27.199  23.782  1.00  0.00     0.251 C 
ATOM     14  O   UNL A   1      33.715  26.991  22.761  1.00  0.00    -0.269 OA
ATOM     15  H   UNL A   1      34.585  26.573  24.844  1.00  0.00     0.164 HD
BRANCH  13  16
ATOM     16  C   UNL A   1      31.646  27.678  23.627  1.00  0.00     0.039 A 
ATOM     17  C   UNL A   1      29.074  28.806  23.169  1.00  0.00    -0.048 A 
ATOM     18  C   UNL A   1      30.227  29.580  23.024  1.00  0.00     0.004 A 
ATOM     19  C   UNL A   1      29.223  27.458  23.517  1.00  0.00     0.004 A 
ATOM     20  C   UNL A   1      31.489  29.026  23.261  1.00  0.00     0.014 A 
ATOM     21  C   UNL A   1      30.492  26.901  23.737  1.00  0.00     0.014 A 
BRANCH  17  22
ATOM     22  C   UNL A   1      27.699  29.359  22.887  1.00  0.00     0.032 C 
ATOM     23  C   UNL A   1      27.550  30.848  23.175  1.00  0.00     0.009 C 
ENDBRANCH  17  22
ENDBRANCH  13  16
ENDBRANCH  11  12
ENDBRANCH   6  11
ENDBRANCH   3   5
ENDBRANCH   2   3
ENDBRANCH   1   2
BRANCH   1  24
ATOM     24  C   UNL A   1      35.491  32.113  31.352  1.00  0.00     0.275 C 
BRANCH  24  25
ATOM     25  O   UNL A   1      36.815  31.698  30.976  1.00  0.00    -0.458 OA
BRANCH  25  26
ATOM     26  C   UNL A   1      37.036  30.364  30.934  1.00  0.00     0.338 C 
ATOM     27  O   UNL A   1      36.295  29.483  31.349  1.00  0.00    -0.246 OA
BRANCH  26  28
ATOM     28  C   UNL A   1      38.347  30.099  30.306  1.00  0.00     0.060 A 
ATOM     29  C   UNL A   1      38.489  30.154  28.921  1.00  0.00     0.016 A 
ATOM     30  C   UNL A   1      39.433  29.725  31.096  1.00  0.00     0.016 A 
ATOM     31  C   UNL A   1      39.689  29.777  28.317  1.00  0.00     0.010 A 
ATOM     32  C   UNL A   1      40.669  29.452  30.494  1.00  0.00     0.010 A 
ATOM     33  C   UNL A   1      40.812  29.457  29.094  1.00  0.00    -0.014 A 
BRANCH  33  34
ATOM     34  C   UNL A   1      42.128  29.139  28.460  1.00  0.00     0.031 A 
ATOM     35  C   UNL A   1      42.426  27.740  27.978  1.00  0.00     0.074 A 
ATOM     36  C   UNL A   1      43.080  30.089  28.334  1.00  0.00     0.049 A 
ATOM     37  N   UNL A   1      43.574  27.211  27.635  1.00  0.00    -0.248 NA
ATOM     38  C   UNL A   1      41.287  26.812  27.883  1.00  0.00     0.031 C 
ATOM     39  C   UNL A   1      42.934  31.500  28.705  1.00  0.00     0.029 A 
ATOM     40  N   UNL A   1      44.368  30.012  27.856  1.00  0.00    -0.354 N 
ATOM     41  C   UNL A   1      43.309  25.875  27.351  1.00  0.00     0.074 A 
ATOM     42  C   UNL A   1      41.889  25.677  27.552  1.00  0.00     0.031 C 
ATOM     43  C   UNL A   1      44.063  32.157  28.403  1.00  0.00     0.029 A 
ATOM     44  C   UNL A   1      45.056  31.202  27.925  1.00  0.00     0.049 A 
ATOM     45  H   UNL A   1      44.761  29.182  27.499  1.00  0.00     0.167 HD
ATOM     46  C   UNL A   1      44.171  24.901  26.969  1.00  0.00     0.031 A 
ATOM     47  C   UNL A   1      46.351  31.495  27.700  1.00  0.00     0.031 A 
ATOM     48  C   UNL A   1      45.575  25.112  26.724  1.00  0.00     0.049 A 
ATOM     49  C   UNL A   1      47.302  30.391  27.338  1.00  0.00     0.074 A 
ATOM     50  C   UNL A   1      46.522  24.192  26.306  1.00  0.00     0.029 A 
ATOM     51  N   UNL A   1      46.230  26.325  26.864  1.00  0.00    -0.354 N 
ATOM     52  N   UNL A   1      47.047  29.121  27.134  1.00  0.00    -0.248 NA
ATOM     53  C   UNL A   1      48.721  30.753  27.214  1.00  0.00     0.031 C 
ATOM     54  C   UNL A   1      47.760  24.840  26.237  1.00  0.00     0.029 A 
ATOM     55  C   UNL A   1      47.574  26.172  26.568  1.00  0.00     0.049 A 
ATOM     56  H   UNL A   1      45.803  27.170  27.134  1.00  0.00     0.167 HD
ATOM     57  C   UNL A   1      48.275  28.529  26.868  1.00  0.00     0.074 A 
ATOM     58  C   UNL A   1      49.269  29.583  26.907  1.00  0.00     0.031 C 
ATOM     59  C   UNL A   1      48.555  27.226  26.627  1.00  0.00     0.031 A 
BRANCH  46  60
ATOM     60  C   UNL A   1      43.634  23.500  26.837  1.00  0.00    -0.014 A 
ATOM     61  C   UNL A   1      43.197  22.768  27.953  1.00  0.00     0.010 A 
ATOM     62  C   UNL A   1      43.520  22.927  25.555  1.00  0.00     0.010 A 
ATOM     63  C   UNL A   1      42.688  21.475  27.796  1.00  0.00     0.020 A 
ATOM     64  C   UNL A   1      42.991  21.644  25.391  1.00  0.00     0.020 A 
ATOM     65  C   UNL A   1      42.593  20.919  26.515  1.00  0.00     0.054 A 
BRANCH  65  66
ATOM     66  S   UNL A   1      41.909  19.248  26.333  1.00  0.00     0.124 S 
ATOM     67  O   UNL A   1      41.977  18.746  27.704  1.00  0.00    -0.237 OA
ATOM     68  O   UNL A   1      40.564  19.503  25.825  1.00  0.00    -0.237 OA
ATOM     69  O   UNL A   1      42.816  18.602  25.389  1.00  0.00    -0.744 OA
ENDBRANCH  65  66
ENDBRANCH  46  60
BRANCH  47  70
ATOM     70  C   UNL A   1      46.837  32.887  27.905  1.00  0.00    -0.014 A 
ATOM     71  C   UNL A   1      47.290  33.310  29.166  1.00  0.00     0.010 A 
ATOM     72  C   UNL A   1      46.888  33.786  26.822  1.00  0.00     0.010 A 
ATOM     73  C   UNL A   1      47.793  34.603  29.339  1.00  0.00     0.020 A 
ATOM     74  C   UNL A   1      47.417  35.068  26.985  1.00  0.00     0.020 A 
ATOM     75  C   UNL A   1      47.861  35.471  28.245  1.00  0.00     0.054 A 
BRANCH  75  76
ATOM     76  S   UNL A   1      48.603  37.112  28.466  1.00  0.00     0.124 S 
ATOM     77  O   UNL A   1      49.906  36.943  27.829  1.00  0.00    -0.237 OA
ATOM     78  O   UNL A   1      47.664  37.985  27.765  1.00  0.00    -0.237 OA
ATOM     79  O   UNL A   1      48.630  37.280  29.917  1.00  0.00    -0.744 OA
ENDBRANCH  75  76
ENDBRANCH  47  70
BRANCH  59  80
ATOM     80  C   UNL A   1      49.993  26.864  26.387  1.00  0.00    -0.014 A 
ATOM     81  C   UNL A   1      50.837  26.534  27.461  1.00  0.00     0.010 A 
ATOM     82  C   UNL A   1      50.491  26.798  25.073  1.00  0.00     0.010 A 
ATOM     83  C   UNL A   1      52.163  26.160  27.227  1.00  0.00     0.020 A 
ATOM     84  C   UNL A   1      51.809  26.405  24.834  1.00  0.00     0.020 A 
ATOM     85  C   UNL A   1      52.641  26.098  25.914  1.00  0.00     0.054 A 
BRANCH  85  86
ATOM     86  S   UNL A   1      54.349  25.556  25.631  1.00  0.00     0.124 S 
ATOM     87  O   UNL A   1      54.253  24.117  25.866  1.00  0.00    -0.237 OA
ATOM     88  O   UNL A   1      54.587  25.950  24.246  1.00  0.00    -0.237 OA
ATOM     89  O   UNL A   1      55.118  26.300  26.625  1.00  0.00    -0.744 OA
ENDBRANCH  85  86
ENDBRANCH  59  80
ENDBRANCH  33  34
ENDBRANCH  26  28
ENDBRANCH  25  26
ENDBRANCH  24  25
ENDBRANCH   1  24
TORSDOF 18
ENDMDL
