MODEL 1
REMARK VINA RESULT:     -10.7      0.000      0.000
REMARK SMILES Cc1n[nH]c(S[C@H]2CC[C@@]([NH2+]C(C)C)(C(=O)OCCOC(=O)c3ccc(-c4c5nc(c(-c6ccc(S(=O)(=O)[O-])cc6)c6ccc([nH]6)c(-c6ccc(S(=O)(=O)[O-])cc6)c6nc(c(-c7ccc(S(=O)(=O)[O-])cc7)c7ccc4[nH]7)C=C6)C=C5)cc3)C2)n1
REMARK SMILES IDX 19 1 18 2 17 3 15 4 16 5 10 6 7 7 8 8 83 9 9 10 6 11 5 12
REMARK SMILES IDX 1 13 2 14 3 15 84 16 4 17 11 19 12 22 13 23 14 24 20 25
REMARK SMILES IDX 21 26 22 27 23 28 24 29 82 30 25 31 81 32 26 33 27 34 28 35
REMARK SMILES IDX 75 36 29 37 80 38 74 39 76 40 30 41 79 42 73 43 72 44 31 46
REMARK SMILES IDX 61 47 42 48 60 49 43 50 46 51 59 52 77 53 44 54 45 55 58 57
REMARK SMILES IDX 78 58 47 59 32 60 33 61 41 62 34 63 40 64 35 65 36 66 37 67
REMARK SMILES IDX 38 68 39 69 62 70 63 71 71 72 64 73 70 74 65 75 66 76 67 77
REMARK SMILES IDX 68 78 69 79 48 80 49 81 57 82 50 83 56 84 51 85 52 86 53 87
REMARK SMILES IDX 54 88 55 89
REMARK H PARENT 4 18 11 20 11 21 76 45 46 56
REMARK Flexibility Score: inf
ROOT
ATOM      1  C   UNL A   1      38.524  20.140  24.947  1.00  0.00     0.275 C 
ENDROOT
BRANCH   1   2
ATOM      2  C   UNL A   1      37.070  19.660  24.974  1.00  0.00     0.274 C 
BRANCH   2   3
ATOM      3  O   UNL A   1      36.155  20.588  25.588  1.00  0.00    -0.457 OA
BRANCH   3   4
ATOM      4  C   UNL A   1      35.254  21.220  24.770  1.00  0.00     0.368 C 
ATOM      5  O   UNL A   1      35.565  22.044  23.912  1.00  0.00    -0.245 OA
BRANCH   4   6
ATOM      6  C   UNL A   1      33.784  20.936  25.216  1.00  0.00     0.195 C 
ATOM      7  C   UNL A   1      32.108  22.692  25.900  1.00  0.00     0.062 C 
ATOM      8  C   UNL A   1      31.615  22.019  24.636  1.00  0.00     0.022 C 
ATOM      9  C   UNL A   1      33.305  21.852  26.376  1.00  0.00     0.096 C 
ATOM     10  C   UNL A   1      32.804  21.264  24.058  1.00  0.00     0.082 C 
BRANCH   7  11
ATOM     11  S   UNL A   1      32.457  24.461  26.033  1.00  0.00    -0.083 SA
BRANCH  11  12
ATOM     12  C   UNL A   1      32.967  25.088  24.515  1.00  0.00     0.183 A 
ATOM     13  C   UNL A   1      32.397  25.684  21.089  1.00  0.00     0.092 C 
ATOM     14  C   UNL A   1      32.945  25.446  22.442  1.00  0.00     0.148 A 
ATOM     15  N   UNL A   1      34.140  24.875  22.629  1.00  0.00    -0.158 NA
ATOM     16  N   UNL A   1      32.225  25.656  23.596  1.00  0.00    -0.206 NA
ATOM     17  N   UNL A   1      34.108  24.615  23.942  1.00  0.00    -0.254 N 
ATOM     18  H   UNL A   1      34.820  24.142  24.431  1.00  0.00     0.192 HD
ENDBRANCH  11  12
ENDBRANCH   7  11
BRANCH   6  19
ATOM     19  N   UNL A   1      33.676  19.489  25.613  1.00  0.00    -0.330 N 
ATOM     20  H   UNL A   1      33.018  19.427  26.390  1.00  0.00     0.347 HD
ATOM     21  H   UNL A   1      34.625  19.196  25.845  1.00  0.00     0.347 HD
BRANCH  19  22
ATOM     22  C   UNL A   1      33.217  18.560  24.556  1.00  0.00     0.176 C 
ATOM     23  C   UNL A   1      34.333  17.800  23.833  1.00  0.00     0.075 C 
ATOM     24  C   UNL A   1      32.253  17.550  25.184  1.00  0.00     0.075 C 
ENDBRANCH  19  22
ENDBRANCH   6  19
ENDBRANCH   4   6
ENDBRANCH   3   4
ENDBRANCH   2   3
ENDBRANCH   1   2
BRANCH   1  25
ATOM     25  O   UNL A   1      39.441  19.165  25.455  1.00  0.00    -0.458 OA
BRANCH  25  26
ATOM     26  C   UNL A   1      40.625  19.720  25.786  1.00  0.00     0.338 C 
ATOM     27  O   UNL A   1      41.729  19.301  25.482  1.00  0.00    -0.246 OA
BRANCH  26  28
ATOM     28  C   UNL A   1      40.470  20.840  26.709  1.00  0.00     0.060 A 
ATOM     29  C   UNL A   1      40.012  22.021  26.136  1.00  0.00     0.016 A 
ATOM     30  C   UNL A   1      41.173  20.827  27.915  1.00  0.00     0.016 A 
ATOM     31  C   UNL A   1      40.505  23.212  26.612  1.00  0.00     0.010 A 
ATOM     32  C   UNL A   1      41.594  22.035  28.442  1.00  0.00     0.010 A 
ATOM     33  C   UNL A   1      41.368  23.208  27.715  1.00  0.00    -0.014 A 
BRANCH  33  34
ATOM     34  C   UNL A   1      41.977  24.491  28.076  1.00  0.00     0.031 A 
ATOM     35  C   UNL A   1      43.344  24.693  27.522  1.00  0.00     0.074 A 
ATOM     36  C   UNL A   1      41.326  25.431  28.792  1.00  0.00     0.049 A 
ATOM     37  N   UNL A   1      44.430  25.044  28.134  1.00  0.00    -0.248 NA
ATOM     38  C   UNL A   1      43.541  24.310  26.110  1.00  0.00     0.031 C 
ATOM     39  C   UNL A   1      39.922  25.402  29.216  1.00  0.00     0.029 A 
ATOM     40  N   UNL A   1      41.736  26.678  29.175  1.00  0.00    -0.354 N 
ATOM     41  C   UNL A   1      45.406  25.104  27.143  1.00  0.00     0.074 A 
ATOM     42  C   UNL A   1      44.851  24.480  25.970  1.00  0.00     0.031 C 
ATOM     43  C   UNL A   1      39.536  26.646  29.555  1.00  0.00     0.029 A 
ATOM     44  C   UNL A   1      40.674  27.539  29.431  1.00  0.00     0.049 A 
ATOM     45  H   UNL A   1      42.682  26.938  29.259  1.00  0.00     0.167 HD
ATOM     46  C   UNL A   1      46.504  25.898  27.240  1.00  0.00     0.031 A 
ATOM     47  C   UNL A   1      40.682  28.895  29.383  1.00  0.00     0.031 A 
ATOM     48  C   UNL A   1      46.837  26.232  28.594  1.00  0.00     0.049 A 
ATOM     49  C   UNL A   1      42.090  29.342  29.500  1.00  0.00     0.074 A 
ATOM     50  C   UNL A   1      47.195  25.502  29.709  1.00  0.00     0.029 A 
ATOM     51  N   UNL A   1      46.502  27.485  29.043  1.00  0.00    -0.354 N 
ATOM     52  N   UNL A   1      42.807  29.206  30.581  1.00  0.00    -0.248 NA
ATOM     53  C   UNL A   1      42.851  29.576  28.281  1.00  0.00     0.031 C 
ATOM     54  C   UNL A   1      46.649  26.213  30.814  1.00  0.00     0.029 A 
ATOM     55  C   UNL A   1      46.013  27.353  30.318  1.00  0.00     0.049 A 
ATOM     56  H   UNL A   1      46.597  28.327  28.542  1.00  0.00     0.167 HD
ATOM     57  C   UNL A   1      44.088  28.919  30.130  1.00  0.00     0.074 A 
ATOM     58  C   UNL A   1      44.078  29.276  28.715  1.00  0.00     0.031 C 
ATOM     59  C   UNL A   1      44.950  28.166  30.875  1.00  0.00     0.031 A 
BRANCH  46  60
ATOM     60  C   UNL A   1      46.995  26.684  26.051  1.00  0.00    -0.014 A 
ATOM     61  C   UNL A   1      46.134  27.574  25.387  1.00  0.00     0.010 A 
ATOM     62  C   UNL A   1      48.211  26.363  25.404  1.00  0.00     0.010 A 
ATOM     63  C   UNL A   1      46.461  28.080  24.119  1.00  0.00     0.020 A 
ATOM     64  C   UNL A   1      48.569  26.898  24.171  1.00  0.00     0.020 A 
ATOM     65  C   UNL A   1      47.673  27.728  23.518  1.00  0.00     0.054 A 
BRANCH  65  66
ATOM     66  S   UNL A   1      48.043  28.291  21.840  1.00  0.00     0.124 S 
ATOM     67  O   UNL A   1      47.870  27.063  21.070  1.00  0.00    -0.237 OA
ATOM     68  O   UNL A   1      47.032  29.323  21.628  1.00  0.00    -0.237 OA
ATOM     69  O   UNL A   1      49.415  28.782  21.938  1.00  0.00    -0.744 OA
ENDBRANCH  65  66
ENDBRANCH  46  60
BRANCH  47  70
ATOM     70  C   UNL A   1      39.571  29.748  28.867  1.00  0.00    -0.014 A 
ATOM     71  C   UNL A   1      38.719  29.317  27.835  1.00  0.00     0.010 A 
ATOM     72  C   UNL A   1      39.200  30.927  29.552  1.00  0.00     0.010 A 
ATOM     73  C   UNL A   1      37.532  30.016  27.535  1.00  0.00     0.020 A 
ATOM     74  C   UNL A   1      38.043  31.643  29.244  1.00  0.00     0.020 A 
ATOM     75  C   UNL A   1      37.197  31.169  28.252  1.00  0.00     0.054 A 
BRANCH  75  76
ATOM     76  S   UNL A   1      35.592  31.979  27.991  1.00  0.00     0.124 S 
ATOM     77  O   UNL A   1      35.977  33.236  27.358  1.00  0.00    -0.237 OA
ATOM     78  O   UNL A   1      34.893  31.025  27.135  1.00  0.00    -0.237 OA
ATOM     79  O   UNL A   1      35.047  32.107  29.342  1.00  0.00    -0.744 OA
ENDBRANCH  75  76
ENDBRANCH  47  70
BRANCH  59  80
ATOM     80  C   UNL A   1      44.624  27.930  32.332  1.00  0.00    -0.014 A 
ATOM     81  C   UNL A   1      45.005  28.812  33.361  1.00  0.00     0.010 A 
ATOM     82  C   UNL A   1      43.766  26.861  32.648  1.00  0.00     0.010 A 
ATOM     83  C   UNL A   1      44.559  28.613  34.677  1.00  0.00     0.020 A 
ATOM     84  C   UNL A   1      43.306  26.668  33.952  1.00  0.00     0.020 A 
ATOM     85  C   UNL A   1      43.712  27.539  34.964  1.00  0.00     0.054 A 
BRANCH  85  86
ATOM     86  S   UNL A   1      43.099  27.312  36.658  1.00  0.00     0.124 S 
ATOM     87  O   UNL A   1      44.191  27.847  37.466  1.00  0.00    -0.237 OA
ATOM     88  O   UNL A   1      41.864  28.092  36.669  1.00  0.00    -0.237 OA
ATOM     89  O   UNL A   1      42.904  25.866  36.766  1.00  0.00    -0.744 OA
ENDBRANCH  85  86
ENDBRANCH  59  80
ENDBRANCH  33  34
ENDBRANCH  26  28
ENDBRANCH  25  26
ENDBRANCH   1  25
TORSDOF 18
ENDMDL
MODEL 2
REMARK VINA RESULT:     -10.6      3.088      4.868
REMARK SMILES Cc1n[nH]c(S[C@H]2CC[C@@]([NH2+]C(C)C)(C(=O)OCCOC(=O)c3ccc(-c4c5nc(c(-c6ccc(S(=O)(=O)[O-])cc6)c6ccc([nH]6)c(-c6ccc(S(=O)(=O)[O-])cc6)c6nc(c(-c7ccc(S(=O)(=O)[O-])cc7)c7ccc4[nH]7)C=C6)C=C5)cc3)C2)n1
REMARK SMILES IDX 19 1 18 2 17 3 15 4 16 5 10 6 7 7 8 8 83 9 9 10 6 11 5 12
REMARK SMILES IDX 1 13 2 14 3 15 84 16 4 17 11 19 12 22 13 23 14 24 20 25
REMARK SMILES IDX 21 26 22 27 23 28 24 29 82 30 25 31 81 32 26 33 27 34 28 35
REMARK SMILES IDX 75 36 29 37 80 38 74 39 76 40 30 41 79 42 73 43 72 44 31 46
REMARK SMILES IDX 61 47 42 48 60 49 43 50 46 51 59 52 77 53 44 54 45 55 58 57
REMARK SMILES IDX 78 58 47 59 32 60 33 61 41 62 34 63 40 64 35 65 36 66 37 67
REMARK SMILES IDX 38 68 39 69 62 70 63 71 71 72 64 73 70 74 65 75 66 76 67 77
REMARK SMILES IDX 68 78 69 79 48 80 49 81 57 82 50 83 56 84 51 85 52 86 53 87
REMARK SMILES IDX 54 88 55 89
REMARK H PARENT 4 18 11 20 11 21 76 45 46 56
REMARK Flexibility Score: inf
ROOT
ATOM      1  C   UNL A   1      37.307  23.272  25.196  1.00  0.00     0.275 C 
ENDROOT
BRANCH   1   2
ATOM      2  C   UNL A   1      35.836  22.860  25.301  1.00  0.00     0.274 C 
BRANCH   2   3
ATOM      3  O   UNL A   1      34.908  23.878  24.882  1.00  0.00    -0.457 OA
BRANCH   3   4
ATOM      4  C   UNL A   1      34.311  23.724  23.657  1.00  0.00     0.368 C 
ATOM      5  O   UNL A   1      34.804  24.111  22.599  1.00  0.00    -0.245 OA
BRANCH   4   6
ATOM      6  C   UNL A   1      32.845  23.205  23.800  1.00  0.00     0.195 C 
ATOM      7  C   UNL A   1      32.167  21.057  24.934  1.00  0.00     0.062 C 
ATOM      8  C   UNL A   1      31.592  22.219  25.716  1.00  0.00     0.022 C 
ATOM      9  C   UNL A   1      32.718  21.666  23.633  1.00  0.00     0.096 C 
ATOM     10  C   UNL A   1      32.326  23.465  25.239  1.00  0.00     0.082 C 
BRANCH   7  11
ATOM     11  S   UNL A   1      33.316  19.843  25.624  1.00  0.00    -0.083 SA
BRANCH  11  12
ATOM     12  C   UNL A   1      32.971  18.274  25.011  1.00  0.00     0.183 A 
ATOM     13  C   UNL A   1      32.547  14.810  25.496  1.00  0.00     0.092 C 
ATOM     14  C   UNL A   1      32.798  16.178  24.992  1.00  0.00     0.148 A 
ATOM     15  N   UNL A   1      33.633  16.412  23.975  1.00  0.00    -0.158 NA
ATOM     16  N   UNL A   1      32.315  17.310  25.608  1.00  0.00    -0.206 NA
ATOM     17  N   UNL A   1      33.763  17.744  24.039  1.00  0.00    -0.254 N 
ATOM     18  H   UNL A   1      34.356  18.271  23.457  1.00  0.00     0.192 HD
ENDBRANCH  11  12
ENDBRANCH   7  11
BRANCH   6  19
ATOM     19  N   UNL A   1      31.987  23.914  22.788  1.00  0.00    -0.330 N 
ATOM     20  H   UNL A   1      31.148  23.351  22.641  1.00  0.00     0.347 HD
ATOM     21  H   UNL A   1      32.570  24.019  21.958  1.00  0.00     0.347 HD
BRANCH  19  22
ATOM     22  C   UNL A   1      31.555  25.283  23.149  1.00  0.00     0.176 C 
ATOM     23  C   UNL A   1      31.935  26.369  22.139  1.00  0.00     0.075 C 
ATOM     24  C   UNL A   1      30.035  25.280  23.330  1.00  0.00     0.075 C 
ENDBRANCH  19  22
ENDBRANCH   6  19
ENDBRANCH   4   6
ENDBRANCH   3   4
ENDBRANCH   2   3
ENDBRANCH   1   2
BRANCH   1  25
ATOM     25  O   UNL A   1      37.905  23.529  26.471  1.00  0.00    -0.458 OA
BRANCH  25  26
ATOM     26  C   UNL A   1      39.174  23.074  26.527  1.00  0.00     0.338 C 
ATOM     27  O   UNL A   1      39.521  21.905  26.570  1.00  0.00    -0.246 OA
BRANCH  26  28
ATOM     28  C   UNL A   1      40.140  24.155  26.688  1.00  0.00     0.060 A 
ATOM     29  C   UNL A   1      41.103  23.949  27.670  1.00  0.00     0.016 A 
ATOM     30  C   UNL A   1      39.810  25.433  26.233  1.00  0.00     0.016 A 
ATOM     31  C   UNL A   1      41.527  25.029  28.406  1.00  0.00     0.010 A 
ATOM     32  C   UNL A   1      40.310  26.524  26.921  1.00  0.00     0.010 A 
ATOM     33  C   UNL A   1      41.059  26.309  28.082  1.00  0.00    -0.014 A 
BRANCH  33  34
ATOM     34  C   UNL A   1      41.428  27.393  28.997  1.00  0.00     0.031 A 
ATOM     35  C   UNL A   1      42.708  28.070  28.652  1.00  0.00     0.074 A 
ATOM     36  C   UNL A   1      40.641  27.782  30.020  1.00  0.00     0.049 A 
ATOM     37  N   UNL A   1      43.732  28.314  29.406  1.00  0.00    -0.248 NA
ATOM     38  C   UNL A   1      42.916  28.390  27.226  1.00  0.00     0.031 C 
ATOM     39  C   UNL A   1      39.286  27.306  30.322  1.00  0.00     0.029 A 
ATOM     40  N   UNL A   1      40.823  28.787  30.930  1.00  0.00    -0.354 N 
ATOM     41  C   UNL A   1      44.637  28.986  28.589  1.00  0.00     0.074 A 
ATOM     42  C   UNL A   1      44.163  28.848  27.236  1.00  0.00     0.031 C 
ATOM     43  C   UNL A   1      38.686  28.178  31.154  1.00  0.00     0.029 A 
ATOM     44  C   UNL A   1      39.628  29.231  31.487  1.00  0.00     0.049 A 
ATOM     45  H   UNL A   1      41.704  29.157  31.165  1.00  0.00     0.167 HD
ATOM     46  C   UNL A   1      45.568  29.848  29.076  1.00  0.00     0.031 A 
ATOM     47  C   UNL A   1      39.376  30.445  32.039  1.00  0.00     0.031 A 
ATOM     48  C   UNL A   1      45.887  29.609  30.453  1.00  0.00     0.049 A 
ATOM     49  C   UNL A   1      40.678  31.052  32.406  1.00  0.00     0.074 A 
ATOM     50  C   UNL A   1      46.422  28.547  31.151  1.00  0.00     0.029 A 
ATOM     51  N   UNL A   1      45.340  30.450  31.390  1.00  0.00    -0.354 N 
ATOM     52  N   UNL A   1      41.452  30.593  33.350  1.00  0.00    -0.248 NA
ATOM     53  C   UNL A   1      41.330  31.935  31.451  1.00  0.00     0.031 C 
ATOM     54  C   UNL A   1      45.798  28.583  32.429  1.00  0.00     0.029 A 
ATOM     55  C   UNL A   1      44.937  29.683  32.453  1.00  0.00     0.049 A 
ATOM     56  H   UNL A   1      45.252  31.428  31.313  1.00  0.00     0.167 HD
ATOM     57  C   UNL A   1      42.744  30.779  32.880  1.00  0.00     0.074 A 
ATOM     58  C   UNL A   1      42.608  31.712  31.765  1.00  0.00     0.031 C 
ATOM     59  C   UNL A   1      43.763  29.953  33.259  1.00  0.00     0.031 A 
BRANCH  46  60
ATOM     60  C   UNL A   1      45.852  31.152  28.376  1.00  0.00    -0.014 A 
ATOM     61  C   UNL A   1      44.921  32.203  28.434  1.00  0.00     0.010 A 
ATOM     62  C   UNL A   1      46.899  31.272  27.433  1.00  0.00     0.010 A 
ATOM     63  C   UNL A   1      45.015  33.297  27.559  1.00  0.00     0.020 A 
ATOM     64  C   UNL A   1      47.032  32.375  26.596  1.00  0.00     0.020 A 
ATOM     65  C   UNL A   1      46.066  33.367  26.639  1.00  0.00     0.054 A 
BRANCH  65  66
ATOM     66  S   UNL A   1      46.123  34.718  25.439  1.00  0.00     0.124 S 
ATOM     67  O   UNL A   1      45.177  34.259  24.429  1.00  0.00    -0.237 OA
ATOM     68  O   UNL A   1      45.696  35.863  26.239  1.00  0.00    -0.237 OA
ATOM     69  O   UNL A   1      47.523  34.745  25.022  1.00  0.00    -0.744 OA
ENDBRANCH  65  66
ENDBRANCH  46  60
BRANCH  47  70
ATOM     70  C   UNL A   1      38.104  31.212  31.897  1.00  0.00    -0.014 A 
ATOM     71  C   UNL A   1      36.993  30.972  32.724  1.00  0.00     0.010 A 
ATOM     72  C   UNL A   1      38.051  32.360  31.073  1.00  0.00     0.010 A 
ATOM     73  C   UNL A   1      35.901  31.863  32.751  1.00  0.00     0.020 A 
ATOM     74  C   UNL A   1      36.963  33.233  31.070  1.00  0.00     0.020 A 
ATOM     75  C   UNL A   1      35.901  32.996  31.929  1.00  0.00     0.054 A 
BRANCH  75  76
ATOM     76  S   UNL A   1      34.584  34.237  32.078  1.00  0.00     0.124 S 
ATOM     77  O   UNL A   1      33.617  33.564  32.940  1.00  0.00    -0.237 OA
ATOM     78  O   UNL A   1      35.283  35.371  32.674  1.00  0.00    -0.237 OA
ATOM     79  O   UNL A   1      34.146  34.442  30.698  1.00  0.00    -0.744 OA
ENDBRANCH  75  76
ENDBRANCH  47  70
BRANCH  59  80
ATOM     80  C   UNL A   1      43.548  29.045  34.449  1.00  0.00    -0.014 A 
ATOM     81  C   UNL A   1      42.864  27.817  34.370  1.00  0.00     0.010 A 
ATOM     82  C   UNL A   1      44.200  29.374  35.651  1.00  0.00     0.010 A 
ATOM     83  C   UNL A   1      42.812  26.954  35.475  1.00  0.00     0.020 A 
ATOM     84  C   UNL A   1      44.167  28.511  36.749  1.00  0.00     0.020 A 
ATOM     85  C   UNL A   1      43.464  27.308  36.659  1.00  0.00     0.054 A 
BRANCH  85  86
ATOM     86  S   UNL A   1      43.436  26.167  38.071  1.00  0.00     0.124 S 
ATOM     87  O   UNL A   1      44.156  26.914  39.099  1.00  0.00    -0.237 OA
ATOM     88  O   UNL A   1      42.008  25.976  38.313  1.00  0.00    -0.237 OA
ATOM     89  O   UNL A   1      44.131  24.979  37.573  1.00  0.00    -0.744 OA
ENDBRANCH  85  86
ENDBRANCH  59  80
ENDBRANCH  33  34
ENDBRANCH  26  28
ENDBRANCH  25  26
ENDBRANCH   1  25
TORSDOF 18
ENDMDL
MODEL 3
REMARK VINA RESULT:     -10.5      2.408      8.240
REMARK SMILES Cc1n[nH]c(S[C@H]2CC[C@@]([NH2+]C(C)C)(C(=O)OCCOC(=O)c3ccc(-c4c5nc(c(-c6ccc(S(=O)(=O)[O-])cc6)c6ccc([nH]6)c(-c6ccc(S(=O)(=O)[O-])cc6)c6nc(c(-c7ccc(S(=O)(=O)[O-])cc7)c7ccc4[nH]7)C=C6)C=C5)cc3)C2)n1
REMARK SMILES IDX 19 1 18 2 17 3 15 4 16 5 10 6 7 7 8 8 83 9 9 10 6 11 5 12
REMARK SMILES IDX 1 13 2 14 3 15 84 16 4 17 11 19 12 22 13 23 14 24 20 25
REMARK SMILES IDX 21 26 22 27 23 28 24 29 82 30 25 31 81 32 26 33 27 34 28 35
REMARK SMILES IDX 75 36 29 37 80 38 74 39 76 40 30 41 79 42 73 43 72 44 31 46
REMARK SMILES IDX 61 47 42 48 60 49 43 50 46 51 59 52 77 53 44 54 45 55 58 57
REMARK SMILES IDX 78 58 47 59 32 60 33 61 41 62 34 63 40 64 35 65 36 66 37 67
REMARK SMILES IDX 38 68 39 69 62 70 63 71 71 72 64 73 70 74 65 75 66 76 67 77
REMARK SMILES IDX 68 78 69 79 48 80 49 81 57 82 50 83 56 84 51 85 52 86 53 87
REMARK SMILES IDX 54 88 55 89
REMARK H PARENT 4 18 11 20 11 21 76 45 46 56
REMARK Flexibility Score: inf
ROOT
ATOM      1  C   UNL A   1      37.782  21.116  24.953  1.00  0.00     0.275 C 
ENDROOT
BRANCH   1   2
ATOM      2  C   UNL A   1      37.377  22.590  25.034  1.00  0.00     0.274 C 
BRANCH   2   3
ATOM      3  O   UNL A   1      35.959  22.817  24.939  1.00  0.00    -0.457 OA
BRANCH   3   4
ATOM      4  C   UNL A   1      35.468  23.253  23.735  1.00  0.00     0.368 C 
ATOM      5  O   UNL A   1      35.989  23.004  22.650  1.00  0.00    -0.245 OA
BRANCH   4   6
ATOM      6  C   UNL A   1      34.309  24.282  23.932  1.00  0.00     0.195 C 
ATOM      7  C   UNL A   1      32.664  24.268  25.844  1.00  0.00     0.062 C 
ATOM      8  C   UNL A   1      33.495  25.532  25.930  1.00  0.00     0.022 C 
ATOM      9  C   UNL A   1      33.004  23.641  24.481  1.00  0.00     0.096 C 
ATOM     10  C   UNL A   1      34.697  25.319  25.019  1.00  0.00     0.082 C 
BRANCH   7  11
ATOM     11  S   UNL A   1      32.595  23.013  27.143  1.00  0.00    -0.083 SA
BRANCH  11  12
ATOM     12  C   UNL A   1      32.698  21.438  26.461  1.00  0.00     0.183 A 
ATOM     13  C   UNL A   1      34.379  19.043  24.498  1.00  0.00     0.092 C 
ATOM     14  C   UNL A   1      33.413  19.878  25.244  1.00  0.00     0.148 A 
ATOM     15  N   UNL A   1      32.132  19.976  24.873  1.00  0.00    -0.158 NA
ATOM     16  N   UNL A   1      33.776  20.719  26.272  1.00  0.00    -0.206 NA
ATOM     17  N   UNL A   1      31.715  21.002  25.625  1.00  0.00    -0.254 N 
ATOM     18  H   UNL A   1      30.812  21.392  25.579  1.00  0.00     0.192 HD
ENDBRANCH  11  12
ENDBRANCH   7  11
BRANCH   6  19
ATOM     19  N   UNL A   1      34.044  24.961  22.617  1.00  0.00    -0.330 N 
ATOM     20  H   UNL A   1      33.692  24.258  21.967  1.00  0.00     0.347 HD
ATOM     21  H   UNL A   1      34.932  25.380  22.339  1.00  0.00     0.347 HD
BRANCH  19  22
ATOM     22  C   UNL A   1      33.070  26.076  22.648  1.00  0.00     0.176 C 
ATOM     23  C   UNL A   1      33.652  27.453  22.316  1.00  0.00     0.075 C 
ATOM     24  C   UNL A   1      31.941  25.761  21.662  1.00  0.00     0.075 C 
ENDBRANCH  19  22
ENDBRANCH   6  19
ENDBRANCH   4   6
ENDBRANCH   3   4
ENDBRANCH   2   3
ENDBRANCH   1   2
BRANCH   1  25
ATOM     25  O   UNL A   1      38.400  20.641  26.154  1.00  0.00    -0.458 OA
BRANCH  25  26
ATOM     26  C   UNL A   1      39.550  19.983  25.897  1.00  0.00     0.338 C 
ATOM     27  O   UNL A   1      39.652  18.875  25.399  1.00  0.00    -0.246 OA
BRANCH  26  28
ATOM     28  C   UNL A   1      40.715  20.684  26.427  1.00  0.00     0.060 A 
ATOM     29  C   UNL A   1      40.764  20.790  27.812  1.00  0.00     0.016 A 
ATOM     30  C   UNL A   1      41.419  21.556  25.594  1.00  0.00     0.016 A 
ATOM     31  C   UNL A   1      41.278  21.939  28.362  1.00  0.00     0.010 A 
ATOM     32  C   UNL A   1      42.014  22.669  26.160  1.00  0.00     0.010 A 
ATOM     33  C   UNL A   1      41.825  22.918  27.523  1.00  0.00    -0.014 A 
BRANCH  33  34
ATOM     34  C   UNL A   1      42.216  24.181  28.157  1.00  0.00     0.031 A 
ATOM     35  C   UNL A   1      41.241  25.289  27.957  1.00  0.00     0.074 A 
ATOM     36  C   UNL A   1      43.328  24.305  28.909  1.00  0.00     0.049 A 
ATOM     37  N   UNL A   1      41.449  26.494  27.531  1.00  0.00    -0.248 NA
ATOM     38  C   UNL A   1      39.816  24.945  28.129  1.00  0.00     0.031 C 
ATOM     39  C   UNL A   1      44.243  23.233  29.316  1.00  0.00     0.029 A 
ATOM     40  N   UNL A   1      43.806  25.391  29.589  1.00  0.00    -0.354 N 
ATOM     41  C   UNL A   1      40.203  27.113  27.560  1.00  0.00     0.074 A 
ATOM     42  C   UNL A   1      39.224  26.076  27.763  1.00  0.00     0.031 C 
ATOM     43  C   UNL A   1      44.989  23.658  30.353  1.00  0.00     0.029 A 
ATOM     44  C   UNL A   1      44.650  25.040  30.638  1.00  0.00     0.049 A 
ATOM     45  H   UNL A   1      43.578  26.321  29.362  1.00  0.00     0.167 HD
ATOM     46  C   UNL A   1      40.053  28.457  27.694  1.00  0.00     0.031 A 
ATOM     47  C   UNL A   1      44.926  25.764  31.753  1.00  0.00     0.031 A 
ATOM     48  C   UNL A   1      41.210  29.194  27.278  1.00  0.00     0.049 A 
ATOM     49  C   UNL A   1      44.591  27.179  31.465  1.00  0.00     0.074 A 
ATOM     50  C   UNL A   1      41.892  29.331  26.086  1.00  0.00     0.029 A 
ATOM     51  N   UNL A   1      42.037  29.689  28.255  1.00  0.00    -0.354 N 
ATOM     52  N   UNL A   1      45.245  27.920  30.614  1.00  0.00    -0.248 NA
ATOM     53  C   UNL A   1      43.266  27.668  31.818  1.00  0.00     0.031 C 
ATOM     54  C   UNL A   1      43.256  29.501  26.452  1.00  0.00     0.029 A 
ATOM     55  C   UNL A   1      43.331  29.488  27.847  1.00  0.00     0.049 A 
ATOM     56  H   UNL A   1      41.753  30.112  29.098  1.00  0.00     0.167 HD
ATOM     57  C   UNL A   1      44.279  28.716  30.014  1.00  0.00     0.074 A 
ATOM     58  C   UNL A   1      43.107  28.600  30.875  1.00  0.00     0.031 C 
ATOM     59  C   UNL A   1      44.431  29.174  28.736  1.00  0.00     0.031 A 
BRANCH  46  60
ATOM     60  C   UNL A   1      38.989  29.028  28.596  1.00  0.00    -0.014 A 
ATOM     61  C   UNL A   1      37.963  29.825  28.062  1.00  0.00     0.010 A 
ATOM     62  C   UNL A   1      39.132  29.021  30.003  1.00  0.00     0.010 A 
ATOM     63  C   UNL A   1      37.149  30.607  28.898  1.00  0.00     0.020 A 
ATOM     64  C   UNL A   1      38.300  29.752  30.845  1.00  0.00     0.020 A 
ATOM     65  C   UNL A   1      37.334  30.570  30.284  1.00  0.00     0.054 A 
BRANCH  65  66
ATOM     66  S   UNL A   1      36.362  31.660  31.350  1.00  0.00     0.124 S 
ATOM     67  O   UNL A   1      37.288  32.766  31.567  1.00  0.00    -0.237 OA
ATOM     68  O   UNL A   1      35.200  31.956  30.516  1.00  0.00    -0.237 OA
ATOM     69  O   UNL A   1      36.086  30.834  32.523  1.00  0.00    -0.744 OA
ENDBRANCH  65  66
ENDBRANCH  46  60
BRANCH  47  70
ATOM     70  C   UNL A   1      45.098  25.205  33.126  1.00  0.00    -0.014 A 
ATOM     71  C   UNL A   1      44.124  24.386  33.724  1.00  0.00     0.010 A 
ATOM     72  C   UNL A   1      46.345  25.300  33.783  1.00  0.00     0.010 A 
ATOM     73  C   UNL A   1      44.407  23.665  34.902  1.00  0.00     0.020 A 
ATOM     74  C   UNL A   1      46.626  24.614  34.966  1.00  0.00     0.020 A 
ATOM     75  C   UNL A   1      45.663  23.777  35.508  1.00  0.00     0.054 A 
BRANCH  75  76
ATOM     76  S   UNL A   1      46.094  22.727  36.926  1.00  0.00     0.124 S 
ATOM     77  O   UNL A   1      45.644  21.410  36.486  1.00  0.00    -0.237 OA
ATOM     78  O   UNL A   1      47.540  22.904  37.022  1.00  0.00    -0.237 OA
ATOM     79  O   UNL A   1      45.329  23.306  38.029  1.00  0.00    -0.744 OA
ENDBRANCH  75  76
ENDBRANCH  47  70
BRANCH  59  80
ATOM     80  C   UNL A   1      45.800  29.090  28.100  1.00  0.00    -0.014 A 
ATOM     81  C   UNL A   1      46.733  30.144  28.132  1.00  0.00     0.010 A 
ATOM     82  C   UNL A   1      46.211  27.845  27.593  1.00  0.00     0.010 A 
ATOM     83  C   UNL A   1      48.035  29.963  27.644  1.00  0.00     0.020 A 
ATOM     84  C   UNL A   1      47.513  27.653  27.121  1.00  0.00     0.020 A 
ATOM     85  C   UNL A   1      48.417  28.717  27.140  1.00  0.00     0.054 A 
BRANCH  85  86
ATOM     86  S   UNL A   1      50.118  28.471  26.553  1.00  0.00     0.124 S 
ATOM     87  O   UNL A   1      49.933  28.257  25.121  1.00  0.00    -0.237 OA
ATOM     88  O   UNL A   1      50.778  29.720  26.925  1.00  0.00    -0.237 OA
ATOM     89  O   UNL A   1      50.576  27.297  27.297  1.00  0.00    -0.744 OA
ENDBRANCH  85  86
ENDBRANCH  59  80
ENDBRANCH  33  34
ENDBRANCH  26  28
ENDBRANCH  25  26
ENDBRANCH   1  25
TORSDOF 18
ENDMDL
