MODEL 1
REMARK VINA RESULT:     -10.1      0.000      0.000
REMARK SMILES Cc1cc(C)c2c(c1)C=C(C(=O)OCCOC(=O)c1ccc(-c3c4nc(c(-c5ccc(S(=O)(=O)[O-])cc5)c5ccc([nH]5)c(-c5ccc(S(=O)(=O)[O-])cc5)c5nc(c(-c6ccc(S(=O)(=O)[O-])cc6)c6ccc3[nH]6)C=C5)C=C4)cc1)[C@@H](C(F)(F)F)O2
REMARK SMILES IDX 15 1 14 2 13 3 11 4 12 5 10 6 1 7 2 8 3 9 8 10 4 11 7 12
REMARK SMILES IDX 5 13 6 14 9 15 84 16 79 17 80 18 81 19 82 20 83 21 16 22
REMARK SMILES IDX 17 23 18 24 19 25 20 26 78 27 21 28 77 29 22 30 23 31 24 32
REMARK SMILES IDX 71 33 25 34 76 35 70 36 72 37 26 38 75 39 69 40 68 41 27 43
REMARK SMILES IDX 57 44 38 45 56 46 39 47 42 48 55 49 73 50 40 51 41 52 54 54
REMARK SMILES IDX 74 55 43 56 28 57 29 58 37 59 30 60 36 61 31 62 32 63 33 64
REMARK SMILES IDX 34 65 35 66 58 67 59 68 67 69 60 70 66 71 61 72 62 73 63 74
REMARK SMILES IDX 64 75 65 76 44 77 45 78 53 79 46 80 52 81 47 82 48 83 49 84
REMARK SMILES IDX 50 85 51 86
REMARK H PARENT 72 42 42 53
REMARK Flexibility Score: inf
ROOT
ATOM      1  C   UNL A   1      40.909  20.173  26.408  1.00  0.00     0.275 C 
ENDROOT
BRANCH   1   2
ATOM      2  C   UNL A   1      42.353  19.997  26.878  1.00  0.00     0.275 C 
BRANCH   2   3
ATOM      3  O   UNL A   1      43.289  20.486  25.893  1.00  0.00    -0.459 OA
BRANCH   3   4
ATOM      4  C   UNL A   1      43.255  21.821  25.677  1.00  0.00     0.338 C 
ATOM      5  O   UNL A   1      42.446  22.425  24.990  1.00  0.00    -0.246 OA
BRANCH   4   6
ATOM      6  C   UNL A   1      44.347  22.495  26.401  1.00  0.00     0.087 C 
ATOM      7  C   UNL A   1      45.311  26.368  31.093  1.00  0.00     0.044 C 
ATOM      8  C   UNL A   1      45.667  25.543  29.891  1.00  0.00    -0.050 A 
ATOM      9  C   UNL A   1      46.949  25.617  29.330  1.00  0.00     0.010 A 
ATOM     10  C   UNL A   1      44.730  24.684  29.314  1.00  0.00     0.015 A 
ATOM     11  C   UNL A   1      47.295  24.855  28.201  1.00  0.00    -0.008 A 
ATOM     12  C   UNL A   1      45.059  23.933  28.178  1.00  0.00     0.018 A 
ATOM     13  C   UNL A   1      48.670  24.966  27.612  1.00  0.00     0.048 C 
ATOM     14  C   UNL A   1      46.336  24.010  27.623  1.00  0.00     0.130 A 
ATOM     15  C   UNL A   1      44.047  23.111  27.548  1.00  0.00     0.027 C 
ATOM     16  O   UNL A   1      46.713  23.277  26.528  1.00  0.00    -0.475 OA
ATOM     17  C   UNL A   1      45.692  22.596  25.748  1.00  0.00     0.316 C 
BRANCH  17  18
ATOM     18  C   UNL A   1      45.595  23.259  24.365  1.00  0.00     0.430 C 
ATOM     19  F   UNL A   1      45.090  22.404  23.443  1.00  0.00    -0.167 F 
ATOM     20  F   UNL A   1      44.762  24.330  24.385  1.00  0.00    -0.167 F 
ATOM     21  F   UNL A   1      46.793  23.686  23.909  1.00  0.00    -0.167 F 
ENDBRANCH  17  18
ENDBRANCH   4   6
ENDBRANCH   3   4
ENDBRANCH   2   3
ENDBRANCH   1   2
BRANCH   1  22
ATOM     22  O   UNL A   1      40.226  21.126  27.241  1.00  0.00    -0.458 OA
BRANCH  22  23
ATOM     23  C   UNL A   1      39.514  22.065  26.577  1.00  0.00     0.338 C 
ATOM     24  O   UNL A   1      38.699  21.883  25.689  1.00  0.00    -0.246 OA
BRANCH  23  25
ATOM     25  C   UNL A   1      39.794  23.399  27.130  1.00  0.00     0.060 A 
ATOM     26  C   UNL A   1      39.369  24.516  26.423  1.00  0.00     0.016 A 
ATOM     27  C   UNL A   1      40.646  23.548  28.221  1.00  0.00     0.016 A 
ATOM     28  C   UNL A   1      39.933  25.759  26.684  1.00  0.00     0.010 A 
ATOM     29  C   UNL A   1      41.082  24.830  28.585  1.00  0.00     0.010 A 
ATOM     30  C   UNL A   1      40.782  25.947  27.782  1.00  0.00    -0.014 A 
BRANCH  30  31
ATOM     31  C   UNL A   1      41.375  27.292  28.057  1.00  0.00     0.031 A 
ATOM     32  C   UNL A   1      42.769  27.626  27.576  1.00  0.00     0.074 A 
ATOM     33  C   UNL A   1      40.656  28.235  28.703  1.00  0.00     0.049 A 
ATOM     34  N   UNL A   1      43.506  28.674  27.848  1.00  0.00    -0.248 NA
ATOM     35  C   UNL A   1      43.427  26.654  26.686  1.00  0.00     0.031 C 
ATOM     36  C   UNL A   1      39.277  28.081  29.176  1.00  0.00     0.029 A 
ATOM     37  N   UNL A   1      40.974  29.526  29.055  1.00  0.00    -0.354 N 
ATOM     38  C   UNL A   1      44.727  28.459  27.215  1.00  0.00     0.074 A 
ATOM     39  C   UNL A   1      44.639  27.175  26.557  1.00  0.00     0.031 C 
ATOM     40  C   UNL A   1      38.845  29.245  29.680  1.00  0.00     0.029 A 
ATOM     41  C   UNL A   1      39.949  30.196  29.683  1.00  0.00     0.049 A 
ATOM     42  H   UNL A   1      41.852  29.932  28.875  1.00  0.00     0.167 HD
ATOM     43  C   UNL A   1      45.819  29.261  27.180  1.00  0.00     0.031 A 
ATOM     44  C   UNL A   1      39.901  31.420  30.244  1.00  0.00     0.031 A 
ATOM     45  C   UNL A   1      45.884  30.562  27.794  1.00  0.00     0.049 A 
ATOM     46  C   UNL A   1      41.146  32.260  30.256  1.00  0.00     0.074 A 
ATOM     47  C   UNL A   1      46.942  31.453  27.808  1.00  0.00     0.029 A 
ATOM     48  N   UNL A   1      44.844  31.163  28.486  1.00  0.00    -0.354 N 
ATOM     49  N   UNL A   1      42.309  32.012  29.703  1.00  0.00    -0.248 NA
ATOM     50  C   UNL A   1      41.083  33.530  30.993  1.00  0.00     0.031 C 
ATOM     51  C   UNL A   1      46.559  32.573  28.552  1.00  0.00     0.029 A 
ATOM     52  C   UNL A   1      45.244  32.404  28.953  1.00  0.00     0.049 A 
ATOM     53  H   UNL A   1      43.953  30.767  28.625  1.00  0.00     0.167 HD
ATOM     54  C   UNL A   1      43.117  33.095  30.026  1.00  0.00     0.074 A 
ATOM     55  C   UNL A   1      42.302  34.013  30.795  1.00  0.00     0.031 C 
ATOM     56  C   UNL A   1      44.421  33.303  29.722  1.00  0.00     0.031 A 
BRANCH  43  57
ATOM     57  C   UNL A   1      47.051  28.750  26.474  1.00  0.00    -0.014 A 
ATOM     58  C   UNL A   1      48.300  28.703  27.118  1.00  0.00     0.010 A 
ATOM     59  C   UNL A   1      46.941  28.252  25.162  1.00  0.00     0.010 A 
ATOM     60  C   UNL A   1      49.421  28.199  26.452  1.00  0.00     0.020 A 
ATOM     61  C   UNL A   1      48.053  27.721  24.502  1.00  0.00     0.020 A 
ATOM     62  C   UNL A   1      49.291  27.711  25.147  1.00  0.00     0.054 A 
BRANCH  62  63
ATOM     63  S   UNL A   1      50.759  27.036  24.321  1.00  0.00     0.124 S 
ATOM     64  O   UNL A   1      50.993  25.810  25.081  1.00  0.00    -0.237 OA
ATOM     65  O   UNL A   1      50.293  26.844  22.951  1.00  0.00    -0.237 OA
ATOM     66  O   UNL A   1      51.768  28.077  24.496  1.00  0.00    -0.744 OA
ENDBRANCH  62  63
ENDBRANCH  43  57
BRANCH  44  67
ATOM     67  C   UNL A   1      38.645  31.896  30.890  1.00  0.00    -0.014 A 
ATOM     68  C   UNL A   1      38.400  31.640  32.250  1.00  0.00     0.010 A 
ATOM     69  C   UNL A   1      37.701  32.637  30.155  1.00  0.00     0.010 A 
ATOM     70  C   UNL A   1      37.235  32.114  32.861  1.00  0.00     0.020 A 
ATOM     71  C   UNL A   1      36.552  33.142  30.770  1.00  0.00     0.020 A 
ATOM     72  C   UNL A   1      36.322  32.870  32.119  1.00  0.00     0.054 A 
BRANCH  72  73
ATOM     73  S   UNL A   1      34.851  33.529  32.951  1.00  0.00     0.124 S 
ATOM     74  O   UNL A   1      34.882  34.933  32.559  1.00  0.00    -0.237 OA
ATOM     75  O   UNL A   1      33.776  32.731  32.366  1.00  0.00    -0.237 OA
ATOM     76  O   UNL A   1      35.112  33.267  34.365  1.00  0.00    -0.744 OA
ENDBRANCH  72  73
ENDBRANCH  44  67
BRANCH  56  77
ATOM     77  C   UNL A   1      45.055  34.573  30.217  1.00  0.00    -0.014 A 
ATOM     78  C   UNL A   1      45.046  35.735  29.425  1.00  0.00     0.010 A 
ATOM     79  C   UNL A   1      45.586  34.630  31.518  1.00  0.00     0.010 A 
ATOM     80  C   UNL A   1      45.564  36.932  29.924  1.00  0.00     0.020 A 
ATOM     81  C   UNL A   1      46.080  35.832  32.030  1.00  0.00     0.020 A 
ATOM     82  C   UNL A   1      46.070  36.974  31.227  1.00  0.00     0.054 A 
BRANCH  82  83
ATOM     83  S   UNL A   1      46.664  38.560  31.875  1.00  0.00     0.124 S 
ATOM     84  O   UNL A   1      47.455  39.070  30.758  1.00  0.00    -0.237 OA
ATOM     85  O   UNL A   1      45.421  39.279  32.144  1.00  0.00    -0.237 OA
ATOM     86  O   UNL A   1      47.430  38.187  33.062  1.00  0.00    -0.744 OA
ENDBRANCH  82  83
ENDBRANCH  56  77
ENDBRANCH  30  31
ENDBRANCH  23  25
ENDBRANCH  22  23
ENDBRANCH   1  22
TORSDOF 15
ENDMDL
MODEL 2
REMARK VINA RESULT:     -10.0      5.491     10.318
REMARK SMILES Cc1cc(C)c2c(c1)C=C(C(=O)OCCOC(=O)c1ccc(-c3c4nc(c(-c5ccc(S(=O)(=O)[O-])cc5)c5ccc([nH]5)c(-c5ccc(S(=O)(=O)[O-])cc5)c5nc(c(-c6ccc(S(=O)(=O)[O-])cc6)c6ccc3[nH]6)C=C5)C=C4)cc1)[C@@H](C(F)(F)F)O2
REMARK SMILES IDX 15 1 14 2 13 3 11 4 12 5 10 6 1 7 2 8 3 9 8 10 4 11 7 12
REMARK SMILES IDX 5 13 6 14 9 15 84 16 79 17 80 18 81 19 82 20 83 21 16 22
REMARK SMILES IDX 17 23 18 24 19 25 20 26 78 27 21 28 77 29 22 30 23 31 24 32
REMARK SMILES IDX 71 33 25 34 76 35 70 36 72 37 26 38 75 39 69 40 68 41 27 43
REMARK SMILES IDX 57 44 38 45 56 46 39 47 42 48 55 49 73 50 40 51 41 52 54 54
REMARK SMILES IDX 74 55 43 56 28 57 29 58 37 59 30 60 36 61 31 62 32 63 33 64
REMARK SMILES IDX 34 65 35 66 58 67 59 68 67 69 60 70 66 71 61 72 62 73 63 74
REMARK SMILES IDX 64 75 65 76 44 77 45 78 53 79 46 80 52 81 47 82 48 83 49 84
REMARK SMILES IDX 50 85 51 86
REMARK H PARENT 72 42 42 53
REMARK Flexibility Score: inf
ROOT
ATOM      1  C   UNL A   1      33.666  33.702  28.062  1.00  0.00     0.275 C 
ENDROOT
BRANCH   1   2
ATOM      2  C   UNL A   1      34.405  34.835  28.774  1.00  0.00     0.275 C 
BRANCH   2   3
ATOM      3  O   UNL A   1      34.150  34.817  30.195  1.00  0.00    -0.459 OA
BRANCH   3   4
ATOM      4  C   UNL A   1      34.703  33.783  30.868  1.00  0.00     0.338 C 
ATOM      5  O   UNL A   1      34.287  32.635  30.906  1.00  0.00    -0.246 OA
BRANCH   4   6
ATOM      6  C   UNL A   1      35.922  34.212  31.576  1.00  0.00     0.087 C 
ATOM      7  C   UNL A   1      42.061  33.921  31.161  1.00  0.00     0.044 C 
ATOM      8  C   UNL A   1      40.734  34.214  31.800  1.00  0.00    -0.050 A 
ATOM      9  C   UNL A   1      40.665  34.648  33.130  1.00  0.00     0.010 A 
ATOM     10  C   UNL A   1      39.549  34.065  31.078  1.00  0.00     0.015 A 
ATOM     11  C   UNL A   1      39.429  34.921  33.743  1.00  0.00    -0.008 A 
ATOM     12  C   UNL A   1      38.312  34.317  31.685  1.00  0.00     0.018 A 
ATOM     13  C   UNL A   1      39.384  35.369  35.174  1.00  0.00     0.048 C 
ATOM     14  C   UNL A   1      38.246  34.748  33.009  1.00  0.00     0.130 A 
ATOM     15  C   UNL A   1      37.091  34.077  30.944  1.00  0.00     0.027 C 
ATOM     16  O   UNL A   1      37.062  35.032  33.639  1.00  0.00    -0.475 OA
ATOM     17  C   UNL A   1      35.814  34.624  33.013  1.00  0.00     0.316 C 
BRANCH  17  18
ATOM     18  C   UNL A   1      35.166  33.522  33.865  1.00  0.00     0.430 C 
ATOM     19  F   UNL A   1      33.821  33.497  33.698  1.00  0.00    -0.167 F 
ATOM     20  F   UNL A   1      35.615  32.291  33.511  1.00  0.00    -0.167 F 
ATOM     21  F   UNL A   1      35.408  33.677  35.186  1.00  0.00    -0.167 F 
ENDBRANCH  17  18
ENDBRANCH   4   6
ENDBRANCH   3   4
ENDBRANCH   2   3
ENDBRANCH   1   2
BRANCH   1  22
ATOM     22  O   UNL A   1      34.602  32.840  27.391  1.00  0.00    -0.458 OA
BRANCH  22  23
ATOM     23  C   UNL A   1      34.467  31.522  27.661  1.00  0.00     0.338 C 
ATOM     24  O   UNL A   1      33.475  30.832  27.497  1.00  0.00    -0.246 OA
BRANCH  23  25
ATOM     25  C   UNL A   1      35.746  30.967  28.130  1.00  0.00     0.060 A 
ATOM     26  C   UNL A   1      35.749  29.716  28.732  1.00  0.00     0.016 A 
ATOM     27  C   UNL A   1      36.891  31.758  28.164  1.00  0.00     0.016 A 
ATOM     28  C   UNL A   1      36.824  29.328  29.523  1.00  0.00     0.010 A 
ATOM     29  C   UNL A   1      38.034  31.289  28.826  1.00  0.00     0.010 A 
ATOM     30  C   UNL A   1      37.996  30.094  29.569  1.00  0.00    -0.014 A 
BRANCH  30  31
ATOM     31  C   UNL A   1      39.148  29.660  30.418  1.00  0.00     0.031 A 
ATOM     32  C   UNL A   1      40.197  28.724  29.862  1.00  0.00     0.074 A 
ATOM     33  C   UNL A   1      39.285  30.132  31.676  1.00  0.00     0.049 A 
ATOM     34  N   UNL A   1      41.177  28.119  30.486  1.00  0.00    -0.248 NA
ATOM     35  C   UNL A   1      40.131  28.415  28.423  1.00  0.00     0.031 C 
ATOM     36  C   UNL A   1      38.386  31.088  32.330  1.00  0.00     0.029 A 
ATOM     37  N   UNL A   1      40.249  29.893  32.627  1.00  0.00    -0.354 N 
ATOM     38  C   UNL A   1      41.802  27.318  29.534  1.00  0.00     0.074 A 
ATOM     39  C   UNL A   1      41.083  27.501  28.293  1.00  0.00     0.031 C 
ATOM     40  C   UNL A   1      38.878  31.410  33.534  1.00  0.00     0.029 A 
ATOM     41  C   UNL A   1      40.059  30.597  33.794  1.00  0.00     0.049 A 
ATOM     42  H   UNL A   1      41.002  29.276  32.487  1.00  0.00     0.167 HD
ATOM     43  C   UNL A   1      42.880  26.509  29.679  1.00  0.00     0.031 A 
ATOM     44  C   UNL A   1      40.723  30.568  34.966  1.00  0.00     0.031 A 
ATOM     45  C   UNL A   1      43.624  26.370  30.904  1.00  0.00     0.049 A 
ATOM     46  C   UNL A   1      41.869  29.610  35.125  1.00  0.00     0.074 A 
ATOM     47  C   UNL A   1      44.734  25.582  31.150  1.00  0.00     0.029 A 
ATOM     48  N   UNL A   1      43.344  27.046  32.082  1.00  0.00    -0.354 N 
ATOM     49  N   UNL A   1      42.407  28.817  34.230  1.00  0.00    -0.248 NA
ATOM     50  C   UNL A   1      42.478  29.520  36.459  1.00  0.00     0.031 C 
ATOM     51  C   UNL A   1      45.095  25.743  32.491  1.00  0.00     0.029 A 
ATOM     52  C   UNL A   1      44.245  26.674  33.065  1.00  0.00     0.049 A 
ATOM     53  H   UNL A   1      42.612  27.695  32.201  1.00  0.00     0.167 HD
ATOM     54  C   UNL A   1      43.418  28.133  34.893  1.00  0.00     0.074 A 
ATOM     55  C   UNL A   1      43.437  28.627  36.254  1.00  0.00     0.031 C 
ATOM     56  C   UNL A   1      44.247  27.173  34.417  1.00  0.00     0.031 A 
BRANCH  43  57
ATOM     57  C   UNL A   1      43.313  25.687  28.491  1.00  0.00    -0.014 A 
ATOM     58  C   UNL A   1      44.317  26.135  27.615  1.00  0.00     0.010 A 
ATOM     59  C   UNL A   1      42.745  24.415  28.285  1.00  0.00     0.010 A 
ATOM     60  C   UNL A   1      44.721  25.342  26.536  1.00  0.00     0.020 A 
ATOM     61  C   UNL A   1      43.166  23.607  27.224  1.00  0.00     0.020 A 
ATOM     62  C   UNL A   1      44.143  24.082  26.348  1.00  0.00     0.054 A 
BRANCH  62  63
ATOM     63  S   UNL A   1      44.711  23.064  24.957  1.00  0.00     0.124 S 
ATOM     64  O   UNL A   1      45.565  24.000  24.230  1.00  0.00    -0.237 OA
ATOM     65  O   UNL A   1      45.407  21.970  25.627  1.00  0.00    -0.237 OA
ATOM     66  O   UNL A   1      43.476  22.689  24.272  1.00  0.00    -0.744 OA
ENDBRANCH  62  63
ENDBRANCH  43  57
BRANCH  44  67
ATOM     67  C   UNL A   1      40.281  31.434  36.095  1.00  0.00    -0.014 A 
ATOM     68  C   UNL A   1      38.967  31.351  36.588  1.00  0.00     0.010 A 
ATOM     69  C   UNL A   1      41.183  32.326  36.707  1.00  0.00     0.010 A 
ATOM     70  C   UNL A   1      38.564  32.142  37.667  1.00  0.00     0.020 A 
ATOM     71  C   UNL A   1      40.794  33.094  37.808  1.00  0.00     0.020 A 
ATOM     72  C   UNL A   1      39.483  33.003  38.277  1.00  0.00     0.054 A 
BRANCH  72  73
ATOM     73  S   UNL A   1      38.953  33.971  39.716  1.00  0.00     0.124 S 
ATOM     74  O   UNL A   1      38.950  35.329  39.185  1.00  0.00    -0.237 OA
ATOM     75  O   UNL A   1      37.639  33.403  40.010  1.00  0.00    -0.237 OA
ATOM     76  O   UNL A   1      39.982  33.691  40.715  1.00  0.00    -0.744 OA
ENDBRANCH  72  73
ENDBRANCH  44  67
BRANCH  56  77
ATOM     77  C   UNL A   1      45.251  26.588  35.371  1.00  0.00    -0.014 A 
ATOM     78  C   UNL A   1      44.959  25.416  36.091  1.00  0.00     0.010 A 
ATOM     79  C   UNL A   1      46.530  27.164  35.481  1.00  0.00     0.010 A 
ATOM     80  C   UNL A   1      45.927  24.834  36.912  1.00  0.00     0.020 A 
ATOM     81  C   UNL A   1      47.509  26.569  36.280  1.00  0.00     0.020 A 
ATOM     82  C   UNL A   1      47.199  25.410  36.994  1.00  0.00     0.054 A 
BRANCH  82  83
ATOM     83  S   UNL A   1      48.458  24.587  38.007  1.00  0.00     0.124 S 
ATOM     84  O   UNL A   1      47.728  24.317  39.243  1.00  0.00    -0.237 OA
ATOM     85  O   UNL A   1      48.794  23.414  37.206  1.00  0.00    -0.237 OA
ATOM     86  O   UNL A   1      49.521  25.584  38.118  1.00  0.00    -0.744 OA
ENDBRANCH  82  83
ENDBRANCH  56  77
ENDBRANCH  30  31
ENDBRANCH  23  25
ENDBRANCH  22  23
ENDBRANCH   1  22
TORSDOF 15
ENDMDL
MODEL 3
REMARK VINA RESULT:     -10.0      5.275     12.472
REMARK SMILES Cc1cc(C)c2c(c1)C=C(C(=O)OCCOC(=O)c1ccc(-c3c4nc(c(-c5ccc(S(=O)(=O)[O-])cc5)c5ccc([nH]5)c(-c5ccc(S(=O)(=O)[O-])cc5)c5nc(c(-c6ccc(S(=O)(=O)[O-])cc6)c6ccc3[nH]6)C=C5)C=C4)cc1)[C@@H](C(F)(F)F)O2
REMARK SMILES IDX 15 1 14 2 13 3 11 4 12 5 10 6 1 7 2 8 3 9 8 10 4 11 7 12
REMARK SMILES IDX 5 13 6 14 9 15 84 16 79 17 80 18 81 19 82 20 83 21 16 22
REMARK SMILES IDX 17 23 18 24 19 25 20 26 78 27 21 28 77 29 22 30 23 31 24 32
REMARK SMILES IDX 71 33 25 34 76 35 70 36 72 37 26 38 75 39 69 40 68 41 27 43
REMARK SMILES IDX 57 44 38 45 56 46 39 47 42 48 55 49 73 50 40 51 41 52 54 54
REMARK SMILES IDX 74 55 43 56 28 57 29 58 37 59 30 60 36 61 31 62 32 63 33 64
REMARK SMILES IDX 34 65 35 66 58 67 59 68 67 69 60 70 66 71 61 72 62 73 63 74
REMARK SMILES IDX 64 75 65 76 44 77 45 78 53 79 46 80 52 81 47 82 48 83 49 84
REMARK SMILES IDX 50 85 51 86
REMARK H PARENT 72 42 42 53
REMARK Flexibility Score: inf
ROOT
ATOM      1  C   UNL A   1      33.628  33.757  28.134  1.00  0.00     0.275 C 
ENDROOT
BRANCH   1   2
ATOM      2  C   UNL A   1      34.242  34.884  28.964  1.00  0.00     0.275 C 
BRANCH   2   3
ATOM      3  O   UNL A   1      34.023  34.675  30.377  1.00  0.00    -0.459 OA
BRANCH   3   4
ATOM      4  C   UNL A   1      34.668  33.613  30.910  1.00  0.00     0.338 C 
ATOM      5  O   UNL A   1      34.317  32.445  30.850  1.00  0.00    -0.246 OA
BRANCH   4   6
ATOM      6  C   UNL A   1      35.899  34.041  31.596  1.00  0.00     0.087 C 
ATOM      7  C   UNL A   1      42.023  33.461  31.257  1.00  0.00     0.044 C 
ATOM      8  C   UNL A   1      40.706  33.855  31.861  1.00  0.00    -0.050 A 
ATOM      9  C   UNL A   1      40.648  34.386  33.156  1.00  0.00     0.010 A 
ATOM     10  C   UNL A   1      39.520  33.704  31.142  1.00  0.00     0.015 A 
ATOM     11  C   UNL A   1      39.421  34.754  33.737  1.00  0.00    -0.008 A 
ATOM     12  C   UNL A   1      38.291  34.051  31.718  1.00  0.00     0.018 A 
ATOM     13  C   UNL A   1      39.388  35.306  35.132  1.00  0.00     0.048 C 
ATOM     14  C   UNL A   1      38.236  34.579  33.008  1.00  0.00     0.130 A 
ATOM     15  C   UNL A   1      37.065  33.811  30.985  1.00  0.00     0.027 C 
ATOM     16  O   UNL A   1      37.062  34.958  33.604  1.00  0.00    -0.475 OA
ATOM     17  C   UNL A   1      35.802  34.559  32.999  1.00  0.00     0.316 C 
BRANCH  17  18
ATOM     18  C   UNL A   1      35.102  33.549  33.922  1.00  0.00     0.430 C 
ATOM     19  F   UNL A   1      35.623  32.307  33.778  1.00  0.00    -0.167 F 
ATOM     20  F   UNL A   1      35.261  33.878  35.229  1.00  0.00    -0.167 F 
ATOM     21  F   UNL A   1      33.774  33.463  33.685  1.00  0.00    -0.167 F 
ENDBRANCH  17  18
ENDBRANCH   4   6
ENDBRANCH   3   4
ENDBRANCH   2   3
ENDBRANCH   1   2
BRANCH   1  22
ATOM     22  O   UNL A   1      34.662  32.995  27.486  1.00  0.00    -0.458 OA
BRANCH  22  23
ATOM     23  C   UNL A   1      34.515  31.652  27.552  1.00  0.00     0.338 C 
ATOM     24  O   UNL A   1      33.532  31.001  27.246  1.00  0.00    -0.246 OA
BRANCH  23  25
ATOM     25  C   UNL A   1      35.773  31.026  27.990  1.00  0.00     0.060 A 
ATOM     26  C   UNL A   1      35.733  29.731  28.489  1.00  0.00     0.016 A 
ATOM     27  C   UNL A   1      36.938  31.779  28.100  1.00  0.00     0.016 A 
ATOM     28  C   UNL A   1      36.786  29.250  29.259  1.00  0.00     0.010 A 
ATOM     29  C   UNL A   1      38.059  31.226  28.735  1.00  0.00     0.010 A 
ATOM     30  C   UNL A   1      37.978  29.977  29.379  1.00  0.00    -0.014 A 
BRANCH  30  31
ATOM     31  C   UNL A   1      39.107  29.445  30.203  1.00  0.00     0.031 A 
ATOM     32  C   UNL A   1      39.252  29.849  31.653  1.00  0.00     0.074 A 
ATOM     33  C   UNL A   1      39.984  28.566  29.671  1.00  0.00     0.049 A 
ATOM     34  N   UNL A   1      40.242  29.617  32.478  1.00  0.00    -0.248 NA
ATOM     35  C   UNL A   1      38.152  30.625  32.250  1.00  0.00     0.031 C 
ATOM     36  C   UNL A   1      39.939  28.037  28.305  1.00  0.00     0.029 A 
ATOM     37  N   UNL A   1      41.077  27.940  30.223  1.00  0.00    -0.354 N 
ATOM     38  C   UNL A   1      39.912  30.265  33.665  1.00  0.00     0.074 A 
ATOM     39  C   UNL A   1      38.637  30.913  33.450  1.00  0.00     0.031 C 
ATOM     40  C   UNL A   1      40.901  27.117  28.151  1.00  0.00     0.029 A 
ATOM     41  C   UNL A   1      41.711  27.074  29.361  1.00  0.00     0.049 A 
ATOM     42  H   UNL A   1      41.377  28.096  31.147  1.00  0.00     0.167 HD
ATOM     43  C   UNL A   1      40.604  30.311  34.830  1.00  0.00     0.031 A 
ATOM     44  C   UNL A   1      42.843  26.356  29.498  1.00  0.00     0.031 A 
ATOM     45  C   UNL A   1      41.848  29.621  35.055  1.00  0.00     0.049 A 
ATOM     46  C   UNL A   1      43.630  26.481  30.771  1.00  0.00     0.074 A 
ATOM     47  C   UNL A   1      42.622  29.599  36.202  1.00  0.00     0.029 A 
ATOM     48  N   UNL A   1      42.489  28.819  34.124  1.00  0.00    -0.354 N 
ATOM     49  N   UNL A   1      43.329  27.147  31.860  1.00  0.00    -0.248 NA
ATOM     50  C   UNL A   1      44.922  25.782  30.824  1.00  0.00     0.031 C 
ATOM     51  C   UNL A   1      43.757  28.825  35.947  1.00  0.00     0.029 A 
ATOM     52  C   UNL A   1      43.663  28.318  34.661  1.00  0.00     0.049 A 
ATOM     53  H   UNL A   1      42.159  28.634  33.214  1.00  0.00     0.167 HD
ATOM     54  C   UNL A   1      44.396  26.949  32.728  1.00  0.00     0.074 A 
ATOM     55  C   UNL A   1      45.333  26.076  32.050  1.00  0.00     0.031 C 
ATOM     56  C   UNL A   1      44.587  27.455  33.970  1.00  0.00     0.031 A 
BRANCH  43  57
ATOM     57  C   UNL A   1      40.049  31.154  35.950  1.00  0.00    -0.014 A 
ATOM     58  C   UNL A   1      38.770  30.918  36.483  1.00  0.00     0.010 A 
ATOM     59  C   UNL A   1      40.850  32.164  36.519  1.00  0.00     0.010 A 
ATOM     60  C   UNL A   1      38.289  31.697  37.541  1.00  0.00     0.020 A 
ATOM     61  C   UNL A   1      40.384  32.925  37.595  1.00  0.00     0.020 A 
ATOM     62  C   UNL A   1      39.099  32.696  38.091  1.00  0.00     0.054 A 
BRANCH  62  63
ATOM     63  S   UNL A   1      38.458  33.668  39.483  1.00  0.00     0.124 S 
ATOM     64  O   UNL A   1      38.898  35.017  39.134  1.00  0.00    -0.237 OA
ATOM     65  O   UNL A   1      37.019  33.436  39.397  1.00  0.00    -0.237 OA
ATOM     66  O   UNL A   1      39.114  33.082  40.649  1.00  0.00    -0.744 OA
ENDBRANCH  62  63
ENDBRANCH  43  57
BRANCH  44  67
ATOM     67  C   UNL A   1      43.324  25.502  28.376  1.00  0.00    -0.014 A 
ATOM     68  C   UNL A   1      43.064  24.121  28.367  1.00  0.00     0.010 A 
ATOM     69  C   UNL A   1      44.018  26.071  27.291  1.00  0.00     0.010 A 
ATOM     70  C   UNL A   1      43.489  23.327  27.298  1.00  0.00     0.020 A 
ATOM     71  C   UNL A   1      44.415  25.288  26.205  1.00  0.00     0.020 A 
ATOM     72  C   UNL A   1      44.154  23.917  26.218  1.00  0.00     0.054 A 
BRANCH  72  73
ATOM     73  S   UNL A   1      44.638  22.876  24.814  1.00  0.00     0.124 S 
ATOM     74  O   UNL A   1      43.398  22.801  24.050  1.00  0.00    -0.237 OA
ATOM     75  O   UNL A   1      45.713  23.653  24.202  1.00  0.00    -0.237 OA
ATOM     76  O   UNL A   1      45.062  21.627  25.443  1.00  0.00    -0.744 OA
ENDBRANCH  72  73
ENDBRANCH  44  67
BRANCH  56  77
ATOM     77  C   UNL A   1      45.854  27.080  34.686  1.00  0.00    -0.014 A 
ATOM     78  C   UNL A   1      45.918  25.913  35.468  1.00  0.00     0.010 A 
ATOM     79  C   UNL A   1      47.016  27.852  34.504  1.00  0.00     0.010 A 
ATOM     80  C   UNL A   1      47.121  25.528  36.063  1.00  0.00     0.020 A 
ATOM     81  C   UNL A   1      48.227  27.455  35.075  1.00  0.00     0.020 A 
ATOM     82  C   UNL A   1      48.270  26.298  35.855  1.00  0.00     0.054 A 
BRANCH  82  83
ATOM     83  S   UNL A   1      49.835  25.730  36.576  1.00  0.00     0.124 S 
ATOM     84  O   UNL A   1      49.804  24.300  36.286  1.00  0.00    -0.237 OA
ATOM     85  O   UNL A   1      50.826  26.501  35.830  1.00  0.00    -0.237 OA
ATOM     86  O   UNL A   1      49.715  26.082  37.989  1.00  0.00    -0.744 OA
ENDBRANCH  82  83
ENDBRANCH  56  77
ENDBRANCH  30  31
ENDBRANCH  23  25
ENDBRANCH  22  23
ENDBRANCH   1  22
TORSDOF 15
ENDMDL
