MODEL 1
REMARK VINA RESULT:     -12.8      0.000      0.000
REMARK SMILES Cc1c(CC(=O)N[C@H](CO)C(=O)OCCOC(=O)c2ccc(-c3c4nc(c(-c5ccc(S(=O)(=O)[O-])cc5)c5ccc([nH]5)c(-c5ccc(S(=O)(=O)[O-])cc5)c5nc(c(-c6ccc(S(=O)(=O)[O-])cc6)c6ccc3[nH]6)C=C5)C=C4)cc2)cc(-c2ccc(S(C)(=O)=O)cc2)n1-c1cccc(F)c1
REMARK SMILES IDX 14 1 13 2 11 3 12 4 8 5 7 6 5 7 6 8 4 10 3 11 1 12 2 13
REMARK SMILES IDX 91 14 79 15 80 16 92 17 93 18 98 19 94 20 96 21 95 22 97 23
REMARK SMILES IDX 81 24 82 25 90 26 83 27 89 28 84 29 85 30 86 31 87 32 88 33
REMARK SMILES IDX 9 34 10 35 15 37 16 38 17 39 18 40 19 41 20 42 78 43 21 44
REMARK SMILES IDX 77 45 22 46 23 47 24 48 71 49 25 50 76 51 70 52 72 53 26 54
REMARK SMILES IDX 75 55 69 56 68 57 27 59 57 60 38 61 56 62 39 63 42 64 55 65
REMARK SMILES IDX 73 66 40 67 41 68 54 70 74 71 43 72 28 73 29 74 37 75 30 76
REMARK SMILES IDX 36 77 31 78 32 79 33 80 34 81 35 82 58 83 59 84 67 85 60 86
REMARK SMILES IDX 66 87 61 88 62 89 63 90 64 91 65 92 44 93 45 94 53 95 46 96
REMARK SMILES IDX 52 97 47 98 48 99 49 100 50 101 51 102
REMARK H PARENT 7 9 10 36 72 58 42 69
REMARK Flexibility Score: inf
ROOT
ATOM      1  C   UNL A   1      37.912  21.252  24.844  1.00  0.00     0.274 C 
ENDROOT
BRANCH   1   2
ATOM      2  O   UNL A   1      36.850  20.433  25.418  1.00  0.00    -0.460 OA
BRANCH   2   3
ATOM      3  C   UNL A   1      35.657  21.016  25.723  1.00  0.00     0.331 C 
ATOM      4  O   UNL A   1      35.498  21.825  26.633  1.00  0.00    -0.250 OA
BRANCH   3   5
ATOM      5  C   UNL A   1      34.521  20.617  24.741  1.00  0.00     0.218 C 
BRANCH   5   6
ATOM      6  N   UNL A   1      34.519  21.510  23.557  1.00  0.00    -0.341 N 
ATOM      7  C   UNL A   1      33.549  22.361  23.104  1.00  0.00     0.225 C 
ATOM      8  O   UNL A   1      33.793  23.046  22.105  1.00  0.00    -0.275 OA
ATOM      9  H   UNL A   1      35.339  21.486  23.015  1.00  0.00     0.164 HD
BRANCH   7  10
ATOM     10  C   UNL A   1      32.204  22.467  23.810  1.00  0.00     0.137 C 
BRANCH  10  11
ATOM     11  C   UNL A   1      31.879  23.876  24.202  1.00  0.00    -0.017 A 
ATOM     12  C   UNL A   1      33.329  24.117  26.331  1.00  0.00     0.065 C 
ATOM     13  C   UNL A   1      32.418  24.609  25.253  1.00  0.00     0.024 A 
ATOM     14  N   UNL A   1      31.909  25.900  25.192  1.00  0.00    -0.313 N 
ATOM     15  C   UNL A   1      30.941  24.715  23.554  1.00  0.00     0.033 A 
ATOM     16  C   UNL A   1      30.996  25.964  24.139  1.00  0.00     0.053 A 
BRANCH  14  17
ATOM     17  C   UNL A   1      32.262  26.990  26.038  1.00  0.00     0.049 A 
ATOM     18  C   UNL A   1      31.304  27.535  26.907  1.00  0.00     0.027 A 
ATOM     19  C   UNL A   1      33.519  27.588  25.909  1.00  0.00     0.065 A 
ATOM     20  C   UNL A   1      31.591  28.697  27.624  1.00  0.00     0.005 A 
ATOM     21  C   UNL A   1      33.785  28.748  26.629  1.00  0.00     0.125 A 
ATOM     22  C   UNL A   1      32.833  29.309  27.477  1.00  0.00     0.039 A 
ATOM     23  F   UNL A   1      34.969  29.356  26.482  1.00  0.00    -0.207 F 
ENDBRANCH  14  17
BRANCH  16  24
ATOM     24  C   UNL A   1      30.274  27.168  23.731  1.00  0.00    -0.001 A 
ATOM     25  C   UNL A   1      28.878  27.255  23.859  1.00  0.00     0.011 A 
ATOM     26  C   UNL A   1      30.983  28.222  23.142  1.00  0.00     0.011 A 
ATOM     27  C   UNL A   1      28.191  28.329  23.304  1.00  0.00     0.021 A 
ATOM     28  C   UNL A   1      30.302  29.305  22.596  1.00  0.00     0.021 A 
ATOM     29  C   UNL A   1      28.908  29.327  22.644  1.00  0.00     0.067 A 
BRANCH  29  30
ATOM     30  S   UNL A   1      28.050  30.722  21.987  1.00  0.00     0.175 S 
ATOM     31  C   UNL A   1      29.167  32.087  22.074  1.00  0.00     0.163 C 
ATOM     32  O   UNL A   1      27.899  30.401  20.572  1.00  0.00    -0.224 OA
ATOM     33  O   UNL A   1      26.936  31.018  22.836  1.00  0.00    -0.224 OA
ENDBRANCH  29  30
ENDBRANCH  16  24
ENDBRANCH  10  11
ENDBRANCH   7  10
ENDBRANCH   5   6
BRANCH   5  34
ATOM     34  C   UNL A   1      33.124  20.533  25.392  1.00  0.00     0.193 C 
BRANCH  34  35
ATOM     35  O   UNL A   1      33.143  19.921  26.686  1.00  0.00    -0.394 OA
ATOM     36  H   UNL A   1      33.930  19.360  26.767  1.00  0.00     0.210 HD
ENDBRANCH  34  35
ENDBRANCH   5  34
ENDBRANCH   3   5
ENDBRANCH   2   3
ENDBRANCH   1   2
BRANCH   1  37
ATOM     37  C   UNL A   1      39.075  21.414  25.871  1.00  0.00     0.275 C 
BRANCH  37  38
ATOM     38  O   UNL A   1      39.989  20.277  26.116  1.00  0.00    -0.458 OA
BRANCH  38  39
ATOM     39  C   UNL A   1      41.342  20.541  26.162  1.00  0.00     0.338 C 
ATOM     40  O   UNL A   1      42.167  19.754  25.718  1.00  0.00    -0.246 OA
BRANCH  39  41
ATOM     41  C   UNL A   1      41.740  21.936  26.715  1.00  0.00     0.060 A 
ATOM     42  C   UNL A   1      41.344  22.296  27.997  1.00  0.00     0.016 A 
ATOM     43  C   UNL A   1      42.276  23.010  25.967  1.00  0.00     0.016 A 
ATOM     44  C   UNL A   1      41.558  23.635  28.519  1.00  0.00     0.010 A 
ATOM     45  C   UNL A   1      42.427  24.403  26.489  1.00  0.00     0.010 A 
ATOM     46  C   UNL A   1      42.087  24.782  27.804  1.00  0.00    -0.014 A 
BRANCH  46  47
ATOM     47  C   UNL A   1      41.748  26.300  28.442  1.00  0.00     0.031 A 
ATOM     48  C   UNL A   1      43.118  26.843  28.599  1.00  0.00     0.074 A 
ATOM     49  C   UNL A   1      40.808  27.183  29.024  1.00  0.00     0.049 A 
ATOM     50  N   UNL A   1      43.950  26.170  29.334  1.00  0.00    -0.248 NA
ATOM     51  C   UNL A   1      43.730  27.835  27.717  1.00  0.00     0.031 C 
ATOM     52  C   UNL A   1      39.402  26.929  29.400  1.00  0.00     0.029 A 
ATOM     53  N   UNL A   1      40.884  28.575  29.452  1.00  0.00    -0.354 N 
ATOM     54  C   UNL A   1      45.136  26.836  29.272  1.00  0.00     0.074 A 
ATOM     55  C   UNL A   1      45.006  27.686  28.093  1.00  0.00     0.031 C 
ATOM     56  C   UNL A   1      38.745  28.067  29.788  1.00  0.00     0.029 A 
ATOM     57  C   UNL A   1      39.628  29.237  29.796  1.00  0.00     0.049 A 
ATOM     58  H   UNL A   1      41.746  29.049  29.506  1.00  0.00     0.167 HD
ATOM     59  C   UNL A   1      45.720  27.109  30.474  1.00  0.00     0.031 A 
ATOM     60  C   UNL A   1      39.325  30.567  30.155  1.00  0.00     0.031 A 
ATOM     61  C   UNL A   1      45.595  28.494  30.827  1.00  0.00     0.049 A 
ATOM     62  C   UNL A   1      40.514  31.046  30.876  1.00  0.00     0.074 A 
ATOM     63  C   UNL A   1      45.658  29.675  30.113  1.00  0.00     0.029 A 
ATOM     64  N   UNL A   1      44.863  28.750  31.963  1.00  0.00    -0.354 N 
ATOM     65  N   UNL A   1      40.780  30.658  32.086  1.00  0.00    -0.248 NA
ATOM     66  C   UNL A   1      41.363  32.111  30.349  1.00  0.00     0.031 C 
ATOM     67  C   UNL A   1      44.536  30.409  30.555  1.00  0.00     0.029 A 
ATOM     68  C   UNL A   1      44.090  29.872  31.756  1.00  0.00     0.049 A 
ATOM     69  H   UNL A   1      44.887  28.219  32.791  1.00  0.00     0.167 HD
ATOM     70  C   UNL A   1      42.077  31.044  32.255  1.00  0.00     0.074 A 
ATOM     71  C   UNL A   1      42.286  32.127  31.310  1.00  0.00     0.031 C 
ATOM     72  C   UNL A   1      42.951  30.076  32.619  1.00  0.00     0.031 A 
BRANCH  59  73
ATOM     73  C   UNL A   1      45.708  25.990  31.502  1.00  0.00    -0.014 A 
ATOM     74  C   UNL A   1      44.620  25.108  31.550  1.00  0.00     0.010 A 
ATOM     75  C   UNL A   1      46.734  25.823  32.459  1.00  0.00     0.010 A 
ATOM     76  C   UNL A   1      44.508  24.167  32.584  1.00  0.00     0.020 A 
ATOM     77  C   UNL A   1      46.621  24.905  33.505  1.00  0.00     0.020 A 
ATOM     78  C   UNL A   1      45.494  24.093  33.572  1.00  0.00     0.054 A 
BRANCH  78  79
ATOM     79  S   UNL A   1      45.253  22.960  34.966  1.00  0.00     0.124 S 
ATOM     80  O   UNL A   1      45.348  23.854  36.120  1.00  0.00    -0.237 OA
ATOM     81  O   UNL A   1      43.918  22.428  34.712  1.00  0.00    -0.237 OA
ATOM     82  O   UNL A   1      46.355  22.008  34.851  1.00  0.00    -0.744 OA
ENDBRANCH  78  79
ENDBRANCH  59  73
BRANCH  60  83
ATOM     83  C   UNL A   1      38.203  31.691  30.342  1.00  0.00    -0.014 A 
ATOM     84  C   UNL A   1      38.185  32.857  29.483  1.00  0.00     0.010 A 
ATOM     85  C   UNL A   1      36.962  31.448  30.960  1.00  0.00     0.010 A 
ATOM     86  C   UNL A   1      37.018  33.603  29.147  1.00  0.00     0.020 A 
ATOM     87  C   UNL A   1      35.783  32.220  30.655  1.00  0.00     0.020 A 
ATOM     88  C   UNL A   1      35.802  33.255  29.712  1.00  0.00     0.054 A 
BRANCH  88  89
ATOM     89  S   UNL A   1      34.255  34.045  29.093  1.00  0.00     0.124 S 
ATOM     90  O   UNL A   1      33.528  34.363  30.319  1.00  0.00    -0.237 OA
ATOM     91  O   UNL A   1      34.755  35.197  28.347  1.00  0.00    -0.237 OA
ATOM     92  O   UNL A   1      33.646  33.005  28.265  1.00  0.00    -0.744 OA
ENDBRANCH  88  89
ENDBRANCH  60  83
BRANCH  72  93
ATOM     93  C   UNL A   1      42.558  29.135  33.742  1.00  0.00    -0.014 A 
ATOM     94  C   UNL A   1      42.178  29.518  35.047  1.00  0.00     0.010 A 
ATOM     95  C   UNL A   1      42.601  27.759  33.456  1.00  0.00     0.010 A 
ATOM     96  C   UNL A   1      41.911  28.561  36.038  1.00  0.00     0.020 A 
ATOM     97  C   UNL A   1      42.292  26.800  34.424  1.00  0.00     0.020 A 
ATOM     98  C   UNL A   1      41.983  27.205  35.722  1.00  0.00     0.054 A 
BRANCH  98  99
ATOM     99  S   UNL A   1      41.721  25.973  37.027  1.00  0.00     0.124 S 
ATOM    100  O   UNL A   1      42.786  26.301  37.974  1.00  0.00    -0.237 OA
ATOM    101  O   UNL A   1      40.369  26.271  37.490  1.00  0.00    -0.237 OA
ATOM    102  O   UNL A   1      41.892  24.697  36.338  1.00  0.00    -0.744 OA
ENDBRANCH  98  99
ENDBRANCH  72  93
ENDBRANCH  46  47
ENDBRANCH  39  41
ENDBRANCH  38  39
ENDBRANCH  37  38
ENDBRANCH   1  37
TORSDOF 22
ENDMDL
MODEL 2
REMARK VINA RESULT:     -11.6      2.082      3.261
REMARK SMILES Cc1c(CC(=O)N[C@H](CO)C(=O)OCCOC(=O)c2ccc(-c3c4nc(c(-c5ccc(S(=O)(=O)[O-])cc5)c5ccc([nH]5)c(-c5ccc(S(=O)(=O)[O-])cc5)c5nc(c(-c6ccc(S(=O)(=O)[O-])cc6)c6ccc3[nH]6)C=C5)C=C4)cc2)cc(-c2ccc(S(C)(=O)=O)cc2)n1-c1cccc(F)c1
REMARK SMILES IDX 14 1 13 2 11 3 12 4 8 5 7 6 5 7 6 8 4 10 3 11 1 12 2 13
REMARK SMILES IDX 91 14 79 15 80 16 92 17 93 18 98 19 94 20 96 21 95 22 97 23
REMARK SMILES IDX 81 24 82 25 90 26 83 27 89 28 84 29 85 30 86 31 87 32 88 33
REMARK SMILES IDX 9 34 10 35 15 37 16 38 17 39 18 40 19 41 20 42 78 43 21 44
REMARK SMILES IDX 77 45 22 46 23 47 24 48 71 49 25 50 76 51 70 52 72 53 26 54
REMARK SMILES IDX 75 55 69 56 68 57 27 59 57 60 38 61 56 62 39 63 42 64 55 65
REMARK SMILES IDX 73 66 40 67 41 68 54 70 74 71 43 72 28 73 29 74 37 75 30 76
REMARK SMILES IDX 36 77 31 78 32 79 33 80 34 81 35 82 58 83 59 84 67 85 60 86
REMARK SMILES IDX 66 87 61 88 62 89 63 90 64 91 65 92 44 93 45 94 53 95 46 96
REMARK SMILES IDX 52 97 47 98 48 99 49 100 50 101 51 102
REMARK H PARENT 7 9 10 36 72 58 42 69
REMARK Flexibility Score: inf
ROOT
ATOM      1  C   UNL A   1      39.900  21.771  26.877  1.00  0.00     0.274 C 
ENDROOT
BRANCH   1   2
ATOM      2  O   UNL A   1      38.830  21.878  25.892  1.00  0.00    -0.460 OA
BRANCH   2   3
ATOM      3  C   UNL A   1      38.070  23.009  25.861  1.00  0.00     0.331 C 
ATOM      4  O   UNL A   1      38.494  24.130  26.124  1.00  0.00    -0.250 OA
BRANCH   3   5
ATOM      5  C   UNL A   1      36.620  22.749  25.369  1.00  0.00     0.218 C 
BRANCH   5   6
ATOM      6  N   UNL A   1      35.668  22.793  26.506  1.00  0.00    -0.341 N 
ATOM      7  C   UNL A   1      34.318  23.013  26.510  1.00  0.00     0.225 C 
ATOM      8  O   UNL A   1      33.722  22.959  27.590  1.00  0.00    -0.275 OA
ATOM      9  H   UNL A   1      36.069  22.642  27.391  1.00  0.00     0.164 HD
BRANCH   7  10
ATOM     10  C   UNL A   1      33.567  23.314  25.219  1.00  0.00     0.137 C 
BRANCH  10  11
ATOM     11  C   UNL A   1      33.131  24.744  25.139  1.00  0.00    -0.017 A 
ATOM     12  C   UNL A   1      31.536  24.636  23.105  1.00  0.00     0.065 C 
ATOM     13  C   UNL A   1      32.202  25.299  24.267  1.00  0.00     0.024 A 
ATOM     14  N   UNL A   1      32.028  26.636  24.605  1.00  0.00    -0.313 N 
ATOM     15  C   UNL A   1      33.609  25.797  25.955  1.00  0.00     0.033 A 
ATOM     16  C   UNL A   1      32.900  26.942  25.651  1.00  0.00     0.053 A 
BRANCH  14  17
ATOM     17  C   UNL A   1      31.110  27.547  24.010  1.00  0.00     0.049 A 
ATOM     18  C   UNL A   1      29.739  27.431  24.284  1.00  0.00     0.027 A 
ATOM     19  C   UNL A   1      31.565  28.470  23.064  1.00  0.00     0.065 A 
ATOM     20  C   UNL A   1      28.817  28.215  23.590  1.00  0.00     0.005 A 
ATOM     21  C   UNL A   1      30.631  29.241  22.379  1.00  0.00     0.125 A 
ATOM     22  C   UNL A   1      29.266  29.118  22.629  1.00  0.00     0.039 A 
ATOM     23  F   UNL A   1      31.048  30.099  21.439  1.00  0.00    -0.207 F 
ENDBRANCH  14  17
BRANCH  16  24
ATOM     24  C   UNL A   1      32.989  28.244  26.310  1.00  0.00    -0.001 A 
ATOM     25  C   UNL A   1      32.023  29.238  26.086  1.00  0.00     0.011 A 
ATOM     26  C   UNL A   1      34.093  28.521  27.124  1.00  0.00     0.011 A 
ATOM     27  C   UNL A   1      32.216  30.524  26.577  1.00  0.00     0.021 A 
ATOM     28  C   UNL A   1      34.287  29.803  27.629  1.00  0.00     0.021 A 
ATOM     29  C   UNL A   1      33.367  30.805  27.314  1.00  0.00     0.067 A 
BRANCH  29  30
ATOM     30  S   UNL A   1      33.595  32.419  27.989  1.00  0.00     0.175 S 
ATOM     31  C   UNL A   1      35.170  32.982  27.426  1.00  0.00     0.163 C 
ATOM     32  O   UNL A   1      32.596  33.227  27.299  1.00  0.00    -0.224 OA
ATOM     33  O   UNL A   1      33.655  32.315  29.416  1.00  0.00    -0.224 OA
ENDBRANCH  29  30
ENDBRANCH  16  24
ENDBRANCH  10  11
ENDBRANCH   7  10
ENDBRANCH   5   6
BRANCH   5  34
ATOM     34  C   UNL A   1      36.456  21.457  24.539  1.00  0.00     0.193 C 
BRANCH  34  35
ATOM     35  O   UNL A   1      36.204  20.300  25.344  1.00  0.00    -0.394 OA
ATOM     36  H   UNL A   1      36.315  20.528  26.280  1.00  0.00     0.210 HD
ENDBRANCH  34  35
ENDBRANCH   5  34
ENDBRANCH   3   5
ENDBRANCH   2   3
ENDBRANCH   1   2
BRANCH   1  37
ATOM     37  C   UNL A   1      40.786  20.523  26.569  1.00  0.00     0.275 C 
BRANCH  37  38
ATOM     38  O   UNL A   1      41.810  20.607  25.505  1.00  0.00    -0.458 OA
BRANCH  38  39
ATOM     39  C   UNL A   1      43.059  21.075  25.855  1.00  0.00     0.338 C 
ATOM     40  O   UNL A   1      44.064  20.389  25.723  1.00  0.00    -0.246 OA
BRANCH  39  41
ATOM     41  C   UNL A   1      43.120  22.552  26.329  1.00  0.00     0.060 A 
ATOM     42  C   UNL A   1      43.021  22.835  27.685  1.00  0.00     0.016 A 
ATOM     43  C   UNL A   1      43.028  23.698  25.505  1.00  0.00     0.016 A 
ATOM     44  C   UNL A   1      42.926  24.197  28.180  1.00  0.00     0.010 A 
ATOM     45  C   UNL A   1      42.857  25.091  26.021  1.00  0.00     0.010 A 
ATOM     46  C   UNL A   1      42.813  25.412  27.393  1.00  0.00    -0.014 A 
BRANCH  46  47
ATOM     47  C   UNL A   1      42.196  26.769  28.170  1.00  0.00     0.031 A 
ATOM     48  C   UNL A   1      43.438  27.547  28.391  1.00  0.00     0.074 A 
ATOM     49  C   UNL A   1      41.109  27.396  28.826  1.00  0.00     0.049 A 
ATOM     50  N   UNL A   1      44.391  26.978  29.066  1.00  0.00    -0.248 NA
ATOM     51  C   UNL A   1      43.840  28.717  27.614  1.00  0.00     0.031 C 
ATOM     52  C   UNL A   1      39.782  26.843  29.163  1.00  0.00     0.029 A 
ATOM     53  N   UNL A   1      40.921  28.729  29.386  1.00  0.00    -0.354 N 
ATOM     54  C   UNL A   1      45.427  27.862  29.079  1.00  0.00     0.074 A 
ATOM     55  C   UNL A   1      45.125  28.780  27.985  1.00  0.00     0.031 C 
ATOM     56  C   UNL A   1      38.923  27.792  29.653  1.00  0.00     0.029 A 
ATOM     57  C   UNL A   1      39.566  29.103  29.780  1.00  0.00     0.049 A 
ATOM     58  H   UNL A   1      41.678  29.352  29.492  1.00  0.00     0.167 HD
ATOM     59  C   UNL A   1      45.959  28.125  30.306  1.00  0.00     0.031 A 
ATOM     60  C   UNL A   1      39.017  30.309  30.262  1.00  0.00     0.031 A 
ATOM     61  C   UNL A   1      45.574  29.421  30.789  1.00  0.00     0.049 A 
ATOM     62  C   UNL A   1      40.100  30.936  31.036  1.00  0.00     0.074 A 
ATOM     63  C   UNL A   1      45.404  30.654  30.192  1.00  0.00     0.029 A 
ATOM     64  N   UNL A   1      44.818  29.422  31.938  1.00  0.00    -0.354 N 
ATOM     65  N   UNL A   1      40.446  30.492  32.206  1.00  0.00    -0.248 NA
ATOM     66  C   UNL A   1      40.724  32.189  30.621  1.00  0.00     0.031 C 
ATOM     67  C   UNL A   1      44.166  31.115  30.692  1.00  0.00     0.029 A 
ATOM     68  C   UNL A   1      43.842  30.390  31.832  1.00  0.00     0.049 A 
ATOM     69  H   UNL A   1      44.951  28.828  32.711  1.00  0.00     0.167 HD
ATOM     70  C   UNL A   1      41.647  31.102  32.423  1.00  0.00     0.074 A 
ATOM     71  C   UNL A   1      41.636  32.290  31.588  1.00  0.00     0.031 C 
ATOM     72  C   UNL A   1      42.693  30.288  32.701  1.00  0.00     0.031 A 
BRANCH  59  73
ATOM     73  C   UNL A   1      46.171  26.932  31.222  1.00  0.00    -0.014 A 
ATOM     74  C   UNL A   1      45.066  26.182  31.647  1.00  0.00     0.010 A 
ATOM     75  C   UNL A   1      47.444  26.565  31.714  1.00  0.00     0.010 A 
ATOM     76  C   UNL A   1      45.213  25.176  32.612  1.00  0.00     0.020 A 
ATOM     77  C   UNL A   1      47.598  25.580  32.692  1.00  0.00     0.020 A 
ATOM     78  C   UNL A   1      46.474  24.902  33.151  1.00  0.00     0.054 A 
BRANCH  78  79
ATOM     79  S   UNL A   1      46.608  23.690  34.492  1.00  0.00     0.124 S 
ATOM     80  O   UNL A   1      45.676  22.646  34.069  1.00  0.00    -0.237 OA
ATOM     81  O   UNL A   1      48.017  23.313  34.436  1.00  0.00    -0.237 OA
ATOM     82  O   UNL A   1      46.189  24.424  35.683  1.00  0.00    -0.744 OA
ENDBRANCH  78  79
ENDBRANCH  59  73
BRANCH  60  83
ATOM     83  C   UNL A   1      37.703  31.175  30.546  1.00  0.00    -0.014 A 
ATOM     84  C   UNL A   1      36.842  30.852  31.665  1.00  0.00     0.010 A 
ATOM     85  C   UNL A   1      37.534  32.495  30.089  1.00  0.00     0.010 A 
ATOM     86  C   UNL A   1      36.023  31.790  32.360  1.00  0.00     0.020 A 
ATOM     87  C   UNL A   1      36.680  33.442  30.762  1.00  0.00     0.020 A 
ATOM     88  C   UNL A   1      35.973  33.103  31.923  1.00  0.00     0.054 A 
BRANCH  88  89
ATOM     89  S   UNL A   1      35.125  34.372  32.958  1.00  0.00     0.124 S 
ATOM     90  O   UNL A   1      36.232  35.094  33.576  1.00  0.00    -0.237 OA
ATOM     91  O   UNL A   1      34.356  35.131  31.974  1.00  0.00    -0.237 OA
ATOM     92  O   UNL A   1      34.313  33.577  33.878  1.00  0.00    -0.744 OA
ENDBRANCH  88  89
ENDBRANCH  60  83
BRANCH  72  93
ATOM     93  C   UNL A   1      42.499  29.187  33.724  1.00  0.00    -0.014 A 
ATOM     94  C   UNL A   1      42.153  27.847  33.442  1.00  0.00     0.010 A 
ATOM     95  C   UNL A   1      42.657  29.545  35.075  1.00  0.00     0.010 A 
ATOM     96  C   UNL A   1      41.918  26.922  34.471  1.00  0.00     0.020 A 
ATOM     97  C   UNL A   1      42.469  28.619  36.105  1.00  0.00     0.020 A 
ATOM     98  C   UNL A   1      42.066  27.320  35.800  1.00  0.00     0.054 A 
BRANCH  98  99
ATOM     99  S   UNL A   1      41.677  26.147  37.127  1.00  0.00     0.124 S 
ATOM    100  O   UNL A   1      40.403  26.663  37.627  1.00  0.00    -0.237 OA
ATOM    101  O   UNL A   1      41.593  24.872  36.420  1.00  0.00    -0.237 OA
ATOM    102  O   UNL A   1      42.797  26.289  38.054  1.00  0.00    -0.744 OA
ENDBRANCH  98  99
ENDBRANCH  72  93
ENDBRANCH  46  47
ENDBRANCH  39  41
ENDBRANCH  38  39
ENDBRANCH  37  38
ENDBRANCH   1  37
TORSDOF 22
ENDMDL
MODEL 3
REMARK VINA RESULT:     -11.6      2.662      3.830
REMARK SMILES Cc1c(CC(=O)N[C@H](CO)C(=O)OCCOC(=O)c2ccc(-c3c4nc(c(-c5ccc(S(=O)(=O)[O-])cc5)c5ccc([nH]5)c(-c5ccc(S(=O)(=O)[O-])cc5)c5nc(c(-c6ccc(S(=O)(=O)[O-])cc6)c6ccc3[nH]6)C=C5)C=C4)cc2)cc(-c2ccc(S(C)(=O)=O)cc2)n1-c1cccc(F)c1
REMARK SMILES IDX 14 1 13 2 11 3 12 4 8 5 7 6 5 7 6 8 4 10 3 11 1 12 2 13
REMARK SMILES IDX 91 14 79 15 80 16 92 17 93 18 98 19 94 20 96 21 95 22 97 23
REMARK SMILES IDX 81 24 82 25 90 26 83 27 89 28 84 29 85 30 86 31 87 32 88 33
REMARK SMILES IDX 9 34 10 35 15 37 16 38 17 39 18 40 19 41 20 42 78 43 21 44
REMARK SMILES IDX 77 45 22 46 23 47 24 48 71 49 25 50 76 51 70 52 72 53 26 54
REMARK SMILES IDX 75 55 69 56 68 57 27 59 57 60 38 61 56 62 39 63 42 64 55 65
REMARK SMILES IDX 73 66 40 67 41 68 54 70 74 71 43 72 28 73 29 74 37 75 30 76
REMARK SMILES IDX 36 77 31 78 32 79 33 80 34 81 35 82 58 83 59 84 67 85 60 86
REMARK SMILES IDX 66 87 61 88 62 89 63 90 64 91 65 92 44 93 45 94 53 95 46 96
REMARK SMILES IDX 52 97 47 98 48 99 49 100 50 101 51 102
REMARK H PARENT 7 9 10 36 72 58 42 69
REMARK Flexibility Score: inf
ROOT
ATOM      1  C   UNL A   1      36.744  22.112  23.948  1.00  0.00     0.274 C 
ENDROOT
BRANCH   1   2
ATOM      2  O   UNL A   1      35.543  21.429  24.415  1.00  0.00    -0.460 OA
BRANCH   2   3
ATOM      3  C   UNL A   1      34.323  21.948  24.102  1.00  0.00     0.331 C 
ATOM      4  O   UNL A   1      34.140  22.808  23.245  1.00  0.00    -0.250 OA
BRANCH   3   5
ATOM      5  C   UNL A   1      33.161  21.274  24.883  1.00  0.00     0.218 C 
BRANCH   5   6
ATOM      6  N   UNL A   1      33.211  21.650  26.317  1.00  0.00    -0.341 N 
ATOM      7  C   UNL A   1      32.347  22.413  27.053  1.00  0.00     0.225 C 
ATOM      8  O   UNL A   1      32.576  22.554  28.259  1.00  0.00    -0.275 OA
ATOM      9  H   UNL A   1      33.983  21.297  26.814  1.00  0.00     0.164 HD
BRANCH   7  10
ATOM     10  C   UNL A   1      31.134  23.070  26.408  1.00  0.00     0.137 C 
BRANCH  10  11
ATOM     11  C   UNL A   1      31.429  24.460  25.934  1.00  0.00    -0.017 A 
ATOM     12  C   UNL A   1      30.355  24.392  23.581  1.00  0.00     0.065 C 
ATOM     13  C   UNL A   1      31.032  25.050  24.740  1.00  0.00     0.024 A 
ATOM     14  N   UNL A   1      31.438  26.379  24.752  1.00  0.00    -0.313 N 
ATOM     15  C   UNL A   1      32.184  25.427  26.640  1.00  0.00     0.033 A 
ATOM     16  C   UNL A   1      32.150  26.611  25.930  1.00  0.00     0.053 A 
BRANCH  14  17
ATOM     17  C   UNL A   1      31.166  27.357  23.754  1.00  0.00     0.049 A 
ATOM     18  C   UNL A   1      32.227  27.947  23.050  1.00  0.00     0.027 A 
ATOM     19  C   UNL A   1      29.857  27.812  23.569  1.00  0.00     0.065 A 
ATOM     20  C   UNL A   1      31.985  29.013  22.183  1.00  0.00     0.005 A 
ATOM     21  C   UNL A   1      29.636  28.879  22.704  1.00  0.00     0.125 A 
ATOM     22  C   UNL A   1      30.685  29.485  22.017  1.00  0.00     0.039 A 
ATOM     23  F   UNL A   1      28.393  29.353  22.549  1.00  0.00    -0.207 F 
ENDBRANCH  14  17
BRANCH  16  24
ATOM     24  C   UNL A   1      32.710  27.901  26.328  1.00  0.00    -0.001 A 
ATOM     25  C   UNL A   1      34.098  28.086  26.436  1.00  0.00     0.011 A 
ATOM     26  C   UNL A   1      31.843  28.945  26.669  1.00  0.00     0.011 A 
ATOM     27  C   UNL A   1      34.606  29.259  26.985  1.00  0.00     0.021 A 
ATOM     28  C   UNL A   1      32.345  30.126  27.208  1.00  0.00     0.021 A 
ATOM     29  C   UNL A   1      33.722  30.254  27.400  1.00  0.00     0.067 A 
BRANCH  29  30
ATOM     30  S   UNL A   1      34.358  31.767  28.046  1.00  0.00     0.175 S 
ATOM     31  C   UNL A   1      33.143  33.005  27.719  1.00  0.00     0.163 C 
ATOM     32  O   UNL A   1      34.357  31.557  29.489  1.00  0.00    -0.224 OA
ATOM     33  O   UNL A   1      35.540  32.117  27.316  1.00  0.00    -0.224 OA
ENDBRANCH  29  30
ENDBRANCH  16  24
ENDBRANCH  10  11
ENDBRANCH   7  10
ENDBRANCH   5   6
BRANCH   5  34
ATOM     34  C   UNL A   1      33.079  19.744  24.698  1.00  0.00     0.193 C 
BRANCH  34  35
ATOM     35  O   UNL A   1      34.287  19.068  25.062  1.00  0.00    -0.394 OA
ATOM     36  H   UNL A   1      34.263  18.159  24.721  1.00  0.00     0.210 HD
ENDBRANCH  34  35
ENDBRANCH   5  34
ENDBRANCH   3   5
ENDBRANCH   2   3
ENDBRANCH   1   2
BRANCH   1  37
ATOM     37  C   UNL A   1      37.393  22.912  25.121  1.00  0.00     0.275 C 
BRANCH  37  38
ATOM     38  O   UNL A   1      38.129  22.182  26.176  1.00  0.00    -0.458 OA
BRANCH  38  39
ATOM     39  C   UNL A   1      39.501  22.319  26.210  1.00  0.00     0.338 C 
ATOM     40  O   UNL A   1      40.244  21.487  25.706  1.00  0.00    -0.246 OA
BRANCH  39  41
ATOM     41  C   UNL A   1      40.034  23.636  26.834  1.00  0.00     0.060 A 
ATOM     42  C   UNL A   1      39.411  24.153  27.963  1.00  0.00     0.016 A 
ATOM     43  C   UNL A   1      40.961  24.527  26.243  1.00  0.00     0.016 A 
ATOM     44  C   UNL A   1      39.765  25.452  28.509  1.00  0.00     0.010 A 
ATOM     45  C   UNL A   1      41.268  25.891  26.772  1.00  0.00     0.010 A 
ATOM     46  C   UNL A   1      40.693  26.417  27.948  1.00  0.00    -0.014 A 
BRANCH  46  47
ATOM     47  C   UNL A   1      40.535  28.011  28.458  1.00  0.00     0.031 A 
ATOM     48  C   UNL A   1      41.814  28.581  27.973  1.00  0.00     0.074 A 
ATOM     49  C   UNL A   1      39.848  28.965  29.247  1.00  0.00     0.049 A 
ATOM     50  N   UNL A   1      42.914  28.032  28.392  1.00  0.00    -0.248 NA
ATOM     51  C   UNL A   1      41.955  29.434  26.795  1.00  0.00     0.031 C 
ATOM     52  C   UNL A   1      38.730  28.760  30.189  1.00  0.00     0.029 A 
ATOM     53  N   UNL A   1      39.995  30.406  29.416  1.00  0.00    -0.354 N 
ATOM     54  C   UNL A   1      43.929  28.690  27.767  1.00  0.00     0.074 A 
ATOM     55  C   UNL A   1      43.283  29.352  26.638  1.00  0.00     0.031 C 
ATOM     56  C   UNL A   1      38.208  29.939  30.654  1.00  0.00     0.029 A 
ATOM     57  C   UNL A   1      38.939  31.103  30.146  1.00  0.00     0.049 A 
ATOM     58  H   UNL A   1      40.773  30.889  29.052  1.00  0.00     0.167 HD
ATOM     59  C   UNL A   1      44.924  29.144  28.581  1.00  0.00     0.031 A 
ATOM     60  C   UNL A   1      38.716  32.469  30.415  1.00  0.00     0.031 A 
ATOM     61  C   UNL A   1      44.857  30.565  28.764  1.00  0.00     0.049 A 
ATOM     62  C   UNL A   1      40.059  33.060  30.521  1.00  0.00     0.074 A 
ATOM     63  C   UNL A   1      44.551  31.626  27.934  1.00  0.00     0.029 A 
ATOM     64  N   UNL A   1      44.624  30.984  30.054  1.00  0.00    -0.354 N 
ATOM     65  N   UNL A   1      40.811  32.859  31.561  1.00  0.00    -0.248 NA
ATOM     66  C   UNL A   1      40.554  34.039  29.559  1.00  0.00     0.031 C 
ATOM     67  C   UNL A   1      43.652  32.411  28.689  1.00  0.00     0.029 A 
ATOM     68  C   UNL A   1      43.759  32.057  30.028  1.00  0.00     0.049 A 
ATOM     69  H   UNL A   1      45.012  30.582  30.864  1.00  0.00     0.167 HD
ATOM     70  C   UNL A   1      42.039  33.276  31.137  1.00  0.00     0.074 A 
ATOM     71  C   UNL A   1      41.781  34.206  30.052  1.00  0.00     0.031 C 
ATOM     72  C   UNL A   1      43.048  32.379  31.243  1.00  0.00     0.031 A 
BRANCH  59  73
ATOM     73  C   UNL A   1      45.398  28.192  29.666  1.00  0.00    -0.014 A 
ATOM     74  C   UNL A   1      44.510  27.797  30.675  1.00  0.00     0.010 A 
ATOM     75  C   UNL A   1      46.727  27.716  29.735  1.00  0.00     0.010 A 
ATOM     76  C   UNL A   1      44.960  27.048  31.771  1.00  0.00     0.020 A 
ATOM     77  C   UNL A   1      47.190  26.988  30.834  1.00  0.00     0.020 A 
ATOM     78  C   UNL A   1      46.305  26.675  31.858  1.00  0.00     0.054 A 
BRANCH  78  79
ATOM     79  S   UNL A   1      46.882  25.824  33.351  1.00  0.00     0.124 S 
ATOM     80  O   UNL A   1      45.921  24.728  33.482  1.00  0.00    -0.237 OA
ATOM     81  O   UNL A   1      48.231  25.413  32.977  1.00  0.00    -0.237 OA
ATOM     82  O   UNL A   1      46.787  26.835  34.400  1.00  0.00    -0.744 OA
ENDBRANCH  78  79
ENDBRANCH  59  73
BRANCH  60  83
ATOM     83  C   UNL A   1      37.689  33.601  30.887  1.00  0.00    -0.014 A 
ATOM     84  C   UNL A   1      36.581  33.984  30.037  1.00  0.00     0.010 A 
ATOM     85  C   UNL A   1      37.490  33.947  32.236  1.00  0.00     0.010 A 
ATOM     86  C   UNL A   1      35.339  34.505  30.505  1.00  0.00     0.020 A 
ATOM     87  C   UNL A   1      36.251  34.509  32.714  1.00  0.00     0.020 A 
ATOM     88  C   UNL A   1      35.164  34.733  31.859  1.00  0.00     0.054 A 
BRANCH  88  89
ATOM     89  S   UNL A   1      33.488  35.162  32.498  1.00  0.00     0.124 S 
ATOM     90  O   UNL A   1      33.026  33.911  33.091  1.00  0.00    -0.237 OA
ATOM     91  O   UNL A   1      33.768  36.237  33.447  1.00  0.00    -0.237 OA
ATOM     92  O   UNL A   1      32.762  35.584  31.301  1.00  0.00    -0.744 OA
ENDBRANCH  88  89
ENDBRANCH  60  83
BRANCH  72  93
ATOM     93  C   UNL A   1      43.200  31.615  32.544  1.00  0.00    -0.014 A 
ATOM     94  C   UNL A   1      43.884  32.067  33.694  1.00  0.00     0.010 A 
ATOM     95  C   UNL A   1      42.626  30.332  32.593  1.00  0.00     0.010 A 
ATOM     96  C   UNL A   1      44.035  31.246  34.821  1.00  0.00     0.020 A 
ATOM     97  C   UNL A   1      42.734  29.525  33.728  1.00  0.00     0.020 A 
ATOM     98  C   UNL A   1      43.468  29.971  34.825  1.00  0.00     0.054 A 
BRANCH  98  99
ATOM     99  S   UNL A   1      43.740  28.882  36.249  1.00  0.00     0.124 S 
ATOM    100  O   UNL A   1      45.041  29.338  36.739  1.00  0.00    -0.237 OA
ATOM    101  O   UNL A   1      42.610  29.193  37.118  1.00  0.00    -0.237 OA
ATOM    102  O   UNL A   1      43.746  27.543  35.666  1.00  0.00    -0.744 OA
ENDBRANCH  98  99
ENDBRANCH  72  93
ENDBRANCH  46  47
ENDBRANCH  39  41
ENDBRANCH  38  39
ENDBRANCH  37  38
ENDBRANCH   1  37
TORSDOF 22
ENDMDL
