MODEL 1
REMARK VINA RESULT:     -10.2      0.000      0.000
REMARK SMILES CCC1(CC)CC[NH+]([C@@H]2CC[C@@]([NH3+])(C(=O)OCCOC(=O)c3ccc(-c4c5nc(c(-c6ccc(S(=O)(=O)[O-])cc6)c6ccc([nH]6)c(-c6ccc(S(=O)(=O)[O-])cc6)c6nc(c(-c7ccc(S(=O)(=O)[O-])cc7)c7ccc4[nH]7)C=C6)C=C5)cc3)C2)CC1
REMARK SMILES IDX 18 1 17 2 16 3 14 4 15 5 12 6 9 7 10 8 82 9 11 10 8 11 3 12
REMARK SMILES IDX 6 13 84 14 7 15 83 16 2 18 1 19 4 20 5 21 13 22 19 26 20 27
REMARK SMILES IDX 21 28 22 29 23 30 81 31 24 32 80 33 25 34 26 35 27 36 74 37
REMARK SMILES IDX 28 38 79 39 73 40 75 41 29 42 78 43 72 44 71 45 30 47 60 48
REMARK SMILES IDX 41 49 59 50 42 51 45 52 58 53 76 54 43 55 44 56 57 58 77 59
REMARK SMILES IDX 46 60 31 61 32 62 40 63 33 64 39 65 34 66 35 67 36 68 37 69
REMARK SMILES IDX 38 70 61 71 62 72 70 73 63 74 69 75 64 76 65 77 66 78 67 79
REMARK SMILES IDX 68 80 47 81 48 82 56 83 49 84 55 85 50 86 51 87 52 88 53 89
REMARK SMILES IDX 54 90
REMARK H PARENT 8 17 13 23 13 24 13 25 75 46 45 57
REMARK Flexibility Score: inf
ROOT
ATOM      1  C   UNL A   1      32.722  29.643  27.050  1.00  0.00     0.275 C 
ENDROOT
BRANCH   1   2
ATOM      2  C   UNL A   1      31.869  30.072  25.863  1.00  0.00     0.274 C 
BRANCH   2   3
ATOM      3  O   UNL A   1      32.365  29.482  24.646  1.00  0.00    -0.457 OA
BRANCH   3   4
ATOM      4  C   UNL A   1      31.612  28.484  24.111  1.00  0.00     0.368 C 
ATOM      5  O   UNL A   1      30.487  28.181  24.501  1.00  0.00    -0.245 OA
BRANCH   4   6
ATOM      6  C   UNL A   1      32.352  27.680  23.000  1.00  0.00     0.198 C 
ATOM      7  C   UNL A   1      32.505  25.476  23.942  1.00  0.00     0.191 C 
ATOM      8  C   UNL A   1      31.663  25.327  22.672  1.00  0.00     0.072 C 
ATOM      9  C   UNL A   1      33.361  26.715  23.649  1.00  0.00     0.145 C 
ATOM     10  C   UNL A   1      31.468  26.755  22.139  1.00  0.00     0.087 C 
BRANCH   7  11
ATOM     11  N   UNL A   1      33.249  24.307  24.430  1.00  0.00    -0.332 N 
ATOM     12  C   UNL A   1      35.676  22.679  25.147  1.00  0.00    -0.020 C 
ATOM     13  C   UNL A   1      34.857  22.495  23.842  1.00  0.00     0.068 C 
ATOM     14  C   UNL A   1      34.677  23.235  26.185  1.00  0.00     0.068 C 
ATOM     15  C   UNL A   1      34.128  23.762  23.385  1.00  0.00     0.263 C 
ATOM     16  C   UNL A   1      33.949  24.498  25.706  1.00  0.00     0.263 C 
ATOM     17  H   UNL A   1      32.535  23.612  24.647  1.00  0.00     0.348 HD
BRANCH  12  18
ATOM     18  C   UNL A   1      36.232  21.280  25.558  1.00  0.00     0.004 C 
ATOM     19  C   UNL A   1      37.479  20.789  24.830  1.00  0.00     0.004 C 
ENDBRANCH  12  18
BRANCH  12  20
ATOM     20  C   UNL A   1      36.851  23.663  24.846  1.00  0.00     0.004 C 
ATOM     21  C   UNL A   1      37.810  23.961  25.988  1.00  0.00     0.004 C 
ENDBRANCH  12  20
ENDBRANCH   7  11
BRANCH   6  22
ATOM     22  N   UNL A   1      33.047  28.677  22.150  1.00  0.00    -0.343 N 
ATOM     23  H   UNL A   1      32.846  29.616  22.493  1.00  0.00     0.345 HD
ATOM     24  H   UNL A   1      32.723  28.589  21.187  1.00  0.00     0.345 HD
ATOM     25  H   UNL A   1      34.053  28.512  22.186  1.00  0.00     0.345 HD
ENDBRANCH   6  22
ENDBRANCH   4   6
ENDBRANCH   3   4
ENDBRANCH   2   3
ENDBRANCH   1   2
BRANCH   1  26
ATOM     26  O   UNL A   1      34.059  30.138  26.870  1.00  0.00    -0.458 OA
BRANCH  26  27
ATOM     27  C   UNL A   1      34.623  30.719  27.949  1.00  0.00     0.338 C 
ATOM     28  O   UNL A   1      34.157  31.632  28.624  1.00  0.00    -0.246 OA
BRANCH  27  29
ATOM     29  C   UNL A   1      35.926  30.096  28.234  1.00  0.00     0.060 A 
ATOM     30  C   UNL A   1      36.210  29.606  29.507  1.00  0.00     0.016 A 
ATOM     31  C   UNL A   1      36.922  30.121  27.257  1.00  0.00     0.016 A 
ATOM     32  C   UNL A   1      37.518  29.260  29.842  1.00  0.00     0.010 A 
ATOM     33  C   UNL A   1      38.206  29.657  27.562  1.00  0.00     0.010 A 
ATOM     34  C   UNL A   1      38.534  29.268  28.872  1.00  0.00    -0.014 A 
BRANCH  34  35
ATOM     35  C   UNL A   1      39.931  28.894  29.238  1.00  0.00     0.031 A 
ATOM     36  C   UNL A   1      40.822  29.858  29.986  1.00  0.00     0.074 A 
ATOM     37  C   UNL A   1      40.399  27.666  28.934  1.00  0.00     0.049 A 
ATOM     38  N   UNL A   1      42.061  29.696  30.383  1.00  0.00    -0.248 NA
ATOM     39  C   UNL A   1      40.248  31.163  30.355  1.00  0.00     0.031 C 
ATOM     40  C   UNL A   1      39.645  26.614  28.246  1.00  0.00     0.029 A 
ATOM     41  N   UNL A   1      41.624  27.090  29.169  1.00  0.00    -0.354 N 
ATOM     42  C   UNL A   1      42.396  30.856  31.075  1.00  0.00     0.074 A 
ATOM     43  C   UNL A   1      41.249  31.733  31.011  1.00  0.00     0.031 C 
ATOM     44  C   UNL A   1      40.410  25.517  28.143  1.00  0.00     0.029 A 
ATOM     45  C   UNL A   1      41.733  25.808  28.684  1.00  0.00     0.049 A 
ATOM     46  H   UNL A   1      42.354  27.552  29.641  1.00  0.00     0.167 HD
ATOM     47  C   UNL A   1      43.545  31.162  31.725  1.00  0.00     0.031 A 
ATOM     48  C   UNL A   1      42.786  24.970  28.633  1.00  0.00     0.031 A 
ATOM     49  C   UNL A   1      44.712  30.328  31.751  1.00  0.00     0.049 A 
ATOM     50  C   UNL A   1      44.112  25.420  29.174  1.00  0.00     0.074 A 
ATOM     51  C   UNL A   1      45.934  30.575  32.354  1.00  0.00     0.029 A 
ATOM     52  N   UNL A   1      44.813  29.095  31.130  1.00  0.00    -0.354 N 
ATOM     53  N   UNL A   1      44.404  26.521  29.822  1.00  0.00    -0.248 NA
ATOM     54  C   UNL A   1      45.256  24.525  28.953  1.00  0.00     0.031 C 
ATOM     55  C   UNL A   1      46.793  29.512  32.049  1.00  0.00     0.029 A 
ATOM     56  C   UNL A   1      46.091  28.588  31.292  1.00  0.00     0.049 A 
ATOM     57  H   UNL A   1      44.085  28.646  30.644  1.00  0.00     0.167 HD
ATOM     58  C   UNL A   1      45.766  26.447  30.094  1.00  0.00     0.074 A 
ATOM     59  C   UNL A   1      46.235  25.189  29.552  1.00  0.00     0.031 C 
ATOM     60  C   UNL A   1      46.553  27.345  30.735  1.00  0.00     0.031 A 
BRANCH  47  61
ATOM     61  C   UNL A   1      43.595  32.477  32.448  1.00  0.00    -0.014 A 
ATOM     62  C   UNL A   1      44.117  33.617  31.812  1.00  0.00     0.010 A 
ATOM     63  C   UNL A   1      43.086  32.589  33.753  1.00  0.00     0.010 A 
ATOM     64  C   UNL A   1      44.158  34.843  32.481  1.00  0.00     0.020 A 
ATOM     65  C   UNL A   1      43.113  33.817  34.421  1.00  0.00     0.020 A 
ATOM     66  C   UNL A   1      43.663  34.934  33.785  1.00  0.00     0.054 A 
BRANCH  66  67
ATOM     67  S   UNL A   1      43.713  36.540  34.628  1.00  0.00     0.124 S 
ATOM     68  O   UNL A   1      44.955  37.111  34.112  1.00  0.00    -0.237 OA
ATOM     69  O   UNL A   1      42.486  37.186  34.167  1.00  0.00    -0.237 OA
ATOM     70  O   UNL A   1      43.731  36.186  36.046  1.00  0.00    -0.744 OA
ENDBRANCH  66  67
ENDBRANCH  47  61
BRANCH  48  71
ATOM     71  C   UNL A   1      42.647  23.647  27.965  1.00  0.00    -0.014 A 
ATOM     72  C   UNL A   1      43.009  23.477  26.619  1.00  0.00     0.010 A 
ATOM     73  C   UNL A   1      42.152  22.546  28.689  1.00  0.00     0.010 A 
ATOM     74  C   UNL A   1      42.873  22.227  26.006  1.00  0.00     0.020 A 
ATOM     75  C   UNL A   1      42.040  21.291  28.087  1.00  0.00     0.020 A 
ATOM     76  C   UNL A   1      42.390  21.142  26.744  1.00  0.00     0.054 A 
BRANCH  76  77
ATOM     77  S   UNL A   1      42.274  19.512  25.957  1.00  0.00     0.124 S 
ATOM     78  O   UNL A   1      42.712  18.627  27.030  1.00  0.00    -0.237 OA
ATOM     79  O   UNL A   1      40.859  19.424  25.602  1.00  0.00    -0.237 OA
ATOM     80  O   UNL A   1      43.186  19.621  24.820  1.00  0.00    -0.744 OA
ENDBRANCH  76  77
ENDBRANCH  48  71
BRANCH  60  81
ATOM     81  C   UNL A   1      48.005  26.995  30.888  1.00  0.00    -0.014 A 
ATOM     82  C   UNL A   1      48.962  27.478  29.979  1.00  0.00     0.010 A 
ATOM     83  C   UNL A   1      48.423  26.205  31.975  1.00  0.00     0.010 A 
ATOM     84  C   UNL A   1      50.311  27.157  30.139  1.00  0.00     0.020 A 
ATOM     85  C   UNL A   1      49.775  25.898  32.148  1.00  0.00     0.020 A 
ATOM     86  C   UNL A   1      50.709  26.365  31.221  1.00  0.00     0.054 A 
BRANCH  86  87
ATOM     87  S   UNL A   1      52.471  25.990  31.435  1.00  0.00     0.124 S 
ATOM     88  O   UNL A   1      52.427  24.652  32.019  1.00  0.00    -0.237 OA
ATOM     89  O   UNL A   1      52.988  26.063  30.071  1.00  0.00    -0.237 OA
ATOM     90  O   UNL A   1      52.940  27.046  32.329  1.00  0.00    -0.744 OA
ENDBRANCH  86  87
ENDBRANCH  60  81
ENDBRANCH  34  35
ENDBRANCH  27  29
ENDBRANCH  26  27
ENDBRANCH   1  26
TORSDOF 18
ENDMDL
MODEL 2
REMARK VINA RESULT:      -9.9      3.292      6.410
REMARK SMILES CCC1(CC)CC[NH+]([C@@H]2CC[C@@]([NH3+])(C(=O)OCCOC(=O)c3ccc(-c4c5nc(c(-c6ccc(S(=O)(=O)[O-])cc6)c6ccc([nH]6)c(-c6ccc(S(=O)(=O)[O-])cc6)c6nc(c(-c7ccc(S(=O)(=O)[O-])cc7)c7ccc4[nH]7)C=C6)C=C5)cc3)C2)CC1
REMARK SMILES IDX 18 1 17 2 16 3 14 4 15 5 12 6 9 7 10 8 82 9 11 10 8 11 3 12
REMARK SMILES IDX 6 13 84 14 7 15 83 16 2 18 1 19 4 20 5 21 13 22 19 26 20 27
REMARK SMILES IDX 21 28 22 29 23 30 81 31 24 32 80 33 25 34 26 35 27 36 74 37
REMARK SMILES IDX 28 38 79 39 73 40 75 41 29 42 78 43 72 44 71 45 30 47 60 48
REMARK SMILES IDX 41 49 59 50 42 51 45 52 58 53 76 54 43 55 44 56 57 58 77 59
REMARK SMILES IDX 46 60 31 61 32 62 40 63 33 64 39 65 34 66 35 67 36 68 37 69
REMARK SMILES IDX 38 70 61 71 62 72 70 73 63 74 69 75 64 76 65 77 66 78 67 79
REMARK SMILES IDX 68 80 47 81 48 82 56 83 49 84 55 85 50 86 51 87 52 88 53 89
REMARK SMILES IDX 54 90
REMARK H PARENT 8 17 13 23 13 24 13 25 75 46 45 57
REMARK Flexibility Score: inf
ROOT
ATOM      1  C   UNL A   1      33.757  33.130  28.044  1.00  0.00     0.275 C 
ENDROOT
BRANCH   1   2
ATOM      2  C   UNL A   1      34.017  34.400  28.844  1.00  0.00     0.274 C 
BRANCH   2   3
ATOM      3  O   UNL A   1      33.320  34.354  30.105  1.00  0.00    -0.457 OA
BRANCH   3   4
ATOM      4  C   UNL A   1      32.799  35.529  30.547  1.00  0.00     0.368 C 
ATOM      5  O   UNL A   1      32.508  36.475  29.818  1.00  0.00    -0.245 OA
BRANCH   4   6
ATOM      6  C   UNL A   1      32.686  35.610  32.099  1.00  0.00     0.198 C 
ATOM      7  C   UNL A   1      34.979  35.574  32.808  1.00  0.00     0.191 C 
ATOM      8  C   UNL A   1      34.420  36.918  33.283  1.00  0.00     0.072 C 
ATOM      9  C   UNL A   1      33.733  34.682  32.740  1.00  0.00     0.145 C 
ATOM     10  C   UNL A   1      32.990  36.987  32.723  1.00  0.00     0.087 C 
BRANCH   7  11
ATOM     11  N   UNL A   1      36.119  34.996  33.532  1.00  0.00    -0.332 N 
ATOM     12  C   UNL A   1      37.907  32.814  34.580  1.00  0.00    -0.020 C 
ATOM     13  C   UNL A   1      36.835  33.546  35.430  1.00  0.00     0.068 C 
ATOM     14  C   UNL A   1      38.332  33.825  33.493  1.00  0.00     0.068 C 
ATOM     15  C   UNL A   1      35.668  34.102  34.609  1.00  0.00     0.263 C 
ATOM     16  C   UNL A   1      37.149  34.379  32.688  1.00  0.00     0.263 C 
ATOM     17  H   UNL A   1      36.597  35.793  33.953  1.00  0.00     0.348 HD
BRANCH  12  18
ATOM     18  C   UNL A   1      39.089  32.440  35.529  1.00  0.00     0.004 C 
ATOM     19  C   UNL A   1      40.290  31.743  34.898  1.00  0.00     0.004 C 
ENDBRANCH  12  18
BRANCH  12  20
ATOM     20  C   UNL A   1      37.257  31.523  33.988  1.00  0.00     0.004 C 
ATOM     21  C   UNL A   1      38.157  30.611  33.170  1.00  0.00     0.004 C 
ENDBRANCH  12  20
ENDBRANCH   7  11
BRANCH   6  22
ATOM     22  N   UNL A   1      31.311  35.173  32.445  1.00  0.00    -0.343 N 
ATOM     23  H   UNL A   1      31.116  34.278  31.995  1.00  0.00     0.345 HD
ATOM     24  H   UNL A   1      30.640  35.870  32.123  1.00  0.00     0.345 HD
ATOM     25  H   UNL A   1      31.233  35.067  33.457  1.00  0.00     0.345 HD
ENDBRANCH   6  22
ENDBRANCH   4   6
ENDBRANCH   3   4
ENDBRANCH   2   3
ENDBRANCH   1   2
BRANCH   1  26
ATOM     26  O   UNL A   1      34.310  32.009  28.752  1.00  0.00    -0.458 OA
BRANCH  26  27
ATOM     27  C   UNL A   1      34.436  30.868  28.043  1.00  0.00     0.338 C 
ATOM     28  O   UNL A   1      33.604  30.370  27.291  1.00  0.00    -0.246 OA
BRANCH  27  29
ATOM     29  C   UNL A   1      35.756  30.263  28.291  1.00  0.00     0.060 A 
ATOM     30  C   UNL A   1      36.042  29.676  29.522  1.00  0.00     0.016 A 
ATOM     31  C   UNL A   1      36.760  30.400  27.332  1.00  0.00     0.016 A 
ATOM     32  C   UNL A   1      37.357  29.343  29.842  1.00  0.00     0.010 A 
ATOM     33  C   UNL A   1      38.054  29.951  27.614  1.00  0.00     0.010 A 
ATOM     34  C   UNL A   1      38.382  29.463  28.890  1.00  0.00    -0.014 A 
BRANCH  34  35
ATOM     35  C   UNL A   1      39.786  29.102  29.241  1.00  0.00     0.031 A 
ATOM     36  C   UNL A   1      40.684  30.083  29.958  1.00  0.00     0.074 A 
ATOM     37  C   UNL A   1      40.255  27.871  28.949  1.00  0.00     0.049 A 
ATOM     38  N   UNL A   1      41.929  29.933  30.338  1.00  0.00    -0.248 NA
ATOM     39  C   UNL A   1      40.109  31.391  30.314  1.00  0.00     0.031 C 
ATOM     40  C   UNL A   1      39.495  26.804  28.291  1.00  0.00     0.029 A 
ATOM     41  N   UNL A   1      41.486  27.305  29.175  1.00  0.00    -0.354 N 
ATOM     42  C   UNL A   1      42.269  31.106  31.006  1.00  0.00     0.074 A 
ATOM     43  C   UNL A   1      41.117  31.977  30.944  1.00  0.00     0.031 C 
ATOM     44  C   UNL A   1      40.264  25.708  28.196  1.00  0.00     0.029 A 
ATOM     45  C   UNL A   1      41.594  26.015  28.711  1.00  0.00     0.049 A 
ATOM     46  H   UNL A   1      42.221  27.778  29.629  1.00  0.00     0.167 HD
ATOM     47  C   UNL A   1      43.426  31.428  31.632  1.00  0.00     0.031 A 
ATOM     48  C   UNL A   1      42.650  25.181  28.658  1.00  0.00     0.031 A 
ATOM     49  C   UNL A   1      44.598  30.600  31.655  1.00  0.00     0.049 A 
ATOM     50  C   UNL A   1      43.982  25.647  29.170  1.00  0.00     0.074 A 
ATOM     51  C   UNL A   1      45.828  30.863  32.234  1.00  0.00     0.029 A 
ATOM     52  N   UNL A   1      44.696  29.358  31.053  1.00  0.00    -0.354 N 
ATOM     53  N   UNL A   1      44.279  26.760  29.795  1.00  0.00    -0.248 NA
ATOM     54  C   UNL A   1      45.127  24.753  28.946  1.00  0.00     0.031 C 
ATOM     55  C   UNL A   1      46.687  29.799  31.934  1.00  0.00     0.029 A 
ATOM     56  C   UNL A   1      45.978  28.859  31.204  1.00  0.00     0.049 A 
ATOM     57  H   UNL A   1      43.962  28.897  30.586  1.00  0.00     0.167 HD
ATOM     58  C   UNL A   1      45.645  26.697  30.047  1.00  0.00     0.074 A 
ATOM     59  C   UNL A   1      46.112  25.432  29.519  1.00  0.00     0.031 C 
ATOM     60  C   UNL A   1      46.438  27.609  30.660  1.00  0.00     0.031 A 
BRANCH  47  61
ATOM     61  C   UNL A   1      43.481  32.756  32.332  1.00  0.00    -0.014 A 
ATOM     62  C   UNL A   1      43.224  32.841  33.711  1.00  0.00     0.010 A 
ATOM     63  C   UNL A   1      43.828  33.918  31.623  1.00  0.00     0.010 A 
ATOM     64  C   UNL A   1      43.283  34.074  34.367  1.00  0.00     0.020 A 
ATOM     65  C   UNL A   1      43.900  35.152  32.277  1.00  0.00     0.020 A 
ATOM     66  C   UNL A   1      43.613  35.224  33.643  1.00  0.00     0.054 A 
BRANCH  66  67
ATOM     67  S   UNL A   1      43.697  36.811  34.518  1.00  0.00     0.124 S 
ATOM     68  O   UNL A   1      42.489  37.481  34.042  1.00  0.00    -0.237 OA
ATOM     69  O   UNL A   1      43.679  36.409  35.922  1.00  0.00    -0.237 OA
ATOM     70  O   UNL A   1      44.956  37.393  34.057  1.00  0.00    -0.744 OA
ENDBRANCH  66  67
ENDBRANCH  47  61
BRANCH  48  71
ATOM     71  C   UNL A   1      42.507  23.847  28.014  1.00  0.00    -0.014 A 
ATOM     72  C   UNL A   1      42.704  23.687  26.634  1.00  0.00     0.010 A 
ATOM     73  C   UNL A   1      42.176  22.724  28.797  1.00  0.00     0.010 A 
ATOM     74  C   UNL A   1      42.567  22.426  26.044  1.00  0.00     0.020 A 
ATOM     75  C   UNL A   1      42.064  21.459  28.215  1.00  0.00     0.020 A 
ATOM     76  C   UNL A   1      42.248  21.320  26.839  1.00  0.00     0.054 A 
BRANCH  76  77
ATOM     77  S   UNL A   1      42.131  19.679  26.075  1.00  0.00     0.124 S 
ATOM     78  O   UNL A   1      40.717  19.609  25.725  1.00  0.00    -0.237 OA
ATOM     79  O   UNL A   1      43.058  19.779  24.950  1.00  0.00    -0.237 OA
ATOM     80  O   UNL A   1      42.560  18.778  27.144  1.00  0.00    -0.744 OA
ENDBRANCH  76  77
ENDBRANCH  48  71
BRANCH  60  81
ATOM     81  C   UNL A   1      47.894  27.268  30.797  1.00  0.00    -0.014 A 
ATOM     82  C   UNL A   1      48.376  26.618  31.946  1.00  0.00     0.010 A 
ATOM     83  C   UNL A   1      48.783  27.570  29.750  1.00  0.00     0.010 A 
ATOM     84  C   UNL A   1      49.730  26.296  32.057  1.00  0.00     0.020 A 
ATOM     85  C   UNL A   1      50.135  27.231  29.850  1.00  0.00     0.020 A 
ATOM     86  C   UNL A   1      50.602  26.608  31.009  1.00  0.00     0.054 A 
BRANCH  86  87
ATOM     87  S   UNL A   1      52.351  26.146  31.154  1.00  0.00     0.124 S 
ATOM     88  O   UNL A   1      52.862  27.177  32.053  1.00  0.00    -0.237 OA
ATOM     89  O   UNL A   1      52.286  24.799  31.715  1.00  0.00    -0.237 OA
ATOM     90  O   UNL A   1      52.839  26.218  29.779  1.00  0.00    -0.744 OA
ENDBRANCH  86  87
ENDBRANCH  60  81
ENDBRANCH  34  35
ENDBRANCH  27  29
ENDBRANCH  26  27
ENDBRANCH   1  26
TORSDOF 18
ENDMDL
MODEL 3
REMARK VINA RESULT:      -9.9      2.677      9.442
REMARK SMILES CCC1(CC)CC[NH+]([C@@H]2CC[C@@]([NH3+])(C(=O)OCCOC(=O)c3ccc(-c4c5nc(c(-c6ccc(S(=O)(=O)[O-])cc6)c6ccc([nH]6)c(-c6ccc(S(=O)(=O)[O-])cc6)c6nc(c(-c7ccc(S(=O)(=O)[O-])cc7)c7ccc4[nH]7)C=C6)C=C5)cc3)C2)CC1
REMARK SMILES IDX 18 1 17 2 16 3 14 4 15 5 12 6 9 7 10 8 82 9 11 10 8 11 3 12
REMARK SMILES IDX 6 13 84 14 7 15 83 16 2 18 1 19 4 20 5 21 13 22 19 26 20 27
REMARK SMILES IDX 21 28 22 29 23 30 81 31 24 32 80 33 25 34 26 35 27 36 74 37
REMARK SMILES IDX 28 38 79 39 73 40 75 41 29 42 78 43 72 44 71 45 30 47 60 48
REMARK SMILES IDX 41 49 59 50 42 51 45 52 58 53 76 54 43 55 44 56 57 58 77 59
REMARK SMILES IDX 46 60 31 61 32 62 40 63 33 64 39 65 34 66 35 67 36 68 37 69
REMARK SMILES IDX 38 70 61 71 62 72 70 73 63 74 69 75 64 76 65 77 66 78 67 79
REMARK SMILES IDX 68 80 47 81 48 82 56 83 49 84 55 85 50 86 51 87 52 88 53 89
REMARK SMILES IDX 54 90
REMARK H PARENT 8 17 13 23 13 24 13 25 75 46 45 57
REMARK Flexibility Score: inf
ROOT
ATOM      1  C   UNL A   1      37.523  21.713  24.797  1.00  0.00     0.275 C 
ENDROOT
BRANCH   1   2
ATOM      2  C   UNL A   1      36.159  21.145  25.172  1.00  0.00     0.274 C 
BRANCH   2   3
ATOM      3  O   UNL A   1      35.128  22.131  24.967  1.00  0.00    -0.457 OA
BRANCH   3   4
ATOM      4  C   UNL A   1      34.159  22.193  25.919  1.00  0.00     0.368 C 
ATOM      5  O   UNL A   1      34.335  21.920  27.105  1.00  0.00    -0.245 OA
BRANCH   4   6
ATOM      6  C   UNL A   1      32.756  22.558  25.349  1.00  0.00     0.198 C 
ATOM      7  C   UNL A   1      32.937  24.917  24.942  1.00  0.00     0.191 C 
ATOM      8  C   UNL A   1      32.679  24.279  23.575  1.00  0.00     0.072 C 
ATOM      9  C   UNL A   1      32.307  23.916  25.918  1.00  0.00     0.145 C 
ATOM     10  C   UNL A   1      32.684  22.762  23.822  1.00  0.00     0.087 C 
BRANCH   7  11
ATOM     11  N   UNL A   1      32.543  26.318  25.146  1.00  0.00    -0.332 N 
ATOM     12  C   UNL A   1      32.674  29.079  26.335  1.00  0.00    -0.020 C 
ATOM     13  C   UNL A   1      31.652  27.993  26.764  1.00  0.00     0.068 C 
ATOM     14  C   UNL A   1      33.024  28.759  24.867  1.00  0.00     0.068 C 
ATOM     15  C   UNL A   1      32.141  26.560  26.540  1.00  0.00     0.263 C 
ATOM     16  C   UNL A   1      33.503  27.316  24.660  1.00  0.00     0.263 C 
ATOM     17  H   UNL A   1      31.728  26.453  24.548  1.00  0.00     0.348 HD
BRANCH  12  18
ATOM     18  C   UNL A   1      31.979  30.469  26.485  1.00  0.00     0.004 C 
ATOM     19  C   UNL A   1      31.031  30.892  25.367  1.00  0.00     0.004 C 
ENDBRANCH  12  18
BRANCH  12  20
ATOM     20  C   UNL A   1      33.908  28.984  27.289  1.00  0.00     0.004 C 
ATOM     21  C   UNL A   1      34.632  30.283  27.610  1.00  0.00     0.004 C 
ENDBRANCH  12  20
ENDBRANCH   7  11
BRANCH   6  22
ATOM     22  N   UNL A   1      31.833  21.477  25.775  1.00  0.00    -0.343 N 
ATOM     23  H   UNL A   1      31.984  20.653  25.193  1.00  0.00     0.345 HD
ATOM     24  H   UNL A   1      30.869  21.793  25.676  1.00  0.00     0.345 HD
ATOM     25  H   UNL A   1      32.014  21.240  26.751  1.00  0.00     0.345 HD
ENDBRANCH   6  22
ENDBRANCH   4   6
ENDBRANCH   3   4
ENDBRANCH   2   3
ENDBRANCH   1   2
BRANCH   1  26
ATOM     26  O   UNL A   1      37.788  22.868  25.608  1.00  0.00    -0.458 OA
BRANCH  26  27
ATOM     27  C   UNL A   1      38.965  22.868  26.267  1.00  0.00     0.338 C 
ATOM     28  O   UNL A   1      39.738  21.924  26.397  1.00  0.00    -0.246 OA
BRANCH  27  29
ATOM     29  C   UNL A   1      39.223  24.200  26.840  1.00  0.00     0.060 A 
ATOM     30  C   UNL A   1      39.948  25.148  26.121  1.00  0.00     0.016 A 
ATOM     31  C   UNL A   1      38.851  24.458  28.160  1.00  0.00     0.016 A 
ATOM     32  C   UNL A   1      40.410  26.298  26.760  1.00  0.00     0.010 A 
ATOM     33  C   UNL A   1      39.213  25.669  28.759  1.00  0.00     0.010 A 
ATOM     34  C   UNL A   1      40.040  26.582  28.085  1.00  0.00    -0.014 A 
BRANCH  34  35
ATOM     35  C   UNL A   1      40.538  27.817  28.759  1.00  0.00     0.031 A 
ATOM     36  C   UNL A   1      41.953  27.898  29.284  1.00  0.00     0.074 A 
ATOM     37  C   UNL A   1      39.731  28.892  28.873  1.00  0.00     0.049 A 
ATOM     38  N   UNL A   1      42.548  28.892  29.895  1.00  0.00    -0.248 NA
ATOM     39  C   UNL A   1      42.818  26.724  29.081  1.00  0.00     0.031 C 
ATOM     40  C   UNL A   1      38.352  28.976  28.383  1.00  0.00     0.029 A 
ATOM     41  N   UNL A   1      39.956  30.125  29.433  1.00  0.00    -0.354 N 
ATOM     42  C   UNL A   1      43.859  28.478  30.113  1.00  0.00     0.074 A 
ATOM     43  C   UNL A   1      43.965  27.128  29.608  1.00  0.00     0.031 C 
ATOM     44  C   UNL A   1      37.868  30.202  28.636  1.00  0.00     0.029 A 
ATOM     45  C   UNL A   1      38.868  30.964  29.374  1.00  0.00     0.049 A 
ATOM     46  H   UNL A   1      40.815  30.385  29.837  1.00  0.00     0.167 HD
ATOM     47  C   UNL A   1      44.890  29.161  30.665  1.00  0.00     0.031 A 
ATOM     48  C   UNL A   1      38.670  32.192  29.893  1.00  0.00     0.031 A 
ATOM     49  C   UNL A   1      44.789  30.480  31.222  1.00  0.00     0.049 A 
ATOM     50  C   UNL A   1      39.767  32.841  30.686  1.00  0.00     0.074 A 
ATOM     51  C   UNL A   1      45.776  31.234  31.835  1.00  0.00     0.029 A 
ATOM     52  N   UNL A   1      43.629  31.233  31.255  1.00  0.00    -0.354 N 
ATOM     53  N   UNL A   1      40.996  32.429  30.879  1.00  0.00    -0.248 NA
ATOM     54  C   UNL A   1      39.440  34.108  31.354  1.00  0.00     0.031 C 
ATOM     55  C   UNL A   1      45.194  32.424  32.289  1.00  0.00     0.029 A 
ATOM     56  C   UNL A   1      43.859  32.425  31.921  1.00  0.00     0.049 A 
ATOM     57  H   UNL A   1      42.767  30.962  30.865  1.00  0.00     0.167 HD
ATOM     58  C   UNL A   1      41.593  33.392  31.685  1.00  0.00     0.074 A 
ATOM     59  C   UNL A   1      40.594  34.412  31.932  1.00  0.00     0.031 C 
ATOM     60  C   UNL A   1      42.855  33.424  32.176  1.00  0.00     0.031 A 
BRANCH  47  61
ATOM     61  C   UNL A   1      46.225  28.472  30.708  1.00  0.00    -0.014 A 
ATOM     62  C   UNL A   1      47.151  28.655  29.667  1.00  0.00     0.010 A 
ATOM     63  C   UNL A   1      46.574  27.671  31.808  1.00  0.00     0.010 A 
ATOM     64  C   UNL A   1      48.396  28.023  29.709  1.00  0.00     0.020 A 
ATOM     65  C   UNL A   1      47.824  27.045  31.860  1.00  0.00     0.020 A 
ATOM     66  C   UNL A   1      48.721  27.214  30.802  1.00  0.00     0.054 A 
BRANCH  66  67
ATOM     67  S   UNL A   1      50.349  26.414  30.842  1.00  0.00     0.124 S 
ATOM     68  O   UNL A   1      51.111  27.325  31.693  1.00  0.00    -0.237 OA
ATOM     69  O   UNL A   1      50.055  25.108  31.425  1.00  0.00    -0.237 OA
ATOM     70  O   UNL A   1      50.756  26.387  29.438  1.00  0.00    -0.744 OA
ENDBRANCH  66  67
ENDBRANCH  47  61
BRANCH  48  71
ATOM     71  C   UNL A   1      37.343  32.850  29.749  1.00  0.00    -0.014 A 
ATOM     72  C   UNL A   1      36.417  32.844  30.804  1.00  0.00     0.010 A 
ATOM     73  C   UNL A   1      37.009  33.496  28.544  1.00  0.00     0.010 A 
ATOM     74  C   UNL A   1      35.174  33.469  30.654  1.00  0.00     0.020 A 
ATOM     75  C   UNL A   1      35.780  34.143  28.400  1.00  0.00     0.020 A 
ATOM     76  C   UNL A   1      34.864  34.114  29.452  1.00  0.00     0.054 A 
BRANCH  76  77
ATOM     77  S   UNL A   1      33.274  34.972  29.288  1.00  0.00     0.124 S 
ATOM     78  O   UNL A   1      33.687  36.283  28.801  1.00  0.00    -0.237 OA
ATOM     79  O   UNL A   1      32.554  34.138  28.330  1.00  0.00    -0.237 OA
ATOM     80  O   UNL A   1      32.736  34.948  30.647  1.00  0.00    -0.744 OA
ENDBRANCH  76  77
ENDBRANCH  48  71
BRANCH  60  81
ATOM     81  C   UNL A   1      43.230  34.604  33.026  1.00  0.00    -0.014 A 
ATOM     82  C   UNL A   1      43.137  34.540  34.426  1.00  0.00     0.010 A 
ATOM     83  C   UNL A   1      43.716  35.776  32.419  1.00  0.00     0.010 A 
ATOM     84  C   UNL A   1      43.499  35.639  35.208  1.00  0.00     0.020 A 
ATOM     85  C   UNL A   1      44.098  36.871  33.199  1.00  0.00     0.020 A 
ATOM     86  C   UNL A   1      43.974  36.800  34.589  1.00  0.00     0.054 A 
BRANCH  86  87
ATOM     87  S   UNL A   1      44.479  38.204  35.621  1.00  0.00     0.124 S 
ATOM     88  O   UNL A   1      43.979  37.808  36.935  1.00  0.00    -0.237 OA
ATOM     89  O   UNL A   1      45.933  38.208  35.477  1.00  0.00    -0.237 OA
ATOM     90  O   UNL A   1      43.796  39.341  35.010  1.00  0.00    -0.744 OA
ENDBRANCH  86  87
ENDBRANCH  60  81
ENDBRANCH  34  35
ENDBRANCH  27  29
ENDBRANCH  26  27
ENDBRANCH   1  26
TORSDOF 18
ENDMDL
