MODEL 1
REMARK VINA RESULT:     -10.8      0.000      0.000
REMARK SMILES C[NH2+][C@]1(C(=O)OCCOC(=O)c2ccc(-c3c4nc(c(-c5ccc(S(=O)(=O)[O-])cc5)c5ccc([nH]5)c(-c5ccc(S(=O)(=O)[O-])cc5)c5nc(c(-c6ccc(S(=O)(=O)[O-])cc6)c6ccc3[nH]6)C=C5)C=C4)cc2)CC[C@@H](Sc2ccc3c(c2)CCC3)C1
REMARK SMILES IDX 8 1 7 2 6 3 4 4 5 5 3 6 72 7 85 8 73 9 74 10 2 11 1 12 75 15
REMARK SMILES IDX 76 16 77 17 81 18 78 19 80 20 79 21 82 22 84 23 83 24 9 25
REMARK SMILES IDX 10 26 11 27 12 28 13 29 71 30 14 31 70 32 15 33 16 34 17 35
REMARK SMILES IDX 64 36 18 37 69 38 63 39 65 40 19 41 68 42 62 43 61 44 20 46
REMARK SMILES IDX 50 47 31 48 49 49 32 50 35 51 48 52 66 53 33 54 34 55 47 57
REMARK SMILES IDX 67 58 36 59 21 60 22 61 30 62 23 63 29 64 24 65 25 66 26 67
REMARK SMILES IDX 27 68 28 69 51 70 52 71 60 72 53 73 59 74 54 75 55 76 56 77
REMARK SMILES IDX 57 78 58 79 37 80 38 81 46 82 39 83 45 84 40 85 41 86 42 87
REMARK SMILES IDX 43 88 44 89
REMARK H PARENT 2 13 2 14 65 45 35 56
REMARK Flexibility Score: inf
ROOT
ATOM      1  C   UNL A   1      32.408  30.487  27.063  1.00  0.00     0.275 C 
ENDROOT
BRANCH   1   2
ATOM      2  C   UNL A   1      32.200  30.020  25.627  1.00  0.00     0.274 C 
BRANCH   2   3
ATOM      3  O   UNL A   1      31.456  28.787  25.611  1.00  0.00    -0.457 OA
BRANCH   3   4
ATOM      4  C   UNL A   1      32.063  27.716  25.016  1.00  0.00     0.368 C 
ATOM      5  O   UNL A   1      33.264  27.642  24.785  1.00  0.00    -0.245 OA
BRANCH   4   6
ATOM      6  C   UNL A   1      31.044  26.595  24.677  1.00  0.00     0.195 C 
ATOM      7  C   UNL A   1      31.735  25.484  23.855  1.00  0.00     0.082 C 
ATOM      8  C   UNL A   1      30.663  25.844  25.978  1.00  0.00     0.096 C 
ATOM      9  C   UNL A   1      30.927  24.230  24.146  1.00  0.00     0.022 C 
ATOM     10  C   UNL A   1      30.513  24.366  25.611  1.00  0.00     0.059 C 
BRANCH   6  11
ATOM     11  N   UNL A   1      29.928  27.169  23.884  1.00  0.00    -0.335 N 
ATOM     12  C   UNL A   1      30.261  27.734  22.586  1.00  0.00     0.331 C 
ATOM     13  H   UNL A   1      29.247  26.427  23.730  1.00  0.00     0.347 HD
ATOM     14  H   UNL A   1      29.590  27.958  24.436  1.00  0.00     0.347 HD
ENDBRANCH   6  11
BRANCH  10  15
ATOM     15  S   UNL A   1      31.376  23.224  26.773  1.00  0.00    -0.122 SA
BRANCH  15  16
ATOM     16  C   UNL A   1      32.928  22.894  25.953  1.00  0.00     0.008 A 
ATOM     17  C   UNL A   1      33.005  21.825  25.040  1.00  0.00     0.015 A 
ATOM     18  C   UNL A   1      34.081  23.630  26.253  1.00  0.00     0.019 A 
ATOM     19  C   UNL A   1      34.209  21.501  24.405  1.00  0.00     0.005 A 
ATOM     20  C   UNL A   1      35.261  23.322  25.597  1.00  0.00    -0.044 A 
ATOM     21  C   UNL A   1      35.330  22.259  24.695  1.00  0.00    -0.045 A 
ATOM     22  C   UNL A   1      36.572  24.035  25.687  1.00  0.00     0.036 C 
ATOM     23  C   UNL A   1      36.713  22.124  24.139  1.00  0.00     0.036 C 
ATOM     24  C   UNL A   1      37.523  22.961  25.143  1.00  0.00     0.010 C 
ENDBRANCH  15  16
ENDBRANCH  10  15
ENDBRANCH   4   6
ENDBRANCH   3   4
ENDBRANCH   2   3
ENDBRANCH   1   2
BRANCH   1  25
ATOM     25  O   UNL A   1      33.641  29.939  27.550  1.00  0.00    -0.458 OA
BRANCH  25  26
ATOM     26  C   UNL A   1      34.421  30.773  28.270  1.00  0.00     0.338 C 
ATOM     27  O   UNL A   1      34.096  31.857  28.743  1.00  0.00    -0.246 OA
BRANCH  26  28
ATOM     28  C   UNL A   1      35.774  30.200  28.399  1.00  0.00     0.060 A 
ATOM     29  C   UNL A   1      36.235  29.736  29.631  1.00  0.00     0.016 A 
ATOM     30  C   UNL A   1      36.630  30.199  27.298  1.00  0.00     0.016 A 
ATOM     31  C   UNL A   1      37.568  29.351  29.782  1.00  0.00     0.010 A 
ATOM     32  C   UNL A   1      37.940  29.724  27.433  1.00  0.00     0.010 A 
ATOM     33  C   UNL A   1      38.442  29.330  28.687  1.00  0.00    -0.014 A 
BRANCH  33  34
ATOM     34  C   UNL A   1      39.881  28.969  28.856  1.00  0.00     0.031 A 
ATOM     35  C   UNL A   1      40.852  29.982  29.415  1.00  0.00     0.074 A 
ATOM     36  C   UNL A   1      40.339  27.740  28.533  1.00  0.00     0.049 A 
ATOM     37  N   UNL A   1      42.162  29.961  29.415  1.00  0.00    -0.248 NA
ATOM     38  C   UNL A   1      40.275  31.184  30.037  1.00  0.00     0.031 C 
ATOM     39  C   UNL A   1      39.526  26.626  28.042  1.00  0.00     0.029 A 
ATOM     40  N   UNL A   1      41.611  27.220  28.584  1.00  0.00    -0.354 N 
ATOM     41  C   UNL A   1      42.562  31.180  29.951  1.00  0.00     0.074 A 
ATOM     42  C   UNL A   1      41.357  31.910  30.283  1.00  0.00     0.031 C 
ATOM     43  C   UNL A   1      40.305  25.542  27.895  1.00  0.00     0.029 A 
ATOM     44  C   UNL A   1      41.688  25.909  28.175  1.00  0.00     0.049 A 
ATOM     45  H   UNL A   1      42.393  27.737  28.885  1.00  0.00     0.167 HD
ATOM     46  C   UNL A   1      43.818  31.655  30.136  1.00  0.00     0.031 A 
ATOM     47  C   UNL A   1      42.751  25.100  27.992  1.00  0.00     0.031 A 
ATOM     48  C   UNL A   1      45.016  30.901  29.874  1.00  0.00     0.049 A 
ATOM     49  C   UNL A   1      44.136  25.641  28.206  1.00  0.00     0.074 A 
ATOM     50  C   UNL A   1      46.333  31.296  30.028  1.00  0.00     0.029 A 
ATOM     51  N   UNL A   1      45.042  29.587  29.435  1.00  0.00    -0.354 N 
ATOM     52  N   UNL A   1      44.498  26.837  28.603  1.00  0.00    -0.248 NA
ATOM     53  C   UNL A   1      45.254  24.733  27.918  1.00  0.00     0.031 C 
ATOM     54  C   UNL A   1      47.158  30.227  29.657  1.00  0.00     0.029 A 
ATOM     55  C   UNL A   1      46.351  29.156  29.312  1.00  0.00     0.049 A 
ATOM     56  H   UNL A   1      44.246  29.041  29.239  1.00  0.00     0.167 HD
ATOM     57  C   UNL A   1      45.888  26.827  28.604  1.00  0.00     0.074 A 
ATOM     58  C   UNL A   1      46.300  25.498  28.200  1.00  0.00     0.031 C 
ATOM     59  C   UNL A   1      46.747  27.833  28.901  1.00  0.00     0.031 A 
BRANCH  46  60
ATOM     60  C   UNL A   1      43.963  33.081  30.598  1.00  0.00    -0.014 A 
ATOM     61  C   UNL A   1      44.024  33.416  31.961  1.00  0.00     0.010 A 
ATOM     62  C   UNL A   1      44.079  34.102  29.636  1.00  0.00     0.010 A 
ATOM     63  C   UNL A   1      44.159  34.751  32.355  1.00  0.00     0.020 A 
ATOM     64  C   UNL A   1      44.239  35.435  30.025  1.00  0.00     0.020 A 
ATOM     65  C   UNL A   1      44.260  35.753  31.383  1.00  0.00     0.054 A 
BRANCH  65  66
ATOM     66  S   UNL A   1      44.454  37.477  31.916  1.00  0.00     0.124 S 
ATOM     67  O   UNL A   1      43.783  38.201  30.839  1.00  0.00    -0.237 OA
ATOM     68  O   UNL A   1      43.768  37.496  33.206  1.00  0.00    -0.237 OA
ATOM     69  O   UNL A   1      45.902  37.657  31.982  1.00  0.00    -0.744 OA
ENDBRANCH  65  66
ENDBRANCH  46  60
BRANCH  47  70
ATOM     70  C   UNL A   1      42.542  23.704  27.516  1.00  0.00    -0.014 A 
ATOM     71  C   UNL A   1      42.461  23.424  26.141  1.00  0.00     0.010 A 
ATOM     72  C   UNL A   1      42.461  22.644  28.437  1.00  0.00     0.010 A 
ATOM     73  C   UNL A   1      42.306  22.107  25.697  1.00  0.00     0.020 A 
ATOM     74  C   UNL A   1      42.335  21.325  27.996  1.00  0.00     0.020 A 
ATOM     75  C   UNL A   1      42.250  21.065  26.627  1.00  0.00     0.054 A 
BRANCH  75  76
ATOM     76  S   UNL A   1      42.142  19.353  26.034  1.00  0.00     0.124 S 
ATOM     77  O   UNL A   1      42.615  18.602  27.192  1.00  0.00    -0.237 OA
ATOM     78  O   UNL A   1      40.722  19.210  25.724  1.00  0.00    -0.237 OA
ATOM     79  O   UNL A   1      43.027  19.342  24.871  1.00  0.00    -0.744 OA
ENDBRANCH  75  76
ENDBRANCH  47  70
BRANCH  59  80
ATOM     80  C   UNL A   1      48.215  27.530  28.816  1.00  0.00    -0.014 A 
ATOM     81  C   UNL A   1      48.922  27.714  27.614  1.00  0.00     0.010 A 
ATOM     82  C   UNL A   1      48.905  27.092  29.960  1.00  0.00     0.010 A 
ATOM     83  C   UNL A   1      50.290  27.436  27.550  1.00  0.00     0.020 A 
ATOM     84  C   UNL A   1      50.277  26.831  29.906  1.00  0.00     0.020 A 
ATOM     85  C   UNL A   1      50.957  26.991  28.696  1.00  0.00     0.054 A 
BRANCH  85  86
ATOM     86  S   UNL A   1      52.740  26.664  28.601  1.00  0.00     0.124 S 
ATOM     87  O   UNL A   1      53.274  27.989  28.295  1.00  0.00    -0.237 OA
ATOM     88  O   UNL A   1      53.047  26.156  29.935  1.00  0.00    -0.237 OA
ATOM     89  O   UNL A   1      52.854  25.682  27.526  1.00  0.00    -0.744 OA
ENDBRANCH  85  86
ENDBRANCH  59  80
ENDBRANCH  33  34
ENDBRANCH  26  28
ENDBRANCH  25  26
ENDBRANCH   1  25
TORSDOF 17
ENDMDL
MODEL 2
REMARK VINA RESULT:     -10.6      1.957      2.829
REMARK SMILES C[NH2+][C@]1(C(=O)OCCOC(=O)c2ccc(-c3c4nc(c(-c5ccc(S(=O)(=O)[O-])cc5)c5ccc([nH]5)c(-c5ccc(S(=O)(=O)[O-])cc5)c5nc(c(-c6ccc(S(=O)(=O)[O-])cc6)c6ccc3[nH]6)C=C5)C=C4)cc2)CC[C@@H](Sc2ccc3c(c2)CCC3)C1
REMARK SMILES IDX 8 1 7 2 6 3 4 4 5 5 3 6 72 7 85 8 73 9 74 10 2 11 1 12 75 15
REMARK SMILES IDX 76 16 77 17 81 18 78 19 80 20 79 21 82 22 84 23 83 24 9 25
REMARK SMILES IDX 10 26 11 27 12 28 13 29 71 30 14 31 70 32 15 33 16 34 17 35
REMARK SMILES IDX 64 36 18 37 69 38 63 39 65 40 19 41 68 42 62 43 61 44 20 46
REMARK SMILES IDX 50 47 31 48 49 49 32 50 35 51 48 52 66 53 33 54 34 55 47 57
REMARK SMILES IDX 67 58 36 59 21 60 22 61 30 62 23 63 29 64 24 65 25 66 26 67
REMARK SMILES IDX 27 68 28 69 51 70 52 71 60 72 53 73 59 74 54 75 55 76 56 77
REMARK SMILES IDX 57 78 58 79 37 80 38 81 46 82 39 83 45 84 40 85 41 86 42 87
REMARK SMILES IDX 43 88 44 89
REMARK H PARENT 2 13 2 14 65 45 35 56
REMARK Flexibility Score: inf
ROOT
ATOM      1  C   UNL A   1      34.368  30.806  27.573  1.00  0.00     0.275 C 
ENDROOT
BRANCH   1   2
ATOM      2  C   UNL A   1      33.047  30.062  27.411  1.00  0.00     0.274 C 
BRANCH   2   3
ATOM      3  O   UNL A   1      33.295  28.660  27.183  1.00  0.00    -0.457 OA
BRANCH   3   4
ATOM      4  C   UNL A   1      32.195  27.856  27.077  1.00  0.00     0.368 C 
ATOM      5  O   UNL A   1      31.266  27.845  27.877  1.00  0.00    -0.245 OA
BRANCH   4   6
ATOM      6  C   UNL A   1      32.258  26.964  25.809  1.00  0.00     0.195 C 
ATOM      7  C   UNL A   1      33.664  27.047  25.174  1.00  0.00     0.082 C 
ATOM      8  C   UNL A   1      32.184  25.474  26.231  1.00  0.00     0.096 C 
ATOM      9  C   UNL A   1      33.829  25.733  24.427  1.00  0.00     0.022 C 
ATOM     10  C   UNL A   1      33.116  24.699  25.298  1.00  0.00     0.059 C 
BRANCH   6  11
ATOM     11  N   UNL A   1      31.248  27.433  24.827  1.00  0.00    -0.335 N 
ATOM     12  C   UNL A   1      31.438  28.761  24.268  1.00  0.00     0.331 C 
ATOM     13  H   UNL A   1      31.243  26.771  24.052  1.00  0.00     0.347 HD
ATOM     14  H   UNL A   1      30.376  27.490  25.353  1.00  0.00     0.347 HD
ENDBRANCH   6  11
BRANCH  10  15
ATOM     15  S   UNL A   1      34.230  23.521  26.177  1.00  0.00    -0.122 SA
BRANCH  15  16
ATOM     16  C   UNL A   1      33.857  21.950  25.413  1.00  0.00     0.008 A 
ATOM     17  C   UNL A   1      32.565  21.731  24.898  1.00  0.00     0.015 A 
ATOM     18  C   UNL A   1      34.798  20.913  25.381  1.00  0.00     0.019 A 
ATOM     19  C   UNL A   1      32.212  20.502  24.328  1.00  0.00     0.005 A 
ATOM     20  C   UNL A   1      34.450  19.711  24.789  1.00  0.00    -0.044 A 
ATOM     21  C   UNL A   1      33.166  19.501  24.283  1.00  0.00    -0.045 A 
ATOM     22  C   UNL A   1      35.321  18.518  24.557  1.00  0.00     0.036 C 
ATOM     23  C   UNL A   1      33.041  18.122  23.714  1.00  0.00     0.036 C 
ATOM     24  C   UNL A   1      34.265  17.428  24.335  1.00  0.00     0.010 C 
ENDBRANCH  15  16
ENDBRANCH  10  15
ENDBRANCH   4   6
ENDBRANCH   3   4
ENDBRANCH   2   3
ENDBRANCH   1   2
BRANCH   1  25
ATOM     25  O   UNL A   1      35.270  29.982  28.326  1.00  0.00    -0.458 OA
BRANCH  25  26
ATOM     26  C   UNL A   1      36.005  30.610  29.268  1.00  0.00     0.338 C 
ATOM     27  O   UNL A   1      35.586  31.330  30.168  1.00  0.00    -0.246 OA
BRANCH  26  28
ATOM     28  C   UNL A   1      37.436  30.325  29.051  1.00  0.00     0.060 A 
ATOM     29  C   UNL A   1      37.912  29.997  27.782  1.00  0.00     0.016 A 
ATOM     30  C   UNL A   1      38.306  30.300  30.141  1.00  0.00     0.016 A 
ATOM     31  C   UNL A   1      39.229  29.566  27.615  1.00  0.00     0.010 A 
ATOM     32  C   UNL A   1      39.651  29.957  29.953  1.00  0.00     0.010 A 
ATOM     33  C   UNL A   1      40.123  29.546  28.693  1.00  0.00    -0.014 A 
BRANCH  33  34
ATOM     34  C   UNL A   1      41.518  29.036  28.528  1.00  0.00     0.031 A 
ATOM     35  C   UNL A   1      42.690  29.965  28.742  1.00  0.00     0.074 A 
ATOM     36  C   UNL A   1      41.761  27.749  28.203  1.00  0.00     0.049 A 
ATOM     37  N   UNL A   1      43.948  29.799  28.418  1.00  0.00    -0.248 NA
ATOM     38  C   UNL A   1      42.405  31.257  29.387  1.00  0.00     0.031 C 
ATOM     39  C   UNL A   1      40.750  26.706  28.023  1.00  0.00     0.029 A 
ATOM     40  N   UNL A   1      42.950  27.094  27.978  1.00  0.00    -0.354 N 
ATOM     41  C   UNL A   1      44.584  30.995  28.735  1.00  0.00     0.074 A 
ATOM     42  C   UNL A   1      43.577  31.871  29.296  1.00  0.00     0.031 C 
ATOM     43  C   UNL A   1      41.360  25.536  27.777  1.00  0.00     0.029 A 
ATOM     44  C   UNL A   1      42.797  25.762  27.672  1.00  0.00     0.049 A 
ATOM     45  H   UNL A   1      43.828  27.537  28.032  1.00  0.00     0.167 HD
ATOM     46  C   UNL A   1      45.883  31.337  28.562  1.00  0.00     0.031 A 
ATOM     47  C   UNL A   1      43.697  24.831  27.298  1.00  0.00     0.031 A 
ATOM     48  C   UNL A   1      46.898  30.441  28.072  1.00  0.00     0.049 A 
ATOM     49  C   UNL A   1      45.135  25.227  27.115  1.00  0.00     0.074 A 
ATOM     50  C   UNL A   1      48.243  30.696  27.861  1.00  0.00     0.029 A 
ATOM     51  N   UNL A   1      46.689  29.110  27.750  1.00  0.00    -0.354 N 
ATOM     52  N   UNL A   1      45.697  26.395  27.310  1.00  0.00    -0.248 NA
ATOM     53  C   UNL A   1      46.052  24.185  26.633  1.00  0.00     0.031 C 
ATOM     54  C   UNL A   1      48.841  29.523  27.385  1.00  0.00     0.029 A 
ATOM     55  C   UNL A   1      47.877  28.530  27.342  1.00  0.00     0.049 A 
ATOM     56  H   UNL A   1      45.823  28.645  27.804  1.00  0.00     0.167 HD
ATOM     57  C   UNL A   1      47.034  26.231  26.965  1.00  0.00     0.074 A 
ATOM     58  C   UNL A   1      47.203  24.844  26.582  1.00  0.00     0.031 C 
ATOM     59  C   UNL A   1      48.029  27.151  26.956  1.00  0.00     0.031 A 
BRANCH  46  60
ATOM     60  C   UNL A   1      46.274  32.761  28.854  1.00  0.00    -0.014 A 
ATOM     61  C   UNL A   1      46.227  33.760  27.866  1.00  0.00     0.010 A 
ATOM     62  C   UNL A   1      46.664  33.109  30.161  1.00  0.00     0.010 A 
ATOM     63  C   UNL A   1      46.598  35.073  28.171  1.00  0.00     0.020 A 
ATOM     64  C   UNL A   1      47.012  34.426  30.477  1.00  0.00     0.020 A 
ATOM     65  C   UNL A   1      46.994  35.396  29.474  1.00  0.00     0.054 A 
BRANCH  65  66
ATOM     66  S   UNL A   1      47.454  37.110  29.854  1.00  0.00     0.124 S 
ATOM     67  O   UNL A   1      48.841  37.157  29.398  1.00  0.00    -0.237 OA
ATOM     68  O   UNL A   1      46.505  37.884  29.056  1.00  0.00    -0.237 OA
ATOM     69  O   UNL A   1      47.270  37.205  31.300  1.00  0.00    -0.744 OA
ENDBRANCH  65  66
ENDBRANCH  46  60
BRANCH  47  70
ATOM     70  C   UNL A   1      43.245  23.443  27.005  1.00  0.00    -0.014 A 
ATOM     71  C   UNL A   1      43.113  22.999  25.678  1.00  0.00     0.010 A 
ATOM     72  C   UNL A   1      42.978  22.546  28.056  1.00  0.00     0.010 A 
ATOM     73  C   UNL A   1      42.728  21.683  25.407  1.00  0.00     0.020 A 
ATOM     74  C   UNL A   1      42.620  21.223  27.790  1.00  0.00     0.020 A 
ATOM     75  C   UNL A   1      42.490  20.801  26.466  1.00  0.00     0.054 A 
BRANCH  75  76
ATOM     76  S   UNL A   1      42.079  19.071  26.101  1.00  0.00     0.124 S 
ATOM     77  O   UNL A   1      42.502  18.396  27.323  1.00  0.00    -0.237 OA
ATOM     78  O   UNL A   1      40.637  19.123  25.874  1.00  0.00    -0.237 OA
ATOM     79  O   UNL A   1      42.877  18.778  24.912  1.00  0.00    -0.744 OA
ENDBRANCH  75  76
ENDBRANCH  47  70
BRANCH  59  80
ATOM     80  C   UNL A   1      49.392  26.683  26.532  1.00  0.00    -0.014 A 
ATOM     81  C   UNL A   1      50.270  26.087  27.455  1.00  0.00     0.010 A 
ATOM     82  C   UNL A   1      49.786  26.806  25.188  1.00  0.00     0.010 A 
ATOM     83  C   UNL A   1      51.532  25.648  27.046  1.00  0.00     0.020 A 
ATOM     84  C   UNL A   1      51.039  26.350  24.770  1.00  0.00     0.020 A 
ATOM     85  C   UNL A   1      51.911  25.788  25.707  1.00  0.00     0.054 A 
BRANCH  85  86
ATOM     86  S   UNL A   1      53.541  25.185  25.189  1.00  0.00     0.124 S 
ATOM     87  O   UNL A   1      53.634  25.697  23.824  1.00  0.00    -0.237 OA
ATOM     88  O   UNL A   1      54.440  25.809  26.156  1.00  0.00    -0.237 OA
ATOM     89  O   UNL A   1      53.425  23.733  25.303  1.00  0.00    -0.744 OA
ENDBRANCH  85  86
ENDBRANCH  59  80
ENDBRANCH  33  34
ENDBRANCH  26  28
ENDBRANCH  25  26
ENDBRANCH   1  25
TORSDOF 17
ENDMDL
MODEL 3
REMARK VINA RESULT:     -10.5      5.243     10.851
REMARK SMILES C[NH2+][C@]1(C(=O)OCCOC(=O)c2ccc(-c3c4nc(c(-c5ccc(S(=O)(=O)[O-])cc5)c5ccc([nH]5)c(-c5ccc(S(=O)(=O)[O-])cc5)c5nc(c(-c6ccc(S(=O)(=O)[O-])cc6)c6ccc3[nH]6)C=C5)C=C4)cc2)CC[C@@H](Sc2ccc3c(c2)CCC3)C1
REMARK SMILES IDX 8 1 7 2 6 3 4 4 5 5 3 6 72 7 85 8 73 9 74 10 2 11 1 12 75 15
REMARK SMILES IDX 76 16 77 17 81 18 78 19 80 20 79 21 82 22 84 23 83 24 9 25
REMARK SMILES IDX 10 26 11 27 12 28 13 29 71 30 14 31 70 32 15 33 16 34 17 35
REMARK SMILES IDX 64 36 18 37 69 38 63 39 65 40 19 41 68 42 62 43 61 44 20 46
REMARK SMILES IDX 50 47 31 48 49 49 32 50 35 51 48 52 66 53 33 54 34 55 47 57
REMARK SMILES IDX 67 58 36 59 21 60 22 61 30 62 23 63 29 64 24 65 25 66 26 67
REMARK SMILES IDX 27 68 28 69 51 70 52 71 60 72 53 73 59 74 54 75 55 76 56 77
REMARK SMILES IDX 57 78 58 79 37 80 38 81 46 82 39 83 45 84 40 85 41 86 42 87
REMARK SMILES IDX 43 88 44 89
REMARK H PARENT 2 13 2 14 65 45 35 56
REMARK Flexibility Score: inf
ROOT
ATOM      1  C   UNL A   1      38.203  22.737  26.024  1.00  0.00     0.275 C 
ENDROOT
BRANCH   1   2
ATOM      2  C   UNL A   1      37.141  22.622  24.936  1.00  0.00     0.274 C 
BRANCH   2   3
ATOM      3  O   UNL A   1      35.865  22.302  25.524  1.00  0.00    -0.457 OA
BRANCH   3   4
ATOM      4  C   UNL A   1      35.392  21.039  25.305  1.00  0.00     0.368 C 
ATOM      5  O   UNL A   1      36.093  20.081  24.997  1.00  0.00    -0.245 OA
BRANCH   4   6
ATOM      6  C   UNL A   1      33.855  20.959  25.506  1.00  0.00     0.195 C 
ATOM      7  C   UNL A   1      33.373  22.145  26.371  1.00  0.00     0.082 C 
ATOM      8  C   UNL A   1      33.150  21.239  24.155  1.00  0.00     0.096 C 
ATOM      9  C   UNL A   1      31.923  22.354  25.965  1.00  0.00     0.022 C 
ATOM     10  C   UNL A   1      31.890  22.050  24.468  1.00  0.00     0.059 C 
BRANCH   6  11
ATOM     11  N   UNL A   1      33.515  19.685  26.188  1.00  0.00    -0.335 N 
ATOM     12  C   UNL A   1      32.904  18.644  25.377  1.00  0.00     0.331 C 
ATOM     13  H   UNL A   1      34.377  19.305  26.578  1.00  0.00     0.347 HD
ATOM     14  H   UNL A   1      32.804  19.936  26.875  1.00  0.00     0.347 HD
ENDBRANCH   6  11
BRANCH  10  15
ATOM     15  S   UNL A   1      31.667  23.520  23.379  1.00  0.00    -0.122 SA
BRANCH  15  16
ATOM     16  C   UNL A   1      32.279  24.871  24.375  1.00  0.00     0.008 A 
ATOM     17  C   UNL A   1      33.669  25.077  24.466  1.00  0.00     0.015 A 
ATOM     18  C   UNL A   1      31.412  25.679  25.120  1.00  0.00     0.019 A 
ATOM     19  C   UNL A   1      34.199  26.095  25.267  1.00  0.00     0.005 A 
ATOM     20  C   UNL A   1      31.942  26.703  25.886  1.00  0.00    -0.044 A 
ATOM     21  C   UNL A   1      33.321  26.899  25.973  1.00  0.00    -0.045 A 
ATOM     22  C   UNL A   1      31.202  27.738  26.671  1.00  0.00     0.036 C 
ATOM     23  C   UNL A   1      33.636  28.053  26.873  1.00  0.00     0.036 C 
ATOM     24  C   UNL A   1      32.304  28.222  27.622  1.00  0.00     0.010 C 
ENDBRANCH  15  16
ENDBRANCH  10  15
ENDBRANCH   4   6
ENDBRANCH   3   4
ENDBRANCH   2   3
ENDBRANCH   1   2
BRANCH   1  25
ATOM     25  O   UNL A   1      38.642  24.101  26.094  1.00  0.00    -0.458 OA
BRANCH  25  26
ATOM     26  C   UNL A   1      39.846  24.311  26.667  1.00  0.00     0.338 C 
ATOM     27  O   UNL A   1      40.864  23.648  26.502  1.00  0.00    -0.246 OA
BRANCH  26  28
ATOM     28  C   UNL A   1      39.768  25.473  27.573  1.00  0.00     0.060 A 
ATOM     29  C   UNL A   1      40.526  26.618  27.328  1.00  0.00     0.016 A 
ATOM     30  C   UNL A   1      38.992  25.394  28.730  1.00  0.00     0.016 A 
ATOM     31  C   UNL A   1      40.575  27.643  28.274  1.00  0.00     0.010 A 
ATOM     32  C   UNL A   1      38.973  26.465  29.631  1.00  0.00     0.010 A 
ATOM     33  C   UNL A   1      39.795  27.590  29.437  1.00  0.00    -0.014 A 
BRANCH  33  34
ATOM     34  C   UNL A   1      39.885  28.661  30.474  1.00  0.00     0.031 A 
ATOM     35  C   UNL A   1      40.935  28.576  31.557  1.00  0.00     0.074 A 
ATOM     36  C   UNL A   1      39.052  29.724  30.460  1.00  0.00     0.049 A 
ATOM     37  N   UNL A   1      41.029  29.253  32.674  1.00  0.00    -0.248 NA
ATOM     38  C   UNL A   1      42.008  27.586  31.367  1.00  0.00     0.031 C 
ATOM     39  C   UNL A   1      38.025  29.993  29.452  1.00  0.00     0.029 A 
ATOM     40  N   UNL A   1      38.949  30.789  31.325  1.00  0.00    -0.354 N 
ATOM     41  C   UNL A   1      42.112  28.710  33.358  1.00  0.00     0.074 A 
ATOM     42  C   UNL A   1      42.656  27.662  32.521  1.00  0.00     0.031 C 
ATOM     43  C   UNL A   1      37.441  31.172  29.720  1.00  0.00     0.029 A 
ATOM     44  C   UNL A   1      37.971  31.691  30.975  1.00  0.00     0.049 A 
ATOM     45  H   UNL A   1      39.522  30.896  32.118  1.00  0.00     0.167 HD
ATOM     46  C   UNL A   1      42.601  29.045  34.576  1.00  0.00     0.031 A 
ATOM     47  C   UNL A   1      37.509  32.786  31.611  1.00  0.00     0.031 A 
ATOM     48  C   UNL A   1      42.106  30.136  35.375  1.00  0.00     0.049 A 
ATOM     49  C   UNL A   1      38.066  33.145  32.960  1.00  0.00     0.074 A 
ATOM     50  C   UNL A   1      42.535  30.553  36.624  1.00  0.00     0.029 A 
ATOM     51  N   UNL A   1      41.097  31.004  34.990  1.00  0.00    -0.354 N 
ATOM     52  N   UNL A   1      39.013  32.550  33.643  1.00  0.00    -0.248 NA
ATOM     53  C   UNL A   1      37.468  34.305  33.635  1.00  0.00     0.031 C 
ATOM     54  C   UNL A   1      41.765  31.658  37.005  1.00  0.00     0.029 A 
ATOM     55  C   UNL A   1      40.888  31.953  35.975  1.00  0.00     0.049 A 
ATOM     56  H   UNL A   1      40.601  30.952  34.141  1.00  0.00     0.167 HD
ATOM     57  C   UNL A   1      39.119  33.259  34.834  1.00  0.00     0.074 A 
ATOM     58  C   UNL A   1      38.163  34.346  34.764  1.00  0.00     0.031 C 
ATOM     59  C   UNL A   1      39.928  33.023  35.896  1.00  0.00     0.031 A 
BRANCH  46  60
ATOM     60  C   UNL A   1      43.697  28.187  35.148  1.00  0.00    -0.014 A 
ATOM     61  C   UNL A   1      43.418  27.036  35.906  1.00  0.00     0.010 A 
ATOM     62  C   UNL A   1      45.038  28.525  34.886  1.00  0.00     0.010 A 
ATOM     63  C   UNL A   1      44.461  26.261  36.423  1.00  0.00     0.020 A 
ATOM     64  C   UNL A   1      46.084  27.740  35.381  1.00  0.00     0.020 A 
ATOM     65  C   UNL A   1      45.788  26.622  36.162  1.00  0.00     0.054 A 
BRANCH  65  66
ATOM     66  S   UNL A   1      47.126  25.593  36.827  1.00  0.00     0.124 S 
ATOM     67  O   UNL A   1      47.978  25.413  35.654  1.00  0.00    -0.237 OA
ATOM     68  O   UNL A   1      47.685  26.431  37.885  1.00  0.00    -0.237 OA
ATOM     69  O   UNL A   1      46.439  24.389  37.289  1.00  0.00    -0.744 OA
ENDBRANCH  65  66
ENDBRANCH  46  60
BRANCH  47  70
ATOM     70  C   UNL A   1      36.410  33.584  31.002  1.00  0.00    -0.014 A 
ATOM     71  C   UNL A   1      36.507  34.039  29.676  1.00  0.00     0.010 A 
ATOM     72  C   UNL A   1      35.243  33.861  31.737  1.00  0.00     0.010 A 
ATOM     73  C   UNL A   1      35.454  34.753  29.094  1.00  0.00     0.020 A 
ATOM     74  C   UNL A   1      34.178  34.550  31.151  1.00  0.00     0.020 A 
ATOM     75  C   UNL A   1      34.294  34.998  29.834  1.00  0.00     0.054 A 
BRANCH  75  76
ATOM     76  S   UNL A   1      32.900  35.846  29.038  1.00  0.00     0.124 S 
ATOM     77  O   UNL A   1      32.055  36.176  30.181  1.00  0.00    -0.237 OA
ATOM     78  O   UNL A   1      33.546  36.980  28.381  1.00  0.00    -0.237 OA
ATOM     79  O   UNL A   1      32.364  34.835  28.130  1.00  0.00    -0.744 OA
ENDBRANCH  75  76
ENDBRANCH  47  70
BRANCH  59  80
ATOM     80  C   UNL A   1      39.825  33.967  37.060  1.00  0.00    -0.014 A 
ATOM     81  C   UNL A   1      38.993  33.675  38.155  1.00  0.00     0.010 A 
ATOM     82  C   UNL A   1      40.598  35.142  37.076  1.00  0.00     0.010 A 
ATOM     83  C   UNL A   1      38.913  34.558  39.235  1.00  0.00     0.020 A 
ATOM     84  C   UNL A   1      40.536  36.018  38.163  1.00  0.00     0.020 A 
ATOM     85  C   UNL A   1      39.681  35.727  39.229  1.00  0.00     0.054 A 
BRANCH  85  86
ATOM     86  S   UNL A   1      39.586  36.846  40.654  1.00  0.00     0.124 S 
ATOM     87  O   UNL A   1      40.943  37.384  40.707  1.00  0.00    -0.237 OA
ATOM     88  O   UNL A   1      38.550  37.794  40.253  1.00  0.00    -0.237 OA
ATOM     89  O   UNL A   1      39.221  35.966  41.761  1.00  0.00    -0.744 OA
ENDBRANCH  85  86
ENDBRANCH  59  80
ENDBRANCH  33  34
ENDBRANCH  26  28
ENDBRANCH  25  26
ENDBRANCH   1  25
TORSDOF 17
ENDMDL
