MODEL 1
REMARK VINA RESULT:     -11.8      0.000      0.000
REMARK SMILES O=C(OCCOC(=O)[C@H]1C[C@](O)(c2ccc(Cl)cc2)[C@@H](c2ccc(Cl)cc2)O1)c1ccc(-c2c3nc(c(-c4ccc(S(=O)(=O)[O-])cc4)c4ccc([nH]4)c(-c4ccc(S(=O)(=O)[O-])cc4)c4nc(c(-c5ccc(S(=O)(=O)[O-])cc5)c5ccc2[nH]5)C=C4)C=C3)cc1
REMARK SMILES IDX 4 1 3 2 2 3 1 4 29 5 30 6 88 7 31 8 87 9 32 10 33 11 34 12
REMARK SMILES IDX 81 13 35 14 86 15 80 16 82 17 36 18 85 19 79 20 78 21 37 23
REMARK SMILES IDX 67 24 48 25 66 26 49 27 52 28 65 29 83 30 50 31 51 32 64 34
REMARK SMILES IDX 84 35 53 36 38 37 39 38 47 39 40 40 46 41 41 42 42 43 43 44
REMARK SMILES IDX 44 45 45 46 68 47 69 48 77 49 70 50 76 51 71 52 72 53 73 54
REMARK SMILES IDX 74 55 75 56 54 57 55 58 63 59 56 60 62 61 57 62 58 63 59 64
REMARK SMILES IDX 60 65 61 66 5 67 6 68 7 69 8 70 9 71 10 72 28 73 11 74 20 75
REMARK SMILES IDX 13 76 14 77 19 78 15 79 18 80 16 81 17 82 12 83 21 85 22 86
REMARK SMILES IDX 27 87 23 88 26 89 24 90 25 91
REMARK H PARENT 82 22 52 33 12 84
REMARK Flexibility Score: inf
ROOT
ATOM      1  C   UNL A   1      41.404  23.706  27.568  1.00  0.00     0.275 C 
ENDROOT
BRANCH   1   2
ATOM      2  O   UNL A   1      41.519  24.576  26.455  1.00  0.00    -0.458 OA
BRANCH   2   3
ATOM      3  C   UNL A   1      41.047  25.833  26.414  1.00  0.00     0.338 C 
ATOM      4  O   UNL A   1      41.020  26.421  25.336  1.00  0.00    -0.246 OA
BRANCH   3   5
ATOM      5  C   UNL A   1      40.554  26.590  27.614  1.00  0.00     0.060 A 
ATOM      6  C   UNL A   1      39.303  26.165  28.877  1.00  0.00     0.016 A 
ATOM      7  C   UNL A   1      41.392  28.198  27.777  1.00  0.00     0.016 A 
ATOM      8  C   UNL A   1      39.164  27.136  30.404  1.00  0.00     0.010 A 
ATOM      9  C   UNL A   1      41.252  29.158  29.300  1.00  0.00     0.010 A 
ATOM     10  C   UNL A   1      40.171  28.619  30.660  1.00  0.00    -0.014 A 
BRANCH  10  11
ATOM     11  C   UNL A   1      40.241  29.278  32.003  1.00  0.00     0.031 A 
ATOM     12  C   UNL A   1      39.277  30.400  32.253  1.00  0.00     0.074 A 
ATOM     13  C   UNL A   1      41.265  29.021  32.860  1.00  0.00     0.049 A 
ATOM     14  N   UNL A   1      39.269  31.283  33.211  1.00  0.00    -0.248 NA
ATOM     15  C   UNL A   1      38.220  30.618  31.248  1.00  0.00     0.031 C 
ATOM     16  C   UNL A   1      42.369  28.069  32.645  1.00  0.00     0.029 A 
ATOM     17  N   UNL A   1      41.626  29.627  34.043  1.00  0.00    -0.354 N 
ATOM     18  C   UNL A   1      38.209  32.124  32.900  1.00  0.00     0.074 A 
ATOM     19  C   UNL A   1      37.765  31.807  31.576  1.00  0.00     0.031 C 
ATOM     20  C   UNL A   1      43.275  28.172  33.630  1.00  0.00     0.029 A 
ATOM     21  C   UNL A   1      42.838  29.198  34.557  1.00  0.00     0.049 A 
ATOM     22  H   UNL A   1      41.069  30.309  34.485  1.00  0.00     0.167 HD
ATOM     23  C   UNL A   1      37.558  32.996  33.694  1.00  0.00     0.031 A 
ATOM     24  C   UNL A   1      43.526  29.596  35.648  1.00  0.00     0.031 A 
ATOM     25  C   UNL A   1      38.033  33.312  34.998  1.00  0.00     0.049 A 
ATOM     26  C   UNL A   1      42.878  30.656  36.495  1.00  0.00     0.074 A 
ATOM     27  C   UNL A   1      37.509  34.177  35.930  1.00  0.00     0.029 A 
ATOM     28  N   UNL A   1      39.197  32.770  35.530  1.00  0.00    -0.354 N 
ATOM     29  N   UNL A   1      41.781  31.337  36.246  1.00  0.00    -0.248 NA
ATOM     30  C   UNL A   1      43.517  30.979  37.774  1.00  0.00     0.031 C 
ATOM     31  C   UNL A   1      38.415  34.232  36.992  1.00  0.00     0.029 A 
ATOM     32  C   UNL A   1      39.440  33.317  36.765  1.00  0.00     0.049 A 
ATOM     33  H   UNL A   1      39.761  32.096  35.088  1.00  0.00     0.167 HD
ATOM     34  C   UNL A   1      41.560  32.123  37.367  1.00  0.00     0.074 A 
ATOM     35  C   UNL A   1      42.652  31.847  38.285  1.00  0.00     0.031 C 
ATOM     36  C   UNL A   1      40.542  32.977  37.630  1.00  0.00     0.031 A 
BRANCH  23  37
ATOM     37  C   UNL A   1      36.312  33.611  33.116  1.00  0.00    -0.014 A 
ATOM     38  C   UNL A   1      36.356  34.877  32.488  1.00  0.00     0.010 A 
ATOM     39  C   UNL A   1      35.070  33.005  33.346  1.00  0.00     0.010 A 
ATOM     40  C   UNL A   1      35.177  35.560  32.186  1.00  0.00     0.020 A 
ATOM     41  C   UNL A   1      33.888  33.668  33.003  1.00  0.00     0.020 A 
ATOM     42  C   UNL A   1      33.949  34.951  32.451  1.00  0.00     0.054 A 
BRANCH  42  43
ATOM     43  S   UNL A   1      32.431  35.861  32.061  1.00  0.00     0.124 S 
ATOM     44  O   UNL A   1      31.404  35.004  32.650  1.00  0.00    -0.237 OA
ATOM     45  O   UNL A   1      32.646  37.138  32.738  1.00  0.00    -0.237 OA
ATOM     46  O   UNL A   1      32.429  35.924  30.602  1.00  0.00    -0.744 OA
ENDBRANCH  42  43
ENDBRANCH  23  37
BRANCH  24  47
ATOM     47  C   UNL A   1      44.819  28.945  36.036  1.00  0.00    -0.014 A 
ATOM     48  C   UNL A   1      44.824  27.783  36.833  1.00  0.00     0.010 A 
ATOM     49  C   UNL A   1      46.055  29.445  35.584  1.00  0.00     0.010 A 
ATOM     50  C   UNL A   1      46.026  27.146  37.175  1.00  0.00     0.020 A 
ATOM     51  C   UNL A   1      47.261  28.798  35.904  1.00  0.00     0.020 A 
ATOM     52  C   UNL A   1      47.238  27.651  36.701  1.00  0.00     0.054 A 
BRANCH  52  53
ATOM     53  S   UNL A   1      48.774  26.761  37.101  1.00  0.00     0.124 S 
ATOM     54  O   UNL A   1      48.270  25.496  37.624  1.00  0.00    -0.237 OA
ATOM     55  O   UNL A   1      49.439  26.689  35.801  1.00  0.00    -0.237 OA
ATOM     56  O   UNL A   1      49.428  27.626  38.080  1.00  0.00    -0.744 OA
ENDBRANCH  52  53
ENDBRANCH  24  47
BRANCH  36  57
ATOM     57  C   UNL A   1      40.508  33.613  38.983  1.00  0.00    -0.014 A 
ATOM     58  C   UNL A   1      41.109  34.857  39.218  1.00  0.00     0.010 A 
ATOM     59  C   UNL A   1      39.693  33.022  39.968  1.00  0.00     0.010 A 
ATOM     60  C   UNL A   1      40.884  35.512  40.426  1.00  0.00     0.020 A 
ATOM     61  C   UNL A   1      39.435  33.694  41.157  1.00  0.00     0.020 A 
ATOM     62  C   UNL A   1      40.034  34.934  41.378  1.00  0.00     0.054 A 
BRANCH  62  63
ATOM     63  S   UNL A   1      39.659  35.867  42.881  1.00  0.00     0.124 S 
ATOM     64  O   UNL A   1      38.295  35.435  43.171  1.00  0.00    -0.237 OA
ATOM     65  O   UNL A   1      40.683  35.394  43.810  1.00  0.00    -0.237 OA
ATOM     66  O   UNL A   1      39.797  37.262  42.467  1.00  0.00    -0.744 OA
ENDBRANCH  62  63
ENDBRANCH  36  57
ENDBRANCH  10  11
ENDBRANCH   3   5
ENDBRANCH   2   3
ENDBRANCH   1   2
BRANCH   1  67
ATOM     67  C   UNL A   1      40.252  22.701  27.431  1.00  0.00     0.274 C 
BRANCH  67  68
ATOM     68  O   UNL A   1      39.638  22.592  26.117  1.00  0.00    -0.460 OA
BRANCH  68  69
ATOM     69  C   UNL A   1      38.394  23.062  25.791  1.00  0.00     0.335 C 
ATOM     70  O   UNL A   1      38.014  24.197  26.030  1.00  0.00    -0.249 OA
BRANCH  69  71
ATOM     71  C   UNL A   1      37.565  21.929  25.060  1.00  0.00     0.232 C 
ATOM     72  C   UNL A   1      36.579  21.116  25.884  1.00  0.00     0.087 C 
ATOM     73  O   UNL A   1      36.892  22.409  23.903  1.00  0.00    -0.355 OA
ATOM     74  C   UNL A   1      35.115  21.318  25.397  1.00  0.00     0.123 C 
ATOM     75  C   UNL A   1      35.277  22.704  24.123  1.00  0.00     0.186 C 
BRANCH  74  76
ATOM     76  C   UNL A   1      34.445  19.928  24.981  1.00  0.00    -0.013 A 
ATOM     77  C   UNL A   1      35.271  18.835  24.599  1.00  0.00     0.008 A 
ATOM     78  C   UNL A   1      33.085  19.618  25.060  1.00  0.00     0.008 A 
ATOM     79  C   UNL A   1      34.782  17.524  24.448  1.00  0.00     0.021 A 
ATOM     80  C   UNL A   1      32.578  18.307  24.929  1.00  0.00     0.021 A 
ATOM     81  C   UNL A   1      33.435  17.259  24.639  1.00  0.00     0.041 A 
ATOM     82  Cl  UNL A   1      32.838  15.651  24.504  1.00  0.00    -0.084 Cl
ENDBRANCH  74  76
BRANCH  74  83
ATOM     83  O   UNL A   1      34.421  21.572  26.640  1.00  0.00    -0.382 OA
ATOM     84  H   UNL A   1      35.065  21.645  27.361  1.00  0.00     0.212 HD
ENDBRANCH  74  83
BRANCH  75  85
ATOM     85  C   UNL A   1      34.246  24.550  23.671  1.00  0.00    -0.016 A 
ATOM     86  C   UNL A   1      34.029  25.818  24.574  1.00  0.00     0.008 A 
ATOM     87  C   UNL A   1      33.626  25.111  22.383  1.00  0.00     0.008 A 
ATOM     88  C   UNL A   1      33.460  27.092  24.296  1.00  0.00     0.021 A 
ATOM     89  C   UNL A   1      32.954  26.359  22.134  1.00  0.00     0.021 A 
ATOM     90  C   UNL A   1      32.888  27.344  23.084  1.00  0.00     0.041 A 
ATOM     91  Cl  UNL A   1      32.152  28.858  22.766  1.00  0.00    -0.084 Cl
ENDBRANCH  75  85
ENDBRANCH  69  71
ENDBRANCH  68  69
ENDBRANCH  67  68
ENDBRANCH   1  67
TORSDOF 17
ENDMDL
MODEL 2
REMARK VINA RESULT:     -11.6      9.835     16.138
REMARK SMILES O=C(OCCOC(=O)[C@H]1C[C@](O)(c2ccc(Cl)cc2)[C@@H](c2ccc(Cl)cc2)O1)c1ccc(-c2c3nc(c(-c4ccc(S(=O)(=O)[O-])cc4)c4ccc([nH]4)c(-c4ccc(S(=O)(=O)[O-])cc4)c4nc(c(-c5ccc(S(=O)(=O)[O-])cc5)c5ccc2[nH]5)C=C4)C=C3)cc1
REMARK SMILES IDX 4 1 3 2 2 3 1 4 29 5 30 6 88 7 31 8 87 9 32 10 33 11 34 12
REMARK SMILES IDX 81 13 35 14 86 15 80 16 82 17 36 18 85 19 79 20 78 21 37 23
REMARK SMILES IDX 67 24 48 25 66 26 49 27 52 28 65 29 83 30 50 31 51 32 64 34
REMARK SMILES IDX 84 35 53 36 38 37 39 38 47 39 40 40 46 41 41 42 42 43 43 44
REMARK SMILES IDX 44 45 45 46 68 47 69 48 77 49 70 50 76 51 71 52 72 53 73 54
REMARK SMILES IDX 74 55 75 56 54 57 55 58 63 59 56 60 62 61 57 62 58 63 59 64
REMARK SMILES IDX 60 65 61 66 5 67 6 68 7 69 8 70 9 71 10 72 28 73 11 74 20 75
REMARK SMILES IDX 13 76 14 77 19 78 15 79 18 80 16 81 17 82 12 83 21 85 22 86
REMARK SMILES IDX 27 87 23 88 26 89 24 90 25 91
REMARK H PARENT 82 22 52 33 12 84
REMARK Flexibility Score: inf
ROOT
ATOM      1  C   UNL A   1      44.256  40.146  29.154  1.00  0.00     0.275 C 
ENDROOT
BRANCH   1   2
ATOM      2  O   UNL A   1      44.502  38.786  29.469  1.00  0.00    -0.458 OA
BRANCH   2   3
ATOM      3  C   UNL A   1      45.692  38.175  29.348  1.00  0.00     0.338 C 
ATOM      4  O   UNL A   1      46.712  38.858  29.360  1.00  0.00    -0.246 OA
BRANCH   3   5
ATOM      5  C   UNL A   1      45.867  36.692  29.181  1.00  0.00     0.060 A 
ATOM      6  C   UNL A   1      46.351  35.395  30.374  1.00  0.00     0.016 A 
ATOM      7  C   UNL A   1      45.520  36.169  27.473  1.00  0.00     0.016 A 
ATOM      8  C   UNL A   1      46.148  33.638  29.961  1.00  0.00     0.010 A 
ATOM      9  C   UNL A   1      45.315  34.421  27.070  1.00  0.00     0.010 A 
ATOM     10  C   UNL A   1      45.580  33.126  28.320  1.00  0.00    -0.014 A 
BRANCH  10  11
ATOM     11  C   UNL A   1      45.178  31.708  28.053  1.00  0.00     0.031 A 
ATOM     12  C   UNL A   1      43.828  31.286  28.555  1.00  0.00     0.074 A 
ATOM     13  C   UNL A   1      46.073  30.800  27.581  1.00  0.00     0.049 A 
ATOM     14  N   UNL A   1      43.329  30.089  28.673  1.00  0.00    -0.248 NA
ATOM     15  C   UNL A   1      42.941  32.343  29.077  1.00  0.00     0.031 C 
ATOM     16  C   UNL A   1      47.478  31.060  27.222  1.00  0.00     0.029 A 
ATOM     17  N   UNL A   1      45.980  29.434  27.435  1.00  0.00    -0.354 N 
ATOM     18  C   UNL A   1      42.089  30.286  29.266  1.00  0.00     0.074 A 
ATOM     19  C   UNL A   1      42.016  31.649  29.701  1.00  0.00     0.031 C 
ATOM     20  C   UNL A   1      48.106  29.911  26.927  1.00  0.00     0.029 A 
ATOM     21  C   UNL A   1      47.167  28.817  27.076  1.00  0.00     0.049 A 
ATOM     22  H   UNL A   1      45.141  28.937  27.575  1.00  0.00     0.167 HD
ATOM     23  C   UNL A   1      41.035  29.449  29.325  1.00  0.00     0.031 A 
ATOM     24  C   UNL A   1      47.466  27.513  26.896  1.00  0.00     0.031 A 
ATOM     25  C   UNL A   1      41.140  28.092  28.908  1.00  0.00     0.049 A 
ATOM     26  C   UNL A   1      46.334  26.539  27.071  1.00  0.00     0.074 A 
ATOM     27  C   UNL A   1      40.183  27.104  28.909  1.00  0.00     0.029 A 
ATOM     28  N   UNL A   1      42.323  27.534  28.439  1.00  0.00    -0.354 N 
ATOM     29  N   UNL A   1      45.114  26.779  27.495  1.00  0.00    -0.248 NA
ATOM     30  C   UNL A   1      46.589  25.141  26.711  1.00  0.00     0.031 C 
ATOM     31  C   UNL A   1      40.817  25.918  28.530  1.00  0.00     0.029 A 
ATOM     32  C   UNL A   1      42.138  26.197  28.189  1.00  0.00     0.049 A 
ATOM     33  H   UNL A   1      43.166  28.024  28.307  1.00  0.00     0.167 HD
ATOM     34  C   UNL A   1      44.432  25.576  27.392  1.00  0.00     0.074 A 
ATOM     35  C   UNL A   1      45.386  24.605  26.885  1.00  0.00     0.031 C 
ATOM     36  C   UNL A   1      43.135  25.296  27.666  1.00  0.00     0.031 A 
BRANCH  23  37
ATOM     37  C   UNL A   1      39.756  30.034  29.858  1.00  0.00    -0.014 A 
ATOM     38  C   UNL A   1      38.809  30.616  28.985  1.00  0.00     0.010 A 
ATOM     39  C   UNL A   1      39.573  30.153  31.243  1.00  0.00     0.010 A 
ATOM     40  C   UNL A   1      37.757  31.382  29.489  1.00  0.00     0.020 A 
ATOM     41  C   UNL A   1      38.494  30.881  31.751  1.00  0.00     0.020 A 
ATOM     42  C   UNL A   1      37.609  31.513  30.871  1.00  0.00     0.054 A 
BRANCH  42  43
ATOM     43  S   UNL A   1      36.243  32.522  31.503  1.00  0.00     0.124 S 
ATOM     44  O   UNL A   1      36.573  32.625  32.923  1.00  0.00    -0.237 OA
ATOM     45  O   UNL A   1      36.381  33.757  30.736  1.00  0.00    -0.237 OA
ATOM     46  O   UNL A   1      35.056  31.729  31.196  1.00  0.00    -0.744 OA
ENDBRANCH  42  43
ENDBRANCH  23  37
BRANCH  24  47
ATOM     47  C   UNL A   1      48.832  27.080  26.458  1.00  0.00    -0.014 A 
ATOM     48  C   UNL A   1      49.816  26.743  27.408  1.00  0.00     0.010 A 
ATOM     49  C   UNL A   1      49.158  26.956  25.093  1.00  0.00     0.010 A 
ATOM     50  C   UNL A   1      51.087  26.305  27.010  1.00  0.00     0.020 A 
ATOM     51  C   UNL A   1      50.423  26.495  24.689  1.00  0.00     0.020 A 
ATOM     52  C   UNL A   1      51.381  26.174  25.651  1.00  0.00     0.054 A 
BRANCH  52  53
ATOM     53  S   UNL A   1      53.014  25.534  25.168  1.00  0.00     0.124 S 
ATOM     54  O   UNL A   1      53.086  25.904  23.758  1.00  0.00    -0.237 OA
ATOM     55  O   UNL A   1      53.911  26.266  26.060  1.00  0.00    -0.237 OA
ATOM     56  O   UNL A   1      52.915  24.101  25.434  1.00  0.00    -0.744 OA
ENDBRANCH  52  53
ENDBRANCH  24  47
BRANCH  36  57
ATOM     57  C   UNL A   1      42.645  23.919  27.352  1.00  0.00    -0.014 A 
ATOM     58  C   UNL A   1      42.180  23.587  26.072  1.00  0.00     0.010 A 
ATOM     59  C   UNL A   1      42.839  22.914  28.319  1.00  0.00     0.010 A 
ATOM     60  C   UNL A   1      41.925  22.254  25.759  1.00  0.00     0.020 A 
ATOM     61  C   UNL A   1      42.624  21.580  27.994  1.00  0.00     0.020 A 
ATOM     62  C   UNL A   1      42.168  21.260  26.715  1.00  0.00     0.054 A 
BRANCH  62  63
ATOM     63  S   UNL A   1      41.950  19.530  26.237  1.00  0.00     0.124 S 
ATOM     64  O   UNL A   1      42.335  18.829  27.458  1.00  0.00    -0.237 OA
ATOM     65  O   UNL A   1      40.530  19.472  25.896  1.00  0.00    -0.237 OA
ATOM     66  O   UNL A   1      42.864  19.364  25.109  1.00  0.00    -0.744 OA
ENDBRANCH  62  63
ENDBRANCH  36  57
ENDBRANCH  10  11
ENDBRANCH   3   5
ENDBRANCH   2   3
ENDBRANCH   1   2
BRANCH   1  67
ATOM     67  C   UNL A   1      42.888  40.375  28.498  1.00  0.00     0.274 C 
BRANCH  67  68
ATOM     68  O   UNL A   1      42.889  41.066  27.218  1.00  0.00    -0.460 OA
BRANCH  68  69
ATOM     69  C   UNL A   1      41.862  41.039  26.312  1.00  0.00     0.335 C 
ATOM     70  O   UNL A   1      40.684  40.977  26.625  1.00  0.00    -0.249 OA
BRANCH  69  71
ATOM     71  C   UNL A   1      42.440  41.119  24.841  1.00  0.00     0.232 C 
ATOM     72  C   UNL A   1      41.790  42.088  23.866  1.00  0.00     0.087 C 
ATOM     73  O   UNL A   1      43.845  41.339  24.820  1.00  0.00    -0.355 OA
ATOM     74  C   UNL A   1      42.781  43.195  23.404  1.00  0.00     0.123 C 
ATOM     75  C   UNL A   1      44.288  42.904  24.506  1.00  0.00     0.186 C 
BRANCH  74  76
ATOM     76  C   UNL A   1      42.945  43.200  21.815  1.00  0.00    -0.013 A 
ATOM     77  C   UNL A   1      41.798  43.053  20.988  1.00  0.00     0.008 A 
ATOM     78  C   UNL A   1      44.128  43.455  21.114  1.00  0.00     0.008 A 
ATOM     79  C   UNL A   1      41.822  43.279  19.599  1.00  0.00     0.021 A 
ATOM     80  C   UNL A   1      44.169  43.702  19.725  1.00  0.00     0.021 A 
ATOM     81  C   UNL A   1      43.009  43.630  18.973  1.00  0.00     0.041 A 
ATOM     82  Cl  UNL A   1      43.038  43.956  17.284  1.00  0.00    -0.084 Cl
ENDBRANCH  74  76
BRANCH  74  83
ATOM     83  O   UNL A   1      41.991  44.393  23.581  1.00  0.00    -0.382 OA
ATOM     84  H   UNL A   1      41.992  44.646  24.517  1.00  0.00     0.212 HD
ENDBRANCH  74  83
BRANCH  75  85
ATOM     85  C   UNL A   1      45.613  44.118  25.708  1.00  0.00    -0.016 A 
ATOM     86  C   UNL A   1      47.023  44.711  25.348  1.00  0.00     0.008 A 
ATOM     87  C   UNL A   1      45.458  44.788  27.081  1.00  0.00     0.008 A 
ATOM     88  C   UNL A   1      47.885  45.599  26.050  1.00  0.00     0.021 A 
ATOM     89  C   UNL A   1      46.376  45.599  27.836  1.00  0.00     0.021 A 
ATOM     90  C   UNL A   1      47.573  46.010  27.312  1.00  0.00     0.041 A 
ATOM     91  Cl  UNL A   1      48.636  47.035  28.181  1.00  0.00    -0.084 Cl
ENDBRANCH  75  85
ENDBRANCH  69  71
ENDBRANCH  68  69
ENDBRANCH  67  68
ENDBRANCH   1  67
TORSDOF 17
ENDMDL
MODEL 3
REMARK VINA RESULT:     -11.2      6.820     12.380
REMARK SMILES O=C(OCCOC(=O)[C@H]1C[C@](O)(c2ccc(Cl)cc2)[C@@H](c2ccc(Cl)cc2)O1)c1ccc(-c2c3nc(c(-c4ccc(S(=O)(=O)[O-])cc4)c4ccc([nH]4)c(-c4ccc(S(=O)(=O)[O-])cc4)c4nc(c(-c5ccc(S(=O)(=O)[O-])cc5)c5ccc2[nH]5)C=C4)C=C3)cc1
REMARK SMILES IDX 4 1 3 2 2 3 1 4 29 5 30 6 88 7 31 8 87 9 32 10 33 11 34 12
REMARK SMILES IDX 81 13 35 14 86 15 80 16 82 17 36 18 85 19 79 20 78 21 37 23
REMARK SMILES IDX 67 24 48 25 66 26 49 27 52 28 65 29 83 30 50 31 51 32 64 34
REMARK SMILES IDX 84 35 53 36 38 37 39 38 47 39 40 40 46 41 41 42 42 43 43 44
REMARK SMILES IDX 44 45 45 46 68 47 69 48 77 49 70 50 76 51 71 52 72 53 73 54
REMARK SMILES IDX 74 55 75 56 54 57 55 58 63 59 56 60 62 61 57 62 58 63 59 64
REMARK SMILES IDX 60 65 61 66 5 67 6 68 7 69 8 70 9 71 10 72 28 73 11 74 20 75
REMARK SMILES IDX 13 76 14 77 19 78 15 79 18 80 16 81 17 82 12 83 21 85 22 86
REMARK SMILES IDX 27 87 23 88 26 89 24 90 25 91
REMARK H PARENT 82 22 52 33 12 84
REMARK Flexibility Score: inf
ROOT
ATOM      1  C   UNL A   1      40.121  19.874  26.109  1.00  0.00     0.275 C 
ENDROOT
BRANCH   1   2
ATOM      2  O   UNL A   1      40.999  18.818  25.757  1.00  0.00    -0.458 OA
BRANCH   2   3
ATOM      3  C   UNL A   1      42.339  18.878  25.830  1.00  0.00     0.338 C 
ATOM      4  O   UNL A   1      42.978  17.830  25.853  1.00  0.00    -0.246 OA
BRANCH   3   5
ATOM      5  C   UNL A   1      43.124  20.156  25.900  1.00  0.00     0.060 A 
ATOM      6  C   UNL A   1      44.149  21.011  24.651  1.00  0.00     0.016 A 
ATOM      7  C   UNL A   1      42.983  20.935  27.539  1.00  0.00     0.016 A 
ATOM      8  C   UNL A   1      44.702  22.719  24.922  1.00  0.00     0.010 A 
ATOM      9  C   UNL A   1      43.531  22.635  27.801  1.00  0.00     0.010 A 
ATOM     10  C   UNL A   1      44.359  23.574  26.481  1.00  0.00    -0.014 A 
BRANCH  10  11
ATOM     11  C   UNL A   1      44.592  25.047  26.617  1.00  0.00     0.031 A 
ATOM     12  C   UNL A   1      46.021  25.505  26.616  1.00  0.00     0.074 A 
ATOM     13  C   UNL A   1      43.578  25.892  26.945  1.00  0.00     0.049 A 
ATOM     14  N   UNL A   1      46.516  26.664  26.946  1.00  0.00    -0.248 NA
ATOM     15  C   UNL A   1      47.050  24.505  26.278  1.00  0.00     0.031 C 
ATOM     16  C   UNL A   1      42.165  25.528  27.147  1.00  0.00     0.029 A 
ATOM     17  N   UNL A   1      43.591  27.225  27.292  1.00  0.00    -0.354 N 
ATOM     18  C   UNL A   1      47.890  26.499  26.838  1.00  0.00     0.074 A 
ATOM     19  C   UNL A   1      48.157  25.103  26.659  1.00  0.00     0.031 C 
ATOM     20  C   UNL A   1      41.469  26.584  27.597  1.00  0.00     0.029 A 
ATOM     21  C   UNL A   1      42.370  27.712  27.727  1.00  0.00     0.049 A 
ATOM     22  H   UNL A   1      44.400  27.784  27.236  1.00  0.00     0.167 HD
ATOM     23  C   UNL A   1      48.853  27.438  26.750  1.00  0.00     0.031 A 
ATOM     24  C   UNL A   1      42.019  28.930  28.191  1.00  0.00     0.031 A 
ATOM     25  C   UNL A   1      48.565  28.817  26.954  1.00  0.00     0.049 A 
ATOM     26  C   UNL A   1      43.103  29.972  28.217  1.00  0.00     0.074 A 
ATOM     27  C   UNL A   1      49.415  29.898  26.916  1.00  0.00     0.029 A 
ATOM     28  N   UNL A   1      47.298  29.286  27.276  1.00  0.00    -0.354 N 
ATOM     29  N   UNL A   1      44.383  29.818  27.960  1.00  0.00    -0.248 NA
ATOM     30  C   UNL A   1      42.709  31.345  28.547  1.00  0.00     0.031 C 
ATOM     31  C   UNL A   1      48.675  31.015  27.313  1.00  0.00     0.029 A 
ATOM     32  C   UNL A   1      47.345  30.641  27.488  1.00  0.00     0.049 A 
ATOM     33  H   UNL A   1      46.489  28.730  27.342  1.00  0.00     0.167 HD
ATOM     34  C   UNL A   1      44.939  31.087  28.033  1.00  0.00     0.074 A 
ATOM     35  C   UNL A   1      43.857  31.991  28.380  1.00  0.00     0.031 C 
ATOM     36  C   UNL A   1      46.217  31.479  27.814  1.00  0.00     0.031 A 
BRANCH  23  37
ATOM     37  C   UNL A   1      50.235  26.938  26.430  1.00  0.00    -0.014 A 
ATOM     38  C   UNL A   1      50.585  26.575  25.110  1.00  0.00     0.010 A 
ATOM     39  C   UNL A   1      51.134  26.674  27.473  1.00  0.00     0.010 A 
ATOM     40  C   UNL A   1      51.765  25.875  24.855  1.00  0.00     0.020 A 
ATOM     41  C   UNL A   1      52.339  26.014  27.214  1.00  0.00     0.020 A 
ATOM     42  C   UNL A   1      52.633  25.596  25.912  1.00  0.00     0.054 A 
BRANCH  42  43
ATOM     43  S   UNL A   1      54.155  24.676  25.561  1.00  0.00     0.124 S 
ATOM     44  O   UNL A   1      54.829  25.556  24.610  1.00  0.00    -0.237 OA
ATOM     45  O   UNL A   1      54.778  24.582  26.879  1.00  0.00    -0.237 OA
ATOM     46  O   UNL A   1      53.676  23.412  25.009  1.00  0.00    -0.744 OA
ENDBRANCH  42  43
ENDBRANCH  23  37
BRANCH  24  47
ATOM     47  C   UNL A   1      40.603  29.243  28.569  1.00  0.00    -0.014 A 
ATOM     48  C   UNL A   1      40.255  29.469  29.915  1.00  0.00     0.010 A 
ATOM     49  C   UNL A   1      39.593  29.359  27.594  1.00  0.00     0.010 A 
ATOM     50  C   UNL A   1      38.940  29.794  30.278  1.00  0.00     0.020 A 
ATOM     51  C   UNL A   1      38.279  29.708  27.949  1.00  0.00     0.020 A 
ATOM     52  C   UNL A   1      37.960  29.922  29.291  1.00  0.00     0.054 A 
BRANCH  52  53
ATOM     53  S   UNL A   1      36.280  30.416  29.785  1.00  0.00     0.124 S 
ATOM     54  O   UNL A   1      36.415  31.860  29.937  1.00  0.00    -0.237 OA
ATOM     55  O   UNL A   1      35.478  29.971  28.647  1.00  0.00    -0.237 OA
ATOM     56  O   UNL A   1      36.053  29.675  31.024  1.00  0.00    -0.744 OA
ENDBRANCH  52  53
ENDBRANCH  24  47
BRANCH  36  57
ATOM     57  C   UNL A   1      46.507  32.945  27.858  1.00  0.00    -0.014 A 
ATOM     58  C   UNL A   1      46.993  33.555  29.023  1.00  0.00     0.010 A 
ATOM     59  C   UNL A   1      46.461  33.662  26.648  1.00  0.00     0.010 A 
ATOM     60  C   UNL A   1      47.443  34.872  28.972  1.00  0.00     0.020 A 
ATOM     61  C   UNL A   1      46.949  34.962  26.587  1.00  0.00     0.020 A 
ATOM     62  C   UNL A   1      47.436  35.558  27.751  1.00  0.00     0.054 A 
BRANCH  62  63
ATOM     63  S   UNL A   1      48.145  37.220  27.690  1.00  0.00     0.124 S 
ATOM     64  O   UNL A   1      49.557  36.936  27.450  1.00  0.00    -0.237 OA
ATOM     65  O   UNL A   1      47.426  37.831  26.574  1.00  0.00    -0.237 OA
ATOM     66  O   UNL A   1      47.836  37.779  29.004  1.00  0.00    -0.744 OA
ENDBRANCH  62  63
ENDBRANCH  36  57
ENDBRANCH  10  11
ENDBRANCH   3   5
ENDBRANCH   2   3
ENDBRANCH   1   2
BRANCH   1  67
ATOM     67  C   UNL A   1      38.806  19.854  25.319  1.00  0.00     0.274 C 
BRANCH  67  68
ATOM     68  O   UNL A   1      38.195  21.145  25.043  1.00  0.00    -0.460 OA
BRANCH  68  69
ATOM     69  C   UNL A   1      38.322  22.258  25.831  1.00  0.00     0.335 C 
ATOM     70  O   UNL A   1      39.319  22.513  26.488  1.00  0.00    -0.249 OA
BRANCH  69  71
ATOM     71  C   UNL A   1      37.009  23.137  25.737  1.00  0.00     0.232 C 
ATOM     72  C   UNL A   1      36.637  23.728  24.387  1.00  0.00     0.087 C 
ATOM     73  O   UNL A   1      35.869  22.469  26.263  1.00  0.00    -0.355 OA
ATOM     74  C   UNL A   1      35.280  23.171  23.867  1.00  0.00     0.123 C 
ATOM     75  C   UNL A   1      34.870  21.813  25.115  1.00  0.00     0.186 C 
BRANCH  74  76
ATOM     76  C   UNL A   1      34.234  24.349  23.599  1.00  0.00    -0.013 A 
ATOM     77  C   UNL A   1      33.319  24.246  22.516  1.00  0.00     0.008 A 
ATOM     78  C   UNL A   1      34.034  25.468  24.413  1.00  0.00     0.008 A 
ATOM     79  C   UNL A   1      32.224  25.115  22.354  1.00  0.00     0.021 A 
ATOM     80  C   UNL A   1      32.933  26.340  24.277  1.00  0.00     0.021 A 
ATOM     81  C   UNL A   1      32.019  26.149  23.255  1.00  0.00     0.041 A 
ATOM     82  Cl  UNL A   1      30.656  27.186  23.092  1.00  0.00    -0.084 Cl
ENDBRANCH  74  76
BRANCH  74  83
ATOM     83  O   UNL A   1      35.609  22.810  22.505  1.00  0.00    -0.382 OA
ATOM     84  H   UNL A   1      35.501  21.854  22.390  1.00  0.00     0.212 HD
ENDBRANCH  74  83
BRANCH  75  85
ATOM     85  C   UNL A   1      34.192  19.762  25.038  1.00  0.00    -0.016 A 
ATOM     86  C   UNL A   1      34.974  18.469  24.608  1.00  0.00     0.008 A 
ATOM     87  C   UNL A   1      32.897  19.072  25.493  1.00  0.00     0.008 A 
ATOM     88  C   UNL A   1      34.618  17.091  24.641  1.00  0.00     0.021 A 
ATOM     89  C   UNL A   1      32.499  17.692  25.425  1.00  0.00     0.021 A 
ATOM     90  C   UNL A   1      33.363  16.711  25.015  1.00  0.00     0.041 A 
ATOM     91  Cl  UNL A   1      32.914  15.058  25.001  1.00  0.00    -0.084 Cl
ENDBRANCH  75  85
ENDBRANCH  69  71
ENDBRANCH  68  69
ENDBRANCH  67  68
ENDBRANCH   1  67
TORSDOF 17
ENDMDL
