MODEL 1
REMARK VINA RESULT:     -11.0      0.000      0.000
REMARK SMILES COc1ccc(CCn2c(-c3cccnc3)cc(C(=O)OCCOC(=O)c3ccc(-c4c5nc(c(-c6ccc(S(=O)(=O)[O-])cc6)c6ccc([nH]6)c(-c6ccc(S(=O)(=O)[O-])cc6)c6nc(c(-c7ccc(S(=O)(=O)[O-])cc7)c7ccc4[nH]7)C=C6)C=C5)cc3)c2C)cc1OC
REMARK SMILES IDX 22 1 21 2 19 3 20 4 18 5 9 6 10 7 87 8 17 9 88 10 8 11 7 12
REMARK SMILES IDX 6 13 3 14 4 15 90 16 5 17 89 18 2 19 1 20 91 21 92 22 11 23
REMARK SMILES IDX 12 24 16 25 13 26 15 27 14 28 23 29 24 30 25 31 26 32 27 33
REMARK SMILES IDX 28 34 86 35 29 36 85 37 30 38 31 39 32 40 79 41 33 42 84 43
REMARK SMILES IDX 78 44 80 45 34 46 83 47 77 48 76 49 35 51 65 52 46 53 64 54
REMARK SMILES IDX 47 55 50 56 63 57 81 58 48 59 49 60 62 62 82 63 51 64 36 65
REMARK SMILES IDX 37 66 45 67 38 68 44 69 39 70 40 71 41 72 42 73 43 74 66 75
REMARK SMILES IDX 67 76 75 77 68 78 74 79 69 80 70 81 71 82 72 83 73 84 52 85
REMARK SMILES IDX 53 86 61 87 54 88 60 89 55 90 56 91 57 92 58 93 59 94
REMARK H PARENT 80 50 50 61
REMARK Flexibility Score: inf
ROOT
ATOM      1  C   UNL A   1      39.184  21.303  25.454  1.00  0.00     0.275 C 
ENDROOT
BRANCH   1   2
ATOM      2  O   UNL A   1      37.792  21.562  25.793  1.00  0.00    -0.458 OA
BRANCH   2   3
ATOM      3  C   UNL A   1      37.496  22.835  26.167  1.00  0.00     0.340 C 
ATOM      4  O   UNL A   1      38.224  23.524  26.886  1.00  0.00    -0.246 OA
BRANCH   3   5
ATOM      5  C   UNL A   1      36.265  23.373  25.577  1.00  0.00     0.081 A 
ATOM      6  N   UNL A   1      34.046  23.657  25.315  1.00  0.00    -0.344 N 
ATOM      7  C   UNL A   1      34.649  24.307  24.238  1.00  0.00     0.051 A 
ATOM      8  C   UNL A   1      35.026  23.211  26.183  1.00  0.00     0.030 A 
ATOM      9  C   UNL A   1      36.022  24.105  24.377  1.00  0.00     0.044 A 
ATOM     10  C   UNL A   1      34.788  22.646  27.549  1.00  0.00     0.065 C 
BRANCH   6  11
ATOM     11  C   UNL A   1      32.621  23.442  25.530  1.00  0.00     0.127 C 
BRANCH  11  12
ATOM     12  C   UNL A   1      31.805  24.425  26.387  1.00  0.00     0.057 C 
BRANCH  12  13
ATOM     13  C   UNL A   1      31.384  25.763  25.815  1.00  0.00    -0.042 A 
ATOM     14  C   UNL A   1      30.880  28.279  24.620  1.00  0.00     0.160 A 
ATOM     15  C   UNL A   1      30.169  27.147  24.221  1.00  0.00     0.051 A 
ATOM     16  C   UNL A   1      31.826  28.177  25.645  1.00  0.00     0.160 A 
ATOM     17  C   UNL A   1      30.415  25.909  24.820  1.00  0.00     0.008 A 
ATOM     18  C   UNL A   1      32.079  26.916  26.211  1.00  0.00     0.054 A 
BRANCH  14  19
ATOM     19  O   UNL A   1      30.532  29.472  24.050  1.00  0.00    -0.493 OA
ATOM     20  C   UNL A   1      29.781  29.289  22.850  1.00  0.00     0.278 C 
ENDBRANCH  14  19
BRANCH  16  21
ATOM     21  O   UNL A   1      32.581  29.163  26.218  1.00  0.00    -0.493 OA
ATOM     22  C   UNL A   1      33.991  29.033  26.207  1.00  0.00     0.278 C 
ENDBRANCH  16  21
ENDBRANCH  12  13
ENDBRANCH  11  12
ENDBRANCH   6  11
BRANCH   7  23
ATOM     23  C   UNL A   1      33.900  24.885  23.109  1.00  0.00     0.017 A 
ATOM     24  C   UNL A   1      33.202  24.058  22.221  1.00  0.00     0.013 A 
ATOM     25  C   UNL A   1      33.710  26.259  22.963  1.00  0.00     0.121 A 
ATOM     26  C   UNL A   1      32.292  24.606  21.315  1.00  0.00     0.021 A 
ATOM     27  N   UNL A   1      32.840  26.823  22.083  1.00  0.00    -0.264 NA
ATOM     28  C   UNL A   1      32.138  25.981  21.295  1.00  0.00     0.111 A 
ENDBRANCH   7  23
ENDBRANCH   3   5
ENDBRANCH   2   3
ENDBRANCH   1   2
BRANCH   1  29
ATOM     29  C   UNL A   1      39.691  20.005  26.142  1.00  0.00     0.275 C 
BRANCH  29  30
ATOM     30  O   UNL A   1      40.965  20.044  26.890  1.00  0.00    -0.458 OA
BRANCH  30  31
ATOM     31  C   UNL A   1      42.009  20.735  26.307  1.00  0.00     0.338 C 
ATOM     32  O   UNL A   1      42.692  20.260  25.412  1.00  0.00    -0.246 OA
BRANCH  31  33
ATOM     33  C   UNL A   1      42.267  22.150  26.861  1.00  0.00     0.060 A 
ATOM     34  C   UNL A   1      42.041  22.442  28.200  1.00  0.00     0.016 A 
ATOM     35  C   UNL A   1      42.482  23.288  26.049  1.00  0.00     0.016 A 
ATOM     36  C   UNL A   1      42.118  23.799  28.702  1.00  0.00     0.010 A 
ATOM     37  C   UNL A   1      42.512  24.676  26.560  1.00  0.00     0.010 A 
ATOM     38  C   UNL A   1      42.353  24.998  27.922  1.00  0.00    -0.014 A 
BRANCH  38  39
ATOM     39  C   UNL A   1      41.925  26.442  28.597  1.00  0.00     0.031 A 
ATOM     40  C   UNL A   1      43.253  27.091  28.790  1.00  0.00     0.074 A 
ATOM     41  C   UNL A   1      40.864  27.181  29.156  1.00  0.00     0.049 A 
ATOM     42  N   UNL A   1      44.140  26.496  29.535  1.00  0.00    -0.248 NA
ATOM     43  C   UNL A   1      43.789  28.127  27.908  1.00  0.00     0.031 C 
ATOM     44  C   UNL A   1      39.486  26.730  29.428  1.00  0.00     0.029 A 
ATOM     45  N   UNL A   1      40.742  28.543  29.631  1.00  0.00    -0.354 N 
ATOM     46  C   UNL A   1      45.294  27.232  29.438  1.00  0.00     0.074 A 
ATOM     47  C   UNL A   1      45.077  28.081  28.270  1.00  0.00     0.031 C 
ATOM     48  C   UNL A   1      38.667  27.757  29.817  1.00  0.00     0.029 A 
ATOM     49  C   UNL A   1      39.395  29.023  29.917  1.00  0.00     0.049 A 
ATOM     50  H   UNL A   1      41.532  29.119  29.756  1.00  0.00     0.167 HD
ATOM     51  C   UNL A   1      45.873  27.577  30.625  1.00  0.00     0.031 A 
ATOM     52  C   UNL A   1      38.902  30.286  30.284  1.00  0.00     0.031 A 
ATOM     53  C   UNL A   1      45.477  28.902  31.032  1.00  0.00     0.049 A 
ATOM     54  C   UNL A   1      40.004  30.936  31.006  1.00  0.00     0.074 A 
ATOM     55  C   UNL A   1      45.420  30.103  30.353  1.00  0.00     0.029 A 
ATOM     56  N   UNL A   1      44.622  29.010  32.114  1.00  0.00    -0.354 N 
ATOM     57  N   UNL A   1      40.322  30.601  32.218  1.00  0.00    -0.248 NA
ATOM     58  C   UNL A   1      40.751  32.056  30.445  1.00  0.00     0.031 C 
ATOM     59  C   UNL A   1      44.187  30.670  30.734  1.00  0.00     0.029 A 
ATOM     60  C   UNL A   1      43.742  30.054  31.896  1.00  0.00     0.049 A 
ATOM     61  H   UNL A   1      44.638  28.434  32.913  1.00  0.00     0.167 HD
ATOM     62  C   UNL A   1      41.607  31.047  32.324  1.00  0.00     0.074 A 
ATOM     63  C   UNL A   1      41.714  32.132  31.364  1.00  0.00     0.031 C 
ATOM     64  C   UNL A   1      42.545  30.141  32.701  1.00  0.00     0.031 A 
BRANCH  51  65
ATOM     65  C   UNL A   1      46.067  26.426  31.576  1.00  0.00    -0.014 A 
ATOM     66  C   UNL A   1      44.953  25.661  31.950  1.00  0.00     0.010 A 
ATOM     67  C   UNL A   1      47.302  26.169  32.212  1.00  0.00     0.010 A 
ATOM     68  C   UNL A   1      45.060  24.709  32.972  1.00  0.00     0.020 A 
ATOM     69  C   UNL A   1      47.409  25.243  33.250  1.00  0.00     0.020 A 
ATOM     70  C   UNL A   1      46.281  24.523  33.632  1.00  0.00     0.054 A 
BRANCH  70  71
ATOM     71  S   UNL A   1      46.347  23.380  35.039  1.00  0.00     0.124 S 
ATOM     72  O   UNL A   1      47.461  22.503  34.681  1.00  0.00    -0.237 OA
ATOM     73  O   UNL A   1      46.606  24.283  36.156  1.00  0.00    -0.237 OA
ATOM     74  O   UNL A   1      45.037  22.732  35.034  1.00  0.00    -0.744 OA
ENDBRANCH  70  71
ENDBRANCH  51  65
BRANCH  52  75
ATOM     75  C   UNL A   1      37.621  31.204  30.410  1.00  0.00    -0.014 A 
ATOM     76  C   UNL A   1      36.525  30.810  31.265  1.00  0.00     0.010 A 
ATOM     77  C   UNL A   1      37.613  32.571  30.085  1.00  0.00     0.010 A 
ATOM     78  C   UNL A   1      35.613  31.716  31.876  1.00  0.00     0.020 A 
ATOM     79  C   UNL A   1      36.677  33.490  30.671  1.00  0.00     0.020 A 
ATOM     80  C   UNL A   1      35.721  33.071  31.607  1.00  0.00     0.054 A 
BRANCH  80  81
ATOM     81  S   UNL A   1      34.747  34.271  32.606  1.00  0.00     0.124 S 
ATOM     82  O   UNL A   1      34.369  33.495  33.784  1.00  0.00    -0.237 OA
ATOM     83  O   UNL A   1      35.709  35.346  32.848  1.00  0.00    -0.237 OA
ATOM     84  O   UNL A   1      33.640  34.635  31.722  1.00  0.00    -0.744 OA
ENDBRANCH  80  81
ENDBRANCH  52  75
BRANCH  64  85
ATOM     85  C   UNL A   1      42.181  29.194  33.831  1.00  0.00    -0.014 A 
ATOM     86  C   UNL A   1      42.066  29.552  35.195  1.00  0.00     0.010 A 
ATOM     87  C   UNL A   1      42.038  27.833  33.508  1.00  0.00     0.010 A 
ATOM     88  C   UNL A   1      41.914  28.583  36.198  1.00  0.00     0.020 A 
ATOM     89  C   UNL A   1      41.845  26.864  34.500  1.00  0.00     0.020 A 
ATOM     90  C   UNL A   1      41.825  27.238  35.842  1.00  0.00     0.054 A 
BRANCH  90  91
ATOM     91  S   UNL A   1      41.735  25.980  37.147  1.00  0.00     0.124 S 
ATOM     92  O   UNL A   1      41.993  24.747  36.406  1.00  0.00    -0.237 OA
ATOM     93  O   UNL A   1      42.792  26.387  38.068  1.00  0.00    -0.237 OA
ATOM     94  O   UNL A   1      40.373  26.111  37.658  1.00  0.00    -0.744 OA
ENDBRANCH  90  91
ENDBRANCH  64  85
ENDBRANCH  38  39
ENDBRANCH  31  33
ENDBRANCH  30  31
ENDBRANCH  29  30
ENDBRANCH   1  29
TORSDOF 20
ENDMDL
MODEL 2
REMARK VINA RESULT:     -11.0      1.494      2.432
REMARK SMILES COc1ccc(CCn2c(-c3cccnc3)cc(C(=O)OCCOC(=O)c3ccc(-c4c5nc(c(-c6ccc(S(=O)(=O)[O-])cc6)c6ccc([nH]6)c(-c6ccc(S(=O)(=O)[O-])cc6)c6nc(c(-c7ccc(S(=O)(=O)[O-])cc7)c7ccc4[nH]7)C=C6)C=C5)cc3)c2C)cc1OC
REMARK SMILES IDX 22 1 21 2 19 3 20 4 18 5 9 6 10 7 87 8 17 9 88 10 8 11 7 12
REMARK SMILES IDX 6 13 3 14 4 15 90 16 5 17 89 18 2 19 1 20 91 21 92 22 11 23
REMARK SMILES IDX 12 24 16 25 13 26 15 27 14 28 23 29 24 30 25 31 26 32 27 33
REMARK SMILES IDX 28 34 86 35 29 36 85 37 30 38 31 39 32 40 79 41 33 42 84 43
REMARK SMILES IDX 78 44 80 45 34 46 83 47 77 48 76 49 35 51 65 52 46 53 64 54
REMARK SMILES IDX 47 55 50 56 63 57 81 58 48 59 49 60 62 62 82 63 51 64 36 65
REMARK SMILES IDX 37 66 45 67 38 68 44 69 39 70 40 71 41 72 42 73 43 74 66 75
REMARK SMILES IDX 67 76 75 77 68 78 74 79 69 80 70 81 71 82 72 83 73 84 52 85
REMARK SMILES IDX 53 86 61 87 54 88 60 89 55 90 56 91 57 92 58 93 59 94
REMARK H PARENT 80 50 50 61
REMARK Flexibility Score: inf
ROOT
ATOM      1  C   UNL A   1      38.635  21.139  26.070  1.00  0.00     0.275 C 
ENDROOT
BRANCH   1   2
ATOM      2  O   UNL A   1      38.595  22.371  25.297  1.00  0.00    -0.458 OA
BRANCH   2   3
ATOM      3  C   UNL A   1      37.882  23.394  25.840  1.00  0.00     0.340 C 
ATOM      4  O   UNL A   1      38.394  24.339  26.444  1.00  0.00    -0.246 OA
BRANCH   3   5
ATOM      5  C   UNL A   1      36.440  23.336  25.580  1.00  0.00     0.081 A 
ATOM      6  N   UNL A   1      34.556  23.347  24.344  1.00  0.00    -0.344 N 
ATOM      7  C   UNL A   1      34.145  23.388  25.677  1.00  0.00     0.051 A 
ATOM      8  C   UNL A   1      35.929  23.184  24.297  1.00  0.00     0.030 A 
ATOM      9  C   UNL A   1      35.309  23.416  26.445  1.00  0.00     0.044 A 
ATOM     10  C   UNL A   1      36.729  22.895  23.064  1.00  0.00     0.065 C 
BRANCH   6  11
ATOM     11  C   UNL A   1      33.717  23.468  23.158  1.00  0.00     0.127 C 
BRANCH  11  12
ATOM     12  C   UNL A   1      33.618  24.806  22.407  1.00  0.00     0.057 C 
BRANCH  12  13
ATOM     13  C   UNL A   1      32.812  25.947  22.992  1.00  0.00    -0.042 A 
ATOM     14  C   UNL A   1      31.460  28.265  23.894  1.00  0.00     0.160 A 
ATOM     15  C   UNL A   1      30.767  27.247  23.239  1.00  0.00     0.051 A 
ATOM     16  C   UNL A   1      32.830  28.124  24.139  1.00  0.00     0.160 A 
ATOM     17  C   UNL A   1      31.437  26.101  22.804  1.00  0.00     0.008 A 
ATOM     18  C   UNL A   1      33.488  26.977  23.664  1.00  0.00     0.054 A 
BRANCH  14  19
ATOM     19  O   UNL A   1      30.728  29.320  24.364  1.00  0.00    -0.493 OA
ATOM     20  C   UNL A   1      29.801  29.800  23.391  1.00  0.00     0.278 C 
ENDBRANCH  14  19
BRANCH  16  21
ATOM     21  O   UNL A   1      33.674  28.967  24.807  1.00  0.00    -0.493 OA
ATOM     22  C   UNL A   1      33.706  28.915  26.221  1.00  0.00     0.278 C 
ENDBRANCH  16  21
ENDBRANCH  12  13
ENDBRANCH  11  12
ENDBRANCH   6  11
BRANCH   7  23
ATOM     23  C   UNL A   1      32.745  23.578  26.095  1.00  0.00     0.017 A 
ATOM     24  C   UNL A   1      32.224  24.865  26.269  1.00  0.00     0.013 A 
ATOM     25  C   UNL A   1      31.839  22.521  26.176  1.00  0.00     0.121 A 
ATOM     26  C   UNL A   1      30.848  25.054  26.411  1.00  0.00     0.021 A 
ATOM     27  N   UNL A   1      30.496  22.673  26.326  1.00  0.00    -0.264 NA
ATOM     28  C   UNL A   1      30.032  23.937  26.419  1.00  0.00     0.111 A 
ENDBRANCH   7  23
ENDBRANCH   3   5
ENDBRANCH   2   3
ENDBRANCH   1   2
BRANCH   1  29
ATOM     29  C   UNL A   1      40.066  20.531  26.074  1.00  0.00     0.275 C 
BRANCH  29  30
ATOM     30  O   UNL A   1      41.131  21.218  26.833  1.00  0.00    -0.458 OA
BRANCH  30  31
ATOM     31  C   UNL A   1      41.989  22.025  26.112  1.00  0.00     0.338 C 
ATOM     32  O   UNL A   1      42.664  21.602  25.185  1.00  0.00    -0.246 OA
BRANCH  31  33
ATOM     33  C   UNL A   1      42.049  23.501  26.552  1.00  0.00     0.060 A 
ATOM     34  C   UNL A   1      42.090  23.840  27.898  1.00  0.00     0.016 A 
ATOM     35  C   UNL A   1      41.804  24.593  25.687  1.00  0.00     0.016 A 
ATOM     36  C   UNL A   1      41.980  25.218  28.335  1.00  0.00     0.010 A 
ATOM     37  C   UNL A   1      41.645  25.991  26.144  1.00  0.00     0.010 A 
ATOM     38  C   UNL A   1      41.748  26.375  27.495  1.00  0.00    -0.014 A 
BRANCH  38  39
ATOM     39  C   UNL A   1      41.183  27.745  28.223  1.00  0.00     0.031 A 
ATOM     40  C   UNL A   1      42.394  28.614  28.213  1.00  0.00     0.074 A 
ATOM     41  C   UNL A   1      40.105  28.308  28.933  1.00  0.00     0.049 A 
ATOM     42  N   UNL A   1      43.469  28.200  28.818  1.00  0.00    -0.248 NA
ATOM     43  C   UNL A   1      42.607  29.702  27.259  1.00  0.00     0.031 C 
ATOM     44  C   UNL A   1      38.880  27.638  29.410  1.00  0.00     0.029 A 
ATOM     45  N   UNL A   1      39.822  29.643  29.419  1.00  0.00    -0.354 N 
ATOM     46  C   UNL A   1      44.452  29.117  28.547  1.00  0.00     0.074 A 
ATOM     47  C   UNL A   1      43.923  29.884  27.423  1.00  0.00     0.031 C 
ATOM     48  C   UNL A   1      37.963  28.521  29.915  1.00  0.00     0.029 A 
ATOM     49  C   UNL A   1      38.470  29.895  29.903  1.00  0.00     0.049 A 
ATOM     50  H   UNL A   1      40.511  30.347  29.422  1.00  0.00     0.167 HD
ATOM     51  C   UNL A   1      45.132  29.589  29.633  1.00  0.00     0.031 A 
ATOM     52  C   UNL A   1      37.826  31.066  30.337  1.00  0.00     0.031 A 
ATOM     53  C   UNL A   1      44.579  30.838  30.092  1.00  0.00     0.049 A 
ATOM     54  C   UNL A   1      38.894  31.913  30.884  1.00  0.00     0.074 A 
ATOM     55  C   UNL A   1      44.217  31.993  29.427  1.00  0.00     0.029 A 
ATOM     56  N   UNL A   1      43.887  30.830  31.290  1.00  0.00    -0.354 N 
ATOM     57  N   UNL A   1      39.441  31.671  32.035  1.00  0.00    -0.248 NA
ATOM     58  C   UNL A   1      39.347  33.127  30.215  1.00  0.00     0.031 C 
ATOM     59  C   UNL A   1      42.975  32.353  29.987  1.00  0.00     0.029 A 
ATOM     60  C   UNL A   1      42.818  31.703  31.204  1.00  0.00     0.049 A 
ATOM     61  H   UNL A   1      44.119  30.288  32.078  1.00  0.00     0.167 HD
ATOM     62  C   UNL A   1      40.631  32.331  31.945  1.00  0.00     0.074 A 
ATOM     63  C   UNL A   1      40.407  33.391  30.979  1.00  0.00     0.031 C 
ATOM     64  C   UNL A   1      41.756  31.608  32.179  1.00  0.00     0.031 A 
BRANCH  51  65
ATOM     65  C   UNL A   1      45.660  28.515  30.547  1.00  0.00    -0.014 A 
ATOM     66  C   UNL A   1      45.163  28.434  31.856  1.00  0.00     0.010 A 
ATOM     67  C   UNL A   1      46.731  27.669  30.182  1.00  0.00     0.010 A 
ATOM     68  C   UNL A   1      45.761  27.577  32.788  1.00  0.00     0.020 A 
ATOM     69  C   UNL A   1      47.350  26.834  31.113  1.00  0.00     0.020 A 
ATOM     70  C   UNL A   1      46.866  26.800  32.417  1.00  0.00     0.054 A 
BRANCH  70  71
ATOM     71  S   UNL A   1      47.696  25.805  33.686  1.00  0.00     0.124 S 
ATOM     72  O   UNL A   1      46.681  24.807  34.019  1.00  0.00    -0.237 OA
ATOM     73  O   UNL A   1      48.855  25.289  32.962  1.00  0.00    -0.237 OA
ATOM     74  O   UNL A   1      47.986  26.758  34.754  1.00  0.00    -0.744 OA
ENDBRANCH  70  71
ENDBRANCH  51  65
BRANCH  52  75
ATOM     75  C   UNL A   1      36.440  31.756  30.651  1.00  0.00    -0.014 A 
ATOM     76  C   UNL A   1      36.076  32.071  32.014  1.00  0.00     0.010 A 
ATOM     77  C   UNL A   1      35.693  32.467  29.696  1.00  0.00     0.010 A 
ATOM     78  C   UNL A   1      35.183  33.113  32.390  1.00  0.00     0.020 A 
ATOM     79  C   UNL A   1      34.765  33.499  30.065  1.00  0.00     0.020 A 
ATOM     80  C   UNL A   1      34.558  33.859  31.403  1.00  0.00     0.054 A 
BRANCH  80  81
ATOM     81  S   UNL A   1      33.638  35.383  31.869  1.00  0.00     0.124 S 
ATOM     82  O   UNL A   1      34.533  36.036  32.820  1.00  0.00    -0.237 OA
ATOM     83  O   UNL A   1      33.480  36.070  30.588  1.00  0.00    -0.237 OA
ATOM     84  O   UNL A   1      32.393  34.872  32.441  1.00  0.00    -0.744 OA
ENDBRANCH  80  81
ENDBRANCH  52  75
BRANCH  64  85
ATOM     85  C   UNL A   1      41.732  30.645  33.353  1.00  0.00    -0.014 A 
ATOM     86  C   UNL A   1      42.267  30.904  34.637  1.00  0.00     0.010 A 
ATOM     87  C   UNL A   1      41.217  29.358  33.118  1.00  0.00     0.010 A 
ATOM     88  C   UNL A   1      42.374  29.894  35.605  1.00  0.00     0.020 A 
ATOM     89  C   UNL A   1      41.281  28.357  34.094  1.00  0.00     0.020 A 
ATOM     90  C   UNL A   1      41.896  28.617  35.317  1.00  0.00     0.054 A 
BRANCH  90  91
ATOM     91  S   UNL A   1      42.130  27.289  36.531  1.00  0.00     0.124 S 
ATOM     92  O   UNL A   1      40.826  27.238  37.190  1.00  0.00    -0.237 OA
ATOM     93  O   UNL A   1      42.453  26.135  35.698  1.00  0.00    -0.237 OA
ATOM     94  O   UNL A   1      43.219  27.779  37.373  1.00  0.00    -0.744 OA
ENDBRANCH  90  91
ENDBRANCH  64  85
ENDBRANCH  38  39
ENDBRANCH  31  33
ENDBRANCH  30  31
ENDBRANCH  29  30
ENDBRANCH   1  29
TORSDOF 20
ENDMDL
MODEL 3
REMARK VINA RESULT:     -10.9      3.885      9.481
REMARK SMILES COc1ccc(CCn2c(-c3cccnc3)cc(C(=O)OCCOC(=O)c3ccc(-c4c5nc(c(-c6ccc(S(=O)(=O)[O-])cc6)c6ccc([nH]6)c(-c6ccc(S(=O)(=O)[O-])cc6)c6nc(c(-c7ccc(S(=O)(=O)[O-])cc7)c7ccc4[nH]7)C=C6)C=C5)cc3)c2C)cc1OC
REMARK SMILES IDX 22 1 21 2 19 3 20 4 18 5 9 6 10 7 87 8 17 9 88 10 8 11 7 12
REMARK SMILES IDX 6 13 3 14 4 15 90 16 5 17 89 18 2 19 1 20 91 21 92 22 11 23
REMARK SMILES IDX 12 24 16 25 13 26 15 27 14 28 23 29 24 30 25 31 26 32 27 33
REMARK SMILES IDX 28 34 86 35 29 36 85 37 30 38 31 39 32 40 79 41 33 42 84 43
REMARK SMILES IDX 78 44 80 45 34 46 83 47 77 48 76 49 35 51 65 52 46 53 64 54
REMARK SMILES IDX 47 55 50 56 63 57 81 58 48 59 49 60 62 62 82 63 51 64 36 65
REMARK SMILES IDX 37 66 45 67 38 68 44 69 39 70 40 71 41 72 42 73 43 74 66 75
REMARK SMILES IDX 67 76 75 77 68 78 74 79 69 80 70 81 71 82 72 83 73 84 52 85
REMARK SMILES IDX 53 86 61 87 54 88 60 89 55 90 56 91 57 92 58 93 59 94
REMARK H PARENT 80 50 50 61
REMARK Flexibility Score: inf
ROOT
ATOM      1  C   UNL A   1      33.747  30.724  27.571  1.00  0.00     0.275 C 
ENDROOT
BRANCH   1   2
ATOM      2  O   UNL A   1      33.692  30.268  26.189  1.00  0.00    -0.458 OA
BRANCH   2   3
ATOM      3  C   UNL A   1      32.488  29.802  25.762  1.00  0.00     0.340 C 
ATOM      4  O   UNL A   1      31.515  30.526  25.537  1.00  0.00    -0.246 OA
BRANCH   3   5
ATOM      5  C   UNL A   1      32.451  28.359  25.503  1.00  0.00     0.081 A 
ATOM      6  N   UNL A   1      32.316  26.479  24.268  1.00  0.00    -0.344 N 
ATOM      7  C   UNL A   1      32.246  26.072  25.601  1.00  0.00     0.051 A 
ATOM      8  C   UNL A   1      32.570  27.839  24.221  1.00  0.00     0.030 A 
ATOM      9  C   UNL A   1      32.295  27.236  26.368  1.00  0.00     0.044 A 
ATOM     10  C   UNL A   1      32.913  28.617  22.988  1.00  0.00     0.065 C 
BRANCH   6  11
ATOM     11  C   UNL A   1      32.142  25.650  23.083  1.00  0.00     0.127 C 
BRANCH  11  12
ATOM     12  C   UNL A   1      33.326  24.855  22.507  1.00  0.00     0.057 C 
BRANCH  12  13
ATOM     13  C   UNL A   1      34.131  23.937  23.403  1.00  0.00    -0.042 A 
ATOM     14  C   UNL A   1      35.686  22.048  24.828  1.00  0.00     0.160 A 
ATOM     15  C   UNL A   1      36.124  23.365  24.682  1.00  0.00     0.051 A 
ATOM     16  C   UNL A   1      34.450  21.667  24.296  1.00  0.00     0.160 A 
ATOM     17  C   UNL A   1      35.349  24.295  23.985  1.00  0.00     0.008 A 
ATOM     18  C   UNL A   1      33.703  22.611  23.573  1.00  0.00     0.054 A 
BRANCH  14  19
ATOM     19  O   UNL A   1      36.455  21.212  25.590  1.00  0.00    -0.493 OA
ATOM     20  C   UNL A   1      37.848  21.390  25.335  1.00  0.00     0.278 C 
ENDBRANCH  14  19
BRANCH  16  21
ATOM     21  O   UNL A   1      33.818  20.457  24.377  1.00  0.00    -0.493 OA
ATOM     22  C   UNL A   1      32.427  20.399  24.119  1.00  0.00     0.278 C 
ENDBRANCH  16  21
ENDBRANCH  12  13
ENDBRANCH  11  12
ENDBRANCH   6  11
BRANCH   7  23
ATOM     23  C   UNL A   1      31.964  24.689  26.020  1.00  0.00     0.017 A 
ATOM     24  C   UNL A   1      32.906  23.963  26.758  1.00  0.00     0.013 A 
ATOM     25  C   UNL A   1      30.711  24.099  25.855  1.00  0.00     0.121 A 
ATOM     26  C   UNL A   1      32.546  22.761  27.370  1.00  0.00     0.021 A 
ATOM     27  N   UNL A   1      30.335  22.925  26.428  1.00  0.00    -0.264 NA
ATOM     28  C   UNL A   1      31.256  22.295  27.188  1.00  0.00     0.111 A 
ENDBRANCH   7  23
ENDBRANCH   3   5
ENDBRANCH   2   3
ENDBRANCH   1   2
BRANCH   1  29
ATOM     29  C   UNL A   1      33.630  32.271  27.650  1.00  0.00     0.275 C 
BRANCH  29  30
ATOM     30  O   UNL A   1      34.677  33.031  28.364  1.00  0.00    -0.458 OA
BRANCH  30  31
ATOM     31  C   UNL A   1      34.907  32.688  29.681  1.00  0.00     0.338 C 
ATOM     32  O   UNL A   1      34.135  32.983  30.582  1.00  0.00    -0.246 OA
BRANCH  31  33
ATOM     33  C   UNL A   1      36.209  31.909  29.953  1.00  0.00     0.060 A 
ATOM     34  C   UNL A   1      37.246  31.914  29.029  1.00  0.00     0.016 A 
ATOM     35  C   UNL A   1      36.354  30.948  30.980  1.00  0.00     0.016 A 
ATOM     36  C   UNL A   1      38.405  31.059  29.188  1.00  0.00     0.010 A 
ATOM     37  C   UNL A   1      37.518  30.045  31.110  1.00  0.00     0.010 A 
ATOM     38  C   UNL A   1      38.616  30.073  30.228  1.00  0.00    -0.014 A 
BRANCH  38  39
ATOM     39  C   UNL A   1      39.745  28.900  29.950  1.00  0.00     0.031 A 
ATOM     40  C   UNL A   1      40.456  28.850  31.259  1.00  0.00     0.074 A 
ATOM     41  C   UNL A   1      40.344  28.091  28.966  1.00  0.00     0.049 A 
ATOM     42  N   UNL A   1      41.034  29.929  31.702  1.00  0.00    -0.248 NA
ATOM     43  C   UNL A   1      40.230  27.817  32.270  1.00  0.00     0.031 C 
ATOM     44  C   UNL A   1      40.117  28.115  27.507  1.00  0.00     0.029 A 
ATOM     45  N   UNL A   1      41.323  27.025  29.013  1.00  0.00    -0.354 N 
ATOM     46  C   UNL A   1      41.493  29.642  32.963  1.00  0.00     0.074 A 
ATOM     47  C   UNL A   1      40.784  28.419  33.329  1.00  0.00     0.031 C 
ATOM     48  C   UNL A   1      40.738  27.077  26.865  1.00  0.00     0.029 A 
ATOM     49  C   UNL A   1      41.514  26.251  27.792  1.00  0.00     0.049 A 
ATOM     50  H   UNL A   1      41.836  26.832  29.832  1.00  0.00     0.167 HD
ATOM     51  C   UNL A   1      42.802  29.950  33.197  1.00  0.00     0.031 A 
ATOM     52  C   UNL A   1      42.280  25.108  27.511  1.00  0.00     0.031 A 
ATOM     53  C   UNL A   1      43.650  28.800  33.006  1.00  0.00     0.049 A 
ATOM     54  C   UNL A   1      43.414  25.164  28.443  1.00  0.00     0.074 A 
ATOM     55  C   UNL A   1      43.555  27.494  33.444  1.00  0.00     0.029 A 
ATOM     56  N   UNL A   1      44.481  28.795  31.900  1.00  0.00    -0.354 N 
ATOM     57  N   UNL A   1      44.402  25.988  28.274  1.00  0.00    -0.248 NA
ATOM     58  C   UNL A   1      43.547  24.242  29.565  1.00  0.00     0.031 C 
ATOM     59  C   UNL A   1      43.889  26.715  32.318  1.00  0.00     0.029 A 
ATOM     60  C   UNL A   1      44.561  27.509  31.398  1.00  0.00     0.049 A 
ATOM     61  H   UNL A   1      44.941  29.582  31.529  1.00  0.00     0.167 HD
ATOM     62  C   UNL A   1      44.940  26.069  29.525  1.00  0.00     0.074 A 
ATOM     63  C   UNL A   1      44.581  24.822  30.176  1.00  0.00     0.031 C 
ATOM     64  C   UNL A   1      45.070  27.309  30.061  1.00  0.00     0.031 A 
BRANCH  51  65
ATOM     65  C   UNL A   1      43.186  31.354  32.810  1.00  0.00    -0.014 A 
ATOM     66  C   UNL A   1      42.406  32.422  33.276  1.00  0.00     0.010 A 
ATOM     67  C   UNL A   1      44.219  31.629  31.888  1.00  0.00     0.010 A 
ATOM     68  C   UNL A   1      42.617  33.717  32.786  1.00  0.00     0.020 A 
ATOM     69  C   UNL A   1      44.416  32.912  31.374  1.00  0.00     0.020 A 
ATOM     70  C   UNL A   1      43.604  33.950  31.821  1.00  0.00     0.054 A 
BRANCH  70  71
ATOM     71  S   UNL A   1      43.756  35.612  31.113  1.00  0.00     0.124 S 
ATOM     72  O   UNL A   1      45.117  35.604  30.579  1.00  0.00    -0.237 OA
ATOM     73  O   UNL A   1      42.698  35.616  30.107  1.00  0.00    -0.237 OA
ATOM     74  O   UNL A   1      43.555  36.506  32.251  1.00  0.00    -0.744 OA
ENDBRANCH  70  71
ENDBRANCH  51  65
BRANCH  52  75
ATOM     75  C   UNL A   1      42.531  23.917  26.502  1.00  0.00    -0.014 A 
ATOM     76  C   UNL A   1      43.625  23.979  25.560  1.00  0.00     0.010 A 
ATOM     77  C   UNL A   1      42.039  22.616  26.702  1.00  0.00     0.010 A 
ATOM     78  C   UNL A   1      44.277  22.842  25.006  1.00  0.00     0.020 A 
ATOM     79  C   UNL A   1      42.670  21.463  26.122  1.00  0.00     0.020 A 
ATOM     80  C   UNL A   1      43.819  21.574  25.327  1.00  0.00     0.054 A 
BRANCH  80  81
ATOM     81  S   UNL A   1      44.822  20.104  24.858  1.00  0.00     0.124 S 
ATOM     82  O   UNL A   1      44.223  19.028  25.641  1.00  0.00    -0.237 OA
ATOM     83  O   UNL A   1      44.612  20.017  23.413  1.00  0.00    -0.237 OA
ATOM     84  O   UNL A   1      46.180  20.476  25.252  1.00  0.00    -0.744 OA
ENDBRANCH  80  81
ENDBRANCH  52  75
BRANCH  64  85
ATOM     85  C   UNL A   1      45.589  28.408  29.151  1.00  0.00    -0.014 A 
ATOM     86  C   UNL A   1      46.949  28.644  28.843  1.00  0.00     0.010 A 
ATOM     87  C   UNL A   1      44.647  29.322  28.646  1.00  0.00     0.010 A 
ATOM     88  C   UNL A   1      47.357  29.793  28.149  1.00  0.00     0.020 A 
ATOM     89  C   UNL A   1      45.042  30.450  27.917  1.00  0.00     0.020 A 
ATOM     90  C   UNL A   1      46.397  30.702  27.707  1.00  0.00     0.054 A 
BRANCH  90  91
ATOM     91  S   UNL A   1      46.934  32.238  26.903  1.00  0.00     0.124 S 
ATOM     92  O   UNL A   1      45.984  32.357  25.798  1.00  0.00    -0.237 OA
ATOM     93  O   UNL A   1      46.788  33.231  27.962  1.00  0.00    -0.237 OA
ATOM     94  O   UNL A   1      48.308  31.952  26.497  1.00  0.00    -0.744 OA
ENDBRANCH  90  91
ENDBRANCH  64  85
ENDBRANCH  38  39
ENDBRANCH  31  33
ENDBRANCH  30  31
ENDBRANCH  29  30
ENDBRANCH   1  29
TORSDOF 20
ENDMDL
