MODEL 1
REMARK VINA RESULT:     -10.3      0.000      0.000
REMARK SMILES O=C(OCCOC(=O)[C@@H]1CCC[N@@H+](Cc2ccc(F)cc2Cl)C1)c1ccc(-c2c3nc(c(-c4ccc(S(=O)(=O)[O-])cc4)c4ccc([nH]4)c(-c4ccc(S(=O)(=O)[O-])cc4)c4nc(c(-c5ccc(S(=O)(=O)[O-])cc5)c5ccc2[nH]5)C=C4)C=C3)cc1
REMARK SMILES IDX 4 1 3 2 2 3 1 4 24 5 25 6 83 7 26 8 82 9 27 10 28 11 29 12
REMARK SMILES IDX 76 13 30 14 81 15 75 16 77 17 31 18 80 19 74 20 73 21 32 23
REMARK SMILES IDX 62 24 43 25 61 26 44 27 47 28 60 29 78 30 45 31 46 32 59 34
REMARK SMILES IDX 79 35 48 36 33 37 34 38 42 39 35 40 41 41 36 42 37 43 38 44
REMARK SMILES IDX 39 45 40 46 63 47 64 48 72 49 65 50 71 51 66 52 67 53 68 54
REMARK SMILES IDX 69 55 70 56 49 57 50 58 58 59 51 60 57 61 52 62 53 63 54 64
REMARK SMILES IDX 55 65 56 66 5 67 6 68 7 69 8 70 9 71 10 72 23 73 11 74 13 75
REMARK SMILES IDX 12 76 14 78 15 79 16 80 21 81 17 82 20 83 22 84 18 85 19 86
REMARK H PARENT 77 22 47 33 13 77
REMARK Flexibility Score: inf
ROOT
ATOM      1  C   UNL A   1      45.822  25.193  25.178  1.00  0.00     0.275 C 
ENDROOT
BRANCH   1   2
ATOM      2  O   UNL A   1      45.014  25.175  26.368  1.00  0.00    -0.458 OA
BRANCH   2   3
ATOM      3  C   UNL A   1      43.739  25.587  26.569  1.00  0.00     0.338 C 
ATOM      4  O   UNL A   1      42.901  25.303  25.713  1.00  0.00    -0.246 OA
BRANCH   3   5
ATOM      5  C   UNL A   1      43.295  26.478  27.697  1.00  0.00     0.060 A 
ATOM      6  C   UNL A   1      43.931  27.639  28.146  1.00  0.00     0.016 A 
ATOM      7  C   UNL A   1      42.118  26.087  28.365  1.00  0.00     0.016 A 
ATOM      8  C   UNL A   1      43.397  28.413  29.192  1.00  0.00     0.010 A 
ATOM      9  C   UNL A   1      41.577  26.857  29.403  1.00  0.00     0.010 A 
ATOM     10  C   UNL A   1      42.219  28.029  29.832  1.00  0.00    -0.014 A 
BRANCH  10  11
ATOM     11  C   UNL A   1      41.722  28.729  31.044  1.00  0.00     0.031 A 
ATOM     12  C   UNL A   1      40.699  29.809  30.864  1.00  0.00     0.074 A 
ATOM     13  C   UNL A   1      42.154  28.439  32.289  1.00  0.00     0.049 A 
ATOM     14  N   UNL A   1      40.209  30.615  31.763  1.00  0.00    -0.248 NA
ATOM     15  C   UNL A   1      40.097  29.949  29.526  1.00  0.00     0.031 C 
ATOM     16  C   UNL A   1      42.962  27.287  32.663  1.00  0.00     0.029 A 
ATOM     17  N   UNL A   1      42.052  29.148  33.466  1.00  0.00    -0.354 N 
ATOM     18  C   UNL A   1      39.168  31.276  31.135  1.00  0.00     0.074 A 
ATOM     19  C   UNL A   1      39.171  30.872  29.747  1.00  0.00     0.031 C 
ATOM     20  C   UNL A   1      43.456  27.474  33.903  1.00  0.00     0.029 A 
ATOM     21  C   UNL A   1      42.973  28.743  34.415  1.00  0.00     0.049 A 
ATOM     22  H   UNL A   1      41.395  29.867  33.614  1.00  0.00     0.167 HD
ATOM     23  C   UNL A   1      38.247  32.087  31.699  1.00  0.00     0.031 A 
ATOM     24  C   UNL A   1      43.413  29.378  35.521  1.00  0.00     0.031 A 
ATOM     25  C   UNL A   1      38.287  32.500  33.072  1.00  0.00     0.049 A 
ATOM     26  C   UNL A   1      42.639  30.574  35.986  1.00  0.00     0.074 A 
ATOM     27  C   UNL A   1      37.368  33.251  33.778  1.00  0.00     0.029 A 
ATOM     28  N   UNL A   1      39.337  32.230  33.936  1.00  0.00    -0.354 N 
ATOM     29  N   UNL A   1      41.631  31.168  35.398  1.00  0.00    -0.248 NA
ATOM     30  C   UNL A   1      42.990  31.117  37.305  1.00  0.00     0.031 C 
ATOM     31  C   UNL A   1      37.902  33.510  35.045  1.00  0.00     0.029 A 
ATOM     32  C   UNL A   1      39.126  32.868  35.144  1.00  0.00     0.049 A 
ATOM     33  H   UNL A   1      40.115  31.669  33.722  1.00  0.00     0.167 HD
ATOM     34  C   UNL A   1      41.164  32.092  36.320  1.00  0.00     0.074 A 
ATOM     35  C   UNL A   1      42.049  32.036  37.465  1.00  0.00     0.031 C 
ATOM     36  C   UNL A   1      40.047  32.852  36.250  1.00  0.00     0.031 A 
BRANCH  23  37
ATOM     37  C   UNL A   1      37.117  32.556  30.835  1.00  0.00    -0.014 A 
ATOM     38  C   UNL A   1      35.885  31.875  30.835  1.00  0.00     0.010 A 
ATOM     39  C   UNL A   1      37.266  33.717  30.061  1.00  0.00     0.010 A 
ATOM     40  C   UNL A   1      34.822  32.343  30.060  1.00  0.00     0.020 A 
ATOM     41  C   UNL A   1      36.200  34.198  29.298  1.00  0.00     0.020 A 
ATOM     42  C   UNL A   1      34.987  33.504  29.299  1.00  0.00     0.054 A 
BRANCH  42  43
ATOM     43  S   UNL A   1      33.575  34.120  28.345  1.00  0.00     0.124 S 
ATOM     44  O   UNL A   1      32.708  34.650  29.395  1.00  0.00    -0.237 OA
ATOM     45  O   UNL A   1      34.190  35.120  27.475  1.00  0.00    -0.237 OA
ATOM     46  O   UNL A   1      33.071  32.929  27.664  1.00  0.00    -0.744 OA
ENDBRANCH  42  43
ENDBRANCH  23  37
BRANCH  24  47
ATOM     47  C   UNL A   1      44.650  28.991  36.258  1.00  0.00    -0.014 A 
ATOM     48  C   UNL A   1      44.654  28.105  37.346  1.00  0.00     0.010 A 
ATOM     49  C   UNL A   1      45.855  29.635  35.911  1.00  0.00     0.010 A 
ATOM     50  C   UNL A   1      45.843  27.849  38.050  1.00  0.00     0.020 A 
ATOM     51  C   UNL A   1      47.038  29.390  36.613  1.00  0.00     0.020 A 
ATOM     52  C   UNL A   1      47.029  28.489  37.676  1.00  0.00     0.054 A 
BRANCH  52  53
ATOM     53  S   UNL A   1      48.594  28.118  38.517  1.00  0.00     0.124 S 
ATOM     54  O   UNL A   1      49.228  29.432  38.576  1.00  0.00    -0.237 OA
ATOM     55  O   UNL A   1      48.164  27.570  39.801  1.00  0.00    -0.237 OA
ATOM     56  O   UNL A   1      49.224  27.156  37.615  1.00  0.00    -0.744 OA
ENDBRANCH  52  53
ENDBRANCH  24  47
BRANCH  36  57
ATOM     57  C   UNL A   1      39.706  33.659  37.463  1.00  0.00    -0.014 A 
ATOM     58  C   UNL A   1      38.975  33.103  38.523  1.00  0.00     0.010 A 
ATOM     59  C   UNL A   1      40.163  34.987  37.549  1.00  0.00     0.010 A 
ATOM     60  C   UNL A   1      38.698  33.869  39.655  1.00  0.00     0.020 A 
ATOM     61  C   UNL A   1      39.913  35.746  38.691  1.00  0.00     0.020 A 
ATOM     62  C   UNL A   1      39.177  35.182  39.734  1.00  0.00     0.054 A 
BRANCH  62  63
ATOM     63  S   UNL A   1      38.877  36.126  41.251  1.00  0.00     0.124 S 
ATOM     64  O   UNL A   1      38.663  37.474  40.732  1.00  0.00    -0.237 OA
ATOM     65  O   UNL A   1      37.695  35.470  41.805  1.00  0.00    -0.237 OA
ATOM     66  O   UNL A   1      40.104  35.941  42.021  1.00  0.00    -0.744 OA
ENDBRANCH  62  63
ENDBRANCH  36  57
ENDBRANCH  10  11
ENDBRANCH   3   5
ENDBRANCH   2   3
ENDBRANCH   1   2
BRANCH   1  67
ATOM     67  C   UNL A   1      46.548  23.879  24.887  1.00  0.00     0.274 C 
BRANCH  67  68
ATOM     68  O   UNL A   1      45.888  23.128  23.862  1.00  0.00    -0.462 OA
BRANCH  68  69
ATOM     69  C   UNL A   1      44.689  22.579  24.206  1.00  0.00     0.314 C 
ATOM     70  O   UNL A   1      43.686  22.609  23.493  1.00  0.00    -0.252 OA
BRANCH  69  71
ATOM     71  C   UNL A   1      44.805  21.760  25.478  1.00  0.00     0.154 C 
ATOM     72  C   UNL A   1      45.285  20.334  25.221  1.00  0.00     0.027 C 
ATOM     73  C   UNL A   1      43.536  21.743  26.333  1.00  0.00     0.277 C 
ATOM     74  C   UNL A   1      44.167  19.493  24.622  1.00  0.00     0.062 C 
ATOM     75  N   UNL A   1      42.482  20.847  25.848  1.00  0.00    -0.330 N 
ATOM     76  C   UNL A   1      42.948  19.494  25.532  1.00  0.00     0.262 C 
ATOM     77  H   UNL A   1      42.182  21.263  24.967  1.00  0.00     0.348 HD
BRANCH  75  78
ATOM     78  C   UNL A   1      41.311  20.801  26.757  1.00  0.00     0.300 C 
BRANCH  78  79
ATOM     79  C   UNL A   1      40.171  21.757  26.428  1.00  0.00     0.025 A 
ATOM     80  C   UNL A   1      40.242  23.112  26.819  1.00  0.00     0.014 A 
ATOM     81  C   UNL A   1      38.988  21.322  25.802  1.00  0.00     0.052 A 
ATOM     82  C   UNL A   1      39.159  23.975  26.668  1.00  0.00     0.040 A 
ATOM     83  C   UNL A   1      37.895  22.180  25.669  1.00  0.00     0.060 A 
ATOM     84  Cl  UNL A   1      38.810  19.715  25.195  1.00  0.00    -0.084 Cl
ATOM     85  C   UNL A   1      37.986  23.491  26.116  1.00  0.00     0.124 A 
ATOM     86  F   UNL A   1      36.937  24.314  25.984  1.00  0.00    -0.207 F 
ENDBRANCH  78  79
ENDBRANCH  75  78
ENDBRANCH  69  71
ENDBRANCH  68  69
ENDBRANCH  67  68
ENDBRANCH   1  67
TORSDOF 16
ENDMDL
MODEL 2
REMARK VINA RESULT:     -10.0      3.527      9.516
REMARK SMILES O=C(OCCOC(=O)[C@@H]1CCC[N@@H+](Cc2ccc(F)cc2Cl)C1)c1ccc(-c2c3nc(c(-c4ccc(S(=O)(=O)[O-])cc4)c4ccc([nH]4)c(-c4ccc(S(=O)(=O)[O-])cc4)c4nc(c(-c5ccc(S(=O)(=O)[O-])cc5)c5ccc2[nH]5)C=C4)C=C3)cc1
REMARK SMILES IDX 4 1 3 2 2 3 1 4 24 5 25 6 83 7 26 8 82 9 27 10 28 11 29 12
REMARK SMILES IDX 76 13 30 14 81 15 75 16 77 17 31 18 80 19 74 20 73 21 32 23
REMARK SMILES IDX 62 24 43 25 61 26 44 27 47 28 60 29 78 30 45 31 46 32 59 34
REMARK SMILES IDX 79 35 48 36 33 37 34 38 42 39 35 40 41 41 36 42 37 43 38 44
REMARK SMILES IDX 39 45 40 46 63 47 64 48 72 49 65 50 71 51 66 52 67 53 68 54
REMARK SMILES IDX 69 55 70 56 49 57 50 58 58 59 51 60 57 61 52 62 53 63 54 64
REMARK SMILES IDX 55 65 56 66 5 67 6 68 7 69 8 70 9 71 10 72 23 73 11 74 13 75
REMARK SMILES IDX 12 76 14 78 15 79 16 80 21 81 17 82 20 83 22 84 18 85 19 86
REMARK H PARENT 77 22 47 33 13 77
REMARK Flexibility Score: inf
ROOT
ATOM      1  C   UNL A   1      38.586  23.825  26.441  1.00  0.00     0.275 C 
ENDROOT
BRANCH   1   2
ATOM      2  O   UNL A   1      38.545  25.027  27.230  1.00  0.00    -0.458 OA
BRANCH   2   3
ATOM      3  C   UNL A   1      39.498  25.964  27.450  1.00  0.00     0.338 C 
ATOM      4  O   UNL A   1      40.392  26.085  26.610  1.00  0.00    -0.246 OA
BRANCH   3   5
ATOM      5  C   UNL A   1      39.623  26.780  28.707  1.00  0.00     0.060 A 
ATOM      6  C   UNL A   1      38.781  26.732  29.823  1.00  0.00     0.016 A 
ATOM      7  C   UNL A   1      40.699  27.687  28.750  1.00  0.00     0.016 A 
ATOM      8  C   UNL A   1      39.022  27.523  30.961  1.00  0.00     0.010 A 
ATOM      9  C   UNL A   1      40.948  28.473  29.884  1.00  0.00     0.010 A 
ATOM     10  C   UNL A   1      40.103  28.402  31.002  1.00  0.00    -0.014 A 
BRANCH  10  11
ATOM     11  C   UNL A   1      40.287  29.367  32.115  1.00  0.00     0.031 A 
ATOM     12  C   UNL A   1      41.204  28.984  33.236  1.00  0.00     0.074 A 
ATOM     13  C   UNL A   1      39.662  30.562  32.162  1.00  0.00     0.049 A 
ATOM     14  N   UNL A   1      41.428  29.621  34.351  1.00  0.00    -0.248 NA
ATOM     15  C   UNL A   1      42.028  27.775  33.048  1.00  0.00     0.031 C 
ATOM     16  C   UNL A   1      38.927  31.181  31.069  1.00  0.00     0.029 A 
ATOM     17  N   UNL A   1      39.466  31.436  33.209  1.00  0.00    -0.354 N 
ATOM     18  C   UNL A   1      42.493  28.962  34.942  1.00  0.00     0.074 A 
ATOM     19  C   UNL A   1      42.793  27.804  34.131  1.00  0.00     0.031 C 
ATOM     20  C   UNL A   1      38.191  32.204  31.550  1.00  0.00     0.029 A 
ATOM     21  C   UNL A   1      38.432  32.325  32.976  1.00  0.00     0.049 A 
ATOM     22  H   UNL A   1      40.003  31.427  34.034  1.00  0.00     0.167 HD
ATOM     23  C   UNL A   1      43.200  29.347  36.026  1.00  0.00     0.031 A 
ATOM     24  C   UNL A   1      37.727  33.080  33.844  1.00  0.00     0.031 A 
ATOM     25  C   UNL A   1      42.859  30.482  36.834  1.00  0.00     0.049 A 
ATOM     26  C   UNL A   1      38.269  33.223  35.234  1.00  0.00     0.074 A 
ATOM     27  C   UNL A   1      43.545  31.019  37.907  1.00  0.00     0.029 A 
ATOM     28  N   UNL A   1      41.701  31.228  36.681  1.00  0.00    -0.354 N 
ATOM     29  N   UNL A   1      39.300  32.619  35.771  1.00  0.00    -0.248 NA
ATOM     30  C   UNL A   1      37.622  34.220  36.098  1.00  0.00     0.031 C 
ATOM     31  C   UNL A   1      42.758  32.037  38.457  1.00  0.00     0.029 A 
ATOM     32  C   UNL A   1      41.613  32.170  37.689  1.00  0.00     0.049 A 
ATOM     33  H   UNL A   1      41.041  31.106  35.962  1.00  0.00     0.167 HD
ATOM     34  C   UNL A   1      39.485  33.235  36.998  1.00  0.00     0.074 A 
ATOM     35  C   UNL A   1      38.412  34.195  37.160  1.00  0.00     0.031 C 
ATOM     36  C   UNL A   1      40.508  33.074  37.870  1.00  0.00     0.031 A 
BRANCH  23  37
ATOM     37  C   UNL A   1      44.415  28.546  36.378  1.00  0.00    -0.014 A 
ATOM     38  C   UNL A   1      44.315  27.432  37.233  1.00  0.00     0.010 A 
ATOM     39  C   UNL A   1      45.655  28.871  35.807  1.00  0.00     0.010 A 
ATOM     40  C   UNL A   1      45.444  26.663  37.522  1.00  0.00     0.020 A 
ATOM     41  C   UNL A   1      46.783  28.094  36.081  1.00  0.00     0.020 A 
ATOM     42  C   UNL A   1      46.670  26.999  36.941  1.00  0.00     0.054 A 
BRANCH  42  43
ATOM     43  S   UNL A   1      48.107  25.953  37.292  1.00  0.00     0.124 S 
ATOM     44  O   UNL A   1      48.312  26.190  38.719  1.00  0.00    -0.237 OA
ATOM     45  O   UNL A   1      47.624  24.619  36.941  1.00  0.00    -0.237 OA
ATOM     46  O   UNL A   1      49.148  26.487  36.417  1.00  0.00    -0.744 OA
ENDBRANCH  42  43
ENDBRANCH  23  37
BRANCH  24  47
ATOM     47  C   UNL A   1      36.423  33.720  33.511  1.00  0.00    -0.014 A 
ATOM     48  C   UNL A   1      35.183  33.099  33.720  1.00  0.00     0.010 A 
ATOM     49  C   UNL A   1      36.448  34.966  32.852  1.00  0.00     0.010 A 
ATOM     50  C   UNL A   1      33.995  33.724  33.305  1.00  0.00     0.020 A 
ATOM     51  C   UNL A   1      35.270  35.589  32.430  1.00  0.00     0.020 A 
ATOM     52  C   UNL A   1      34.046  34.967  32.666  1.00  0.00     0.054 A 
BRANCH  52  53
ATOM     53  S   UNL A   1      32.523  35.833  32.189  1.00  0.00     0.124 S 
ATOM     54  O   UNL A   1      32.665  35.924  30.739  1.00  0.00    -0.237 OA
ATOM     55  O   UNL A   1      31.467  34.943  32.664  1.00  0.00    -0.237 OA
ATOM     56  O   UNL A   1      32.634  37.099  32.912  1.00  0.00    -0.744 OA
ENDBRANCH  52  53
ENDBRANCH  24  47
BRANCH  36  57
ATOM     57  C   UNL A   1      40.528  33.983  39.058  1.00  0.00    -0.014 A 
ATOM     58  C   UNL A   1      39.966  33.591  40.283  1.00  0.00     0.010 A 
ATOM     59  C   UNL A   1      41.155  35.238  38.947  1.00  0.00     0.010 A 
ATOM     60  C   UNL A   1      40.026  34.446  41.382  1.00  0.00     0.020 A 
ATOM     61  C   UNL A   1      41.242  36.083  40.051  1.00  0.00     0.020 A 
ATOM     62  C   UNL A   1      40.671  35.682  41.261  1.00  0.00     0.054 A 
BRANCH  62  63
ATOM     63  S   UNL A   1      40.810  36.737  42.726  1.00  0.00     0.124 S 
ATOM     64  O   UNL A   1      42.135  37.325  42.553  1.00  0.00    -0.237 OA
ATOM     65  O   UNL A   1      39.687  37.658  42.563  1.00  0.00    -0.237 OA
ATOM     66  O   UNL A   1      40.683  35.800  43.840  1.00  0.00    -0.744 OA
ENDBRANCH  62  63
ENDBRANCH  36  57
ENDBRANCH  10  11
ENDBRANCH   3   5
ENDBRANCH   2   3
ENDBRANCH   1   2
BRANCH   1  67
ATOM     67  C   UNL A   1      37.353  23.601  25.565  1.00  0.00     0.274 C 
BRANCH  67  68
ATOM     68  O   UNL A   1      36.369  22.804  26.235  1.00  0.00    -0.462 OA
BRANCH  68  69
ATOM     69  C   UNL A   1      36.050  21.624  25.633  1.00  0.00     0.314 C 
ATOM     70  O   UNL A   1      36.873  20.867  25.121  1.00  0.00    -0.252 OA
BRANCH  69  71
ATOM     71  C   UNL A   1      34.590  21.273  25.851  1.00  0.00     0.154 C 
ATOM     72  C   UNL A   1      33.877  20.889  24.557  1.00  0.00     0.027 C 
ATOM     73  C   UNL A   1      33.790  22.343  26.596  1.00  0.00     0.277 C 
ATOM     74  C   UNL A   1      33.593  22.123  23.715  1.00  0.00     0.062 C 
ATOM     75  N   UNL A   1      33.395  23.494  25.778  1.00  0.00    -0.330 N 
ATOM     76  C   UNL A   1      32.771  23.134  24.502  1.00  0.00     0.262 C 
ATOM     77  H   UNL A   1      34.275  23.956  25.550  1.00  0.00     0.348 HD
BRANCH  75  78
ATOM     78  C   UNL A   1      32.549  24.459  26.522  1.00  0.00     0.300 C 
BRANCH  78  79
ATOM     79  C   UNL A   1      32.549  25.890  25.999  1.00  0.00     0.025 A 
ATOM     80  C   UNL A   1      33.760  26.605  25.881  1.00  0.00     0.014 A 
ATOM     81  C   UNL A   1      31.358  26.573  25.693  1.00  0.00     0.052 A 
ATOM     82  C   UNL A   1      33.781  27.959  25.551  1.00  0.00     0.040 A 
ATOM     83  C   UNL A   1      31.375  27.934  25.383  1.00  0.00     0.060 A 
ATOM     84  Cl  UNL A   1      29.820  25.787  25.711  1.00  0.00    -0.084 Cl
ATOM     85  C   UNL A   1      32.583  28.615  25.330  1.00  0.00     0.124 A 
ATOM     86  F   UNL A   1      32.599  29.920  25.028  1.00  0.00    -0.207 F 
ENDBRANCH  78  79
ENDBRANCH  75  78
ENDBRANCH  69  71
ENDBRANCH  68  69
ENDBRANCH  67  68
ENDBRANCH   1  67
TORSDOF 16
ENDMDL
MODEL 3
REMARK VINA RESULT:      -9.9      3.921      9.893
REMARK SMILES O=C(OCCOC(=O)[C@@H]1CCC[N@@H+](Cc2ccc(F)cc2Cl)C1)c1ccc(-c2c3nc(c(-c4ccc(S(=O)(=O)[O-])cc4)c4ccc([nH]4)c(-c4ccc(S(=O)(=O)[O-])cc4)c4nc(c(-c5ccc(S(=O)(=O)[O-])cc5)c5ccc2[nH]5)C=C4)C=C3)cc1
REMARK SMILES IDX 4 1 3 2 2 3 1 4 24 5 25 6 83 7 26 8 82 9 27 10 28 11 29 12
REMARK SMILES IDX 76 13 30 14 81 15 75 16 77 17 31 18 80 19 74 20 73 21 32 23
REMARK SMILES IDX 62 24 43 25 61 26 44 27 47 28 60 29 78 30 45 31 46 32 59 34
REMARK SMILES IDX 79 35 48 36 33 37 34 38 42 39 35 40 41 41 36 42 37 43 38 44
REMARK SMILES IDX 39 45 40 46 63 47 64 48 72 49 65 50 71 51 66 52 67 53 68 54
REMARK SMILES IDX 69 55 70 56 49 57 50 58 58 59 51 60 57 61 52 62 53 63 54 64
REMARK SMILES IDX 55 65 56 66 5 67 6 68 7 69 8 70 9 71 10 72 23 73 11 74 13 75
REMARK SMILES IDX 12 76 14 78 15 79 16 80 21 81 17 82 20 83 22 84 18 85 19 86
REMARK H PARENT 77 22 47 33 13 77
REMARK Flexibility Score: inf
ROOT
ATOM      1  C   UNL A   1      34.093  28.039  26.432  1.00  0.00     0.275 C 
ENDROOT
BRANCH   1   2
ATOM      2  O   UNL A   1      34.018  29.466  26.597  1.00  0.00    -0.458 OA
BRANCH   2   3
ATOM      3  C   UNL A   1      34.720  30.293  27.408  1.00  0.00     0.338 C 
ATOM      4  O   UNL A   1      34.368  31.472  27.472  1.00  0.00    -0.246 OA
BRANCH   3   5
ATOM      5  C   UNL A   1      35.979  29.912  28.137  1.00  0.00     0.060 A 
ATOM      6  C   UNL A   1      36.078  29.461  29.457  1.00  0.00     0.016 A 
ATOM      7  C   UNL A   1      37.176  30.033  27.406  1.00  0.00     0.016 A 
ATOM      8  C   UNL A   1      37.315  29.099  30.020  1.00  0.00     0.010 A 
ATOM      9  C   UNL A   1      38.411  29.667  27.959  1.00  0.00     0.010 A 
ATOM     10  C   UNL A   1      38.492  29.200  29.279  1.00  0.00    -0.014 A 
BRANCH  10  11
ATOM     11  C   UNL A   1      39.826  28.987  29.896  1.00  0.00     0.031 A 
ATOM     12  C   UNL A   1      40.364  30.056  30.797  1.00  0.00     0.074 A 
ATOM     13  C   UNL A   1      40.570  27.883  29.674  1.00  0.00     0.049 A 
ATOM     14  N   UNL A   1      41.541  30.127  31.353  1.00  0.00    -0.248 NA
ATOM     15  C   UNL A   1      39.441  31.138  31.184  1.00  0.00     0.031 C 
ATOM     16  C   UNL A   1      40.113  26.667  29.019  1.00  0.00     0.029 A 
ATOM     17  N   UNL A   1      41.908  27.640  29.895  1.00  0.00    -0.354 N 
ATOM     18  C   UNL A   1      41.465  31.189  32.238  1.00  0.00     0.074 A 
ATOM     19  C   UNL A   1      40.173  31.811  32.061  1.00  0.00     0.031 C 
ATOM     20  C   UNL A   1      41.179  25.906  28.700  1.00  0.00     0.029 A 
ATOM     21  C   UNL A   1      42.385  26.571  29.157  1.00  0.00     0.049 A 
ATOM     22  H   UNL A   1      42.464  28.169  30.511  1.00  0.00     0.167 HD
ATOM     23  C   UNL A   1      42.373  31.551  33.169  1.00  0.00     0.031 A 
ATOM     24  C   UNL A   1      43.652  26.236  28.838  1.00  0.00     0.031 A 
ATOM     25  C   UNL A   1      43.664  30.938  33.301  1.00  0.00     0.049 A 
ATOM     26  C   UNL A   1      44.757  26.924  29.581  1.00  0.00     0.074 A 
ATOM     27  C   UNL A   1      44.636  31.163  34.256  1.00  0.00     0.029 A 
ATOM     28  N   UNL A   1      44.178  30.006  32.413  1.00  0.00    -0.354 N 
ATOM     29  N   UNL A   1      44.668  27.905  30.444  1.00  0.00    -0.248 NA
ATOM     30  C   UNL A   1      46.114  26.395  29.389  1.00  0.00     0.031 C 
ATOM     31  C   UNL A   1      45.773  30.431  33.896  1.00  0.00     0.029 A 
ATOM     32  C   UNL A   1      45.484  29.706  32.752  1.00  0.00     0.049 A 
ATOM     33  H   UNL A   1      43.686  29.616  31.656  1.00  0.00     0.167 HD
ATOM     34  C   UNL A   1      45.942  28.044  30.972  1.00  0.00     0.074 A 
ATOM     35  C   UNL A   1      46.797  27.108  30.272  1.00  0.00     0.031 C 
ATOM     36  C   UNL A   1      46.339  28.820  32.007  1.00  0.00     0.031 A 
BRANCH  23  37
ATOM     37  C   UNL A   1      41.989  32.641  34.121  1.00  0.00    -0.014 A 
ATOM     38  C   UNL A   1      42.230  33.990  33.799  1.00  0.00     0.010 A 
ATOM     39  C   UNL A   1      41.332  32.322  35.319  1.00  0.00     0.010 A 
ATOM     40  C   UNL A   1      41.829  35.004  34.671  1.00  0.00     0.020 A 
ATOM     41  C   UNL A   1      40.915  33.335  36.186  1.00  0.00     0.020 A 
ATOM     42  C   UNL A   1      41.172  34.669  35.858  1.00  0.00     0.054 A 
BRANCH  42  43
ATOM     43  S   UNL A   1      40.616  36.007  36.947  1.00  0.00     0.124 S 
ATOM     44  O   UNL A   1      41.876  36.664  37.285  1.00  0.00    -0.237 OA
ATOM     45  O   UNL A   1      39.723  36.772  36.080  1.00  0.00    -0.237 OA
ATOM     46  O   UNL A   1      39.962  35.308  38.050  1.00  0.00    -0.744 OA
ENDBRANCH  42  43
ENDBRANCH  23  37
BRANCH  24  47
ATOM     47  C   UNL A   1      44.004  25.273  27.756  1.00  0.00    -0.014 A 
ATOM     48  C   UNL A   1      44.104  23.889  27.957  1.00  0.00     0.010 A 
ATOM     49  C   UNL A   1      44.362  25.797  26.496  1.00  0.00     0.010 A 
ATOM     50  C   UNL A   1      44.523  23.047  26.914  1.00  0.00     0.020 A 
ATOM     51  C   UNL A   1      44.787  24.964  25.458  1.00  0.00     0.020 A 
ATOM     52  C   UNL A   1      44.858  23.589  25.669  1.00  0.00     0.054 A 
BRANCH  52  53
ATOM     53  S   UNL A   1      45.327  22.517  24.281  1.00  0.00     0.124 S 
ATOM     54  O   UNL A   1      46.421  23.268  23.672  1.00  0.00    -0.237 OA
ATOM     55  O   UNL A   1      45.709  21.268  24.935  1.00  0.00    -0.237 OA
ATOM     56  O   UNL A   1      44.096  22.452  23.495  1.00  0.00    -0.744 OA
ENDBRANCH  52  53
ENDBRANCH  24  47
BRANCH  36  57
ATOM     57  C   UNL A   1      47.756  28.660  32.462  1.00  0.00    -0.014 A 
ATOM     58  C   UNL A   1      48.776  29.486  31.967  1.00  0.00     0.010 A 
ATOM     59  C   UNL A   1      48.054  27.684  33.431  1.00  0.00     0.010 A 
ATOM     60  C   UNL A   1      50.081  29.335  32.431  1.00  0.00     0.020 A 
ATOM     61  C   UNL A   1      49.353  27.549  33.918  1.00  0.00     0.020 A 
ATOM     62  C   UNL A   1      50.359  28.374  33.410  1.00  0.00     0.054 A 
BRANCH  62  63
ATOM     63  S   UNL A   1      52.046  28.255  34.058  1.00  0.00     0.124 S 
ATOM     64  O   UNL A   1      51.810  27.941  35.464  1.00  0.00    -0.237 OA
ATOM     65  O   UNL A   1      52.619  27.175  33.259  1.00  0.00    -0.237 OA
ATOM     66  O   UNL A   1      52.609  29.579  33.800  1.00  0.00    -0.744 OA
ENDBRANCH  62  63
ENDBRANCH  36  57
ENDBRANCH  10  11
ENDBRANCH   3   5
ENDBRANCH   2   3
ENDBRANCH   1   2
BRANCH   1  67
ATOM     67  C   UNL A   1      32.738  27.348  26.274  1.00  0.00     0.274 C 
BRANCH  67  68
ATOM     68  O   UNL A   1      32.875  26.045  25.695  1.00  0.00    -0.462 OA
BRANCH  68  69
ATOM     69  C   UNL A   1      32.029  25.090  26.173  1.00  0.00     0.314 C 
ATOM     70  O   UNL A   1      31.170  25.297  27.030  1.00  0.00    -0.252 OA
BRANCH  69  71
ATOM     71  C   UNL A   1      32.146  23.804  25.377  1.00  0.00     0.154 C 
ATOM     72  C   UNL A   1      31.876  22.561  26.222  1.00  0.00     0.027 C 
ATOM     73  C   UNL A   1      33.467  23.650  24.621  1.00  0.00     0.277 C 
ATOM     74  C   UNL A   1      33.058  22.264  27.131  1.00  0.00     0.062 C 
ATOM     75  N   UNL A   1      34.606  23.245  25.451  1.00  0.00    -0.330 N 
ATOM     76  C   UNL A   1      34.333  22.094  26.317  1.00  0.00     0.262 C 
ATOM     77  H   UNL A   1      34.764  24.040  26.069  1.00  0.00     0.348 HD
BRANCH  75  78
ATOM     78  C   UNL A   1      35.840  23.025  24.658  1.00  0.00     0.300 C 
BRANCH  78  79
ATOM     79  C   UNL A   1      37.136  22.925  25.453  1.00  0.00     0.025 A 
ATOM     80  C   UNL A   1      37.656  24.060  26.112  1.00  0.00     0.014 A 
ATOM     81  C   UNL A   1      37.895  21.742  25.497  1.00  0.00     0.052 A 
ATOM     82  C   UNL A   1      38.910  24.041  26.719  1.00  0.00     0.040 A 
ATOM     83  C   UNL A   1      39.160  21.727  26.087  1.00  0.00     0.060 A 
ATOM     84  Cl  UNL A   1      37.328  20.262  24.809  1.00  0.00    -0.084 Cl
ATOM     85  C   UNL A   1      39.661  22.880  26.678  1.00  0.00     0.124 A 
ATOM     86  F   UNL A   1      40.873  22.864  27.246  1.00  0.00    -0.207 F 
ENDBRANCH  78  79
ENDBRANCH  75  78
ENDBRANCH  69  71
ENDBRANCH  68  69
ENDBRANCH  67  68
ENDBRANCH   1  67
TORSDOF 16
ENDMDL
