MODEL 1
REMARK VINA RESULT:     -12.4      0.000      0.000
REMARK SMILES Cc1ccc(Cn2c(C)c(C[NH2+]C[C@@H]3CCCO3)c(C(=O)OCCOC(=O)c3ccc(-c4c5nc(c(-c6ccc(S(=O)(=O)[O-])cc6)c6ccc([nH]6)c(-c6ccc(S(=O)(=O)[O-])cc6)c6nc(c(-c7ccc(S(=O)(=O)[O-])cc7)c7ccc4[nH]7)C=C6)C=C5)cc3)c2C)cc1
REMARK SMILES IDX 23 1 22 2 20 3 21 4 19 5 7 6 8 7 88 8 9 9 10 10 89 11 6 12
REMARK SMILES IDX 5 13 1 14 2 15 3 16 91 17 4 18 90 19 11 20 12 21 13 24 14 25
REMARK SMILES IDX 15 26 18 27 16 28 17 29 24 30 25 31 26 32 27 33 28 34 29 35
REMARK SMILES IDX 87 36 30 37 86 38 31 39 32 40 33 41 80 42 34 43 85 44 79 45
REMARK SMILES IDX 81 46 35 47 84 48 78 49 77 50 36 52 66 53 47 54 65 55 48 56
REMARK SMILES IDX 51 57 64 58 82 59 49 60 50 61 63 63 83 64 52 65 37 66 38 67
REMARK SMILES IDX 46 68 39 69 45 70 40 71 41 72 42 73 43 74 44 75 67 76 68 77
REMARK SMILES IDX 76 78 69 79 75 80 70 81 71 82 72 83 73 84 74 85 53 86 54 87
REMARK SMILES IDX 62 88 55 89 61 90 56 91 57 92 58 93 59 94 60 95
REMARK H PARENT 12 22 12 23 81 51 51 62
REMARK Flexibility Score: inf
ROOT
ATOM      1  C   UNL A   1      32.013  28.578  27.237  1.00  0.00     0.275 C 
ENDROOT
BRANCH   1   2
ATOM      2  O   UNL A   1      31.482  27.259  27.489  1.00  0.00    -0.458 OA
BRANCH   2   3
ATOM      3  C   UNL A   1      30.996  26.612  26.377  1.00  0.00     0.340 C 
ATOM      4  O   UNL A   1      29.964  25.951  26.402  1.00  0.00    -0.246 OA
BRANCH   3   5
ATOM      5  C   UNL A   1      31.952  26.382  25.298  1.00  0.00     0.089 A 
ATOM      6  N   UNL A   1      32.654  24.747  23.998  1.00  0.00    -0.343 N 
ATOM      7  C   UNL A   1      32.700  25.902  23.227  1.00  0.00     0.025 A 
ATOM      8  C   UNL A   1      32.564  25.134  25.316  1.00  0.00     0.030 A 
ATOM      9  C   UNL A   1      33.085  25.954  21.787  1.00  0.00     0.065 C 
ATOM     10  C   UNL A   1      32.249  26.982  24.007  1.00  0.00     0.042 A 
ATOM     11  C   UNL A   1      32.770  24.279  26.520  1.00  0.00     0.065 C 
BRANCH   6  12
ATOM     12  C   UNL A   1      32.780  23.356  23.542  1.00  0.00     0.157 C 
BRANCH  12  13
ATOM     13  C   UNL A   1      34.103  22.654  23.839  1.00  0.00    -0.028 A 
ATOM     14  C   UNL A   1      37.924  20.913  25.004  1.00  0.00     0.044 C 
ATOM     15  C   UNL A   1      36.619  21.533  24.602  1.00  0.00    -0.051 A 
ATOM     16  C   UNL A   1      35.425  20.942  25.004  1.00  0.00     0.004 A 
ATOM     17  C   UNL A   1      36.554  22.673  23.796  1.00  0.00     0.004 A 
ATOM     18  C   UNL A   1      34.196  21.505  24.639  1.00  0.00     0.006 A 
ATOM     19  C   UNL A   1      35.316  23.224  23.420  1.00  0.00     0.006 A 
ENDBRANCH  12  13
ENDBRANCH   6  12
BRANCH  10  20
ATOM     20  C   UNL A   1      32.072  28.404  23.434  1.00  0.00     0.300 C 
BRANCH  20  21
ATOM     21  N   UNL A   1      30.700  28.875  23.659  1.00  0.00    -0.340 N 
ATOM     22  H   UNL A   1      30.754  29.754  24.175  1.00  0.00     0.346 HD
ATOM     23  H   UNL A   1      30.231  28.122  24.162  1.00  0.00     0.346 HD
BRANCH  21  24
ATOM     24  C   UNL A   1      29.876  29.115  22.433  1.00  0.00     0.293 C 
BRANCH  24  25
ATOM     25  C   UNL A   1      29.367  30.568  22.378  1.00  0.00     0.173 C 
ATOM     26  C   UNL A   1      28.453  31.165  23.438  1.00  0.00     0.040 C 
ATOM     27  O   UNL A   1      28.611  30.785  21.174  1.00  0.00    -0.372 OA
ATOM     28  C   UNL A   1      27.900  32.402  22.726  1.00  0.00     0.031 C 
ATOM     29  C   UNL A   1      28.150  32.138  21.253  1.00  0.00     0.161 C 
ENDBRANCH  24  25
ENDBRANCH  21  24
ENDBRANCH  20  21
ENDBRANCH  10  20
ENDBRANCH   3   5
ENDBRANCH   2   3
ENDBRANCH   1   2
BRANCH   1  30
ATOM     30  C   UNL A   1      33.554  28.640  27.306  1.00  0.00     0.275 C 
BRANCH  30  31
ATOM     31  O   UNL A   1      34.255  29.809  26.829  1.00  0.00    -0.458 OA
BRANCH  31  32
ATOM     32  C   UNL A   1      34.493  30.792  27.728  1.00  0.00     0.338 C 
ATOM     33  O   UNL A   1      33.615  31.545  28.125  1.00  0.00    -0.246 OA
BRANCH  32  34
ATOM     34  C   UNL A   1      35.811  30.586  28.372  1.00  0.00     0.060 A 
ATOM     35  C   UNL A   1      35.850  29.830  29.553  1.00  0.00     0.016 A 
ATOM     36  C   UNL A   1      36.973  30.874  27.675  1.00  0.00     0.016 A 
ATOM     37  C   UNL A   1      37.016  29.234  29.993  1.00  0.00     0.010 A 
ATOM     38  C   UNL A   1      38.113  30.213  28.038  1.00  0.00     0.010 A 
ATOM     39  C   UNL A   1      38.127  29.403  29.189  1.00  0.00    -0.014 A 
BRANCH  39  40
ATOM     40  C   UNL A   1      39.443  28.951  29.562  1.00  0.00     0.031 A 
ATOM     41  C   UNL A   1      39.963  27.649  29.091  1.00  0.00     0.074 A 
ATOM     42  C   UNL A   1      40.128  29.978  30.114  1.00  0.00     0.049 A 
ATOM     43  N   UNL A   1      40.998  27.078  29.596  1.00  0.00    -0.248 NA
ATOM     44  C   UNL A   1      39.342  26.816  28.052  1.00  0.00     0.031 C 
ATOM     45  C   UNL A   1      41.547  30.239  30.174  1.00  0.00     0.029 A 
ATOM     46  N   UNL A   1      39.577  31.055  30.830  1.00  0.00    -0.354 N 
ATOM     47  C   UNL A   1      41.399  26.114  28.688  1.00  0.00     0.074 A 
ATOM     48  C   UNL A   1      40.245  25.839  27.880  1.00  0.00     0.031 C 
ATOM     49  C   UNL A   1      41.763  31.168  31.129  1.00  0.00     0.029 A 
ATOM     50  C   UNL A   1      40.496  31.396  31.819  1.00  0.00     0.049 A 
ATOM     51  H   UNL A   1      38.708  31.485  30.665  1.00  0.00     0.167 HD
ATOM     52  C   UNL A   1      42.731  25.852  28.570  1.00  0.00     0.031 A 
ATOM     53  C   UNL A   1      40.236  31.104  33.133  1.00  0.00     0.031 A 
ATOM     54  C   UNL A   1      43.471  26.676  29.520  1.00  0.00     0.049 A 
ATOM     55  C   UNL A   1      41.081  29.968  33.633  1.00  0.00     0.074 A 
ATOM     56  C   UNL A   1      44.126  27.891  29.405  1.00  0.00     0.029 A 
ATOM     57  N   UNL A   1      43.226  26.490  30.862  1.00  0.00    -0.354 N 
ATOM     58  N   UNL A   1      41.795  29.213  32.850  1.00  0.00    -0.248 NA
ATOM     59  C   UNL A   1      41.169  29.564  35.031  1.00  0.00     0.031 C 
ATOM     60  C   UNL A   1      44.250  28.439  30.716  1.00  0.00     0.029 A 
ATOM     61  C   UNL A   1      43.671  27.557  31.609  1.00  0.00     0.049 A 
ATOM     62  H   UNL A   1      42.788  25.693  31.240  1.00  0.00     0.167 HD
ATOM     63  C   UNL A   1      42.503  28.323  33.589  1.00  0.00     0.074 A 
ATOM     64  C   UNL A   1      42.025  28.530  34.947  1.00  0.00     0.031 C 
ATOM     65  C   UNL A   1      43.446  27.511  33.040  1.00  0.00     0.031 A 
BRANCH  52  66
ATOM     66  C   UNL A   1      43.421  25.102  27.457  1.00  0.00    -0.014 A 
ATOM     67  C   UNL A   1      44.127  23.927  27.805  1.00  0.00     0.010 A 
ATOM     68  C   UNL A   1      43.418  25.448  26.093  1.00  0.00     0.010 A 
ATOM     69  C   UNL A   1      44.821  23.157  26.869  1.00  0.00     0.020 A 
ATOM     70  C   UNL A   1      44.119  24.679  25.137  1.00  0.00     0.020 A 
ATOM     71  C   UNL A   1      44.818  23.539  25.535  1.00  0.00     0.054 A 
BRANCH  71  72
ATOM     72  S   UNL A   1      45.721  22.499  24.355  1.00  0.00     0.124 S 
ATOM     73  O   UNL A   1      44.659  22.042  23.463  1.00  0.00    -0.237 OA
ATOM     74  O   UNL A   1      46.671  23.440  23.770  1.00  0.00    -0.237 OA
ATOM     75  O   UNL A   1      46.314  21.458  25.193  1.00  0.00    -0.744 OA
ENDBRANCH  71  72
ENDBRANCH  52  66
BRANCH  53  76
ATOM     76  C   UNL A   1      38.837  31.396  33.567  1.00  0.00    -0.014 A 
ATOM     77  C   UNL A   1      38.573  32.765  33.768  1.00  0.00     0.010 A 
ATOM     78  C   UNL A   1      37.786  30.530  33.202  1.00  0.00     0.010 A 
ATOM     79  C   UNL A   1      37.396  33.314  33.285  1.00  0.00     0.020 A 
ATOM     80  C   UNL A   1      36.589  31.085  32.728  1.00  0.00     0.020 A 
ATOM     81  C   UNL A   1      36.466  32.481  32.675  1.00  0.00     0.054 A 
BRANCH  81  82
ATOM     82  S   UNL A   1      35.325  33.313  31.550  1.00  0.00     0.124 S 
ATOM     83  O   UNL A   1      35.045  34.558  32.245  1.00  0.00    -0.237 OA
ATOM     84  O   UNL A   1      36.088  33.415  30.314  1.00  0.00    -0.237 OA
ATOM     85  O   UNL A   1      34.219  32.371  31.486  1.00  0.00    -0.744 OA
ENDBRANCH  81  82
ENDBRANCH  53  76
BRANCH  65  86
ATOM     86  C   UNL A   1      44.252  26.556  33.850  1.00  0.00    -0.014 A 
ATOM     87  C   UNL A   1      43.770  25.283  34.175  1.00  0.00     0.010 A 
ATOM     88  C   UNL A   1      45.486  26.961  34.402  1.00  0.00     0.010 A 
ATOM     89  C   UNL A   1      44.551  24.404  34.921  1.00  0.00     0.020 A 
ATOM     90  C   UNL A   1      46.254  26.108  35.180  1.00  0.00     0.020 A 
ATOM     91  C   UNL A   1      45.795  24.820  35.403  1.00  0.00     0.054 A 
BRANCH  91  92
ATOM     92  S   UNL A   1      46.795  23.663  36.354  1.00  0.00     0.124 S 
ATOM     93  O   UNL A   1      45.786  22.917  37.103  1.00  0.00    -0.237 OA
ATOM     94  O   UNL A   1      47.470  22.918  35.294  1.00  0.00    -0.237 OA
ATOM     95  O   UNL A   1      47.654  24.525  37.159  1.00  0.00    -0.744 OA
ENDBRANCH  91  92
ENDBRANCH  65  86
ENDBRANCH  39  40
ENDBRANCH  32  34
ENDBRANCH  31  32
ENDBRANCH  30  31
ENDBRANCH   1  30
TORSDOF 20
ENDMDL
MODEL 2
REMARK VINA RESULT:     -12.2      4.054     10.395
REMARK SMILES Cc1ccc(Cn2c(C)c(C[NH2+]C[C@@H]3CCCO3)c(C(=O)OCCOC(=O)c3ccc(-c4c5nc(c(-c6ccc(S(=O)(=O)[O-])cc6)c6ccc([nH]6)c(-c6ccc(S(=O)(=O)[O-])cc6)c6nc(c(-c7ccc(S(=O)(=O)[O-])cc7)c7ccc4[nH]7)C=C6)C=C5)cc3)c2C)cc1
REMARK SMILES IDX 23 1 22 2 20 3 21 4 19 5 7 6 8 7 88 8 9 9 10 10 89 11 6 12
REMARK SMILES IDX 5 13 1 14 2 15 3 16 91 17 4 18 90 19 11 20 12 21 13 24 14 25
REMARK SMILES IDX 15 26 18 27 16 28 17 29 24 30 25 31 26 32 27 33 28 34 29 35
REMARK SMILES IDX 87 36 30 37 86 38 31 39 32 40 33 41 80 42 34 43 85 44 79 45
REMARK SMILES IDX 81 46 35 47 84 48 78 49 77 50 36 52 66 53 47 54 65 55 48 56
REMARK SMILES IDX 51 57 64 58 82 59 49 60 50 61 63 63 83 64 52 65 37 66 38 67
REMARK SMILES IDX 46 68 39 69 45 70 40 71 41 72 42 73 43 74 44 75 67 76 68 77
REMARK SMILES IDX 76 78 69 79 75 80 70 81 71 82 72 83 73 84 74 85 53 86 54 87
REMARK SMILES IDX 62 88 55 89 61 90 56 91 57 92 58 93 59 94 60 95
REMARK H PARENT 12 22 12 23 81 51 51 62
REMARK Flexibility Score: inf
ROOT
ATOM      1  C   UNL A   1      35.938  22.424  24.234  1.00  0.00     0.275 C 
ENDROOT
BRANCH   1   2
ATOM      2  O   UNL A   1      35.454  23.092  23.048  1.00  0.00    -0.458 OA
BRANCH   2   3
ATOM      3  C   UNL A   1      34.084  23.186  22.960  1.00  0.00     0.340 C 
ATOM      4  O   UNL A   1      33.503  23.285  21.885  1.00  0.00    -0.246 OA
BRANCH   3   5
ATOM      5  C   UNL A   1      33.388  23.592  24.176  1.00  0.00     0.089 A 
ATOM      6  N   UNL A   1      31.786  24.964  24.815  1.00  0.00    -0.343 N 
ATOM      7  C   UNL A   1      31.686  23.845  25.632  1.00  0.00     0.025 A 
ATOM      8  C   UNL A   1      33.029  24.934  24.224  1.00  0.00     0.030 A 
ATOM      9  C   UNL A   1      30.636  23.636  26.670  1.00  0.00     0.065 C 
ATOM     10  C   UNL A   1      32.684  22.925  25.260  1.00  0.00     0.042 A 
ATOM     11  C   UNL A   1      33.706  26.046  23.497  1.00  0.00     0.065 C 
BRANCH   6  12
ATOM     12  C   UNL A   1      30.813  26.054  24.660  1.00  0.00     0.157 C 
BRANCH  12  13
ATOM     13  C   UNL A   1      31.209  27.413  25.232  1.00  0.00    -0.028 A 
ATOM     14  C   UNL A   1      31.935  31.363  26.923  1.00  0.00     0.044 C 
ATOM     15  C   UNL A   1      31.670  30.013  26.325  1.00  0.00    -0.051 A 
ATOM     16  C   UNL A   1      31.788  28.876  27.119  1.00  0.00     0.004 A 
ATOM     17  C   UNL A   1      31.345  29.847  24.977  1.00  0.00     0.004 A 
ATOM     18  C   UNL A   1      31.546  27.606  26.580  1.00  0.00     0.006 A 
ATOM     19  C   UNL A   1      31.118  28.568  24.438  1.00  0.00     0.006 A 
ENDBRANCH  12  13
ENDBRANCH   6  12
BRANCH  10  20
ATOM     20  C   UNL A   1      32.799  21.523  25.895  1.00  0.00     0.300 C 
BRANCH  20  21
ATOM     21  N   UNL A   1      31.940  20.571  25.180  1.00  0.00    -0.340 N 
ATOM     22  H   UNL A   1      31.113  21.077  24.863  1.00  0.00     0.346 HD
ATOM     23  H   UNL A   1      31.744  19.824  25.847  1.00  0.00     0.346 HD
BRANCH  21  24
ATOM     24  C   UNL A   1      32.549  19.899  23.991  1.00  0.00     0.293 C 
BRANCH  24  25
ATOM     25  C   UNL A   1      33.085  18.500  24.352  1.00  0.00     0.173 C 
ATOM     26  C   UNL A   1      33.408  17.443  23.307  1.00  0.00     0.040 C 
ATOM     27  O   UNL A   1      32.146  17.810  25.196  1.00  0.00    -0.372 OA
ATOM     28  C   UNL A   1      33.459  16.164  24.147  1.00  0.00     0.031 C 
ATOM     29  C   UNL A   1      32.719  16.518  25.424  1.00  0.00     0.161 C 
ENDBRANCH  24  25
ENDBRANCH  21  24
ENDBRANCH  20  21
ENDBRANCH  10  20
ENDBRANCH   3   5
ENDBRANCH   2   3
ENDBRANCH   1   2
BRANCH   1  30
ATOM     30  C   UNL A   1      37.444  22.650  24.490  1.00  0.00     0.275 C 
BRANCH  30  31
ATOM     31  O   UNL A   1      37.876  23.449  25.614  1.00  0.00    -0.458 OA
BRANCH  31  32
ATOM     32  C   UNL A   1      38.971  23.023  26.286  1.00  0.00     0.338 C 
ATOM     33  O   UNL A   1      39.471  21.924  26.096  1.00  0.00    -0.246 OA
BRANCH  32  34
ATOM     34  C   UNL A   1      39.624  24.162  26.972  1.00  0.00     0.060 A 
ATOM     35  C   UNL A   1      40.295  25.104  26.178  1.00  0.00     0.016 A 
ATOM     36  C   UNL A   1      39.323  24.436  28.296  1.00  0.00     0.016 A 
ATOM     37  C   UNL A   1      40.564  26.379  26.638  1.00  0.00     0.010 A 
ATOM     38  C   UNL A   1      39.490  25.719  28.735  1.00  0.00     0.010 A 
ATOM     39  C   UNL A   1      40.108  26.677  27.907  1.00  0.00    -0.014 A 
BRANCH  39  40
ATOM     40  C   UNL A   1      40.408  27.914  28.581  1.00  0.00     0.031 A 
ATOM     41  C   UNL A   1      39.435  29.027  28.598  1.00  0.00     0.074 A 
ATOM     42  C   UNL A   1      41.506  27.748  29.351  1.00  0.00     0.049 A 
ATOM     43  N   UNL A   1      39.741  30.228  28.941  1.00  0.00    -0.248 NA
ATOM     44  C   UNL A   1      38.032  28.931  28.169  1.00  0.00     0.031 C 
ATOM     45  C   UNL A   1      41.919  28.422  30.560  1.00  0.00     0.029 A 
ATOM     46  N   UNL A   1      42.569  26.861  29.105  1.00  0.00    -0.354 N 
ATOM     47  C   UNL A   1      38.549  30.880  29.201  1.00  0.00     0.074 A 
ATOM     48  C   UNL A   1      37.539  30.131  28.510  1.00  0.00     0.031 C 
ATOM     49  C   UNL A   1      43.233  28.179  30.748  1.00  0.00     0.029 A 
ATOM     50  C   UNL A   1      43.728  27.480  29.566  1.00  0.00     0.049 A 
ATOM     51  H   UNL A   1      42.505  25.973  28.686  1.00  0.00     0.167 HD
ATOM     52  C   UNL A   1      38.532  31.829  30.179  1.00  0.00     0.031 A 
ATOM     53  C   UNL A   1      44.652  27.965  28.676  1.00  0.00     0.031 A 
ATOM     54  C   UNL A   1      39.874  31.974  30.734  1.00  0.00     0.049 A 
ATOM     55  C   UNL A   1      44.637  29.465  28.616  1.00  0.00     0.074 A 
ATOM     56  C   UNL A   1      40.497  31.435  31.847  1.00  0.00     0.029 A 
ATOM     57  N   UNL A   1      40.877  32.400  29.893  1.00  0.00    -0.354 N 
ATOM     58  N   UNL A   1      43.707  30.192  29.164  1.00  0.00    -0.248 NA
ATOM     59  C   UNL A   1      45.631  30.268  27.913  1.00  0.00     0.031 C 
ATOM     60  C   UNL A   1      41.906  31.532  31.642  1.00  0.00     0.029 A 
ATOM     61  C   UNL A   1      42.122  32.124  30.411  1.00  0.00     0.049 A 
ATOM     62  H   UNL A   1      40.723  32.846  29.028  1.00  0.00     0.167 HD
ATOM     63  C   UNL A   1      43.998  31.507  29.007  1.00  0.00     0.074 A 
ATOM     64  C   UNL A   1      45.176  31.511  28.153  1.00  0.00     0.031 C 
ATOM     65  C   UNL A   1      43.274  32.488  29.611  1.00  0.00     0.031 A 
BRANCH  52  66
ATOM     66  C   UNL A   1      37.322  32.430  30.850  1.00  0.00    -0.014 A 
ATOM     67  C   UNL A   1      36.672  33.496  30.185  1.00  0.00     0.010 A 
ATOM     68  C   UNL A   1      36.759  32.022  32.073  1.00  0.00     0.010 A 
ATOM     69  C   UNL A   1      35.554  34.147  30.712  1.00  0.00     0.020 A 
ATOM     70  C   UNL A   1      35.631  32.674  32.619  1.00  0.00     0.020 A 
ATOM     71  C   UNL A   1      35.038  33.735  31.932  1.00  0.00     0.054 A 
BRANCH  71  72
ATOM     72  S   UNL A   1      33.578  34.601  32.569  1.00  0.00     0.124 S 
ATOM     73  O   UNL A   1      32.884  33.547  33.304  1.00  0.00    -0.237 OA
ATOM     74  O   UNL A   1      34.168  35.653  33.390  1.00  0.00    -0.237 OA
ATOM     75  O   UNL A   1      32.895  35.063  31.362  1.00  0.00    -0.744 OA
ENDBRANCH  71  72
ENDBRANCH  52  66
BRANCH  53  76
ATOM     76  C   UNL A   1      44.940  27.057  27.526  1.00  0.00    -0.014 A 
ATOM     77  C   UNL A   1      44.462  27.530  26.288  1.00  0.00     0.010 A 
ATOM     78  C   UNL A   1      46.061  26.203  27.558  1.00  0.00     0.010 A 
ATOM     79  C   UNL A   1      45.268  27.449  25.166  1.00  0.00     0.020 A 
ATOM     80  C   UNL A   1      46.870  26.109  26.417  1.00  0.00     0.020 A 
ATOM     81  C   UNL A   1      46.509  26.833  25.272  1.00  0.00     0.054 A 
BRANCH  81  82
ATOM     82  S   UNL A   1      47.708  27.319  24.013  1.00  0.00     0.124 S 
ATOM     83  O   UNL A   1      48.111  26.043  23.448  1.00  0.00    -0.237 OA
ATOM     84  O   UNL A   1      46.943  28.204  23.144  1.00  0.00    -0.237 OA
ATOM     85  O   UNL A   1      48.721  27.999  24.804  1.00  0.00    -0.744 OA
ENDBRANCH  81  82
ENDBRANCH  53  76
BRANCH  65  86
ATOM     86  C   UNL A   1      43.608  33.932  29.471  1.00  0.00    -0.014 A 
ATOM     87  C   UNL A   1      44.174  34.659  30.524  1.00  0.00     0.010 A 
ATOM     88  C   UNL A   1      43.258  34.628  28.294  1.00  0.00     0.010 A 
ATOM     89  C   UNL A   1      44.491  36.005  30.360  1.00  0.00     0.020 A 
ATOM     90  C   UNL A   1      43.532  35.978  28.134  1.00  0.00     0.020 A 
ATOM     91  C   UNL A   1      44.182  36.649  29.158  1.00  0.00     0.054 A 
BRANCH  91  92
ATOM     92  S   UNL A   1      44.613  38.386  28.962  1.00  0.00     0.124 S 
ATOM     93  O   UNL A   1      43.817  39.027  30.006  1.00  0.00    -0.237 OA
ATOM     94  O   UNL A   1      46.055  38.359  29.197  1.00  0.00    -0.237 OA
ATOM     95  O   UNL A   1      44.207  38.694  27.594  1.00  0.00    -0.744 OA
ENDBRANCH  91  92
ENDBRANCH  65  86
ENDBRANCH  39  40
ENDBRANCH  32  34
ENDBRANCH  31  32
ENDBRANCH  30  31
ENDBRANCH   1  30
TORSDOF 20
ENDMDL
MODEL 3
REMARK VINA RESULT:     -12.2      1.765      2.504
REMARK SMILES Cc1ccc(Cn2c(C)c(C[NH2+]C[C@@H]3CCCO3)c(C(=O)OCCOC(=O)c3ccc(-c4c5nc(c(-c6ccc(S(=O)(=O)[O-])cc6)c6ccc([nH]6)c(-c6ccc(S(=O)(=O)[O-])cc6)c6nc(c(-c7ccc(S(=O)(=O)[O-])cc7)c7ccc4[nH]7)C=C6)C=C5)cc3)c2C)cc1
REMARK SMILES IDX 23 1 22 2 20 3 21 4 19 5 7 6 8 7 88 8 9 9 10 10 89 11 6 12
REMARK SMILES IDX 5 13 1 14 2 15 3 16 91 17 4 18 90 19 11 20 12 21 13 24 14 25
REMARK SMILES IDX 15 26 18 27 16 28 17 29 24 30 25 31 26 32 27 33 28 34 29 35
REMARK SMILES IDX 87 36 30 37 86 38 31 39 32 40 33 41 80 42 34 43 85 44 79 45
REMARK SMILES IDX 81 46 35 47 84 48 78 49 77 50 36 52 66 53 47 54 65 55 48 56
REMARK SMILES IDX 51 57 64 58 82 59 49 60 50 61 63 63 83 64 52 65 37 66 38 67
REMARK SMILES IDX 46 68 39 69 45 70 40 71 41 72 42 73 43 74 44 75 67 76 68 77
REMARK SMILES IDX 76 78 69 79 75 80 70 81 71 82 72 83 73 84 74 85 53 86 54 87
REMARK SMILES IDX 62 88 55 89 61 90 56 91 57 92 58 93 59 94 60 95
REMARK H PARENT 12 22 12 23 81 51 51 62
REMARK Flexibility Score: inf
ROOT
ATOM      1  C   UNL A   1      33.111  28.909  27.183  1.00  0.00     0.275 C 
ENDROOT
BRANCH   1   2
ATOM      2  O   UNL A   1      32.880  27.489  27.314  1.00  0.00    -0.458 OA
BRANCH   2   3
ATOM      3  C   UNL A   1      32.005  26.961  26.395  1.00  0.00     0.340 C 
ATOM      4  O   UNL A   1      30.914  26.502  26.717  1.00  0.00    -0.246 OA
BRANCH   3   5
ATOM      5  C   UNL A   1      32.578  26.574  25.110  1.00  0.00     0.089 A 
ATOM      6  N   UNL A   1      32.867  24.772  23.874  1.00  0.00    -0.343 N 
ATOM      7  C   UNL A   1      32.647  25.818  22.987  1.00  0.00     0.025 A 
ATOM      8  C   UNL A   1      33.188  25.325  25.094  1.00  0.00     0.030 A 
ATOM      9  C   UNL A   1      32.559  25.678  21.505  1.00  0.00     0.065 C 
ATOM     10  C   UNL A   1      32.443  26.999  23.725  1.00  0.00     0.042 A 
ATOM     11  C   UNL A   1      33.778  24.625  26.271  1.00  0.00     0.065 C 
BRANCH   6  12
ATOM     12  C   UNL A   1      32.869  23.331  23.583  1.00  0.00     0.157 C 
BRANCH  12  13
ATOM     13  C   UNL A   1      34.167  22.577  23.862  1.00  0.00    -0.028 A 
ATOM     14  C   UNL A   1      37.945  20.703  24.958  1.00  0.00     0.044 C 
ATOM     15  C   UNL A   1      36.656  21.369  24.578  1.00  0.00    -0.051 A 
ATOM     16  C   UNL A   1      35.454  20.866  25.067  1.00  0.00     0.004 A 
ATOM     17  C   UNL A   1      36.611  22.463  23.711  1.00  0.00     0.004 A 
ATOM     18  C   UNL A   1      34.239  21.472  24.724  1.00  0.00     0.006 A 
ATOM     19  C   UNL A   1      35.386  23.058  23.358  1.00  0.00     0.006 A 
ENDBRANCH  12  13
ENDBRANCH   6  12
BRANCH  10  20
ATOM     20  C   UNL A   1      32.069  28.340  23.059  1.00  0.00     0.300 C 
BRANCH  20  21
ATOM     21  N   UNL A   1      30.679  28.691  23.373  1.00  0.00    -0.340 N 
ATOM     22  H   UNL A   1      30.690  29.577  23.880  1.00  0.00     0.346 HD
ATOM     23  H   UNL A   1      30.312  27.905  23.910  1.00  0.00     0.346 HD
BRANCH  21  24
ATOM     24  C   UNL A   1      29.758  28.845  22.204  1.00  0.00     0.293 C 
BRANCH  24  25
ATOM     25  C   UNL A   1      28.832  30.065  22.378  1.00  0.00     0.173 C 
ATOM     26  C   UNL A   1      28.533  31.043  21.252  1.00  0.00     0.040 C 
ATOM     27  O   UNL A   1      29.344  30.935  23.402  1.00  0.00    -0.372 OA
ATOM     28  C   UNL A   1      27.975  32.248  22.012  1.00  0.00     0.031 C 
ATOM     29  C   UNL A   1      28.442  32.046  23.442  1.00  0.00     0.161 C 
ENDBRANCH  24  25
ENDBRANCH  21  24
ENDBRANCH  20  21
ENDBRANCH  10  20
ENDBRANCH   3   5
ENDBRANCH   2   3
ENDBRANCH   1   2
BRANCH   1  30
ATOM     30  C   UNL A   1      34.605  29.276  27.060  1.00  0.00     0.275 C 
BRANCH  30  31
ATOM     31  O   UNL A   1      35.317  29.808  28.199  1.00  0.00    -0.458 OA
BRANCH  31  32
ATOM     32  C   UNL A   1      36.514  30.392  27.956  1.00  0.00     0.338 C 
ATOM     33  O   UNL A   1      36.660  31.605  27.931  1.00  0.00    -0.246 OA
BRANCH  32  34
ATOM     34  C   UNL A   1      37.602  29.394  28.078  1.00  0.00     0.060 A 
ATOM     35  C   UNL A   1      38.743  29.570  27.281  1.00  0.00     0.016 A 
ATOM     36  C   UNL A   1      37.612  28.508  29.144  1.00  0.00     0.016 A 
ATOM     37  C   UNL A   1      39.949  28.976  27.599  1.00  0.00     0.010 A 
ATOM     38  C   UNL A   1      38.817  27.993  29.532  1.00  0.00     0.010 A 
ATOM     39  C   UNL A   1      39.970  28.228  28.760  1.00  0.00    -0.014 A 
BRANCH  39  40
ATOM     40  C   UNL A   1      41.109  27.447  29.171  1.00  0.00     0.031 A 
ATOM     41  C   UNL A   1      41.265  26.043  28.739  1.00  0.00     0.074 A 
ATOM     42  C   UNL A   1      42.037  28.265  29.719  1.00  0.00     0.049 A 
ATOM     43  N   UNL A   1      42.099  25.226  29.278  1.00  0.00    -0.248 NA
ATOM     44  C   UNL A   1      40.459  25.382  27.703  1.00  0.00     0.031 C 
ATOM     45  C   UNL A   1      43.473  28.135  29.805  1.00  0.00     0.029 A 
ATOM     46  N   UNL A   1      41.787  29.469  30.400  1.00  0.00    -0.354 N 
ATOM     47  C   UNL A   1      42.239  24.167  28.399  1.00  0.00     0.074 A 
ATOM     48  C   UNL A   1      41.068  24.193  27.571  1.00  0.00     0.031 C 
ATOM     49  C   UNL A   1      43.916  28.995  30.746  1.00  0.00     0.029 A 
ATOM     50  C   UNL A   1      42.747  29.574  31.402  1.00  0.00     0.049 A 
ATOM     51  H   UNL A   1      41.069  30.113  30.206  1.00  0.00     0.167 HD
ATOM     52  C   UNL A   1      43.452  23.552  28.317  1.00  0.00     0.031 A 
ATOM     53  C   UNL A   1      42.396  29.397  32.716  1.00  0.00     0.031 A 
ATOM     54  C   UNL A   1      44.372  24.169  29.266  1.00  0.00     0.049 A 
ATOM     55  C   UNL A   1      42.894  28.088  33.257  1.00  0.00     0.074 A 
ATOM     56  C   UNL A   1      45.333  25.158  29.142  1.00  0.00     0.029 A 
ATOM     57  N   UNL A   1      44.064  24.090  30.606  1.00  0.00    -0.354 N 
ATOM     58  N   UNL A   1      43.390  27.148  32.506  1.00  0.00    -0.248 NA
ATOM     59  C   UNL A   1      42.846  27.710  34.665  1.00  0.00     0.031 C 
ATOM     60  C   UNL A   1      45.579  25.686  30.445  1.00  0.00     0.029 A 
ATOM     61  C   UNL A   1      44.768  25.016  31.342  1.00  0.00     0.049 A 
ATOM     62  H   UNL A   1      43.420  23.451  30.990  1.00  0.00     0.167 HD
ATOM     63  C   UNL A   1      43.818  26.120  33.279  1.00  0.00     0.074 A 
ATOM     64  C   UNL A   1      43.392  26.482  34.621  1.00  0.00     0.031 C 
ATOM     65  C   UNL A   1      44.515  25.069  32.768  1.00  0.00     0.031 A 
BRANCH  52  66
ATOM     66  C   UNL A   1      43.932  22.615  27.235  1.00  0.00    -0.014 A 
ATOM     67  C   UNL A   1      43.086  21.536  26.887  1.00  0.00     0.010 A 
ATOM     68  C   UNL A   1      45.139  22.718  26.519  1.00  0.00     0.010 A 
ATOM     69  C   UNL A   1      43.426  20.592  25.916  1.00  0.00     0.020 A 
ATOM     70  C   UNL A   1      45.496  21.768  25.537  1.00  0.00     0.020 A 
ATOM     71  C   UNL A   1      44.635  20.709  25.245  1.00  0.00     0.054 A 
BRANCH  71  72
ATOM     72  S   UNL A   1      45.025  19.467  23.983  1.00  0.00     0.124 S 
ATOM     73  O   UNL A   1      44.561  20.109  22.756  1.00  0.00    -0.237 OA
ATOM     74  O   UNL A   1      46.473  19.332  24.111  1.00  0.00    -0.237 OA
ATOM     75  O   UNL A   1      44.254  18.296  24.397  1.00  0.00    -0.744 OA
ENDBRANCH  71  72
ENDBRANCH  52  66
BRANCH  53  76
ATOM     76  C   UNL A   1      41.121  30.066  33.112  1.00  0.00    -0.014 A 
ATOM     77  C   UNL A   1      41.279  31.405  33.519  1.00  0.00     0.010 A 
ATOM     78  C   UNL A   1      39.896  29.649  32.551  1.00  0.00     0.010 A 
ATOM     79  C   UNL A   1      40.392  32.368  33.068  1.00  0.00     0.020 A 
ATOM     80  C   UNL A   1      38.991  30.624  32.108  1.00  0.00     0.020 A 
ATOM     81  C   UNL A   1      39.318  31.976  32.278  1.00  0.00     0.054 A 
BRANCH  81  82
ATOM     82  S   UNL A   1      38.622  33.281  31.242  1.00  0.00     0.124 S 
ATOM     83  O   UNL A   1      39.385  34.449  31.647  1.00  0.00    -0.237 OA
ATOM     84  O   UNL A   1      38.849  32.791  29.889  1.00  0.00    -0.237 OA
ATOM     85  O   UNL A   1      37.225  33.277  31.644  1.00  0.00    -0.744 OA
ENDBRANCH  81  82
ENDBRANCH  53  76
BRANCH  65  86
ATOM     86  C   UNL A   1      45.019  23.952  33.615  1.00  0.00    -0.014 A 
ATOM     87  C   UNL A   1      46.339  23.921  34.075  1.00  0.00     0.010 A 
ATOM     88  C   UNL A   1      44.192  22.841  33.885  1.00  0.00     0.010 A 
ATOM     89  C   UNL A   1      46.780  22.872  34.879  1.00  0.00     0.020 A 
ATOM     90  C   UNL A   1      44.632  21.772  34.652  1.00  0.00     0.020 A 
ATOM     91  C   UNL A   1      45.915  21.815  35.175  1.00  0.00     0.054 A 
BRANCH  91  92
ATOM     92  S   UNL A   1      46.500  20.477  36.228  1.00  0.00     0.124 S 
ATOM     93  O   UNL A   1      45.826  20.756  37.494  1.00  0.00    -0.237 OA
ATOM     94  O   UNL A   1      46.019  19.302  35.505  1.00  0.00    -0.237 OA
ATOM     95  O   UNL A   1      47.949  20.653  36.244  1.00  0.00    -0.744 OA
ENDBRANCH  91  92
ENDBRANCH  65  86
ENDBRANCH  39  40
ENDBRANCH  32  34
ENDBRANCH  31  32
ENDBRANCH  30  31
ENDBRANCH   1  30
TORSDOF 20
ENDMDL
