MODEL 1
REMARK VINA RESULT:     -13.1      0.000      0.000
REMARK SMILES O=C1NC(=O)/C(=C/c2ccc(OCc3cn(-c4ccc(C(=O)OCCOC(=O)c5ccc(-c6c7nc(c(-c8ccc(S(=O)(=O)[O-])cc8)c8ccc([nH]8)c(-c8ccc(S(=O)(=O)[O-])cc8)c8nc(c(-c9ccc(S(=O)(=O)[O-])cc9)c9ccc6[nH]9)C=C8)C=C7)cc5)cc4)nn3)cc2)S1
REMARK SMILES IDX 24 1 23 2 21 3 22 4 20 5 17 6 18 7 90 8 19 9 89 10 16 11
REMARK SMILES IDX 14 12 15 13 92 14 91 15 13 16 12 17 11 18 8 19 9 20 94 21
REMARK SMILES IDX 10 22 93 23 7 24 1 25 2 26 3 27 95 28 4 29 6 31 5 32 25 33
REMARK SMILES IDX 26 34 27 35 28 36 29 37 30 38 88 39 31 40 87 41 32 42 33 43
REMARK SMILES IDX 34 44 81 45 35 46 86 47 80 48 82 49 36 50 85 51 79 52 78 53
REMARK SMILES IDX 37 55 67 56 48 57 66 58 49 59 52 60 65 61 83 62 50 63 51 64
REMARK SMILES IDX 64 66 84 67 53 68 38 69 39 70 47 71 40 72 46 73 41 74 42 75
REMARK SMILES IDX 43 76 44 77 45 78 68 79 69 80 77 81 70 82 76 83 71 84 72 85
REMARK SMILES IDX 73 86 74 87 75 88 54 89 55 90 63 91 56 92 62 93 57 94 58 95
REMARK SMILES IDX 59 96 60 97 61 98
REMARK H PARENT 3 30 82 54 52 65
REMARK Flexibility Score: inf
ROOT
ATOM      1  C   UNL A   1      42.826  19.168  25.331  1.00  0.00     0.275 C 
ENDROOT
BRANCH   1   2
ATOM      2  O   UNL A   1      42.346  18.989  26.671  1.00  0.00    -0.458 OA
BRANCH   2   3
ATOM      3  C   UNL A   1      41.741  20.083  27.197  1.00  0.00     0.338 C 
ATOM      4  O   UNL A   1      42.150  20.764  28.125  1.00  0.00    -0.246 OA
BRANCH   3   5
ATOM      5  C   UNL A   1      40.515  20.413  26.443  1.00  0.00     0.060 A 
ATOM      6  C   UNL A   1      38.087  21.073  25.288  1.00  0.00     0.066 A 
ATOM      7  C   UNL A   1      38.847  22.074  25.904  1.00  0.00     0.029 A 
ATOM      8  C   UNL A   1      38.572  19.765  25.168  1.00  0.00     0.029 A 
ATOM      9  C   UNL A   1      40.048  21.732  26.513  1.00  0.00     0.018 A 
ATOM     10  C   UNL A   1      39.811  19.445  25.718  1.00  0.00     0.018 A 
BRANCH   6  11
ATOM     11  N   UNL A   1      36.799  21.392  24.830  1.00  0.00    -0.220 N 
ATOM     12  C   UNL A   1      34.650  21.667  24.612  1.00  0.00     0.120 A 
ATOM     13  C   UNL A   1      35.592  21.009  25.372  1.00  0.00     0.144 A 
ATOM     14  N   UNL A   1      35.304  22.411  23.668  1.00  0.00    -0.131 NA
ATOM     15  N   UNL A   1      36.604  22.278  23.840  1.00  0.00    -0.062 NA
BRANCH  12  16
ATOM     16  C   UNL A   1      33.167  21.778  24.766  1.00  0.00     0.289 C 
BRANCH  16  17
ATOM     17  O   UNL A   1      32.704  22.339  26.007  1.00  0.00    -0.487 OA
BRANCH  17  18
ATOM     18  C   UNL A   1      32.544  23.697  26.085  1.00  0.00     0.119 A 
ATOM     19  C   UNL A   1      31.936  26.439  25.926  1.00  0.00    -0.024 A 
ATOM     20  C   UNL A   1      30.922  25.505  26.153  1.00  0.00     0.012 A 
ATOM     21  C   UNL A   1      33.260  25.999  25.875  1.00  0.00     0.012 A 
ATOM     22  C   UNL A   1      31.226  24.139  26.222  1.00  0.00     0.047 A 
ATOM     23  C   UNL A   1      33.562  24.644  25.997  1.00  0.00     0.047 A 
BRANCH  19  24
ATOM     24  C   UNL A   1      31.635  27.867  25.792  1.00  0.00     0.029 C 
ATOM     25  O   UNL A   1      29.507  29.398  21.490  1.00  0.00    -0.261 OA
ATOM     26  C   UNL A   1      29.996  29.260  22.609  1.00  0.00     0.290 C 
ATOM     27  N   UNL A   1      30.328  30.261  23.453  1.00  0.00    -0.282 N 
ATOM     28  S   UNL A   1      30.390  27.714  23.325  1.00  0.00    -0.022 SA
ATOM     29  C   UNL A   1      30.905  29.929  24.644  1.00  0.00     0.265 C 
ATOM     30  H   UNL A   1      30.159  31.202  23.217  1.00  0.00     0.174 HD
ATOM     31  C   UNL A   1      31.045  28.451  24.740  1.00  0.00     0.083 C 
ATOM     32  O   UNL A   1      31.283  30.725  25.488  1.00  0.00    -0.268 OA
ENDBRANCH  19  24
ENDBRANCH  17  18
ENDBRANCH  16  17
ENDBRANCH  12  16
ENDBRANCH   6  11
ENDBRANCH   3   5
ENDBRANCH   2   3
ENDBRANCH   1   2
BRANCH   1  33
ATOM     33  C   UNL A   1      44.348  19.102  25.273  1.00  0.00     0.275 C 
BRANCH  33  34
ATOM     34  O   UNL A   1      44.982  20.365  25.507  1.00  0.00    -0.458 OA
BRANCH  34  35
ATOM     35  C   UNL A   1      44.556  21.386  24.722  1.00  0.00     0.338 C 
ATOM     36  O   UNL A   1      44.830  21.573  23.549  1.00  0.00    -0.246 OA
BRANCH  35  37
ATOM     37  C   UNL A   1      43.912  22.411  25.558  1.00  0.00     0.060 A 
ATOM     38  C   UNL A   1      42.917  23.234  25.030  1.00  0.00     0.016 A 
ATOM     39  C   UNL A   1      44.473  22.694  26.804  1.00  0.00     0.016 A 
ATOM     40  C   UNL A   1      42.688  24.473  25.635  1.00  0.00     0.010 A 
ATOM     41  C   UNL A   1      44.161  23.875  27.442  1.00  0.00     0.010 A 
ATOM     42  C   UNL A   1      43.419  24.850  26.784  1.00  0.00    -0.014 A 
BRANCH  42  43
ATOM     43  C   UNL A   1      43.110  26.064  27.566  1.00  0.00     0.031 A 
ATOM     44  C   UNL A   1      44.227  27.027  27.296  1.00  0.00     0.074 A 
ATOM     45  C   UNL A   1      41.965  26.326  28.277  1.00  0.00     0.049 A 
ATOM     46  N   UNL A   1      45.236  27.221  28.080  1.00  0.00    -0.248 NA
ATOM     47  C   UNL A   1      44.481  27.529  25.921  1.00  0.00     0.031 C 
ATOM     48  C   UNL A   1      40.795  25.465  28.534  1.00  0.00     0.029 A 
ATOM     49  N   UNL A   1      41.568  27.485  28.934  1.00  0.00    -0.354 N 
ATOM     50  C   UNL A   1      46.003  28.193  27.450  1.00  0.00     0.074 A 
ATOM     51  C   UNL A   1      45.677  28.111  26.057  1.00  0.00     0.031 C 
ATOM     52  C   UNL A   1      39.756  26.190  29.038  1.00  0.00     0.029 A 
ATOM     53  C   UNL A   1      40.184  27.557  29.278  1.00  0.00     0.049 A 
ATOM     54  H   UNL A   1      42.201  28.208  29.150  1.00  0.00     0.167 HD
ATOM     55  C   UNL A   1      46.452  29.247  28.186  1.00  0.00     0.031 A 
ATOM     56  C   UNL A   1      39.475  28.607  29.839  1.00  0.00     0.031 A 
ATOM     57  C   UNL A   1      46.386  28.923  29.592  1.00  0.00     0.049 A 
ATOM     58  C   UNL A   1      40.471  29.483  30.499  1.00  0.00     0.074 A 
ATOM     59  C   UNL A   1      46.916  27.945  30.408  1.00  0.00     0.029 A 
ATOM     60  N   UNL A   1      45.251  29.381  30.208  1.00  0.00    -0.354 N 
ATOM     61  N   UNL A   1      41.141  29.090  31.544  1.00  0.00    -0.248 NA
ATOM     62  C   UNL A   1      41.116  30.460  29.641  1.00  0.00     0.031 C 
ATOM     63  C   UNL A   1      45.863  27.594  31.308  1.00  0.00     0.029 A 
ATOM     64  C   UNL A   1      44.798  28.474  31.121  1.00  0.00     0.049 A 
ATOM     65  H   UNL A   1      44.821  30.246  30.018  1.00  0.00     0.167 HD
ATOM     66  C   UNL A   1      42.458  29.330  31.190  1.00  0.00     0.074 A 
ATOM     67  C   UNL A   1      42.375  30.198  30.003  1.00  0.00     0.031 C 
ATOM     68  C   UNL A   1      43.461  28.532  31.667  1.00  0.00     0.031 A 
BRANCH  55  69
ATOM     69  C   UNL A   1      46.344  30.683  27.701  1.00  0.00    -0.014 A 
ATOM     70  C   UNL A   1      45.062  31.189  27.407  1.00  0.00     0.010 A 
ATOM     71  C   UNL A   1      47.443  31.452  27.254  1.00  0.00     0.010 A 
ATOM     72  C   UNL A   1      44.890  32.391  26.705  1.00  0.00     0.020 A 
ATOM     73  C   UNL A   1      47.284  32.668  26.582  1.00  0.00     0.020 A 
ATOM     74  C   UNL A   1      46.004  33.130  26.311  1.00  0.00     0.054 A 
BRANCH  74  75
ATOM     75  S   UNL A   1      45.756  34.708  25.458  1.00  0.00     0.124 S 
ATOM     76  O   UNL A   1      45.105  34.292  24.220  1.00  0.00    -0.237 OA
ATOM     77  O   UNL A   1      44.912  35.432  26.405  1.00  0.00    -0.237 OA
ATOM     78  O   UNL A   1      47.111  35.236  25.311  1.00  0.00    -0.744 OA
ENDBRANCH  74  75
ENDBRANCH  55  69
BRANCH  56  79
ATOM     79  C   UNL A   1      38.117  29.184  29.481  1.00  0.00    -0.014 A 
ATOM     80  C   UNL A   1      37.171  29.659  30.440  1.00  0.00     0.010 A 
ATOM     81  C   UNL A   1      37.895  29.581  28.154  1.00  0.00     0.010 A 
ATOM     82  C   UNL A   1      36.112  30.544  30.085  1.00  0.00     0.020 A 
ATOM     83  C   UNL A   1      36.859  30.463  27.798  1.00  0.00     0.020 A 
ATOM     84  C   UNL A   1      35.985  30.965  28.760  1.00  0.00     0.054 A 
BRANCH  84  85
ATOM     85  S   UNL A   1      34.788  32.269  28.287  1.00  0.00     0.124 S 
ATOM     86  O   UNL A   1      33.794  31.530  27.514  1.00  0.00    -0.237 OA
ATOM     87  O   UNL A   1      34.332  32.780  29.576  1.00  0.00    -0.237 OA
ATOM     88  O   UNL A   1      35.597  33.208  27.508  1.00  0.00    -0.744 OA
ENDBRANCH  84  85
ENDBRANCH  56  79
BRANCH  68  89
ATOM     89  C   UNL A   1      43.162  27.607  32.824  1.00  0.00    -0.014 A 
ATOM     90  C   UNL A   1      43.880  26.445  33.177  1.00  0.00     0.010 A 
ATOM     91  C   UNL A   1      42.112  28.022  33.658  1.00  0.00     0.010 A 
ATOM     92  C   UNL A   1      43.496  25.687  34.302  1.00  0.00     0.020 A 
ATOM     93  C   UNL A   1      41.741  27.291  34.780  1.00  0.00     0.020 A 
ATOM     94  C   UNL A   1      42.412  26.109  35.082  1.00  0.00     0.054 A 
BRANCH  94  95
ATOM     95  S   UNL A   1      41.835  25.098  36.475  1.00  0.00     0.124 S 
ATOM     96  O   UNL A   1      43.075  24.809  37.191  1.00  0.00    -0.237 OA
ATOM     97  O   UNL A   1      40.904  25.989  37.162  1.00  0.00    -0.237 OA
ATOM     98  O   UNL A   1      41.213  23.940  35.832  1.00  0.00    -0.744 OA
ENDBRANCH  94  95
ENDBRANCH  68  89
ENDBRANCH  42  43
ENDBRANCH  35  37
ENDBRANCH  34  35
ENDBRANCH  33  34
ENDBRANCH   1  33
TORSDOF 19
ENDMDL
MODEL 2
REMARK VINA RESULT:     -12.4      3.871      5.460
REMARK SMILES O=C1NC(=O)/C(=C/c2ccc(OCc3cn(-c4ccc(C(=O)OCCOC(=O)c5ccc(-c6c7nc(c(-c8ccc(S(=O)(=O)[O-])cc8)c8ccc([nH]8)c(-c8ccc(S(=O)(=O)[O-])cc8)c8nc(c(-c9ccc(S(=O)(=O)[O-])cc9)c9ccc6[nH]9)C=C8)C=C7)cc5)cc4)nn3)cc2)S1
REMARK SMILES IDX 24 1 23 2 21 3 22 4 20 5 17 6 18 7 90 8 19 9 89 10 16 11
REMARK SMILES IDX 14 12 15 13 92 14 91 15 13 16 12 17 11 18 8 19 9 20 94 21
REMARK SMILES IDX 10 22 93 23 7 24 1 25 2 26 3 27 95 28 4 29 6 31 5 32 25 33
REMARK SMILES IDX 26 34 27 35 28 36 29 37 30 38 88 39 31 40 87 41 32 42 33 43
REMARK SMILES IDX 34 44 81 45 35 46 86 47 80 48 82 49 36 50 85 51 79 52 78 53
REMARK SMILES IDX 37 55 67 56 48 57 66 58 49 59 52 60 65 61 83 62 50 63 51 64
REMARK SMILES IDX 64 66 84 67 53 68 38 69 39 70 47 71 40 72 46 73 41 74 42 75
REMARK SMILES IDX 43 76 44 77 45 78 68 79 69 80 77 81 70 82 76 83 71 84 72 85
REMARK SMILES IDX 73 86 74 87 75 88 54 89 55 90 63 91 56 92 62 93 57 94 58 95
REMARK SMILES IDX 59 96 60 97 61 98
REMARK H PARENT 3 30 82 54 52 65
REMARK Flexibility Score: inf
ROOT
ATOM      1  C   UNL A   1      44.584  23.357  28.741  1.00  0.00     0.275 C 
ENDROOT
BRANCH   1   2
ATOM      2  O   UNL A   1      43.160  23.305  28.572  1.00  0.00    -0.458 OA
BRANCH   2   3
ATOM      3  C   UNL A   1      42.671  24.203  27.682  1.00  0.00     0.338 C 
ATOM      4  O   UNL A   1      43.286  25.123  27.163  1.00  0.00    -0.246 OA
BRANCH   3   5
ATOM      5  C   UNL A   1      41.270  23.887  27.340  1.00  0.00     0.060 A 
ATOM      6  C   UNL A   1      38.732  23.260  26.427  1.00  0.00     0.066 A 
ATOM      7  C   UNL A   1      39.699  22.251  26.509  1.00  0.00     0.029 A 
ATOM      8  C   UNL A   1      38.998  24.557  26.880  1.00  0.00     0.029 A 
ATOM      9  C   UNL A   1      40.981  22.577  26.935  1.00  0.00     0.018 A 
ATOM     10  C   UNL A   1      40.264  24.860  27.374  1.00  0.00     0.018 A 
BRANCH   6  11
ATOM     11  N   UNL A   1      37.497  22.959  25.833  1.00  0.00    -0.220 N 
ATOM     12  C   UNL A   1      35.512  23.047  24.940  1.00  0.00     0.120 A 
ATOM     13  C   UNL A   1      36.419  23.799  25.654  1.00  0.00     0.144 A 
ATOM     14  N   UNL A   1      36.063  21.815  24.710  1.00  0.00    -0.131 NA
ATOM     15  N   UNL A   1      37.282  21.789  25.210  1.00  0.00    -0.062 NA
BRANCH  12  16
ATOM     16  C   UNL A   1      34.203  23.417  24.318  1.00  0.00     0.289 C 
BRANCH  16  17
ATOM     17  O   UNL A   1      34.028  24.810  24.003  1.00  0.00    -0.487 OA
BRANCH  17  18
ATOM     18  C   UNL A   1      32.761  25.327  24.031  1.00  0.00     0.119 A 
ATOM     19  C   UNL A   1      30.249  26.551  23.704  1.00  0.00    -0.024 A 
ATOM     20  C   UNL A   1      30.709  25.626  22.764  1.00  0.00     0.012 A 
ATOM     21  C   UNL A   1      31.011  26.785  24.850  1.00  0.00     0.012 A 
ATOM     22  C   UNL A   1      31.964  25.025  22.924  1.00  0.00     0.047 A 
ATOM     23  C   UNL A   1      32.236  26.144  25.031  1.00  0.00     0.047 A 
BRANCH  19  24
ATOM     24  C   UNL A   1      28.965  27.236  23.529  1.00  0.00     0.029 C 
ATOM     25  O   UNL A   1      29.072  31.949  21.753  1.00  0.00    -0.261 OA
ATOM     26  C   UNL A   1      28.800  30.827  22.172  1.00  0.00     0.290 C 
ATOM     27  N   UNL A   1      27.573  30.398  22.542  1.00  0.00    -0.282 N 
ATOM     28  S   UNL A   1      29.976  29.552  22.401  1.00  0.00    -0.022 SA
ATOM     29  C   UNL A   1      27.458  29.129  23.030  1.00  0.00     0.265 C 
ATOM     30  H   UNL A   1      26.786  30.984  22.463  1.00  0.00     0.174 HD
ATOM     31  C   UNL A   1      28.794  28.473  23.042  1.00  0.00     0.083 C 
ATOM     32  O   UNL A   1      26.424  28.621  23.428  1.00  0.00    -0.268 OA
ENDBRANCH  19  24
ENDBRANCH  17  18
ENDBRANCH  16  17
ENDBRANCH  12  16
ENDBRANCH   6  11
ENDBRANCH   3   5
ENDBRANCH   2   3
ENDBRANCH   1   2
BRANCH   1  33
ATOM     33  C   UNL A   1      44.972  24.248  29.916  1.00  0.00     0.275 C 
BRANCH  33  34
ATOM     34  O   UNL A   1      45.720  25.408  29.528  1.00  0.00    -0.458 OA
BRANCH  34  35
ATOM     35  C   UNL A   1      46.090  26.229  30.543  1.00  0.00     0.338 C 
ATOM     36  O   UNL A   1      46.703  25.920  31.550  1.00  0.00    -0.246 OA
BRANCH  35  37
ATOM     37  C   UNL A   1      45.414  27.527  30.394  1.00  0.00     0.060 A 
ATOM     38  C   UNL A   1      45.571  28.522  31.358  1.00  0.00     0.016 A 
ATOM     39  C   UNL A   1      44.441  27.654  29.402  1.00  0.00     0.016 A 
ATOM     40  C   UNL A   1      44.579  29.501  31.472  1.00  0.00     0.010 A 
ATOM     41  C   UNL A   1      43.527  28.684  29.467  1.00  0.00     0.010 A 
ATOM     42  C   UNL A   1      43.473  29.499  30.593  1.00  0.00    -0.014 A 
BRANCH  42  43
ATOM     43  C   UNL A   1      42.482  30.594  30.550  1.00  0.00     0.031 A 
ATOM     44  C   UNL A   1      43.263  31.851  30.311  1.00  0.00     0.074 A 
ATOM     45  C   UNL A   1      41.114  30.477  30.573  1.00  0.00     0.049 A 
ATOM     46  N   UNL A   1      43.607  32.689  31.233  1.00  0.00    -0.248 NA
ATOM     47  C   UNL A   1      44.059  32.025  29.070  1.00  0.00     0.031 C 
ATOM     48  C   UNL A   1      40.270  29.278  30.734  1.00  0.00     0.029 A 
ATOM     49  N   UNL A   1      40.134  31.451  30.421  1.00  0.00    -0.354 N 
ATOM     50  C   UNL A   1      44.294  33.697  30.569  1.00  0.00     0.074 A 
ATOM     51  C   UNL A   1      44.791  33.105  29.362  1.00  0.00     0.031 C 
ATOM     52  C   UNL A   1      38.972  29.548  30.417  1.00  0.00     0.029 A 
ATOM     53  C   UNL A   1      38.819  30.967  30.144  1.00  0.00     0.049 A 
ATOM     54  H   UNL A   1      40.333  32.412  30.501  1.00  0.00     0.167 HD
ATOM     55  C   UNL A   1      43.981  34.992  30.846  1.00  0.00     0.031 A 
ATOM     56  C   UNL A   1      37.669  31.679  29.848  1.00  0.00     0.031 A 
ATOM     57  C   UNL A   1      43.270  35.063  32.103  1.00  0.00     0.049 A 
ATOM     58  C   UNL A   1      37.882  33.055  30.352  1.00  0.00     0.074 A 
ATOM     59  C   UNL A   1      43.529  34.697  33.408  1.00  0.00     0.029 A 
ATOM     60  N   UNL A   1      41.908  35.092  31.962  1.00  0.00    -0.354 N 
ATOM     61  N   UNL A   1      37.975  33.310  31.625  1.00  0.00    -0.248 NA
ATOM     62  C   UNL A   1      38.591  33.950  29.455  1.00  0.00     0.031 C 
ATOM     63  C   UNL A   1      42.301  34.156  33.897  1.00  0.00     0.029 A 
ATOM     64  C   UNL A   1      41.306  34.360  32.942  1.00  0.00     0.049 A 
ATOM     65  H   UNL A   1      41.429  35.576  31.251  1.00  0.00     0.167 HD
ATOM     66  C   UNL A   1      39.156  34.025  31.726  1.00  0.00     0.074 A 
ATOM     67  C   UNL A   1      39.483  34.404  30.341  1.00  0.00     0.031 C 
ATOM     68  C   UNL A   1      39.926  33.939  32.853  1.00  0.00     0.031 A 
BRANCH  55  69
ATOM     69  C   UNL A   1      43.762  36.029  29.757  1.00  0.00    -0.014 A 
ATOM     70  C   UNL A   1      44.198  37.347  29.999  1.00  0.00     0.010 A 
ATOM     71  C   UNL A   1      42.906  35.842  28.648  1.00  0.00     0.010 A 
ATOM     72  C   UNL A   1      43.800  38.414  29.181  1.00  0.00     0.020 A 
ATOM     73  C   UNL A   1      42.528  36.893  27.806  1.00  0.00     0.020 A 
ATOM     74  C   UNL A   1      42.979  38.176  28.080  1.00  0.00     0.054 A 
BRANCH  74  75
ATOM     75  S   UNL A   1      42.527  39.561  27.005  1.00  0.00     0.124 S 
ATOM     76  O   UNL A   1      43.732  39.738  26.203  1.00  0.00    -0.237 OA
ATOM     77  O   UNL A   1      41.367  39.024  26.296  1.00  0.00    -0.237 OA
ATOM     78  O   UNL A   1      42.229  40.641  27.943  1.00  0.00    -0.744 OA
ENDBRANCH  74  75
ENDBRANCH  55  69
BRANCH  56  79
ATOM     79  C   UNL A   1      36.610  31.446  28.784  1.00  0.00    -0.014 A 
ATOM     80  C   UNL A   1      36.562  30.294  27.941  1.00  0.00     0.010 A 
ATOM     81  C   UNL A   1      35.439  32.215  28.836  1.00  0.00     0.010 A 
ATOM     82  C   UNL A   1      35.375  29.906  27.256  1.00  0.00     0.020 A 
ATOM     83  C   UNL A   1      34.260  31.833  28.172  1.00  0.00     0.020 A 
ATOM     84  C   UNL A   1      34.216  30.669  27.406  1.00  0.00     0.054 A 
BRANCH  84  85
ATOM     85  S   UNL A   1      32.608  30.101  26.734  1.00  0.00     0.124 S 
ATOM     86  O   UNL A   1      31.758  31.277  26.895  1.00  0.00    -0.237 OA
ATOM     87  O   UNL A   1      32.936  29.744  25.357  1.00  0.00    -0.237 OA
ATOM     88  O   UNL A   1      32.260  28.970  27.594  1.00  0.00    -0.744 OA
ENDBRANCH  84  85
ENDBRANCH  56  79
BRANCH  68  89
ATOM     89  C   UNL A   1      39.323  33.327  34.096  1.00  0.00    -0.014 A 
ATOM     90  C   UNL A   1      39.116  31.952  34.340  1.00  0.00     0.010 A 
ATOM     91  C   UNL A   1      39.030  34.238  35.123  1.00  0.00     0.010 A 
ATOM     92  C   UNL A   1      38.560  31.523  35.562  1.00  0.00     0.020 A 
ATOM     93  C   UNL A   1      38.501  33.819  36.338  1.00  0.00     0.020 A 
ATOM     94  C   UNL A   1      38.237  32.468  36.543  1.00  0.00     0.054 A 
BRANCH  94  95
ATOM     95  S   UNL A   1      37.427  31.952  38.083  1.00  0.00     0.124 S 
ATOM     96  O   UNL A   1      38.430  32.281  39.093  1.00  0.00    -0.237 OA
ATOM     97  O   UNL A   1      36.217  32.770  38.107  1.00  0.00    -0.237 OA
ATOM     98  O   UNL A   1      37.194  30.520  37.892  1.00  0.00    -0.744 OA
ENDBRANCH  94  95
ENDBRANCH  68  89
ENDBRANCH  42  43
ENDBRANCH  35  37
ENDBRANCH  34  35
ENDBRANCH  33  34
ENDBRANCH   1  33
TORSDOF 19
ENDMDL
MODEL 3
REMARK VINA RESULT:     -12.4      2.061      2.754
REMARK SMILES O=C1NC(=O)/C(=C/c2ccc(OCc3cn(-c4ccc(C(=O)OCCOC(=O)c5ccc(-c6c7nc(c(-c8ccc(S(=O)(=O)[O-])cc8)c8ccc([nH]8)c(-c8ccc(S(=O)(=O)[O-])cc8)c8nc(c(-c9ccc(S(=O)(=O)[O-])cc9)c9ccc6[nH]9)C=C8)C=C7)cc5)cc4)nn3)cc2)S1
REMARK SMILES IDX 24 1 23 2 21 3 22 4 20 5 17 6 18 7 90 8 19 9 89 10 16 11
REMARK SMILES IDX 14 12 15 13 92 14 91 15 13 16 12 17 11 18 8 19 9 20 94 21
REMARK SMILES IDX 10 22 93 23 7 24 1 25 2 26 3 27 95 28 4 29 6 31 5 32 25 33
REMARK SMILES IDX 26 34 27 35 28 36 29 37 30 38 88 39 31 40 87 41 32 42 33 43
REMARK SMILES IDX 34 44 81 45 35 46 86 47 80 48 82 49 36 50 85 51 79 52 78 53
REMARK SMILES IDX 37 55 67 56 48 57 66 58 49 59 52 60 65 61 83 62 50 63 51 64
REMARK SMILES IDX 64 66 84 67 53 68 38 69 39 70 47 71 40 72 46 73 41 74 42 75
REMARK SMILES IDX 43 76 44 77 45 78 68 79 69 80 77 81 70 82 76 83 71 84 72 85
REMARK SMILES IDX 73 86 74 87 75 88 54 89 55 90 63 91 56 92 62 93 57 94 58 95
REMARK SMILES IDX 59 96 60 97 61 98
REMARK H PARENT 3 30 82 54 52 65
REMARK Flexibility Score: inf
ROOT
ATOM      1  C   UNL A   1      43.047  21.194  26.047  1.00  0.00     0.275 C 
ENDROOT
BRANCH   1   2
ATOM      2  O   UNL A   1      41.738  21.557  25.588  1.00  0.00    -0.458 OA
BRANCH   2   3
ATOM      3  C   UNL A   1      40.786  21.550  26.554  1.00  0.00     0.338 C 
ATOM      4  O   UNL A   1      40.954  21.779  27.742  1.00  0.00    -0.246 OA
BRANCH   3   5
ATOM      5  C   UNL A   1      39.454  21.291  25.971  1.00  0.00     0.060 A 
ATOM      6  C   UNL A   1      36.852  20.822  25.149  1.00  0.00     0.066 A 
ATOM      7  C   UNL A   1      37.211  22.102  25.589  1.00  0.00     0.029 A 
ATOM      8  C   UNL A   1      37.803  19.802  25.034  1.00  0.00     0.029 A 
ATOM      9  C   UNL A   1      38.509  22.324  26.033  1.00  0.00     0.018 A 
ATOM     10  C   UNL A   1      39.120  20.052  25.413  1.00  0.00     0.018 A 
BRANCH   6  11
ATOM     11  N   UNL A   1      35.502  20.563  24.868  1.00  0.00    -0.220 N 
ATOM     12  C   UNL A   1      33.417  20.688  24.249  1.00  0.00     0.120 A 
ATOM     13  C   UNL A   1      34.528  21.465  24.501  1.00  0.00     0.144 A 
ATOM     14  N   UNL A   1      33.754  19.378  24.459  1.00  0.00    -0.131 NA
ATOM     15  N   UNL A   1      35.029  19.308  24.784  1.00  0.00    -0.062 NA
BRANCH  12  16
ATOM     16  C   UNL A   1      32.077  21.043  23.689  1.00  0.00     0.289 C 
BRANCH  16  17
ATOM     17  O   UNL A   1      32.065  22.089  22.701  1.00  0.00    -0.487 OA
BRANCH  17  18
ATOM     18  C   UNL A   1      31.837  23.373  23.118  1.00  0.00     0.119 A 
ATOM     19  C   UNL A   1      31.779  26.012  24.090  1.00  0.00    -0.024 A 
ATOM     20  C   UNL A   1      32.680  25.651  23.086  1.00  0.00     0.012 A 
ATOM     21  C   UNL A   1      30.849  25.069  24.533  1.00  0.00     0.012 A 
ATOM     22  C   UNL A   1      32.714  24.334  22.610  1.00  0.00     0.047 A 
ATOM     23  C   UNL A   1      30.852  23.774  24.018  1.00  0.00     0.047 A 
BRANCH  19  24
ATOM     24  C   UNL A   1      31.763  27.369  24.644  1.00  0.00     0.029 C 
ATOM     25  O   UNL A   1      28.656  30.711  22.511  1.00  0.00    -0.261 OA
ATOM     26  C   UNL A   1      29.460  30.079  23.191  1.00  0.00     0.290 C 
ATOM     27  N   UNL A   1      30.270  30.598  24.141  1.00  0.00    -0.282 N 
ATOM     28  S   UNL A   1      29.738  28.359  23.038  1.00  0.00    -0.022 SA
ATOM     29  C   UNL A   1      31.139  29.756  24.771  1.00  0.00     0.265 C 
ATOM     30  H   UNL A   1      30.235  31.554  24.371  1.00  0.00     0.174 HD
ATOM     31  C   UNL A   1      30.984  28.378  24.231  1.00  0.00     0.083 C 
ATOM     32  O   UNL A   1      31.946  30.088  25.623  1.00  0.00    -0.268 OA
ENDBRANCH  19  24
ENDBRANCH  17  18
ENDBRANCH  16  17
ENDBRANCH  12  16
ENDBRANCH   6  11
ENDBRANCH   3   5
ENDBRANCH   2   3
ENDBRANCH   1   2
BRANCH   1  33
ATOM     33  C   UNL A   1      43.998  22.385  26.014  1.00  0.00     0.275 C 
BRANCH  33  34
ATOM     34  O   UNL A   1      43.394  23.582  25.510  1.00  0.00    -0.458 OA
BRANCH  34  35
ATOM     35  C   UNL A   1      44.255  24.499  25.000  1.00  0.00     0.338 C 
ATOM     36  O   UNL A   1      45.180  24.292  24.234  1.00  0.00    -0.246 OA
BRANCH  35  37
ATOM     37  C   UNL A   1      44.088  25.776  25.713  1.00  0.00     0.060 A 
ATOM     38  C   UNL A   1      44.893  26.087  26.808  1.00  0.00     0.016 A 
ATOM     39  C   UNL A   1      42.968  26.554  25.418  1.00  0.00     0.016 A 
ATOM     40  C   UNL A   1      44.417  27.009  27.744  1.00  0.00     0.010 A 
ATOM     41  C   UNL A   1      42.564  27.533  26.300  1.00  0.00     0.010 A 
ATOM     42  C   UNL A   1      43.169  27.642  27.548  1.00  0.00    -0.014 A 
BRANCH  42  43
ATOM     43  C   UNL A   1      42.686  28.744  28.405  1.00  0.00     0.031 A 
ATOM     44  C   UNL A   1      43.704  29.838  28.288  1.00  0.00     0.074 A 
ATOM     45  C   UNL A   1      41.481  28.820  29.060  1.00  0.00     0.049 A 
ATOM     46  N   UNL A   1      44.641  30.066  29.149  1.00  0.00    -0.248 NA
ATOM     47  C   UNL A   1      43.978  30.483  26.978  1.00  0.00     0.031 C 
ATOM     48  C   UNL A   1      40.400  27.823  29.169  1.00  0.00     0.029 A 
ATOM     49  N   UNL A   1      40.925  29.869  29.783  1.00  0.00    -0.354 N 
ATOM     50  C   UNL A   1      45.331  31.164  28.651  1.00  0.00     0.074 A 
ATOM     51  C   UNL A   1      45.093  31.172  27.238  1.00  0.00     0.031 C 
ATOM     52  C   UNL A   1      39.262  28.388  29.662  1.00  0.00     0.029 A 
ATOM     53  C   UNL A   1      39.523  29.766  30.040  1.00  0.00     0.049 A 
ATOM     54  H   UNL A   1      41.461  30.632  30.097  1.00  0.00     0.167 HD
ATOM     55  C   UNL A   1      45.620  32.190  29.498  1.00  0.00     0.031 A 
ATOM     56  C   UNL A   1      38.674  30.683  30.638  1.00  0.00     0.031 A 
ATOM     57  C   UNL A   1      45.511  31.739  30.867  1.00  0.00     0.049 A 
ATOM     58  C   UNL A   1      39.529  31.596  31.432  1.00  0.00     0.074 A 
ATOM     59  C   UNL A   1      46.099  30.753  31.632  1.00  0.00     0.029 A 
ATOM     60  N   UNL A   1      44.300  32.019  31.443  1.00  0.00    -0.354 N 
ATOM     61  N   UNL A   1      40.179  31.184  32.481  1.00  0.00    -0.248 NA
ATOM     62  C   UNL A   1      40.110  32.707  30.699  1.00  0.00     0.031 C 
ATOM     63  C   UNL A   1      45.043  30.216  32.430  1.00  0.00     0.029 A 
ATOM     64  C   UNL A   1      43.900  30.993  32.247  1.00  0.00     0.049 A 
ATOM     65  H   UNL A   1      43.790  32.847  31.297  1.00  0.00     0.167 HD
ATOM     66  C   UNL A   1      41.480  31.590  32.235  1.00  0.00     0.074 A 
ATOM     67  C   UNL A   1      41.368  32.546  31.119  1.00  0.00     0.031 C 
ATOM     68  C   UNL A   1      42.536  30.862  32.708  1.00  0.00     0.031 A 
BRANCH  55  69
ATOM     69  C   UNL A   1      45.382  33.645  29.127  1.00  0.00    -0.014 A 
ATOM     70  C   UNL A   1      44.083  34.166  29.287  1.00  0.00     0.010 A 
ATOM     71  C   UNL A   1      46.286  34.426  28.373  1.00  0.00     0.010 A 
ATOM     72  C   UNL A   1      43.709  35.394  28.723  1.00  0.00     0.020 A 
ATOM     73  C   UNL A   1      45.935  35.668  27.833  1.00  0.00     0.020 A 
ATOM     74  C   UNL A   1      44.645  36.145  28.012  1.00  0.00     0.054 A 
BRANCH  74  75
ATOM     75  S   UNL A   1      44.156  37.755  27.344  1.00  0.00     0.124 S 
ATOM     76  O   UNL A   1      43.002  37.411  26.521  1.00  0.00    -0.237 OA
ATOM     77  O   UNL A   1      43.866  38.510  28.561  1.00  0.00    -0.237 OA
ATOM     78  O   UNL A   1      45.342  38.197  26.613  1.00  0.00    -0.744 OA
ENDBRANCH  74  75
ENDBRANCH  55  69
BRANCH  56  79
ATOM     79  C   UNL A   1      37.283  31.144  30.241  1.00  0.00    -0.014 A 
ATOM     80  C   UNL A   1      36.395  31.850  31.110  1.00  0.00     0.010 A 
ATOM     81  C   UNL A   1      36.962  31.182  28.877  1.00  0.00     0.010 A 
ATOM     82  C   UNL A   1      35.296  32.609  30.615  1.00  0.00     0.020 A 
ATOM     83  C   UNL A   1      35.886  31.939  28.380  1.00  0.00     0.020 A 
ATOM     84  C   UNL A   1      35.070  32.673  29.239  1.00  0.00     0.054 A 
BRANCH  84  85
ATOM     85  S   UNL A   1      33.816  33.806  28.532  1.00  0.00     0.124 S 
ATOM     86  O   UNL A   1      32.944  32.901  27.790  1.00  0.00    -0.237 OA
ATOM     87  O   UNL A   1      33.225  34.422  29.716  1.00  0.00    -0.237 OA
ATOM     88  O   UNL A   1      34.609  34.714  27.701  1.00  0.00    -0.744 OA
ENDBRANCH  84  85
ENDBRANCH  56  79
BRANCH  68  89
ATOM     89  C   UNL A   1      42.276  29.813  33.764  1.00  0.00    -0.014 A 
ATOM     90  C   UNL A   1      42.308  30.002  35.162  1.00  0.00     0.010 A 
ATOM     91  C   UNL A   1      41.883  28.559  33.269  1.00  0.00     0.010 A 
ATOM     92  C   UNL A   1      42.021  28.930  36.031  1.00  0.00     0.020 A 
ATOM     93  C   UNL A   1      41.579  27.503  34.120  1.00  0.00     0.020 A 
ATOM     94  C   UNL A   1      41.680  27.681  35.497  1.00  0.00     0.054 A 
BRANCH  94  95
ATOM     95  S   UNL A   1      41.405  26.259  36.592  1.00  0.00     0.124 S 
ATOM     96  O   UNL A   1      40.811  25.276  35.689  1.00  0.00    -0.237 OA
ATOM     97  O   UNL A   1      42.750  25.947  37.067  1.00  0.00    -0.237 OA
ATOM     98  O   UNL A   1      40.499  26.778  37.618  1.00  0.00    -0.744 OA
ENDBRANCH  94  95
ENDBRANCH  68  89
ENDBRANCH  42  43
ENDBRANCH  35  37
ENDBRANCH  34  35
ENDBRANCH  33  34
ENDBRANCH   1  33
TORSDOF 19
ENDMDL
