MODEL 1
REMARK VINA RESULT:     -11.2      0.000      0.000
REMARK SMILES O=C(Cc1ccn(-c2ccccc2F)c1)OCCOC(=O)c1ccc(-c2c3nc(c(-c4ccc(S(=O)(=O)[O-])cc4)c4ccc([nH]4)c(-c4ccc(S(=O)(=O)[O-])cc4)c4nc(c(-c5ccc(S(=O)(=O)[O-])cc5)c5ccc2[nH]5)C=C4)C=C3)cc1
REMARK SMILES IDX 18 1 17 2 16 3 2 4 1 5 3 6 4 7 5 8 15 9 6 10 7 11 8 12 9 13
REMARK SMILES IDX 13 14 10 15 12 16 14 17 11 18 19 19 20 20 21 21 22 22 23 23
REMARK SMILES IDX 81 24 24 25 80 26 25 27 26 28 27 29 74 30 28 31 79 32 73 33
REMARK SMILES IDX 75 34 29 35 78 36 72 37 71 38 30 40 60 41 41 42 59 43 42 44
REMARK SMILES IDX 45 45 58 46 76 47 43 48 44 49 57 51 77 52 46 53 31 54 32 55
REMARK SMILES IDX 40 56 33 57 39 58 34 59 35 60 36 61 37 62 38 63 61 64 62 65
REMARK SMILES IDX 70 66 63 67 69 68 64 69 65 70 66 71 67 72 68 73 47 74 48 75
REMARK SMILES IDX 56 76 49 77 55 78 50 79 51 80 52 81 53 82 54 83
REMARK H PARENT 75 39 45 50
REMARK Flexibility Score: inf
ROOT
ATOM      1  C   UNL A   1      39.449  19.940  25.504  1.00  0.00     0.275 C 
ENDROOT
BRANCH   1   2
ATOM      2  C   UNL A   1      38.970  21.361  25.762  1.00  0.00     0.274 C 
BRANCH   2   3
ATOM      3  O   UNL A   1      37.864  21.770  24.929  1.00  0.00    -0.462 OA
BRANCH   3   4
ATOM      4  C   UNL A   1      36.878  22.648  25.237  1.00  0.00     0.310 C 
ATOM      5  O   UNL A   1      36.898  23.221  26.329  1.00  0.00    -0.252 OA
BRANCH   4   6
ATOM      6  C   UNL A   1      35.753  22.924  24.260  1.00  0.00     0.159 C 
BRANCH   6   7
ATOM      7  C   UNL A   1      34.653  21.934  24.298  1.00  0.00    -0.019 A 
ATOM      8  C   UNL A   1      33.273  22.141  24.040  1.00  0.00     0.024 A 
ATOM      9  C   UNL A   1      34.812  20.592  24.552  1.00  0.00     0.095 A 
ATOM     10  C   UNL A   1      32.652  20.912  24.125  1.00  0.00     0.091 A 
ATOM     11  N   UNL A   1      33.601  19.962  24.434  1.00  0.00    -0.321 N 
BRANCH  11  12
ATOM     12  C   UNL A   1      33.429  18.567  24.503  1.00  0.00     0.081 A 
ATOM     13  C   UNL A   1      33.816  17.765  23.427  1.00  0.00     0.030 A 
ATOM     14  C   UNL A   1      32.983  17.984  25.692  1.00  0.00     0.147 A 
ATOM     15  C   UNL A   1      33.812  16.377  23.581  1.00  0.00     0.002 A 
ATOM     16  C   UNL A   1      32.948  16.604  25.831  1.00  0.00     0.041 A 
ATOM     17  F   UNL A   1      32.538  18.731  26.715  1.00  0.00    -0.205 F 
ATOM     18  C   UNL A   1      33.382  15.799  24.780  1.00  0.00     0.003 A 
ENDBRANCH  11  12
ENDBRANCH   6   7
ENDBRANCH   4   6
ENDBRANCH   3   4
ENDBRANCH   2   3
ENDBRANCH   1   2
BRANCH   1  19
ATOM     19  O   UNL A   1      40.252  19.459  26.571  1.00  0.00    -0.458 OA
BRANCH  19  20
ATOM     20  C   UNL A   1      41.536  19.214  26.216  1.00  0.00     0.338 C 
ATOM     21  O   UNL A   1      41.998  18.184  25.776  1.00  0.00    -0.246 OA
BRANCH  20  22
ATOM     22  C   UNL A   1      42.339  20.403  26.485  1.00  0.00     0.060 A 
ATOM     23  C   UNL A   1      42.197  20.992  27.745  1.00  0.00     0.016 A 
ATOM     24  C   UNL A   1      42.960  21.044  25.408  1.00  0.00     0.016 A 
ATOM     25  C   UNL A   1      42.504  22.326  27.875  1.00  0.00     0.010 A 
ATOM     26  C   UNL A   1      43.205  22.387  25.517  1.00  0.00     0.010 A 
ATOM     27  C   UNL A   1      42.924  23.017  26.735  1.00  0.00    -0.014 A 
BRANCH  27  28
ATOM     28  C   UNL A   1      43.233  24.436  26.847  1.00  0.00     0.031 A 
ATOM     29  C   UNL A   1      41.905  25.221  27.003  1.00  0.00     0.074 A 
ATOM     30  C   UNL A   1      44.579  24.722  26.803  1.00  0.00     0.049 A 
ATOM     31  N   UNL A   1      41.689  26.488  26.904  1.00  0.00    -0.248 NA
ATOM     32  C   UNL A   1      40.613  24.507  27.284  1.00  0.00     0.031 C 
ATOM     33  C   UNL A   1      45.682  23.725  26.653  1.00  0.00     0.029 A 
ATOM     34  N   UNL A   1      45.315  25.882  26.881  1.00  0.00    -0.354 N 
ATOM     35  C   UNL A   1      40.364  26.748  27.324  1.00  0.00     0.074 A 
ATOM     36  C   UNL A   1      39.720  25.483  27.463  1.00  0.00     0.031 C 
ATOM     37  C   UNL A   1      46.890  24.330  26.534  1.00  0.00     0.029 A 
ATOM     38  C   UNL A   1      46.722  25.764  26.651  1.00  0.00     0.049 A 
ATOM     39  H   UNL A   1      44.896  26.748  27.086  1.00  0.00     0.167 HD
ATOM     40  C   UNL A   1      39.942  28.002  27.653  1.00  0.00     0.031 A 
ATOM     41  C   UNL A   1      47.645  26.775  26.537  1.00  0.00     0.031 A 
ATOM     42  C   UNL A   1      40.978  28.937  27.369  1.00  0.00     0.049 A 
ATOM     43  C   UNL A   1      46.903  27.969  26.971  1.00  0.00     0.074 A 
ATOM     44  C   UNL A   1      41.507  29.348  26.171  1.00  0.00     0.029 A 
ATOM     45  N   UNL A   1      41.894  29.145  28.377  1.00  0.00    -0.354 N 
ATOM     46  N   UNL A   1      46.531  28.205  28.192  1.00  0.00    -0.248 NA
ATOM     47  C   UNL A   1      46.442  28.917  25.951  1.00  0.00     0.031 C 
ATOM     48  C   UNL A   1      42.891  29.239  26.408  1.00  0.00     0.029 A 
ATOM     49  C   UNL A   1      43.130  29.116  27.784  1.00  0.00     0.049 A 
ATOM     50  H   UNL A   1      41.698  29.287  29.331  1.00  0.00     0.167 HD
ATOM     51  C   UNL A   1      45.483  29.067  28.009  1.00  0.00     0.074 A 
ATOM     52  C   UNL A   1      45.694  29.703  26.720  1.00  0.00     0.031 C 
ATOM     53  C   UNL A   1      44.282  28.806  28.592  1.00  0.00     0.031 A 
BRANCH  40  54
ATOM     54  C   UNL A   1      38.765  28.510  28.428  1.00  0.00    -0.014 A 
ATOM     55  C   UNL A   1      38.116  29.656  27.902  1.00  0.00     0.010 A 
ATOM     56  C   UNL A   1      38.527  28.180  29.769  1.00  0.00     0.010 A 
ATOM     57  C   UNL A   1      37.381  30.519  28.711  1.00  0.00     0.020 A 
ATOM     58  C   UNL A   1      37.752  29.028  30.583  1.00  0.00     0.020 A 
ATOM     59  C   UNL A   1      37.229  30.215  30.058  1.00  0.00     0.054 A 
BRANCH  59  60
ATOM     60  S   UNL A   1      36.401  31.438  31.110  1.00  0.00     0.124 S 
ATOM     61  O   UNL A   1      35.169  31.699  30.372  1.00  0.00    -0.237 OA
ATOM     62  O   UNL A   1      36.233  30.708  32.366  1.00  0.00    -0.237 OA
ATOM     63  O   UNL A   1      37.350  32.546  31.166  1.00  0.00    -0.744 OA
ENDBRANCH  59  60
ENDBRANCH  40  54
BRANCH  41  64
ATOM     64  C   UNL A   1      49.060  27.060  26.045  1.00  0.00    -0.014 A 
ATOM     65  C   UNL A   1      49.722  26.469  24.962  1.00  0.00     0.010 A 
ATOM     66  C   UNL A   1      49.734  28.183  26.622  1.00  0.00     0.010 A 
ATOM     67  C   UNL A   1      50.878  27.078  24.392  1.00  0.00     0.020 A 
ATOM     68  C   UNL A   1      50.826  28.829  26.034  1.00  0.00     0.020 A 
ATOM     69  C   UNL A   1      51.375  28.291  24.888  1.00  0.00     0.054 A 
BRANCH  69  70
ATOM     70  S   UNL A   1      52.618  29.256  23.970  1.00  0.00     0.124 S 
ATOM     71  O   UNL A   1      51.807  29.974  22.993  1.00  0.00    -0.237 OA
ATOM     72  O   UNL A   1      53.223  30.076  25.016  1.00  0.00    -0.237 OA
ATOM     73  O   UNL A   1      53.505  28.235  23.411  1.00  0.00    -0.744 OA
ENDBRANCH  69  70
ENDBRANCH  41  64
BRANCH  53  74
ATOM     74  C   UNL A   1      44.294  27.914  29.835  1.00  0.00    -0.014 A 
ATOM     75  C   UNL A   1      44.653  28.469  31.077  1.00  0.00     0.010 A 
ATOM     76  C   UNL A   1      44.011  26.531  29.821  1.00  0.00     0.010 A 
ATOM     77  C   UNL A   1      44.714  27.697  32.249  1.00  0.00     0.020 A 
ATOM     78  C   UNL A   1      44.076  25.740  30.990  1.00  0.00     0.020 A 
ATOM     79  C   UNL A   1      44.416  26.335  32.204  1.00  0.00     0.054 A 
BRANCH  79  80
ATOM     80  S   UNL A   1      44.459  25.381  33.753  1.00  0.00     0.124 S 
ATOM     81  O   UNL A   1      43.212  25.768  34.410  1.00  0.00    -0.237 OA
ATOM     82  O   UNL A   1      44.506  24.003  33.272  1.00  0.00    -0.237 OA
ATOM     83  O   UNL A   1      45.674  25.846  34.419  1.00  0.00    -0.744 OA
ENDBRANCH  79  80
ENDBRANCH  53  74
ENDBRANCH  27  28
ENDBRANCH  20  22
ENDBRANCH  19  20
ENDBRANCH   1  19
TORSDOF 16
ENDMDL
MODEL 2
REMARK VINA RESULT:     -11.2      2.233      3.187
REMARK SMILES O=C(Cc1ccn(-c2ccccc2F)c1)OCCOC(=O)c1ccc(-c2c3nc(c(-c4ccc(S(=O)(=O)[O-])cc4)c4ccc([nH]4)c(-c4ccc(S(=O)(=O)[O-])cc4)c4nc(c(-c5ccc(S(=O)(=O)[O-])cc5)c5ccc2[nH]5)C=C4)C=C3)cc1
REMARK SMILES IDX 18 1 17 2 16 3 2 4 1 5 3 6 4 7 5 8 15 9 6 10 7 11 8 12 9 13
REMARK SMILES IDX 13 14 10 15 12 16 14 17 11 18 19 19 20 20 21 21 22 22 23 23
REMARK SMILES IDX 81 24 24 25 80 26 25 27 26 28 27 29 74 30 28 31 79 32 73 33
REMARK SMILES IDX 75 34 29 35 78 36 72 37 71 38 30 40 60 41 41 42 59 43 42 44
REMARK SMILES IDX 45 45 58 46 76 47 43 48 44 49 57 51 77 52 46 53 31 54 32 55
REMARK SMILES IDX 40 56 33 57 39 58 34 59 35 60 36 61 37 62 38 63 61 64 62 65
REMARK SMILES IDX 70 66 63 67 69 68 64 69 65 70 66 71 67 72 68 73 47 74 48 75
REMARK SMILES IDX 56 76 49 77 55 78 50 79 51 80 52 81 53 82 54 83
REMARK H PARENT 75 39 45 50
REMARK Flexibility Score: inf
ROOT
ATOM      1  C   UNL A   1      39.678  19.598  25.703  1.00  0.00     0.275 C 
ENDROOT
BRANCH   1   2
ATOM      2  C   UNL A   1      39.314  21.075  25.750  1.00  0.00     0.274 C 
BRANCH   2   3
ATOM      3  O   UNL A   1      37.901  21.337  25.618  1.00  0.00    -0.462 OA
BRANCH   3   4
ATOM      4  C   UNL A   1      37.310  22.377  24.980  1.00  0.00     0.310 C 
ATOM      5  O   UNL A   1      37.093  22.299  23.768  1.00  0.00    -0.252 OA
BRANCH   4   6
ATOM      6  C   UNL A   1      36.921  23.631  25.737  1.00  0.00     0.159 C 
BRANCH   6   7
ATOM      7  C   UNL A   1      35.464  23.897  25.771  1.00  0.00    -0.019 A 
ATOM      8  C   UNL A   1      34.473  23.269  26.569  1.00  0.00     0.024 A 
ATOM      9  C   UNL A   1      34.826  24.870  25.040  1.00  0.00     0.095 A 
ATOM     10  C   UNL A   1      33.276  23.901  26.308  1.00  0.00     0.091 A 
ATOM     11  N   UNL A   1      33.497  24.888  25.372  1.00  0.00    -0.321 N 
BRANCH  11  12
ATOM     12  C   UNL A   1      32.581  25.848  24.903  1.00  0.00     0.081 A 
ATOM     13  C   UNL A   1      31.814  25.580  23.766  1.00  0.00     0.030 A 
ATOM     14  C   UNL A   1      32.357  27.011  25.644  1.00  0.00     0.147 A 
ATOM     15  C   UNL A   1      30.783  26.455  23.422  1.00  0.00     0.002 A 
ATOM     16  C   UNL A   1      31.353  27.897  25.280  1.00  0.00     0.041 A 
ATOM     17  F   UNL A   1      33.125  27.328  26.698  1.00  0.00    -0.205 F 
ATOM     18  C   UNL A   1      30.552  27.609  24.178  1.00  0.00     0.003 A 
ENDBRANCH  11  12
ENDBRANCH   6   7
ENDBRANCH   4   6
ENDBRANCH   3   4
ENDBRANCH   2   3
ENDBRANCH   1   2
BRANCH   1  19
ATOM     19  O   UNL A   1      40.627  19.264  26.706  1.00  0.00    -0.458 OA
BRANCH  19  20
ATOM     20  C   UNL A   1      41.880  19.078  26.226  1.00  0.00     0.338 C 
ATOM     21  O   UNL A   1      42.339  18.076  25.723  1.00  0.00    -0.246 OA
BRANCH  20  22
ATOM     22  C   UNL A   1      42.657  20.295  26.442  1.00  0.00     0.060 A 
ATOM     23  C   UNL A   1      42.576  20.882  27.709  1.00  0.00     0.016 A 
ATOM     24  C   UNL A   1      43.185  20.954  25.328  1.00  0.00     0.016 A 
ATOM     25  C   UNL A   1      42.844  22.226  27.818  1.00  0.00     0.010 A 
ATOM     26  C   UNL A   1      43.390  22.305  25.420  1.00  0.00     0.010 A 
ATOM     27  C   UNL A   1      43.166  22.928  26.653  1.00  0.00    -0.014 A 
BRANCH  27  28
ATOM     28  C   UNL A   1      43.432  24.357  26.745  1.00  0.00     0.031 A 
ATOM     29  C   UNL A   1      42.085  25.101  26.937  1.00  0.00     0.074 A 
ATOM     30  C   UNL A   1      44.767  24.686  26.656  1.00  0.00     0.049 A 
ATOM     31  N   UNL A   1      41.825  26.360  26.835  1.00  0.00    -0.248 NA
ATOM     32  C   UNL A   1      40.827  24.348  27.264  1.00  0.00     0.031 C 
ATOM     33  C   UNL A   1      45.895  23.724  26.479  1.00  0.00     0.029 A 
ATOM     34  N   UNL A   1      45.466  25.869  26.702  1.00  0.00    -0.354 N 
ATOM     35  C   UNL A   1      40.506  26.580  27.294  1.00  0.00     0.074 A 
ATOM     36  C   UNL A   1      39.908  25.296  27.464  1.00  0.00     0.031 C 
ATOM     37  C   UNL A   1      47.080  24.367  26.318  1.00  0.00     0.029 A 
ATOM     38  C   UNL A   1      46.868  25.795  26.429  1.00  0.00     0.049 A 
ATOM     39  H   UNL A   1      45.026  26.723  26.914  1.00  0.00     0.167 HD
ATOM     40  C   UNL A   1      40.054  27.823  27.627  1.00  0.00     0.031 A 
ATOM     41  C   UNL A   1      47.755  26.835  26.279  1.00  0.00     0.031 A 
ATOM     42  C   UNL A   1      41.051  28.788  27.303  1.00  0.00     0.049 A 
ATOM     43  C   UNL A   1      46.988  28.007  26.727  1.00  0.00     0.074 A 
ATOM     44  C   UNL A   1      41.528  29.205  26.087  1.00  0.00     0.029 A 
ATOM     45  N   UNL A   1      41.990  29.034  28.280  1.00  0.00    -0.354 N 
ATOM     46  N   UNL A   1      46.647  28.241  27.957  1.00  0.00    -0.248 NA
ATOM     47  C   UNL A   1      46.465  28.932  25.714  1.00  0.00     0.031 C 
ATOM     48  C   UNL A   1      42.922  29.143  26.281  1.00  0.00     0.029 A 
ATOM     49  C   UNL A   1      43.207  29.040  27.649  1.00  0.00     0.049 A 
ATOM     50  H   UNL A   1      41.820  29.178  29.239  1.00  0.00     0.167 HD
ATOM     51  C   UNL A   1      45.567  29.068  27.801  1.00  0.00     0.074 A 
ATOM     52  C   UNL A   1      45.716  29.699  26.501  1.00  0.00     0.031 C 
ATOM     53  C   UNL A   1      44.393  28.774  28.423  1.00  0.00     0.031 A 
BRANCH  40  54
ATOM     54  C   UNL A   1      38.886  28.299  28.435  1.00  0.00    -0.014 A 
ATOM     55  C   UNL A   1      38.228  29.462  27.959  1.00  0.00     0.010 A 
ATOM     56  C   UNL A   1      38.665  27.920  29.765  1.00  0.00     0.010 A 
ATOM     57  C   UNL A   1      37.502  30.294  28.809  1.00  0.00     0.020 A 
ATOM     58  C   UNL A   1      37.900  28.736  30.620  1.00  0.00     0.020 A 
ATOM     59  C   UNL A   1      37.368  29.940  30.146  1.00  0.00     0.054 A 
BRANCH  59  60
ATOM     60  S   UNL A   1      36.551  31.122  31.253  1.00  0.00     0.124 S 
ATOM     61  O   UNL A   1      35.451  31.611  30.427  1.00  0.00    -0.237 OA
ATOM     62  O   UNL A   1      36.158  30.275  32.378  1.00  0.00    -0.237 OA
ATOM     63  O   UNL A   1      37.597  32.096  31.552  1.00  0.00    -0.744 OA
ENDBRANCH  59  60
ENDBRANCH  40  54
BRANCH  41  64
ATOM     64  C   UNL A   1      49.143  27.160  25.740  1.00  0.00    -0.014 A 
ATOM     65  C   UNL A   1      49.721  26.716  24.545  1.00  0.00     0.010 A 
ATOM     66  C   UNL A   1      49.882  28.178  26.423  1.00  0.00     0.010 A 
ATOM     67  C   UNL A   1      50.855  27.378  23.991  1.00  0.00     0.020 A 
ATOM     68  C   UNL A   1      50.952  28.881  25.861  1.00  0.00     0.020 A 
ATOM     69  C   UNL A   1      51.415  28.500  24.618  1.00  0.00     0.054 A 
BRANCH  69  70
ATOM     70  S   UNL A   1      52.624  29.562  23.764  1.00  0.00     0.124 S 
ATOM     71  O   UNL A   1      53.772  29.526  24.664  1.00  0.00    -0.237 OA
ATOM     72  O   UNL A   1      52.801  28.879  22.485  1.00  0.00    -0.237 OA
ATOM     73  O   UNL A   1      51.946  30.855  23.673  1.00  0.00    -0.744 OA
ENDBRANCH  69  70
ENDBRANCH  41  64
BRANCH  53  74
ATOM     74  C   UNL A   1      44.473  27.893  29.672  1.00  0.00    -0.014 A 
ATOM     75  C   UNL A   1      43.939  26.591  29.632  1.00  0.00     0.010 A 
ATOM     76  C   UNL A   1      45.015  28.315  30.906  1.00  0.00     0.010 A 
ATOM     77  C   UNL A   1      43.954  25.746  30.753  1.00  0.00     0.020 A 
ATOM     78  C   UNL A   1      45.029  27.478  32.043  1.00  0.00     0.020 A 
ATOM     79  C   UNL A   1      44.508  26.188  31.954  1.00  0.00     0.054 A 
BRANCH  79  80
ATOM     80  S   UNL A   1      44.551  25.044  33.369  1.00  0.00     0.124 S 
ATOM     81  O   UNL A   1      45.799  25.401  34.040  1.00  0.00    -0.237 OA
ATOM     82  O   UNL A   1      43.333  25.394  34.094  1.00  0.00    -0.237 OA
ATOM     83  O   UNL A   1      44.545  23.719  32.750  1.00  0.00    -0.744 OA
ENDBRANCH  79  80
ENDBRANCH  53  74
ENDBRANCH  27  28
ENDBRANCH  20  22
ENDBRANCH  19  20
ENDBRANCH   1  19
TORSDOF 16
ENDMDL
MODEL 3
REMARK VINA RESULT:     -11.1      6.627     12.139
REMARK SMILES O=C(Cc1ccn(-c2ccccc2F)c1)OCCOC(=O)c1ccc(-c2c3nc(c(-c4ccc(S(=O)(=O)[O-])cc4)c4ccc([nH]4)c(-c4ccc(S(=O)(=O)[O-])cc4)c4nc(c(-c5ccc(S(=O)(=O)[O-])cc5)c5ccc2[nH]5)C=C4)C=C3)cc1
REMARK SMILES IDX 18 1 17 2 16 3 2 4 1 5 3 6 4 7 5 8 15 9 6 10 7 11 8 12 9 13
REMARK SMILES IDX 13 14 10 15 12 16 14 17 11 18 19 19 20 20 21 21 22 22 23 23
REMARK SMILES IDX 81 24 24 25 80 26 25 27 26 28 27 29 74 30 28 31 79 32 73 33
REMARK SMILES IDX 75 34 29 35 78 36 72 37 71 38 30 40 60 41 41 42 59 43 42 44
REMARK SMILES IDX 45 45 58 46 76 47 43 48 44 49 57 51 77 52 46 53 31 54 32 55
REMARK SMILES IDX 40 56 33 57 39 58 34 59 35 60 36 61 37 62 38 63 61 64 62 65
REMARK SMILES IDX 70 66 63 67 69 68 64 69 65 70 66 71 67 72 68 73 47 74 48 75
REMARK SMILES IDX 56 76 49 77 55 78 50 79 51 80 52 81 53 82 54 83
REMARK H PARENT 75 39 45 50
REMARK Flexibility Score: inf
ROOT
ATOM      1  C   UNL A   1      32.753  31.061  27.218  1.00  0.00     0.275 C 
ENDROOT
BRANCH   1   2
ATOM      2  C   UNL A   1      33.334  29.719  27.637  1.00  0.00     0.274 C 
BRANCH   2   3
ATOM      3  O   UNL A   1      33.184  28.678  26.647  1.00  0.00    -0.462 OA
BRANCH   3   4
ATOM      4  C   UNL A   1      32.123  27.854  26.471  1.00  0.00     0.310 C 
ATOM      5  O   UNL A   1      31.328  27.683  27.399  1.00  0.00    -0.252 OA
BRANCH   4   6
ATOM      6  C   UNL A   1      31.909  27.137  25.152  1.00  0.00     0.159 C 
BRANCH   6   7
ATOM      7  C   UNL A   1      30.806  27.687  24.330  1.00  0.00    -0.019 A 
ATOM      8  C   UNL A   1      29.575  27.071  23.983  1.00  0.00     0.024 A 
ATOM      9  C   UNL A   1      30.781  28.952  23.795  1.00  0.00     0.095 A 
ATOM     10  C   UNL A   1      28.842  27.995  23.270  1.00  0.00     0.091 A 
ATOM     11  N   UNL A   1      29.582  29.152  23.160  1.00  0.00    -0.321 N 
BRANCH  11  12
ATOM     12  C   UNL A   1      29.176  30.383  22.613  1.00  0.00     0.081 A 
ATOM     13  C   UNL A   1      28.744  30.445  21.286  1.00  0.00     0.030 A 
ATOM     14  C   UNL A   1      29.094  31.511  23.434  1.00  0.00     0.147 A 
ATOM     15  C   UNL A   1      28.172  31.627  20.814  1.00  0.00     0.002 A 
ATOM     16  C   UNL A   1      28.555  32.695  22.952  1.00  0.00     0.041 A 
ATOM     17  F   UNL A   1      29.566  31.499  24.690  1.00  0.00    -0.205 F 
ATOM     18  C   UNL A   1      28.075  32.748  21.645  1.00  0.00     0.003 A 
ENDBRANCH  11  12
ENDBRANCH   6   7
ENDBRANCH   4   6
ENDBRANCH   3   4
ENDBRANCH   2   3
ENDBRANCH   1   2
BRANCH   1  19
ATOM     19  O   UNL A   1      33.754  32.068  27.168  1.00  0.00    -0.458 OA
BRANCH  19  20
ATOM     20  C   UNL A   1      33.532  33.096  28.023  1.00  0.00     0.338 C 
ATOM     21  O   UNL A   1      32.592  33.859  28.035  1.00  0.00    -0.246 OA
BRANCH  20  22
ATOM     22  C   UNL A   1      34.655  33.192  28.951  1.00  0.00     0.060 A 
ATOM     23  C   UNL A   1      35.801  33.849  28.493  1.00  0.00     0.016 A 
ATOM     24  C   UNL A   1      34.640  32.393  30.098  1.00  0.00     0.016 A 
ATOM     25  C   UNL A   1      37.004  33.539  29.081  1.00  0.00     0.010 A 
ATOM     26  C   UNL A   1      35.844  32.033  30.643  1.00  0.00     0.010 A 
ATOM     27  C   UNL A   1      37.011  32.574  30.092  1.00  0.00    -0.014 A 
BRANCH  27  28
ATOM     28  C   UNL A   1      38.279  32.216  30.714  1.00  0.00     0.031 A 
ATOM     29  C   UNL A   1      38.872  30.996  29.962  1.00  0.00     0.074 A 
ATOM     30  C   UNL A   1      38.635  33.027  31.768  1.00  0.00     0.049 A 
ATOM     31  N   UNL A   1      39.841  30.218  30.305  1.00  0.00    -0.248 NA
ATOM     32  C   UNL A   1      38.298  30.543  28.649  1.00  0.00     0.031 C 
ATOM     33  C   UNL A   1      37.848  34.184  32.287  1.00  0.00     0.029 A 
ATOM     34  N   UNL A   1      39.716  33.073  32.618  1.00  0.00    -0.354 N 
ATOM     35  C   UNL A   1      40.145  29.377  29.209  1.00  0.00     0.074 A 
ATOM     36  C   UNL A   1      39.108  29.561  28.248  1.00  0.00     0.031 C 
ATOM     37  C   UNL A   1      38.411  34.713  33.403  1.00  0.00     0.029 A 
ATOM     38  C   UNL A   1      39.643  34.009  33.696  1.00  0.00     0.049 A 
ATOM     39  H   UNL A   1      40.500  32.492  32.490  1.00  0.00     0.167 HD
ATOM     40  C   UNL A   1      41.318  28.686  29.131  1.00  0.00     0.031 A 
ATOM     41  C   UNL A   1      40.515  34.154  34.748  1.00  0.00     0.031 A 
ATOM     42  C   UNL A   1      42.045  28.855  30.345  1.00  0.00     0.049 A 
ATOM     43  C   UNL A   1      41.661  33.317  34.362  1.00  0.00     0.074 A 
ATOM     44  C   UNL A   1      41.780  28.408  31.615  1.00  0.00     0.029 A 
ATOM     45  N   UNL A   1      42.872  29.955  30.402  1.00  0.00    -0.354 N 
ATOM     46  N   UNL A   1      42.491  33.597  33.404  1.00  0.00    -0.248 NA
ATOM     47  C   UNL A   1      41.832  32.015  35.017  1.00  0.00     0.031 C 
ATOM     48  C   UNL A   1      41.969  29.574  32.382  1.00  0.00     0.029 A 
ATOM     49  C   UNL A   1      42.654  30.535  31.625  1.00  0.00     0.049 A 
ATOM     50  H   UNL A   1      43.496  30.261  29.705  1.00  0.00     0.167 HD
ATOM     51  C   UNL A   1      42.991  32.362  33.089  1.00  0.00     0.074 A 
ATOM     52  C   UNL A   1      42.826  31.537  34.274  1.00  0.00     0.031 C 
ATOM     53  C   UNL A   1      42.968  31.931  31.799  1.00  0.00     0.031 A 
BRANCH  40  54
ATOM     54  C   UNL A   1      42.040  28.029  27.995  1.00  0.00    -0.014 A 
ATOM     55  C   UNL A   1      42.895  26.950  28.336  1.00  0.00     0.010 A 
ATOM     56  C   UNL A   1      42.216  28.634  26.743  1.00  0.00     0.010 A 
ATOM     57  C   UNL A   1      43.973  26.586  27.532  1.00  0.00     0.020 A 
ATOM     58  C   UNL A   1      43.281  28.245  25.908  1.00  0.00     0.020 A 
ATOM     59  C   UNL A   1      44.178  27.259  26.333  1.00  0.00     0.054 A 
BRANCH  59  60
ATOM     60  S   UNL A   1      45.676  26.865  25.391  1.00  0.00     0.124 S 
ATOM     61  O   UNL A   1      45.746  27.970  24.441  1.00  0.00    -0.237 OA
ATOM     62  O   UNL A   1      46.707  26.866  26.428  1.00  0.00    -0.237 OA
ATOM     63  O   UNL A   1      45.387  25.554  24.814  1.00  0.00    -0.744 OA
ENDBRANCH  59  60
ENDBRANCH  40  54
BRANCH  41  64
ATOM     64  C   UNL A   1      40.630  34.775  36.136  1.00  0.00    -0.014 A 
ATOM     65  C   UNL A   1      41.544  35.744  36.564  1.00  0.00     0.010 A 
ATOM     66  C   UNL A   1      39.580  34.487  37.064  1.00  0.00     0.010 A 
ATOM     67  C   UNL A   1      41.311  36.495  37.753  1.00  0.00     0.020 A 
ATOM     68  C   UNL A   1      39.300  35.260  38.196  1.00  0.00     0.020 A 
ATOM     69  C   UNL A   1      40.153  36.296  38.518  1.00  0.00     0.054 A 
BRANCH  69  70
ATOM     70  S   UNL A   1      39.664  37.467  39.825  1.00  0.00     0.124 S 
ATOM     71  O   UNL A   1      39.448  36.592  40.973  1.00  0.00    -0.237 OA
ATOM     72  O   UNL A   1      40.824  38.351  39.912  1.00  0.00    -0.237 OA
ATOM     73  O   UNL A   1      38.458  38.099  39.290  1.00  0.00    -0.744 OA
ENDBRANCH  69  70
ENDBRANCH  41  64
BRANCH  53  74
ATOM     74  C   UNL A   1      42.919  33.005  30.710  1.00  0.00    -0.014 A 
ATOM     75  C   UNL A   1      44.124  33.521  30.198  1.00  0.00     0.010 A 
ATOM     76  C   UNL A   1      41.726  33.565  30.202  1.00  0.00     0.010 A 
ATOM     77  C   UNL A   1      44.146  34.531  29.222  1.00  0.00     0.020 A 
ATOM     78  C   UNL A   1      41.734  34.586  29.226  1.00  0.00     0.020 A 
ATOM     79  C   UNL A   1      42.950  35.054  28.731  1.00  0.00     0.054 A 
BRANCH  79  80
ATOM     80  S   UNL A   1      43.023  36.326  27.431  1.00  0.00     0.124 S 
ATOM     81  O   UNL A   1      44.356  36.897  27.605  1.00  0.00    -0.237 OA
ATOM     82  O   UNL A   1      42.837  35.541  26.213  1.00  0.00    -0.237 OA
ATOM     83  O   UNL A   1      41.921  37.229  27.760  1.00  0.00    -0.744 OA
ENDBRANCH  79  80
ENDBRANCH  53  74
ENDBRANCH  27  28
ENDBRANCH  20  22
ENDBRANCH  19  20
ENDBRANCH   1  19
TORSDOF 16
ENDMDL
