MODEL 1
REMARK VINA RESULT:     -11.0      0.000      0.000
REMARK SMILES O=C(Cc1cccn1-c1ccccc1F)OCCOC(=O)c1ccc(-c2c3nc(c(-c4ccc(S(=O)(=O)[O-])cc4)c4ccc([nH]4)c(-c4ccc(S(=O)(=O)[O-])cc4)c4nc(c(-c5ccc(S(=O)(=O)[O-])cc5)c5ccc2[nH]5)C=C4)C=C3)cc1
REMARK SMILES IDX 18 1 17 2 16 3 2 4 1 5 3 6 4 7 5 8 8 9 6 10 7 11 9 12 10 13
REMARK SMILES IDX 14 14 11 15 13 16 15 17 12 18 19 19 20 20 21 21 22 22 23 23
REMARK SMILES IDX 81 24 24 25 80 26 25 27 26 28 27 29 74 30 28 31 79 32 73 33
REMARK SMILES IDX 75 34 29 35 78 36 72 37 71 38 30 40 60 41 41 42 59 43 42 44
REMARK SMILES IDX 45 45 58 46 76 47 43 48 44 49 57 51 77 52 46 53 31 54 32 55
REMARK SMILES IDX 40 56 33 57 39 58 34 59 35 60 36 61 37 62 38 63 61 64 62 65
REMARK SMILES IDX 70 66 63 67 69 68 64 69 65 70 66 71 67 72 68 73 47 74 48 75
REMARK SMILES IDX 56 76 49 77 55 78 50 79 51 80 52 81 53 82 54 83
REMARK H PARENT 75 39 45 50
REMARK Flexibility Score: inf
ROOT
ATOM      1  C   UNL A   1      32.661  32.678  27.671  1.00  0.00     0.275 C 
ENDROOT
BRANCH   1   2
ATOM      2  C   UNL A   1      33.625  31.550  27.341  1.00  0.00     0.274 C 
BRANCH   2   3
ATOM      3  O   UNL A   1      33.110  30.222  27.557  1.00  0.00    -0.462 OA
BRANCH   3   4
ATOM      4  C   UNL A   1      32.118  29.626  26.846  1.00  0.00     0.311 C 
ATOM      5  O   UNL A   1      31.415  28.775  27.391  1.00  0.00    -0.252 OA
BRANCH   4   6
ATOM      6  C   UNL A   1      31.939  29.973  25.381  1.00  0.00     0.177 C 
BRANCH   6   7
ATOM      7  C   UNL A   1      32.535  28.969  24.439  1.00  0.00     0.034 A 
ATOM      8  C   UNL A   1      33.819  28.444  24.468  1.00  0.00     0.024 A 
ATOM      9  N   UNL A   1      31.796  28.208  23.537  1.00  0.00    -0.318 N 
ATOM     10  C   UNL A   1      33.880  27.357  23.579  1.00  0.00     0.020 A 
ATOM     11  C   UNL A   1      32.633  27.235  23.020  1.00  0.00     0.091 A 
BRANCH   9  12
ATOM     12  C   UNL A   1      30.400  28.234  23.317  1.00  0.00     0.081 A 
ATOM     13  C   UNL A   1      29.609  27.229  23.890  1.00  0.00     0.030 A 
ATOM     14  C   UNL A   1      29.800  29.252  22.579  1.00  0.00     0.147 A 
ATOM     15  C   UNL A   1      28.221  27.283  23.760  1.00  0.00     0.002 A 
ATOM     16  C   UNL A   1      28.415  29.293  22.433  1.00  0.00     0.041 A 
ATOM     17  F   UNL A   1      30.535  30.181  21.957  1.00  0.00    -0.205 F 
ATOM     18  C   UNL A   1      27.623  28.315  23.035  1.00  0.00     0.003 A 
ENDBRANCH   9  12
ENDBRANCH   6   7
ENDBRANCH   4   6
ENDBRANCH   3   4
ENDBRANCH   2   3
ENDBRANCH   1   2
BRANCH   1  19
ATOM     19  O   UNL A   1      33.253  33.951  27.460  1.00  0.00    -0.458 OA
BRANCH  19  20
ATOM     20  C   UNL A   1      33.094  34.820  28.487  1.00  0.00     0.338 C 
ATOM     21  O   UNL A   1      32.260  35.691  28.594  1.00  0.00    -0.246 OA
BRANCH  20  22
ATOM     22  C   UNL A   1      34.230  34.664  29.397  1.00  0.00     0.060 A 
ATOM     23  C   UNL A   1      35.493  34.749  28.808  1.00  0.00     0.016 A 
ATOM     24  C   UNL A   1      34.012  34.063  30.643  1.00  0.00     0.016 A 
ATOM     25  C   UNL A   1      36.509  34.015  29.370  1.00  0.00     0.010 A 
ATOM     26  C   UNL A   1      35.000  33.268  31.157  1.00  0.00     0.010 A 
ATOM     27  C   UNL A   1      36.224  33.222  30.489  1.00  0.00    -0.014 A 
BRANCH  27  28
ATOM     28  C   UNL A   1      37.328  32.488  31.094  1.00  0.00     0.031 A 
ATOM     29  C   UNL A   1      37.537  31.202  30.258  1.00  0.00     0.074 A 
ATOM     30  C   UNL A   1      37.818  33.036  32.259  1.00  0.00     0.049 A 
ATOM     31  N   UNL A   1      37.862  30.020  30.656  1.00  0.00    -0.248 NA
ATOM     32  C   UNL A   1      37.211  31.170  28.792  1.00  0.00     0.031 C 
ATOM     33  C   UNL A   1      37.442  34.365  32.821  1.00  0.00     0.029 A 
ATOM     34  N   UNL A   1      38.722  32.622  33.214  1.00  0.00    -0.354 N 
ATOM     35  C   UNL A   1      38.043  29.208  29.515  1.00  0.00     0.074 A 
ATOM     36  C   UNL A   1      37.479  29.917  28.416  1.00  0.00     0.031 C 
ATOM     37  C   UNL A   1      38.012  34.576  34.035  1.00  0.00     0.029 A 
ATOM     38  C   UNL A   1      38.834  33.434  34.388  1.00  0.00     0.049 A 
ATOM     39  H   UNL A   1      39.264  31.809  33.095  1.00  0.00     0.167 HD
ATOM     40  C   UNL A   1      38.831  28.096  29.543  1.00  0.00     0.031 A 
ATOM     41  C   UNL A   1      39.505  33.155  35.558  1.00  0.00     0.031 A 
ATOM     42  C   UNL A   1      39.314  27.912  30.872  1.00  0.00     0.049 A 
ATOM     43  C   UNL A   1      40.235  31.916  35.250  1.00  0.00     0.074 A 
ATOM     44  C   UNL A   1      38.667  27.594  32.040  1.00  0.00     0.029 A 
ATOM     45  N   UNL A   1      40.501  28.552  31.154  1.00  0.00    -0.354 N 
ATOM     46  N   UNL A   1      41.265  31.836  34.465  1.00  0.00    -0.248 NA
ATOM     47  C   UNL A   1      39.706  30.647  35.767  1.00  0.00     0.031 C 
ATOM     48  C   UNL A   1      39.199  28.543  32.936  1.00  0.00     0.029 A 
ATOM     49  C   UNL A   1      40.352  29.122  32.390  1.00  0.00     0.049 A 
ATOM     50  H   UNL A   1      41.300  28.591  30.580  1.00  0.00     0.167 HD
ATOM     51  C   UNL A   1      41.225  30.521  34.082  1.00  0.00     0.074 A 
ATOM     52  C   UNL A   1      40.515  29.807  35.129  1.00  0.00     0.031 C 
ATOM     53  C   UNL A   1      41.223  30.210  32.758  1.00  0.00     0.031 A 
BRANCH  40  54
ATOM     54  C   UNL A   1      39.519  27.308  28.465  1.00  0.00    -0.014 A 
ATOM     55  C   UNL A   1      39.615  25.911  28.697  1.00  0.00     0.010 A 
ATOM     56  C   UNL A   1      40.367  27.868  27.501  1.00  0.00     0.010 A 
ATOM     57  C   UNL A   1      40.630  25.143  28.139  1.00  0.00     0.020 A 
ATOM     58  C   UNL A   1      41.363  27.083  26.890  1.00  0.00     0.020 A 
ATOM     59  C   UNL A   1      41.523  25.744  27.261  1.00  0.00     0.054 A 
BRANCH  59  60
ATOM     60  S   UNL A   1      42.920  24.751  26.673  1.00  0.00     0.124 S 
ATOM     61  O   UNL A   1      44.055  25.409  27.310  1.00  0.00    -0.237 OA
ATOM     62  O   UNL A   1      42.598  23.422  27.190  1.00  0.00    -0.237 OA
ATOM     63  O   UNL A   1      42.844  24.881  25.220  1.00  0.00    -0.744 OA
ENDBRANCH  59  60
ENDBRANCH  40  54
BRANCH  41  64
ATOM     64  C   UNL A   1      39.635  33.607  37.011  1.00  0.00    -0.014 A 
ATOM     65  C   UNL A   1      40.540  34.530  37.548  1.00  0.00     0.010 A 
ATOM     66  C   UNL A   1      38.635  33.152  37.930  1.00  0.00     0.010 A 
ATOM     67  C   UNL A   1      40.340  35.083  38.850  1.00  0.00     0.020 A 
ATOM     68  C   UNL A   1      38.388  33.729  39.179  1.00  0.00     0.020 A 
ATOM     69  C   UNL A   1      39.226  34.729  39.625  1.00  0.00     0.054 A 
BRANCH  69  70
ATOM     70  S   UNL A   1      38.766  35.662  41.121  1.00  0.00     0.124 S 
ATOM     71  O   UNL A   1      39.890  35.406  42.015  1.00  0.00    -0.237 OA
ATOM     72  O   UNL A   1      38.652  37.030  40.622  1.00  0.00    -0.237 OA
ATOM     73  O   UNL A   1      37.498  35.057  41.528  1.00  0.00    -0.744 OA
ENDBRANCH  69  70
ENDBRANCH  41  64
BRANCH  53  74
ATOM     74  C   UNL A   1      41.835  31.240  31.810  1.00  0.00    -0.014 A 
ATOM     75  C   UNL A   1      40.984  32.114  31.107  1.00  0.00     0.010 A 
ATOM     76  C   UNL A   1      43.215  31.340  31.528  1.00  0.00     0.010 A 
ATOM     77  C   UNL A   1      41.474  33.044  30.177  1.00  0.00     0.020 A 
ATOM     78  C   UNL A   1      43.721  32.264  30.585  1.00  0.00     0.020 A 
ATOM     79  C   UNL A   1      42.842  33.121  29.921  1.00  0.00     0.054 A 
BRANCH  79  80
ATOM     80  S   UNL A   1      43.437  34.358  28.725  1.00  0.00     0.124 S 
ATOM     81  O   UNL A   1      42.216  35.074  28.360  1.00  0.00    -0.237 OA
ATOM     82  O   UNL A   1      44.395  35.125  29.515  1.00  0.00    -0.237 OA
ATOM     83  O   UNL A   1      44.022  33.557  27.650  1.00  0.00    -0.744 OA
ENDBRANCH  79  80
ENDBRANCH  53  74
ENDBRANCH  27  28
ENDBRANCH  20  22
ENDBRANCH  19  20
ENDBRANCH   1  19
TORSDOF 16
ENDMDL
MODEL 2
REMARK VINA RESULT:     -11.0      1.345      2.076
REMARK SMILES O=C(Cc1cccn1-c1ccccc1F)OCCOC(=O)c1ccc(-c2c3nc(c(-c4ccc(S(=O)(=O)[O-])cc4)c4ccc([nH]4)c(-c4ccc(S(=O)(=O)[O-])cc4)c4nc(c(-c5ccc(S(=O)(=O)[O-])cc5)c5ccc2[nH]5)C=C4)C=C3)cc1
REMARK SMILES IDX 18 1 17 2 16 3 2 4 1 5 3 6 4 7 5 8 8 9 6 10 7 11 9 12 10 13
REMARK SMILES IDX 14 14 11 15 13 16 15 17 12 18 19 19 20 20 21 21 22 22 23 23
REMARK SMILES IDX 81 24 24 25 80 26 25 27 26 28 27 29 74 30 28 31 79 32 73 33
REMARK SMILES IDX 75 34 29 35 78 36 72 37 71 38 30 40 60 41 41 42 59 43 42 44
REMARK SMILES IDX 45 45 58 46 76 47 43 48 44 49 57 51 77 52 46 53 31 54 32 55
REMARK SMILES IDX 40 56 33 57 39 58 34 59 35 60 36 61 37 62 38 63 61 64 62 65
REMARK SMILES IDX 70 66 63 67 69 68 64 69 65 70 66 71 67 72 68 73 47 74 48 75
REMARK SMILES IDX 56 76 49 77 55 78 50 79 51 80 52 81 53 82 54 83
REMARK H PARENT 75 39 45 50
REMARK Flexibility Score: inf
ROOT
ATOM      1  C   UNL A   1      32.711  32.797  27.790  1.00  0.00     0.275 C 
ENDROOT
BRANCH   1   2
ATOM      2  C   UNL A   1      33.786  31.726  27.889  1.00  0.00     0.274 C 
BRANCH   2   3
ATOM      3  O   UNL A   1      33.760  30.735  26.844  1.00  0.00    -0.462 OA
BRANCH   3   4
ATOM      4  C   UNL A   1      33.611  29.396  27.018  1.00  0.00     0.311 C 
ATOM      5  O   UNL A   1      34.613  28.687  27.112  1.00  0.00    -0.252 OA
BRANCH   4   6
ATOM      6  C   UNL A   1      32.218  28.797  27.027  1.00  0.00     0.177 C 
BRANCH   6   7
ATOM      7  C   UNL A   1      31.645  28.563  25.661  1.00  0.00     0.034 A 
ATOM      8  C   UNL A   1      31.149  29.515  24.782  1.00  0.00     0.024 A 
ATOM      9  N   UNL A   1      31.766  27.370  24.955  1.00  0.00    -0.318 N 
ATOM     10  C   UNL A   1      30.956  28.910  23.528  1.00  0.00     0.020 A 
ATOM     11  C   UNL A   1      31.338  27.599  23.660  1.00  0.00     0.091 A 
BRANCH   9  12
ATOM     12  C   UNL A   1      32.406  26.178  25.366  1.00  0.00     0.081 A 
ATOM     13  C   UNL A   1      33.765  26.006  25.067  1.00  0.00     0.030 A 
ATOM     14  C   UNL A   1      31.727  25.199  26.087  1.00  0.00     0.147 A 
ATOM     15  C   UNL A   1      34.440  24.880  25.539  1.00  0.00     0.002 A 
ATOM     16  C   UNL A   1      32.396  24.064  26.539  1.00  0.00     0.041 A 
ATOM     17  F   UNL A   1      30.412  25.300  26.320  1.00  0.00    -0.205 F 
ATOM     18  C   UNL A   1      33.758  23.911  26.276  1.00  0.00     0.003 A 
ENDBRANCH   9  12
ENDBRANCH   6   7
ENDBRANCH   4   6
ENDBRANCH   3   4
ENDBRANCH   2   3
ENDBRANCH   1   2
BRANCH   1  19
ATOM     19  O   UNL A   1      33.272  34.086  27.602  1.00  0.00    -0.458 OA
BRANCH  19  20
ATOM     20  C   UNL A   1      33.143  34.916  28.665  1.00  0.00     0.338 C 
ATOM     21  O   UNL A   1      32.311  35.779  28.830  1.00  0.00    -0.246 OA
BRANCH  20  22
ATOM     22  C   UNL A   1      34.306  34.729  29.533  1.00  0.00     0.060 A 
ATOM     23  C   UNL A   1      35.550  34.823  28.907  1.00  0.00     0.016 A 
ATOM     24  C   UNL A   1      34.124  34.096  30.770  1.00  0.00     0.016 A 
ATOM     25  C   UNL A   1      36.579  34.069  29.416  1.00  0.00     0.010 A 
ATOM     26  C   UNL A   1      35.123  33.281  31.230  1.00  0.00     0.010 A 
ATOM     27  C   UNL A   1      36.324  33.247  30.521  1.00  0.00    -0.014 A 
BRANCH  27  28
ATOM     28  C   UNL A   1      37.442  32.490  31.071  1.00  0.00     0.031 A 
ATOM     29  C   UNL A   1      37.619  31.229  30.192  1.00  0.00     0.074 A 
ATOM     30  C   UNL A   1      37.971  33.001  32.236  1.00  0.00     0.049 A 
ATOM     31  N   UNL A   1      37.950  30.034  30.545  1.00  0.00    -0.248 NA
ATOM     32  C   UNL A   1      37.250  31.242  28.736  1.00  0.00     0.031 C 
ATOM     33  C   UNL A   1      37.619  34.315  32.849  1.00  0.00     0.029 A 
ATOM     34  N   UNL A   1      38.901  32.556  33.151  1.00  0.00    -0.354 N 
ATOM     35  C   UNL A   1      38.094  29.256  29.375  1.00  0.00     0.074 A 
ATOM     36  C   UNL A   1      37.500  29.999  28.315  1.00  0.00     0.031 C 
ATOM     37  C   UNL A   1      38.226  34.487  34.051  1.00  0.00     0.029 A 
ATOM     38  C   UNL A   1      39.052  33.332  34.344  1.00  0.00     0.049 A 
ATOM     39  H   UNL A   1      39.435  31.744  32.991  1.00  0.00     0.167 HD
ATOM     40  C   UNL A   1      38.876  28.140  29.346  1.00  0.00     0.031 A 
ATOM     41  C   UNL A   1      39.757  33.016  35.485  1.00  0.00     0.031 A 
ATOM     42  C   UNL A   1      39.398  27.915  30.654  1.00  0.00     0.049 A 
ATOM     43  C   UNL A   1      40.471  31.784  35.118  1.00  0.00     0.074 A 
ATOM     44  C   UNL A   1      38.785  27.565  31.830  1.00  0.00     0.029 A 
ATOM     45  N   UNL A   1      40.596  28.542  30.919  1.00  0.00    -0.354 N 
ATOM     46  N   UNL A   1      41.476  31.722  34.301  1.00  0.00    -0.248 NA
ATOM     47  C   UNL A   1      39.951  30.502  35.613  1.00  0.00     0.031 C 
ATOM     48  C   UNL A   1      39.349  28.485  32.738  1.00  0.00     0.029 A 
ATOM     49  C   UNL A   1      40.488  29.075  32.174  1.00  0.00     0.049 A 
ATOM     50  H   UNL A   1      41.378  28.595  30.322  1.00  0.00     0.167 HD
ATOM     51  C   UNL A   1      41.418  30.419  33.880  1.00  0.00     0.074 A 
ATOM     52  C   UNL A   1      40.736  29.678  34.927  1.00  0.00     0.031 C 
ATOM     53  C   UNL A   1      41.374  30.148  32.548  1.00  0.00     0.031 A 
BRANCH  40  54
ATOM     54  C   UNL A   1      39.527  27.381  28.225  1.00  0.00    -0.014 A 
ATOM     55  C   UNL A   1      39.659  25.983  28.430  1.00  0.00     0.010 A 
ATOM     56  C   UNL A   1      40.319  27.972  27.232  1.00  0.00     0.010 A 
ATOM     57  C   UNL A   1      40.661  25.243  27.813  1.00  0.00     0.020 A 
ATOM     58  C   UNL A   1      41.299  27.215  26.563  1.00  0.00     0.020 A 
ATOM     59  C   UNL A   1      41.500  25.874  26.904  1.00  0.00     0.054 A 
BRANCH  59  60
ATOM     60  S   UNL A   1      42.886  24.917  26.236  1.00  0.00     0.124 S 
ATOM     61  O   UNL A   1      43.207  25.650  25.017  1.00  0.00    -0.237 OA
ATOM     62  O   UNL A   1      43.879  25.018  27.305  1.00  0.00    -0.237 OA
ATOM     63  O   UNL A   1      42.321  23.584  26.046  1.00  0.00    -0.744 OA
ENDBRANCH  59  60
ENDBRANCH  40  54
BRANCH  41  64
ATOM     64  C   UNL A   1      39.932  33.424  36.946  1.00  0.00    -0.014 A 
ATOM     65  C   UNL A   1      41.058  33.997  37.551  1.00  0.00     0.010 A 
ATOM     66  C   UNL A   1      38.778  33.349  37.790  1.00  0.00     0.010 A 
ATOM     67  C   UNL A   1      40.968  34.609  38.838  1.00  0.00     0.020 A 
ATOM     68  C   UNL A   1      38.656  33.998  39.022  1.00  0.00     0.020 A 
ATOM     69  C   UNL A   1      39.750  34.666  39.531  1.00  0.00     0.054 A 
BRANCH  69  70
ATOM     70  S   UNL A   1      39.532  35.726  40.996  1.00  0.00     0.124 S 
ATOM     71  O   UNL A   1      40.882  35.793  41.547  1.00  0.00    -0.237 OA
ATOM     72  O   UNL A   1      39.021  36.967  40.420  1.00  0.00    -0.237 OA
ATOM     73  O   UNL A   1      38.564  34.991  41.812  1.00  0.00    -0.744 OA
ENDBRANCH  69  70
ENDBRANCH  41  64
BRANCH  53  74
ATOM     74  C   UNL A   1      41.963  31.203  31.612  1.00  0.00    -0.014 A 
ATOM     75  C   UNL A   1      41.112  32.179  31.061  1.00  0.00     0.010 A 
ATOM     76  C   UNL A   1      43.312  31.234  31.198  1.00  0.00     0.010 A 
ATOM     77  C   UNL A   1      41.573  33.141  30.149  1.00  0.00     0.020 A 
ATOM     78  C   UNL A   1      43.788  32.190  30.272  1.00  0.00     0.020 A 
ATOM     79  C   UNL A   1      42.912  33.149  29.759  1.00  0.00     0.054 A 
BRANCH  79  80
ATOM     80  S   UNL A   1      43.474  34.430  28.593  1.00  0.00     0.124 S 
ATOM     81  O   UNL A   1      42.231  35.107  28.228  1.00  0.00    -0.237 OA
ATOM     82  O   UNL A   1      44.395  35.216  29.409  1.00  0.00    -0.237 OA
ATOM     83  O   UNL A   1      44.099  33.671  27.511  1.00  0.00    -0.744 OA
ENDBRANCH  79  80
ENDBRANCH  53  74
ENDBRANCH  27  28
ENDBRANCH  20  22
ENDBRANCH  19  20
ENDBRANCH   1  19
TORSDOF 16
ENDMDL
MODEL 3
REMARK VINA RESULT:     -11.0      5.651     11.848
REMARK SMILES O=C(Cc1cccn1-c1ccccc1F)OCCOC(=O)c1ccc(-c2c3nc(c(-c4ccc(S(=O)(=O)[O-])cc4)c4ccc([nH]4)c(-c4ccc(S(=O)(=O)[O-])cc4)c4nc(c(-c5ccc(S(=O)(=O)[O-])cc5)c5ccc2[nH]5)C=C4)C=C3)cc1
REMARK SMILES IDX 18 1 17 2 16 3 2 4 1 5 3 6 4 7 5 8 8 9 6 10 7 11 9 12 10 13
REMARK SMILES IDX 14 14 11 15 13 16 15 17 12 18 19 19 20 20 21 21 22 22 23 23
REMARK SMILES IDX 81 24 24 25 80 26 25 27 26 28 27 29 74 30 28 31 79 32 73 33
REMARK SMILES IDX 75 34 29 35 78 36 72 37 71 38 30 40 60 41 41 42 59 43 42 44
REMARK SMILES IDX 45 45 58 46 76 47 43 48 44 49 57 51 77 52 46 53 31 54 32 55
REMARK SMILES IDX 40 56 33 57 39 58 34 59 35 60 36 61 37 62 38 63 61 64 62 65
REMARK SMILES IDX 70 66 63 67 69 68 64 69 65 70 66 71 67 72 68 73 47 74 48 75
REMARK SMILES IDX 56 76 49 77 55 78 50 79 51 80 52 81 53 82 54 83
REMARK H PARENT 75 39 45 50
REMARK Flexibility Score: inf
ROOT
ATOM      1  C   UNL A   1      39.378  20.207  25.624  1.00  0.00     0.275 C 
ENDROOT
BRANCH   1   2
ATOM      2  C   UNL A   1      38.932  21.640  25.863  1.00  0.00     0.274 C 
BRANCH   2   3
ATOM      3  O   UNL A   1      37.846  22.090  25.031  1.00  0.00    -0.462 OA
BRANCH   3   4
ATOM      4  C   UNL A   1      37.042  23.158  25.275  1.00  0.00     0.311 C 
ATOM      5  O   UNL A   1      37.228  23.831  26.289  1.00  0.00    -0.252 OA
BRANCH   4   6
ATOM      6  C   UNL A   1      35.895  23.459  24.330  1.00  0.00     0.177 C 
BRANCH   6   7
ATOM      7  C   UNL A   1      34.678  24.018  25.006  1.00  0.00     0.034 A 
ATOM      8  C   UNL A   1      34.424  25.344  25.321  1.00  0.00     0.024 A 
ATOM      9  N   UNL A   1      33.491  23.313  25.186  1.00  0.00    -0.318 N 
ATOM     10  C   UNL A   1      33.077  25.464  25.703  1.00  0.00     0.020 A 
ATOM     11  C   UNL A   1      32.529  24.210  25.616  1.00  0.00     0.091 A 
BRANCH   9  12
ATOM     12  C   UNL A   1      33.204  21.982  24.807  1.00  0.00     0.081 A 
ATOM     13  C   UNL A   1      33.411  20.956  25.740  1.00  0.00     0.030 A 
ATOM     14  C   UNL A   1      32.690  21.680  23.548  1.00  0.00     0.147 A 
ATOM     15  C   UNL A   1      33.053  19.647  25.419  1.00  0.00     0.002 A 
ATOM     16  C   UNL A   1      32.351  20.368  23.222  1.00  0.00     0.041 A 
ATOM     17  F   UNL A   1      32.553  22.626  22.611  1.00  0.00    -0.205 F 
ATOM     18  C   UNL A   1      32.521  19.352  24.163  1.00  0.00     0.003 A 
ENDBRANCH   9  12
ENDBRANCH   6   7
ENDBRANCH   4   6
ENDBRANCH   3   4
ENDBRANCH   2   3
ENDBRANCH   1   2
BRANCH   1  19
ATOM     19  O   UNL A   1      40.292  19.770  26.617  1.00  0.00    -0.458 OA
BRANCH  19  20
ATOM     20  C   UNL A   1      41.515  19.432  26.144  1.00  0.00     0.338 C 
ATOM     21  O   UNL A   1      41.858  18.369  25.677  1.00  0.00    -0.246 OA
BRANCH  20  22
ATOM     22  C   UNL A   1      42.442  20.521  26.456  1.00  0.00     0.060 A 
ATOM     23  C   UNL A   1      42.435  20.961  27.780  1.00  0.00     0.016 A 
ATOM     24  C   UNL A   1      42.948  21.293  25.402  1.00  0.00     0.016 A 
ATOM     25  C   UNL A   1      42.723  22.283  28.015  1.00  0.00     0.010 A 
ATOM     26  C   UNL A   1      43.156  22.627  25.622  1.00  0.00     0.010 A 
ATOM     27  C   UNL A   1      42.999  23.113  26.921  1.00  0.00    -0.014 A 
BRANCH  27  28
ATOM     28  C   UNL A   1      43.346  24.502  27.198  1.00  0.00     0.031 A 
ATOM     29  C   UNL A   1      42.019  25.282  27.359  1.00  0.00     0.074 A 
ATOM     30  C   UNL A   1      44.693  24.784  27.147  1.00  0.00     0.049 A 
ATOM     31  N   UNL A   1      41.735  26.484  26.990  1.00  0.00    -0.248 NA
ATOM     32  C   UNL A   1      40.781  24.607  27.877  1.00  0.00     0.031 C 
ATOM     33  C   UNL A   1      45.788  23.779  27.017  1.00  0.00     0.029 A 
ATOM     34  N   UNL A   1      45.438  25.942  27.194  1.00  0.00    -0.354 N 
ATOM     35  C   UNL A   1      40.438  26.791  27.456  1.00  0.00     0.074 A 
ATOM     36  C   UNL A   1      39.843  25.558  27.850  1.00  0.00     0.031 C 
ATOM     37  C   UNL A   1      47.001  24.374  26.884  1.00  0.00     0.029 A 
ATOM     38  C   UNL A   1      46.841  25.814  26.937  1.00  0.00     0.049 A 
ATOM     39  H   UNL A   1      45.027  26.814  27.395  1.00  0.00     0.167 HD
ATOM     40  C   UNL A   1      40.035  28.077  27.666  1.00  0.00     0.031 A 
ATOM     41  C   UNL A   1      47.767  26.815  26.736  1.00  0.00     0.031 A 
ATOM     42  C   UNL A   1      41.087  28.954  27.268  1.00  0.00     0.049 A 
ATOM     43  C   UNL A   1      47.017  28.044  27.036  1.00  0.00     0.074 A 
ATOM     44  C   UNL A   1      41.627  29.228  26.037  1.00  0.00     0.029 A 
ATOM     45  N   UNL A   1      41.997  29.258  28.257  1.00  0.00    -0.354 N 
ATOM     46  N   UNL A   1      46.647  28.418  28.221  1.00  0.00    -0.248 NA
ATOM     47  C   UNL A   1      46.541  28.862  25.912  1.00  0.00     0.031 C 
ATOM     48  C   UNL A   1      43.010  29.142  26.300  1.00  0.00     0.029 A 
ATOM     49  C   UNL A   1      43.237  29.182  27.682  1.00  0.00     0.049 A 
ATOM     50  H   UNL A   1      41.795  29.486  29.193  1.00  0.00     0.167 HD
ATOM     51  C   UNL A   1      45.585  29.237  27.939  1.00  0.00     0.074 A 
ATOM     52  C   UNL A   1      45.788  29.725  26.587  1.00  0.00     0.031 C 
ATOM     53  C   UNL A   1      44.384  29.003  28.534  1.00  0.00     0.031 A 
BRANCH  40  54
ATOM     54  C   UNL A   1      38.939  28.678  28.498  1.00  0.00    -0.014 A 
ATOM     55  C   UNL A   1      38.256  29.774  27.908  1.00  0.00     0.010 A 
ATOM     56  C   UNL A   1      38.817  28.502  29.882  1.00  0.00     0.010 A 
ATOM     57  C   UNL A   1      37.641  30.754  28.678  1.00  0.00     0.020 A 
ATOM     58  C   UNL A   1      38.146  29.463  30.663  1.00  0.00     0.020 A 
ATOM     59  C   UNL A   1      37.618  30.609  30.059  1.00  0.00     0.054 A 
BRANCH  59  60
ATOM     60  S   UNL A   1      36.942  31.976  31.037  1.00  0.00     0.124 S 
ATOM     61  O   UNL A   1      37.489  31.708  32.362  1.00  0.00    -0.237 OA
ATOM     62  O   UNL A   1      37.495  33.148  30.359  1.00  0.00    -0.237 OA
ATOM     63  O   UNL A   1      35.498  31.813  30.901  1.00  0.00    -0.744 OA
ENDBRANCH  59  60
ENDBRANCH  40  54
BRANCH  41  64
ATOM     64  C   UNL A   1      49.183  27.062  26.220  1.00  0.00    -0.014 A 
ATOM     65  C   UNL A   1      50.329  27.369  26.963  1.00  0.00     0.010 A 
ATOM     66  C   UNL A   1      49.423  26.823  24.828  1.00  0.00     0.010 A 
ATOM     67  C   UNL A   1      51.630  27.263  26.383  1.00  0.00     0.020 A 
ATOM     68  C   UNL A   1      50.690  26.652  24.262  1.00  0.00     0.020 A 
ATOM     69  C   UNL A   1      51.801  26.837  25.058  1.00  0.00     0.054 A 
BRANCH  69  70
ATOM     70  S   UNL A   1      53.437  26.367  24.408  1.00  0.00     0.124 S 
ATOM     71  O   UNL A   1      54.351  27.010  25.347  1.00  0.00    -0.237 OA
ATOM     72  O   UNL A   1      53.396  24.908  24.462  1.00  0.00    -0.237 OA
ATOM     73  O   UNL A   1      53.444  26.925  23.055  1.00  0.00    -0.744 OA
ENDBRANCH  69  70
ENDBRANCH  41  64
BRANCH  53  74
ATOM     74  C   UNL A   1      44.413  28.258  29.869  1.00  0.00    -0.014 A 
ATOM     75  C   UNL A   1      43.924  26.939  29.926  1.00  0.00     0.010 A 
ATOM     76  C   UNL A   1      44.839  28.828  31.088  1.00  0.00     0.010 A 
ATOM     77  C   UNL A   1      43.865  26.218  31.129  1.00  0.00     0.020 A 
ATOM     78  C   UNL A   1      44.775  28.117  32.308  1.00  0.00     0.020 A 
ATOM     79  C   UNL A   1      44.296  26.806  32.318  1.00  0.00     0.054 A 
BRANCH  79  80
ATOM     80  S   UNL A   1      44.226  25.826  33.851  1.00  0.00     0.124 S 
ATOM     81  O   UNL A   1      44.446  24.461  33.377  1.00  0.00    -0.237 OA
ATOM     82  O   UNL A   1      45.315  26.395  34.638  1.00  0.00    -0.237 OA
ATOM     83  O   UNL A   1      42.884  26.084  34.373  1.00  0.00    -0.744 OA
ENDBRANCH  79  80
ENDBRANCH  53  74
ENDBRANCH  27  28
ENDBRANCH  20  22
ENDBRANCH  19  20
ENDBRANCH   1  19
TORSDOF 16
ENDMDL
