MODEL 1
REMARK VINA RESULT:     -10.8      0.000      0.000
REMARK SMILES O=C(OCCOC(=O)c1ccc2nc(Cl)sc2c1)c1ccc(-c2c3nc(c(-c4ccc(S(=O)(=O)[O-])cc4)c4ccc([nH]4)c(-c4ccc(S(=O)(=O)[O-])cc4)c4nc(c(-c5ccc(S(=O)(=O)[O-])cc5)c5ccc2[nH]5)C=C4)C=C3)cc1
REMARK SMILES IDX 3 1 2 2 1 3 19 4 20 5 78 6 21 7 77 8 22 9 23 10 24 11 71 12
REMARK SMILES IDX 25 13 76 14 70 15 72 16 26 17 75 18 69 19 68 20 27 22 57 23
REMARK SMILES IDX 38 24 56 25 39 26 42 27 55 28 73 29 40 30 41 31 54 33 74 34
REMARK SMILES IDX 43 35 28 36 29 37 37 38 30 39 36 40 31 41 32 42 33 43 34 44
REMARK SMILES IDX 35 45 58 46 59 47 67 48 60 49 66 50 61 51 62 52 63 53 64 54
REMARK SMILES IDX 65 55 44 56 45 57 53 58 46 59 52 60 47 61 48 62 49 63 50 64
REMARK SMILES IDX 51 65 4 66 5 67 6 68 7 69 8 70 9 71 10 72 18 73 11 74 17 75
REMARK SMILES IDX 12 76 16 77 13 78 14 79 15 80
REMARK H PARENT 72 21 42 32
REMARK Flexibility Score: inf
ROOT
ATOM      1  O   UNL A   1      40.423  20.751  27.329  1.00  0.00    -0.458 OA
ENDROOT
BRANCH   1   2
ATOM      2  C   UNL A   1      39.906  21.894  26.808  1.00  0.00     0.338 C 
ATOM      3  O   UNL A   1      39.036  21.835  25.945  1.00  0.00    -0.246 OA
BRANCH   2   4
ATOM      4  C   UNL A   1      40.637  23.187  27.027  1.00  0.00     0.060 A 
ATOM      5  C   UNL A   1      40.190  24.308  26.301  1.00  0.00     0.016 A 
ATOM      6  C   UNL A   1      41.741  23.353  27.854  1.00  0.00     0.016 A 
ATOM      7  C   UNL A   1      40.861  25.539  26.358  1.00  0.00     0.010 A 
ATOM      8  C   UNL A   1      42.439  24.567  27.877  1.00  0.00     0.010 A 
ATOM      9  C   UNL A   1      42.005  25.684  27.138  1.00  0.00    -0.014 A 
BRANCH   9  10
ATOM     10  C   UNL A   1      42.567  27.069  27.308  1.00  0.00     0.031 A 
ATOM     11  C   UNL A   1      41.415  28.017  27.496  1.00  0.00     0.074 A 
ATOM     12  C   UNL A   1      43.601  27.296  28.153  1.00  0.00     0.049 A 
ATOM     13  N   UNL A   1      40.773  28.159  28.613  1.00  0.00    -0.248 NA
ATOM     14  C   UNL A   1      40.724  28.596  26.346  1.00  0.00     0.031 C 
ATOM     15  C   UNL A   1      43.649  26.916  29.563  1.00  0.00     0.029 A 
ATOM     16  N   UNL A   1      44.735  28.082  27.979  1.00  0.00    -0.354 N 
ATOM     17  C   UNL A   1      39.580  28.802  28.328  1.00  0.00     0.074 A 
ATOM     18  C   UNL A   1      39.590  29.046  26.906  1.00  0.00     0.031 C 
ATOM     19  C   UNL A   1      44.759  27.419  30.129  1.00  0.00     0.029 A 
ATOM     20  C   UNL A   1      45.394  28.335  29.186  1.00  0.00     0.049 A 
ATOM     21  H   UNL A   1      45.040  28.421  27.107  1.00  0.00     0.167 HD
ATOM     22  C   UNL A   1      38.699  29.135  29.313  1.00  0.00     0.031 A 
ATOM     23  C   UNL A   1      45.926  29.541  29.555  1.00  0.00     0.031 A 
ATOM     24  C   UNL A   1      39.141  28.885  30.667  1.00  0.00     0.049 A 
ATOM     25  C   UNL A   1      44.804  30.137  30.390  1.00  0.00     0.074 A 
ATOM     26  C   UNL A   1      38.648  28.454  31.878  1.00  0.00     0.029 A 
ATOM     27  N   UNL A   1      40.467  29.141  30.886  1.00  0.00    -0.354 N 
ATOM     28  N   UNL A   1      44.481  29.814  31.623  1.00  0.00    -0.248 NA
ATOM     29  C   UNL A   1      43.751  30.878  29.678  1.00  0.00     0.031 C 
ATOM     30  C   UNL A   1      39.731  28.529  32.824  1.00  0.00     0.029 A 
ATOM     31  C   UNL A   1      40.856  29.035  32.179  1.00  0.00     0.049 A 
ATOM     32  H   UNL A   1      41.089  29.383  30.161  1.00  0.00     0.167 HD
ATOM     33  C   UNL A   1      43.094  29.984  31.688  1.00  0.00     0.074 A 
ATOM     34  C   UNL A   1      42.745  30.803  30.544  1.00  0.00     0.031 C 
ATOM     35  C   UNL A   1      42.259  29.253  32.493  1.00  0.00     0.031 A 
BRANCH  22  36
ATOM     36  C   UNL A   1      37.570  30.057  29.043  1.00  0.00    -0.014 A 
ATOM     37  C   UNL A   1      36.305  29.652  28.596  1.00  0.00     0.010 A 
ATOM     38  C   UNL A   1      37.808  31.424  29.284  1.00  0.00     0.010 A 
ATOM     39  C   UNL A   1      35.299  30.609  28.392  1.00  0.00     0.020 A 
ATOM     40  C   UNL A   1      36.815  32.377  29.079  1.00  0.00     0.020 A 
ATOM     41  C   UNL A   1      35.563  31.964  28.631  1.00  0.00     0.054 A 
BRANCH  41  42
ATOM     42  S   UNL A   1      34.250  33.186  28.360  1.00  0.00     0.124 S 
ATOM     43  O   UNL A   1      33.227  32.389  27.688  1.00  0.00    -0.237 OA
ATOM     44  O   UNL A   1      33.929  33.607  29.720  1.00  0.00    -0.237 OA
ATOM     45  O   UNL A   1      34.889  34.205  27.528  1.00  0.00    -0.744 OA
ENDBRANCH  41  42
ENDBRANCH  22  36
BRANCH  23  46
ATOM     46  C   UNL A   1      46.732  30.260  28.522  1.00  0.00    -0.014 A 
ATOM     47  C   UNL A   1      48.130  30.246  28.427  1.00  0.00     0.010 A 
ATOM     48  C   UNL A   1      46.030  31.114  27.639  1.00  0.00     0.010 A 
ATOM     49  C   UNL A   1      48.805  31.227  27.689  1.00  0.00     0.020 A 
ATOM     50  C   UNL A   1      46.694  32.076  26.871  1.00  0.00     0.020 A 
ATOM     51  C   UNL A   1      48.077  32.177  26.972  1.00  0.00     0.054 A 
BRANCH  51  52
ATOM     52  S   UNL A   1      48.947  33.625  26.311  1.00  0.00     0.124 S 
ATOM     53  O   UNL A   1      47.902  34.248  25.501  1.00  0.00    -0.237 OA
ATOM     54  O   UNL A   1      49.327  34.349  27.520  1.00  0.00    -0.237 OA
ATOM     55  O   UNL A   1      50.055  33.047  25.553  1.00  0.00    -0.744 OA
ENDBRANCH  51  52
ENDBRANCH  23  46
BRANCH  35  56
ATOM     56  C   UNL A   1      42.817  28.624  33.726  1.00  0.00    -0.014 A 
ATOM     57  C   UNL A   1      43.338  27.317  33.713  1.00  0.00     0.010 A 
ATOM     58  C   UNL A   1      42.565  29.251  34.956  1.00  0.00     0.010 A 
ATOM     59  C   UNL A   1      43.496  26.613  34.909  1.00  0.00     0.020 A 
ATOM     60  C   UNL A   1      42.729  28.556  36.151  1.00  0.00     0.020 A 
ATOM     61  C   UNL A   1      43.151  27.227  36.117  1.00  0.00     0.054 A 
BRANCH  61  62
ATOM     62  S   UNL A   1      43.141  26.231  37.630  1.00  0.00     0.124 S 
ATOM     63  O   UNL A   1      41.717  26.175  37.954  1.00  0.00    -0.237 OA
ATOM     64  O   UNL A   1      43.734  24.972  37.185  1.00  0.00    -0.237 OA
ATOM     65  O   UNL A   1      43.956  27.005  38.565  1.00  0.00    -0.744 OA
ENDBRANCH  61  62
ENDBRANCH  35  56
ENDBRANCH   9  10
ENDBRANCH   2   4
ENDBRANCH   1   2
BRANCH   1  66
ATOM     66  C   UNL A   1      41.082  19.738  26.542  1.00  0.00     0.275 C 
BRANCH  66  67
ATOM     67  C   UNL A   1      42.609  19.929  26.497  1.00  0.00     0.275 C 
BRANCH  67  68
ATOM     68  O   UNL A   1      43.059  20.399  25.221  1.00  0.00    -0.458 OA
BRANCH  68  69
ATOM     69  C   UNL A   1      44.398  20.652  25.129  1.00  0.00     0.338 C 
ATOM     70  O   UNL A   1      45.260  19.903  24.749  1.00  0.00    -0.246 OA
BRANCH  69  71
ATOM     71  C   UNL A   1      44.563  22.111  25.344  1.00  0.00     0.061 A 
ATOM     72  C   UNL A   1      43.808  23.010  24.599  1.00  0.00     0.018 A 
ATOM     73  C   UNL A   1      45.580  22.551  26.211  1.00  0.00     0.037 A 
ATOM     74  C   UNL A   1      44.079  24.372  24.689  1.00  0.00     0.031 A 
ATOM     75  C   UNL A   1      45.916  23.918  26.180  1.00  0.00     0.057 A 
ATOM     76  C   UNL A   1      45.193  24.835  25.411  1.00  0.00     0.083 A 
ATOM     77  S   UNL A   1      47.219  24.755  26.949  1.00  0.00    -0.102 S 
ATOM     78  N   UNL A   1      45.687  26.126  25.396  1.00  0.00    -0.225 NA
ATOM     79  C   UNL A   1      46.783  26.163  26.105  1.00  0.00     0.184 A 
ATOM     80  Cl  UNL A   1      47.783  27.555  26.176  1.00  0.00    -0.050 Cl
ENDBRANCH  69  71
ENDBRANCH  68  69
ENDBRANCH  67  68
ENDBRANCH  66  67
ENDBRANCH   1  66
TORSDOF 14
ENDMDL
MODEL 2
REMARK VINA RESULT:     -10.1      0.802      1.349
REMARK SMILES O=C(OCCOC(=O)c1ccc2nc(Cl)sc2c1)c1ccc(-c2c3nc(c(-c4ccc(S(=O)(=O)[O-])cc4)c4ccc([nH]4)c(-c4ccc(S(=O)(=O)[O-])cc4)c4nc(c(-c5ccc(S(=O)(=O)[O-])cc5)c5ccc2[nH]5)C=C4)C=C3)cc1
REMARK SMILES IDX 3 1 2 2 1 3 19 4 20 5 78 6 21 7 77 8 22 9 23 10 24 11 71 12
REMARK SMILES IDX 25 13 76 14 70 15 72 16 26 17 75 18 69 19 68 20 27 22 57 23
REMARK SMILES IDX 38 24 56 25 39 26 42 27 55 28 73 29 40 30 41 31 54 33 74 34
REMARK SMILES IDX 43 35 28 36 29 37 37 38 30 39 36 40 31 41 32 42 33 43 34 44
REMARK SMILES IDX 35 45 58 46 59 47 67 48 60 49 66 50 61 51 62 52 63 53 64 54
REMARK SMILES IDX 65 55 44 56 45 57 53 58 46 59 52 60 47 61 48 62 49 63 50 64
REMARK SMILES IDX 51 65 4 66 5 67 6 68 7 69 8 70 9 71 10 72 18 73 11 74 17 75
REMARK SMILES IDX 12 76 16 77 13 78 14 79 15 80
REMARK H PARENT 72 21 42 32
REMARK Flexibility Score: inf
ROOT
ATOM      1  O   UNL A   1      40.736  20.524  26.859  1.00  0.00    -0.458 OA
ENDROOT
BRANCH   1   2
ATOM      2  C   UNL A   1      40.009  21.619  26.521  1.00  0.00     0.338 C 
ATOM      3  O   UNL A   1      39.061  21.511  25.749  1.00  0.00    -0.246 OA
BRANCH   2   4
ATOM      4  C   UNL A   1      40.573  22.981  26.803  1.00  0.00     0.060 A 
ATOM      5  C   UNL A   1      41.874  23.247  26.336  1.00  0.00     0.016 A 
ATOM      6  C   UNL A   1      39.929  23.981  27.523  1.00  0.00     0.016 A 
ATOM      7  C   UNL A   1      42.531  24.453  26.629  1.00  0.00     0.010 A 
ATOM      8  C   UNL A   1      40.600  25.166  27.856  1.00  0.00     0.010 A 
ATOM      9  C   UNL A   1      41.907  25.427  27.405  1.00  0.00    -0.014 A 
BRANCH   9  10
ATOM     10  C   UNL A   1      42.582  26.766  27.525  1.00  0.00     0.031 A 
ATOM     11  C   UNL A   1      41.514  27.808  27.704  1.00  0.00     0.074 A 
ATOM     12  C   UNL A   1      43.648  26.931  28.344  1.00  0.00     0.049 A 
ATOM     13  N   UNL A   1      40.908  28.033  28.828  1.00  0.00    -0.248 NA
ATOM     14  C   UNL A   1      40.850  28.410  26.550  1.00  0.00     0.031 C 
ATOM     15  C   UNL A   1      43.692  26.587  29.764  1.00  0.00     0.029 A 
ATOM     16  N   UNL A   1      44.838  27.617  28.128  1.00  0.00    -0.354 N 
ATOM     17  C   UNL A   1      39.766  28.763  28.545  1.00  0.00     0.074 A 
ATOM     18  C   UNL A   1      39.768  28.966  27.116  1.00  0.00     0.031 C 
ATOM     19  C   UNL A   1      44.851  27.014  30.296  1.00  0.00     0.029 A 
ATOM     20  C   UNL A   1      45.539  27.849  29.315  1.00  0.00     0.049 A 
ATOM     21  H   UNL A   1      45.152  27.906  27.241  1.00  0.00     0.167 HD
ATOM     22  C   UNL A   1      38.934  29.194  29.535  1.00  0.00     0.031 A 
ATOM     23  C   UNL A   1      46.173  29.018  29.640  1.00  0.00     0.031 A 
ATOM     24  C   UNL A   1      39.381  28.946  30.888  1.00  0.00     0.049 A 
ATOM     25  C   UNL A   1      45.120  29.726  30.476  1.00  0.00     0.074 A 
ATOM     26  C   UNL A   1      38.878  28.591  32.120  1.00  0.00     0.029 A 
ATOM     27  N   UNL A   1      40.728  29.100  31.076  1.00  0.00    -0.354 N 
ATOM     28  N   UNL A   1      44.796  29.464  31.723  1.00  0.00    -0.248 NA
ATOM     29  C   UNL A   1      44.117  30.530  29.761  1.00  0.00     0.031 C 
ATOM     30  C   UNL A   1      39.983  28.604  33.044  1.00  0.00     0.029 A 
ATOM     31  C   UNL A   1      41.132  28.998  32.365  1.00  0.00     0.049 A 
ATOM     32  H   UNL A   1      41.352  29.271  30.334  1.00  0.00     0.167 HD
ATOM     33  C   UNL A   1      43.429  29.749  31.808  1.00  0.00     0.074 A 
ATOM     34  C   UNL A   1      43.125  30.562  30.646  1.00  0.00     0.031 C 
ATOM     35  C   UNL A   1      42.554  29.111  32.648  1.00  0.00     0.031 A 
BRANCH  22  36
ATOM     36  C   UNL A   1      37.878  30.197  29.258  1.00  0.00    -0.014 A 
ATOM     37  C   UNL A   1      38.110  31.570  29.102  1.00  0.00     0.010 A 
ATOM     38  C   UNL A   1      36.566  29.703  29.124  1.00  0.00     0.010 A 
ATOM     39  C   UNL A   1      37.038  32.430  28.820  1.00  0.00     0.020 A 
ATOM     40  C   UNL A   1      35.498  30.552  28.849  1.00  0.00     0.020 A 
ATOM     41  C   UNL A   1      35.741  31.915  28.700  1.00  0.00     0.054 A 
BRANCH  41  42
ATOM     42  S   UNL A   1      34.367  33.044  28.338  1.00  0.00     0.124 S 
ATOM     43  O   UNL A   1      33.978  33.489  29.674  1.00  0.00    -0.237 OA
ATOM     44  O   UNL A   1      35.005  34.054  27.500  1.00  0.00    -0.237 OA
ATOM     45  O   UNL A   1      33.390  32.197  27.657  1.00  0.00    -0.744 OA
ENDBRANCH  41  42
ENDBRANCH  22  36
BRANCH  23  46
ATOM     46  C   UNL A   1      47.014  29.639  28.572  1.00  0.00    -0.014 A 
ATOM     47  C   UNL A   1      48.248  29.150  28.120  1.00  0.00     0.010 A 
ATOM     48  C   UNL A   1      46.583  30.885  28.058  1.00  0.00     0.010 A 
ATOM     49  C   UNL A   1      49.128  29.978  27.412  1.00  0.00     0.020 A 
ATOM     50  C   UNL A   1      47.441  31.708  27.320  1.00  0.00     0.020 A 
ATOM     51  C   UNL A   1      48.740  31.276  27.078  1.00  0.00     0.054 A 
BRANCH  51  52
ATOM     52  S   UNL A   1      49.998  32.434  26.472  1.00  0.00     0.124 S 
ATOM     53  O   UNL A   1      50.536  32.963  27.724  1.00  0.00    -0.237 OA
ATOM     54  O   UNL A   1      50.894  31.564  25.716  1.00  0.00    -0.237 OA
ATOM     55  O   UNL A   1      49.234  33.390  25.674  1.00  0.00    -0.744 OA
ENDBRANCH  51  52
ENDBRANCH  23  46
BRANCH  35  56
ATOM     56  C   UNL A   1      43.084  28.473  33.888  1.00  0.00    -0.014 A 
ATOM     57  C   UNL A   1      43.513  27.133  33.901  1.00  0.00     0.010 A 
ATOM     58  C   UNL A   1      42.891  29.143  35.106  1.00  0.00     0.010 A 
ATOM     59  C   UNL A   1      43.638  26.447  35.111  1.00  0.00     0.020 A 
ATOM     60  C   UNL A   1      43.023  28.467  36.316  1.00  0.00     0.020 A 
ATOM     61  C   UNL A   1      43.352  27.111  36.308  1.00  0.00     0.054 A 
BRANCH  61  62
ATOM     62  S   UNL A   1      43.293  26.153  37.845  1.00  0.00     0.124 S 
ATOM     63  O   UNL A   1      43.970  27.040  38.787  1.00  0.00    -0.237 OA
ATOM     64  O   UNL A   1      41.859  25.985  38.059  1.00  0.00    -0.237 OA
ATOM     65  O   UNL A   1      44.020  24.926  37.521  1.00  0.00    -0.744 OA
ENDBRANCH  61  62
ENDBRANCH  35  56
ENDBRANCH   9  10
ENDBRANCH   2   4
ENDBRANCH   1   2
BRANCH   1  66
ATOM     66  C   UNL A   1      41.180  19.532  25.911  1.00  0.00     0.275 C 
BRANCH  66  67
ATOM     67  C   UNL A   1      42.666  19.171  26.089  1.00  0.00     0.275 C 
BRANCH  67  68
ATOM     68  O   UNL A   1      43.381  19.190  24.849  1.00  0.00    -0.458 OA
BRANCH  68  69
ATOM     69  C   UNL A   1      44.720  19.447  24.948  1.00  0.00     0.338 C 
ATOM     70  O   UNL A   1      45.624  18.656  24.882  1.00  0.00    -0.246 OA
BRANCH  69  71
ATOM     71  C   UNL A   1      44.866  20.924  24.899  1.00  0.00     0.061 A 
ATOM     72  C   UNL A   1      44.669  21.599  23.701  1.00  0.00     0.018 A 
ATOM     73  C   UNL A   1      45.331  21.590  26.047  1.00  0.00     0.037 A 
ATOM     74  C   UNL A   1      44.963  22.957  23.623  1.00  0.00     0.031 A 
ATOM     75  C   UNL A   1      45.742  22.928  25.902  1.00  0.00     0.057 A 
ATOM     76  C   UNL A   1      45.587  23.618  24.695  1.00  0.00     0.083 A 
ATOM     77  S   UNL A   1      46.533  23.972  27.031  1.00  0.00    -0.102 S 
ATOM     78  N   UNL A   1      46.119  24.893  24.660  1.00  0.00    -0.225 NA
ATOM     79  C   UNL A   1      46.701  25.135  25.804  1.00  0.00     0.184 A 
ATOM     80  Cl  UNL A   1      47.631  26.550  26.079  1.00  0.00    -0.050 Cl
ENDBRANCH  69  71
ENDBRANCH  68  69
ENDBRANCH  67  68
ENDBRANCH  66  67
ENDBRANCH   1  66
TORSDOF 14
ENDMDL
MODEL 3
REMARK VINA RESULT:      -9.9      3.403      5.168
REMARK SMILES O=C(OCCOC(=O)c1ccc2nc(Cl)sc2c1)c1ccc(-c2c3nc(c(-c4ccc(S(=O)(=O)[O-])cc4)c4ccc([nH]4)c(-c4ccc(S(=O)(=O)[O-])cc4)c4nc(c(-c5ccc(S(=O)(=O)[O-])cc5)c5ccc2[nH]5)C=C4)C=C3)cc1
REMARK SMILES IDX 3 1 2 2 1 3 19 4 20 5 78 6 21 7 77 8 22 9 23 10 24 11 71 12
REMARK SMILES IDX 25 13 76 14 70 15 72 16 26 17 75 18 69 19 68 20 27 22 57 23
REMARK SMILES IDX 38 24 56 25 39 26 42 27 55 28 73 29 40 30 41 31 54 33 74 34
REMARK SMILES IDX 43 35 28 36 29 37 37 38 30 39 36 40 31 41 32 42 33 43 34 44
REMARK SMILES IDX 35 45 58 46 59 47 67 48 60 49 66 50 61 51 62 52 63 53 64 54
REMARK SMILES IDX 65 55 44 56 45 57 53 58 46 59 52 60 47 61 48 62 49 63 50 64
REMARK SMILES IDX 51 65 4 66 5 67 6 68 7 69 8 70 9 71 10 72 18 73 11 74 17 75
REMARK SMILES IDX 12 76 16 77 13 78 14 79 15 80
REMARK H PARENT 72 21 42 32
REMARK Flexibility Score: inf
ROOT
ATOM      1  O   UNL A   1      40.251  21.438  26.597  1.00  0.00    -0.458 OA
ENDROOT
BRANCH   1   2
ATOM      2  C   UNL A   1      41.484  21.748  26.121  1.00  0.00     0.338 C 
ATOM      3  O   UNL A   1      42.280  20.853  25.851  1.00  0.00    -0.246 OA
BRANCH   2   4
ATOM      4  C   UNL A   1      41.985  23.155  26.265  1.00  0.00     0.060 A 
ATOM      5  C   UNL A   1      41.492  23.905  27.350  1.00  0.00     0.016 A 
ATOM      6  C   UNL A   1      42.863  23.786  25.391  1.00  0.00     0.016 A 
ATOM      7  C   UNL A   1      41.822  25.259  27.521  1.00  0.00     0.010 A 
ATOM      8  C   UNL A   1      43.155  25.149  25.533  1.00  0.00     0.010 A 
ATOM      9  C   UNL A   1      42.649  25.906  26.606  1.00  0.00    -0.014 A 
BRANCH   9  10
ATOM     10  C   UNL A   1      43.117  27.295  26.945  1.00  0.00     0.031 A 
ATOM     11  C   UNL A   1      41.902  28.148  27.182  1.00  0.00     0.074 A 
ATOM     12  C   UNL A   1      44.104  27.488  27.852  1.00  0.00     0.049 A 
ATOM     13  N   UNL A   1      41.213  28.131  28.280  1.00  0.00    -0.248 NA
ATOM     14  C   UNL A   1      41.218  28.807  26.072  1.00  0.00     0.031 C 
ATOM     15  C   UNL A   1      44.125  26.962  29.214  1.00  0.00     0.029 A 
ATOM     16  N   UNL A   1      45.193  28.353  27.810  1.00  0.00    -0.354 N 
ATOM     17  C   UNL A   1      39.994  28.731  28.015  1.00  0.00     0.074 A 
ATOM     18  C   UNL A   1      40.039  29.127  26.628  1.00  0.00     0.031 C 
ATOM     19  C   UNL A   1      45.181  27.465  29.877  1.00  0.00     0.029 A 
ATOM     20  C   UNL A   1      45.791  28.513  29.064  1.00  0.00     0.049 A 
ATOM     21  H   UNL A   1      45.506  28.802  26.992  1.00  0.00     0.167 HD
ATOM     22  C   UNL A   1      39.059  28.903  28.991  1.00  0.00     0.031 A 
ATOM     23  C   UNL A   1      46.233  29.701  29.580  1.00  0.00     0.031 A 
ATOM     24  C   UNL A   1      39.467  28.535  30.329  1.00  0.00     0.049 A 
ATOM     25  C   UNL A   1      45.046  30.137  30.425  1.00  0.00     0.074 A 
ATOM     26  C   UNL A   1      38.958  27.948  31.466  1.00  0.00     0.029 A 
ATOM     27  N   UNL A   1      40.766  28.843  30.629  1.00  0.00    -0.354 N 
ATOM     28  N   UNL A   1      44.700  29.664  31.602  1.00  0.00    -0.248 NA
ATOM     29  C   UNL A   1      43.976  30.888  29.751  1.00  0.00     0.031 C 
ATOM     30  C   UNL A   1      40.000  27.983  32.459  1.00  0.00     0.029 A 
ATOM     31  C   UNL A   1      41.114  28.620  31.920  1.00  0.00     0.049 A 
ATOM     32  H   UNL A   1      41.396  29.198  29.961  1.00  0.00     0.167 HD
ATOM     33  C   UNL A   1      43.304  29.746  31.627  1.00  0.00     0.074 A 
ATOM     34  C   UNL A   1      42.946  30.662  30.561  1.00  0.00     0.031 C 
ATOM     35  C   UNL A   1      42.488  28.885  32.314  1.00  0.00     0.031 A 
BRANCH  22  36
ATOM     36  C   UNL A   1      37.885  29.782  28.773  1.00  0.00    -0.014 A 
ATOM     37  C   UNL A   1      36.632  29.336  28.330  1.00  0.00     0.010 A 
ATOM     38  C   UNL A   1      38.065  31.148  29.061  1.00  0.00     0.010 A 
ATOM     39  C   UNL A   1      35.581  30.252  28.177  1.00  0.00     0.020 A 
ATOM     40  C   UNL A   1      37.026  32.063  28.907  1.00  0.00     0.020 A 
ATOM     41  C   UNL A   1      35.787  31.609  28.463  1.00  0.00     0.054 A 
BRANCH  41  42
ATOM     42  S   UNL A   1      34.416  32.779  28.256  1.00  0.00     0.124 S 
ATOM     43  O   UNL A   1      33.441  31.978  27.519  1.00  0.00    -0.237 OA
ATOM     44  O   UNL A   1      34.059  33.089  29.637  1.00  0.00    -0.237 OA
ATOM     45  O   UNL A   1      35.009  33.882  27.504  1.00  0.00    -0.744 OA
ENDBRANCH  41  42
ENDBRANCH  22  36
BRANCH  23  46
ATOM     46  C   UNL A   1      47.029  30.573  28.663  1.00  0.00    -0.014 A 
ATOM     47  C   UNL A   1      48.174  31.298  29.022  1.00  0.00     0.010 A 
ATOM     48  C   UNL A   1      46.518  30.769  27.359  1.00  0.00     0.010 A 
ATOM     49  C   UNL A   1      48.621  32.362  28.228  1.00  0.00     0.020 A 
ATOM     50  C   UNL A   1      46.979  31.807  26.542  1.00  0.00     0.020 A 
ATOM     51  C   UNL A   1      47.974  32.650  27.026  1.00  0.00     0.054 A 
BRANCH  51  52
ATOM     52  S   UNL A   1      48.342  34.217  26.190  1.00  0.00     0.124 S 
ATOM     53  O   UNL A   1      47.154  34.389  25.356  1.00  0.00    -0.237 OA
ATOM     54  O   UNL A   1      48.474  35.149  27.305  1.00  0.00    -0.237 OA
ATOM     55  O   UNL A   1      49.575  33.938  25.458  1.00  0.00    -0.744 OA
ENDBRANCH  51  52
ENDBRANCH  23  46
BRANCH  35  56
ATOM     56  C   UNL A   1      43.040  28.160  33.495  1.00  0.00    -0.014 A 
ATOM     57  C   UNL A   1      43.408  26.804  33.421  1.00  0.00     0.010 A 
ATOM     58  C   UNL A   1      42.930  28.773  34.753  1.00  0.00     0.010 A 
ATOM     59  C   UNL A   1      43.552  26.050  34.588  1.00  0.00     0.020 A 
ATOM     60  C   UNL A   1      43.081  28.029  35.920  1.00  0.00     0.020 A 
ATOM     61  C   UNL A   1      43.347  26.662  35.828  1.00  0.00     0.054 A 
BRANCH  61  62
ATOM     62  S   UNL A   1      43.310  25.628  37.315  1.00  0.00     0.124 S 
ATOM     63  O   UNL A   1      41.929  25.150  37.325  1.00  0.00    -0.237 OA
ATOM     64  O   UNL A   1      44.322  24.616  37.024  1.00  0.00    -0.237 OA
ATOM     65  O   UNL A   1      43.650  26.553  38.395  1.00  0.00    -0.744 OA
ENDBRANCH  61  62
ENDBRANCH  35  56
ENDBRANCH   9  10
ENDBRANCH   2   4
ENDBRANCH   1   2
BRANCH   1  66
ATOM     66  C   UNL A   1      39.111  21.170  25.755  1.00  0.00     0.275 C 
BRANCH  66  67
ATOM     67  C   UNL A   1      38.009  22.235  25.902  1.00  0.00     0.275 C 
BRANCH  67  68
ATOM     68  O   UNL A   1      37.020  22.137  24.871  1.00  0.00    -0.458 OA
BRANCH  68  69
ATOM     69  C   UNL A   1      35.981  21.289  25.134  1.00  0.00     0.338 C 
ATOM     70  O   UNL A   1      35.975  20.089  25.045  1.00  0.00    -0.246 OA
BRANCH  69  71
ATOM     71  C   UNL A   1      34.932  22.106  25.794  1.00  0.00     0.061 A 
ATOM     72  C   UNL A   1      34.416  21.707  27.021  1.00  0.00     0.018 A 
ATOM     73  C   UNL A   1      34.392  23.198  25.092  1.00  0.00     0.037 A 
ATOM     74  C   UNL A   1      33.325  22.384  27.558  1.00  0.00     0.031 A 
ATOM     75  C   UNL A   1      33.212  23.777  25.596  1.00  0.00     0.057 A 
ATOM     76  C   UNL A   1      32.654  23.369  26.811  1.00  0.00     0.083 A 
ATOM     77  S   UNL A   1      32.186  24.982  24.900  1.00  0.00    -0.102 S 
ATOM     78  N   UNL A   1      31.445  23.951  27.142  1.00  0.00    -0.225 NA
ATOM     79  C   UNL A   1      31.083  24.745  26.171  1.00  0.00     0.184 A 
ATOM     80  Cl  UNL A   1      29.549  25.511  26.135  1.00  0.00    -0.050 Cl
ENDBRANCH  69  71
ENDBRANCH  68  69
ENDBRANCH  67  68
ENDBRANCH  66  67
ENDBRANCH   1  66
TORSDOF 14
ENDMDL
