MODEL 1
REMARK VINA RESULT:      -9.1      0.000      0.000
REMARK SMILES CCN(CC)C(=O)[C@H](C)S[C@H](C)C(=O)OCCOC(=O)c1ccc(-c2c3nc(c(-c4ccc(S(=O)(=O)[O-])cc4)c4ccc([nH]4)c(-c4ccc(S(=O)(=O)[O-])cc4)c4nc(c(-c5ccc(S(=O)(=O)[O-])cc5)c5ccc2[nH]5)C=C4)C=C3)cc1
REMARK SMILES IDX 16 1 15 2 13 3 14 4 11 5 12 6 10 7 8 8 9 9 6 10 3 11 7 12
REMARK SMILES IDX 2 13 1 14 4 15 5 16 17 17 18 18 19 19 20 20 21 21 22 22
REMARK SMILES IDX 80 23 23 24 79 25 24 26 25 27 26 28 73 29 27 30 78 31 72 32
REMARK SMILES IDX 74 33 28 34 77 35 71 36 70 37 29 39 59 40 40 41 58 42 41 43
REMARK SMILES IDX 44 44 57 45 75 46 42 47 43 48 56 50 76 51 45 52 30 53 31 54
REMARK SMILES IDX 39 55 32 56 38 57 33 58 34 59 35 60 36 61 37 62 60 63 61 64
REMARK SMILES IDX 69 65 62 66 68 67 63 68 64 69 65 70 66 71 67 72 46 73 47 74
REMARK SMILES IDX 55 75 48 76 54 77 49 78 50 79 51 80 52 81 53 82
REMARK H PARENT 74 38 44 49
REMARK Flexibility Score: inf
ROOT
ATOM      1  C   UNL A   1      32.024  29.869  25.720  1.00  0.00     0.274 C 
ENDROOT
BRANCH   1   2
ATOM      2  O   UNL A   1      31.801  28.630  25.025  1.00  0.00    -0.461 OA
BRANCH   2   3
ATOM      3  C   UNL A   1      32.749  28.274  24.114  1.00  0.00     0.318 C 
ATOM      4  O   UNL A   1      33.937  28.567  24.191  1.00  0.00    -0.251 OA
BRANCH   3   5
ATOM      5  C   UNL A   1      32.177  27.365  23.029  1.00  0.00     0.154 C 
ATOM      6  C   UNL A   1      33.295  26.734  22.206  1.00  0.00     0.032 C 
BRANCH   5   7
ATOM      7  S   UNL A   1      31.046  26.134  23.770  1.00  0.00    -0.134 SA
BRANCH   7   8
ATOM      8  C   UNL A   1      32.200  24.968  24.637  1.00  0.00     0.133 C 
ATOM      9  C   UNL A   1      32.610  25.378  26.041  1.00  0.00     0.030 C 
BRANCH   8  10
ATOM     10  C   UNL A   1      31.904  23.488  24.303  1.00  0.00     0.235 C 
ATOM     11  N   UNL A   1      32.710  22.705  23.481  1.00  0.00    -0.342 N 
ATOM     12  O   UNL A   1      30.916  22.972  24.851  1.00  0.00    -0.274 OA
BRANCH  11  13
ATOM     13  C   UNL A   1      32.400  21.269  23.416  1.00  0.00     0.116 C 
ATOM     14  C   UNL A   1      33.093  20.457  24.508  1.00  0.00     0.027 C 
ENDBRANCH  11  13
BRANCH  11  15
ATOM     15  C   UNL A   1      33.792  23.161  22.607  1.00  0.00     0.116 C 
ATOM     16  C   UNL A   1      35.146  23.128  23.298  1.00  0.00     0.027 C 
ENDBRANCH  11  15
ENDBRANCH   8  10
ENDBRANCH   7   8
ENDBRANCH   5   7
ENDBRANCH   3   5
ENDBRANCH   2   3
ENDBRANCH   1   2
BRANCH   1  17
ATOM     17  C   UNL A   1      32.411  29.580  27.175  1.00  0.00     0.275 C 
BRANCH  17  18
ATOM     18  O   UNL A   1      33.845  29.510  27.299  1.00  0.00    -0.458 OA
BRANCH  18  19
ATOM     19  C   UNL A   1      34.451  30.481  28.012  1.00  0.00     0.338 C 
ATOM     20  O   UNL A   1      33.984  31.550  28.375  1.00  0.00    -0.246 OA
BRANCH  19  21
ATOM     21  C   UNL A   1      35.823  30.054  28.313  1.00  0.00     0.060 A 
ATOM     22  C   UNL A   1      36.152  29.583  29.588  1.00  0.00     0.016 A 
ATOM     23  C   UNL A   1      36.797  30.171  27.322  1.00  0.00     0.016 A 
ATOM     24  C   UNL A   1      37.471  29.228  29.877  1.00  0.00     0.010 A 
ATOM     25  C   UNL A   1      38.108  29.787  27.606  1.00  0.00     0.010 A 
ATOM     26  C   UNL A   1      38.459  29.321  28.886  1.00  0.00    -0.014 A 
BRANCH  26  27
ATOM     27  C   UNL A   1      39.874  28.959  29.148  1.00  0.00     0.031 A 
ATOM     28  C   UNL A   1      40.838  30.020  29.597  1.00  0.00     0.074 A 
ATOM     29  C   UNL A   1      40.314  27.712  28.892  1.00  0.00     0.049 A 
ATOM     30  N   UNL A   1      42.144  29.987  29.640  1.00  0.00    -0.248 NA
ATOM     31  C   UNL A   1      40.251  31.293  30.044  1.00  0.00     0.031 C 
ATOM     32  C   UNL A   1      39.475  26.581  28.493  1.00  0.00     0.029 A 
ATOM     33  N   UNL A   1      41.587  27.198  28.899  1.00  0.00    -0.354 N 
ATOM     34  C   UNL A   1      42.540  31.244  30.082  1.00  0.00     0.074 A 
ATOM     35  C   UNL A   1      41.334  32.017  30.292  1.00  0.00     0.031 C 
ATOM     36  C   UNL A   1      40.258  25.513  28.271  1.00  0.00     0.029 A 
ATOM     37  C   UNL A   1      41.655  25.898  28.453  1.00  0.00     0.049 A 
ATOM     38  H   UNL A   1      42.374  27.711  29.193  1.00  0.00     0.167 HD
ATOM     39  C   UNL A   1      43.795  31.712  30.283  1.00  0.00     0.031 A 
ATOM     40  C   UNL A   1      42.720  25.122  28.173  1.00  0.00     0.031 A 
ATOM     41  C   UNL A   1      44.988  30.937  30.072  1.00  0.00     0.049 A 
ATOM     42  C   UNL A   1      44.107  25.681  28.343  1.00  0.00     0.074 A 
ATOM     43  C   UNL A   1      46.306  31.318  30.256  1.00  0.00     0.029 A 
ATOM     44  N   UNL A   1      45.008  29.623  29.627  1.00  0.00    -0.354 N 
ATOM     45  N   UNL A   1      44.467  26.875  28.749  1.00  0.00    -0.248 NA
ATOM     46  C   UNL A   1      45.230  24.793  28.012  1.00  0.00     0.031 C 
ATOM     47  C   UNL A   1      47.125  30.246  29.886  1.00  0.00     0.029 A 
ATOM     48  C   UNL A   1      46.316  29.183  29.519  1.00  0.00     0.049 A 
ATOM     49  H   UNL A   1      44.212  29.085  29.420  1.00  0.00     0.167 HD
ATOM     50  C   UNL A   1      45.859  26.871  28.749  1.00  0.00     0.074 A 
ATOM     51  C   UNL A   1      46.275  25.557  28.304  1.00  0.00     0.031 C 
ATOM     52  C   UNL A   1      46.712  27.865  29.092  1.00  0.00     0.031 A 
BRANCH  39  53
ATOM     53  C   UNL A   1      43.941  33.143  30.720  1.00  0.00    -0.014 A 
ATOM     54  C   UNL A   1      43.955  34.194  29.786  1.00  0.00     0.010 A 
ATOM     55  C   UNL A   1      44.032  33.444  32.092  1.00  0.00     0.010 A 
ATOM     56  C   UNL A   1      44.098  35.517  30.214  1.00  0.00     0.020 A 
ATOM     57  C   UNL A   1      44.151  34.768  32.525  1.00  0.00     0.020 A 
ATOM     58  C   UNL A   1      44.202  35.794  31.581  1.00  0.00     0.054 A 
BRANCH  58  59
ATOM     59  S   UNL A   1      44.381  37.520  32.110  1.00  0.00     0.124 S 
ATOM     60  O   UNL A   1      44.138  38.243  30.864  1.00  0.00    -0.237 OA
ATOM     61  O   UNL A   1      43.339  37.654  33.126  1.00  0.00    -0.237 OA
ATOM     62  O   UNL A   1      45.750  37.589  32.615  1.00  0.00    -0.744 OA
ENDBRANCH  58  59
ENDBRANCH  39  53
BRANCH  40  63
ATOM     63  C   UNL A   1      42.514  23.740  27.663  1.00  0.00    -0.014 A 
ATOM     64  C   UNL A   1      42.447  23.494  26.281  1.00  0.00     0.010 A 
ATOM     65  C   UNL A   1      42.404  22.660  28.558  1.00  0.00     0.010 A 
ATOM     66  C   UNL A   1      42.264  22.192  25.802  1.00  0.00     0.020 A 
ATOM     67  C   UNL A   1      42.245  21.355  28.082  1.00  0.00     0.020 A 
ATOM     68  C   UNL A   1      42.166  21.131  26.707  1.00  0.00     0.054 A 
BRANCH  68  69
ATOM     69  S   UNL A   1      41.990  19.444  26.062  1.00  0.00     0.124 S 
ATOM     70  O   UNL A   1      42.837  19.484  24.874  1.00  0.00    -0.237 OA
ATOM     71  O   UNL A   1      42.487  18.627  27.167  1.00  0.00    -0.237 OA
ATOM     72  O   UNL A   1      40.556  19.325  25.806  1.00  0.00    -0.744 OA
ENDBRANCH  68  69
ENDBRANCH  40  63
BRANCH  52  73
ATOM     73  C   UNL A   1      48.186  27.568  29.056  1.00  0.00    -0.014 A 
ATOM     74  C   UNL A   1      48.972  27.908  27.942  1.00  0.00     0.010 A 
ATOM     75  C   UNL A   1      48.807  27.032  30.199  1.00  0.00     0.010 A 
ATOM     76  C   UNL A   1      50.356  27.713  27.971  1.00  0.00     0.020 A 
ATOM     77  C   UNL A   1      50.191  26.854  30.239  1.00  0.00     0.020 A 
ATOM     78  C   UNL A   1      50.957  27.192  29.122  1.00  0.00     0.054 A 
BRANCH  78  79
ATOM     79  S   UNL A   1      52.764  27.031  29.169  1.00  0.00     0.124 S 
ATOM     80  O   UNL A   1      52.989  26.528  30.522  1.00  0.00    -0.237 OA
ATOM     81  O   UNL A   1      53.031  26.078  28.094  1.00  0.00    -0.237 OA
ATOM     82  O   UNL A   1      53.239  28.389  28.921  1.00  0.00    -0.744 OA
ENDBRANCH  78  79
ENDBRANCH  52  73
ENDBRANCH  26  27
ENDBRANCH  19  21
ENDBRANCH  18  19
ENDBRANCH  17  18
ENDBRANCH   1  17
TORSDOF 19
ENDMDL
MODEL 2
REMARK VINA RESULT:      -8.8      2.010      2.651
REMARK SMILES CCN(CC)C(=O)[C@H](C)S[C@H](C)C(=O)OCCOC(=O)c1ccc(-c2c3nc(c(-c4ccc(S(=O)(=O)[O-])cc4)c4ccc([nH]4)c(-c4ccc(S(=O)(=O)[O-])cc4)c4nc(c(-c5ccc(S(=O)(=O)[O-])cc5)c5ccc2[nH]5)C=C4)C=C3)cc1
REMARK SMILES IDX 16 1 15 2 13 3 14 4 11 5 12 6 10 7 8 8 9 9 6 10 3 11 7 12
REMARK SMILES IDX 2 13 1 14 4 15 5 16 17 17 18 18 19 19 20 20 21 21 22 22
REMARK SMILES IDX 80 23 23 24 79 25 24 26 25 27 26 28 73 29 27 30 78 31 72 32
REMARK SMILES IDX 74 33 28 34 77 35 71 36 70 37 29 39 59 40 40 41 58 42 41 43
REMARK SMILES IDX 44 44 57 45 75 46 42 47 43 48 56 50 76 51 45 52 30 53 31 54
REMARK SMILES IDX 39 55 32 56 38 57 33 58 34 59 35 60 36 61 37 62 60 63 61 64
REMARK SMILES IDX 69 65 62 66 68 67 63 68 64 69 65 70 66 71 67 72 46 73 47 74
REMARK SMILES IDX 55 75 48 76 54 77 49 78 50 79 51 80 52 81 53 82
REMARK H PARENT 74 38 44 49
REMARK Flexibility Score: inf
ROOT
ATOM      1  C   UNL A   1      34.346  28.800  26.445  1.00  0.00     0.274 C 
ENDROOT
BRANCH   1   2
ATOM      2  O   UNL A   1      33.050  28.745  25.823  1.00  0.00    -0.461 OA
BRANCH   2   3
ATOM      3  C   UNL A   1      33.038  28.504  24.482  1.00  0.00     0.318 C 
ATOM      4  O   UNL A   1      33.327  29.328  23.622  1.00  0.00    -0.251 OA
BRANCH   3   5
ATOM      5  C   UNL A   1      32.728  27.041  24.174  1.00  0.00     0.154 C 
ATOM      6  C   UNL A   1      33.341  26.627  22.840  1.00  0.00     0.032 C 
BRANCH   5   7
ATOM      7  S   UNL A   1      33.251  25.978  25.567  1.00  0.00    -0.134 SA
BRANCH   7   8
ATOM      8  C   UNL A   1      31.641  25.402  26.286  1.00  0.00     0.133 C 
ATOM      9  C   UNL A   1      30.420  26.217  25.893  1.00  0.00     0.030 C 
BRANCH   8  10
ATOM     10  C   UNL A   1      31.559  23.862  26.391  1.00  0.00     0.235 C 
ATOM     11  N   UNL A   1      31.802  23.001  25.325  1.00  0.00    -0.342 N 
ATOM     12  O   UNL A   1      31.314  23.384  27.511  1.00  0.00    -0.274 OA
BRANCH  11  13
ATOM     13  C   UNL A   1      31.873  21.564  25.631  1.00  0.00     0.116 C 
ATOM     14  C   UNL A   1      32.398  20.728  24.466  1.00  0.00     0.027 C 
ENDBRANCH  11  13
BRANCH  11  15
ATOM     15  C   UNL A   1      31.919  23.354  23.909  1.00  0.00     0.116 C 
ATOM     16  C   UNL A   1      30.606  23.849  23.326  1.00  0.00     0.027 C 
ENDBRANCH  11  15
ENDBRANCH   8  10
ENDBRANCH   7   8
ENDBRANCH   5   7
ENDBRANCH   3   5
ENDBRANCH   2   3
ENDBRANCH   1   2
BRANCH   1  17
ATOM     17  C   UNL A   1      34.407  29.999  27.398  1.00  0.00     0.275 C 
BRANCH  17  18
ATOM     18  O   UNL A   1      35.230  29.681  28.538  1.00  0.00    -0.458 OA
BRANCH  18  19
ATOM     19  C   UNL A   1      36.047  30.650  28.999  1.00  0.00     0.338 C 
ATOM     20  O   UNL A   1      35.741  31.765  29.395  1.00  0.00    -0.246 OA
BRANCH  19  21
ATOM     21  C   UNL A   1      37.429  30.156  28.961  1.00  0.00     0.060 A 
ATOM     22  C   UNL A   1      38.141  29.962  30.148  1.00  0.00     0.016 A 
ATOM     23  C   UNL A   1      38.028  29.927  27.723  1.00  0.00     0.016 A 
ATOM     24  C   UNL A   1      39.472  29.540  30.098  1.00  0.00     0.010 A 
ATOM     25  C   UNL A   1      39.348  29.477  27.677  1.00  0.00     0.010 A 
ATOM     26  C   UNL A   1      40.084  29.288  28.862  1.00  0.00    -0.014 A 
BRANCH  26  27
ATOM     27  C   UNL A   1      41.495  28.842  28.758  1.00  0.00     0.031 A 
ATOM     28  C   UNL A   1      42.600  29.856  28.841  1.00  0.00     0.074 A 
ATOM     29  C   UNL A   1      41.782  27.553  28.495  1.00  0.00     0.049 A 
ATOM     30  N   UNL A   1      43.864  29.732  28.531  1.00  0.00    -0.248 NA
ATOM     31  C   UNL A   1      42.226  31.195  29.327  1.00  0.00     0.031 C 
ATOM     32  C   UNL A   1      40.807  26.462  28.430  1.00  0.00     0.029 A 
ATOM     33  N   UNL A   1      42.979  26.949  28.197  1.00  0.00    -0.354 N 
ATOM     34  C   UNL A   1      44.431  30.982  28.746  1.00  0.00     0.074 A 
ATOM     35  C   UNL A   1      43.371  31.852  29.212  1.00  0.00     0.031 C 
ATOM     36  C   UNL A   1      41.442  25.328  28.092  1.00  0.00     0.029 A 
ATOM     37  C   UNL A   1      42.853  25.622  27.856  1.00  0.00     0.049 A 
ATOM     38  H   UNL A   1      43.842  27.421  28.224  1.00  0.00     0.167 HD
ATOM     39  C   UNL A   1      45.715  31.370  28.561  1.00  0.00     0.031 A 
ATOM     40  C   UNL A   1      43.758  24.755  27.361  1.00  0.00     0.031 A 
ATOM     41  C   UNL A   1      46.761  30.499  28.097  1.00  0.00     0.049 A 
ATOM     42  C   UNL A   1      45.165  25.222  27.103  1.00  0.00     0.074 A 
ATOM     43  C   UNL A   1      48.097  30.795  27.886  1.00  0.00     0.029 A 
ATOM     44  N   UNL A   1      46.590  29.162  27.772  1.00  0.00    -0.354 N 
ATOM     45  N   UNL A   1      45.685  26.409  27.298  1.00  0.00    -0.248 NA
ATOM     46  C   UNL A   1      46.105  24.235  26.552  1.00  0.00     0.031 C 
ATOM     47  C   UNL A   1      48.726  29.645  27.395  1.00  0.00     0.029 A 
ATOM     48  C   UNL A   1      47.792  28.622  27.348  1.00  0.00     0.049 A 
ATOM     49  H   UNL A   1      45.740  28.670  27.833  1.00  0.00     0.167 HD
ATOM     50  C   UNL A   1      47.020  26.305  26.921  1.00  0.00     0.074 A 
ATOM     51  C   UNL A   1      47.228  24.939  26.487  1.00  0.00     0.031 C 
ATOM     52  C   UNL A   1      47.986  27.254  26.938  1.00  0.00     0.031 A 
BRANCH  39  53
ATOM     53  C   UNL A   1      46.051  32.812  28.825  1.00  0.00    -0.014 A 
ATOM     54  C   UNL A   1      45.927  33.786  27.819  1.00  0.00     0.010 A 
ATOM     55  C   UNL A   1      46.465  33.203  30.111  1.00  0.00     0.010 A 
ATOM     56  C   UNL A   1      46.250  35.120  28.084  1.00  0.00     0.020 A 
ATOM     57  C   UNL A   1      46.767  34.540  30.387  1.00  0.00     0.020 A 
ATOM     58  C   UNL A   1      46.675  35.487  29.365  1.00  0.00     0.054 A 
BRANCH  58  59
ATOM     59  S   UNL A   1      47.082  37.226  29.685  1.00  0.00     0.124 S 
ATOM     60  O   UNL A   1      48.272  37.412  28.859  1.00  0.00    -0.237 OA
ATOM     61  O   UNL A   1      45.885  37.926  29.227  1.00  0.00    -0.237 OA
ATOM     62  O   UNL A   1      47.310  37.269  31.128  1.00  0.00    -0.744 OA
ENDBRANCH  58  59
ENDBRANCH  39  53
BRANCH  40  63
ATOM     63  C   UNL A   1      43.347  23.361  27.040  1.00  0.00    -0.014 A 
ATOM     64  C   UNL A   1      43.129  22.973  25.707  1.00  0.00     0.010 A 
ATOM     65  C   UNL A   1      43.192  22.410  28.065  1.00  0.00     0.010 A 
ATOM     66  C   UNL A   1      42.753  21.660  25.405  1.00  0.00     0.020 A 
ATOM     67  C   UNL A   1      42.840  21.091  27.765  1.00  0.00     0.020 A 
ATOM     68  C   UNL A   1      42.613  20.727  26.436  1.00  0.00     0.054 A 
BRANCH  68  69
ATOM     69  S   UNL A   1      42.185  19.014  26.017  1.00  0.00     0.124 S 
ATOM     70  O   UNL A   1      40.742  19.104  25.820  1.00  0.00    -0.237 OA
ATOM     71  O   UNL A   1      42.975  18.775  24.811  1.00  0.00    -0.237 OA
ATOM     72  O   UNL A   1      42.612  18.259  27.192  1.00  0.00    -0.744 OA
ENDBRANCH  68  69
ENDBRANCH  40  63
BRANCH  52  73
ATOM     73  C   UNL A   1      49.375  26.850  26.528  1.00  0.00    -0.014 A 
ATOM     74  C   UNL A   1      50.260  26.250  27.440  1.00  0.00     0.010 A 
ATOM     75  C   UNL A   1      49.760  26.982  25.181  1.00  0.00     0.010 A 
ATOM     76  C   UNL A   1      51.509  25.792  27.011  1.00  0.00     0.020 A 
ATOM     77  C   UNL A   1      50.999  26.508  24.745  1.00  0.00     0.020 A 
ATOM     78  C   UNL A   1      51.868  25.919  25.665  1.00  0.00     0.054 A 
BRANCH  78  79
ATOM     79  S   UNL A   1      53.457  25.239  25.115  1.00  0.00     0.124 S 
ATOM     80  O   UNL A   1      53.501  25.657  23.716  1.00  0.00    -0.237 OA
ATOM     81  O   UNL A   1      54.415  25.900  25.998  1.00  0.00    -0.237 OA
ATOM     82  O   UNL A   1      53.312  23.802  25.331  1.00  0.00    -0.744 OA
ENDBRANCH  78  79
ENDBRANCH  52  73
ENDBRANCH  26  27
ENDBRANCH  19  21
ENDBRANCH  18  19
ENDBRANCH  17  18
ENDBRANCH   1  17
TORSDOF 19
ENDMDL
MODEL 3
REMARK VINA RESULT:      -8.4      2.734      9.191
REMARK SMILES CCN(CC)C(=O)[C@H](C)S[C@H](C)C(=O)OCCOC(=O)c1ccc(-c2c3nc(c(-c4ccc(S(=O)(=O)[O-])cc4)c4ccc([nH]4)c(-c4ccc(S(=O)(=O)[O-])cc4)c4nc(c(-c5ccc(S(=O)(=O)[O-])cc5)c5ccc2[nH]5)C=C4)C=C3)cc1
REMARK SMILES IDX 16 1 15 2 13 3 14 4 11 5 12 6 10 7 8 8 9 9 6 10 3 11 7 12
REMARK SMILES IDX 2 13 1 14 4 15 5 16 17 17 18 18 19 19 20 20 21 21 22 22
REMARK SMILES IDX 80 23 23 24 79 25 24 26 25 27 26 28 73 29 27 30 78 31 72 32
REMARK SMILES IDX 74 33 28 34 77 35 71 36 70 37 29 39 59 40 40 41 58 42 41 43
REMARK SMILES IDX 44 44 57 45 75 46 42 47 43 48 56 50 76 51 45 52 30 53 31 54
REMARK SMILES IDX 39 55 32 56 38 57 33 58 34 59 35 60 36 61 37 62 60 63 61 64
REMARK SMILES IDX 69 65 62 66 68 67 63 68 64 69 65 70 66 71 67 72 46 73 47 74
REMARK SMILES IDX 55 75 48 76 54 77 49 78 50 79 51 80 52 81 53 82
REMARK H PARENT 74 38 44 49
REMARK Flexibility Score: inf
ROOT
ATOM      1  C   UNL A   1      35.027  29.195  27.253  1.00  0.00     0.274 C 
ENDROOT
BRANCH   1   2
ATOM      2  O   UNL A   1      33.777  28.496  27.125  1.00  0.00    -0.461 OA
BRANCH   2   3
ATOM      3  C   UNL A   1      33.132  28.633  25.934  1.00  0.00     0.318 C 
ATOM      4  O   UNL A   1      32.899  29.704  25.385  1.00  0.00    -0.251 OA
BRANCH   3   5
ATOM      5  C   UNL A   1      32.824  27.280  25.299  1.00  0.00     0.154 C 
ATOM      6  C   UNL A   1      33.872  26.244  25.696  1.00  0.00     0.032 C 
BRANCH   5   7
ATOM      7  S   UNL A   1      31.116  26.767  25.701  1.00  0.00    -0.134 SA
BRANCH   7   8
ATOM      8  C   UNL A   1      30.392  26.369  24.041  1.00  0.00     0.133 C 
ATOM      9  C   UNL A   1      30.559  24.930  23.583  1.00  0.00     0.030 C 
BRANCH   8  10
ATOM     10  C   UNL A   1      29.075  27.133  23.772  1.00  0.00     0.235 C 
ATOM     11  N   UNL A   1      29.023  28.461  23.357  1.00  0.00    -0.342 N 
ATOM     12  O   UNL A   1      28.017  26.493  23.887  1.00  0.00    -0.274 OA
BRANCH  11  13
ATOM     13  C   UNL A   1      27.707  28.984  22.960  1.00  0.00     0.116 C 
ATOM     14  C   UNL A   1      27.552  30.480  23.227  1.00  0.00     0.027 C 
ENDBRANCH  11  13
BRANCH  11  15
ATOM     15  C   UNL A   1      30.122  29.429  23.342  1.00  0.00     0.116 C 
ATOM     16  C   UNL A   1      30.920  29.376  22.050  1.00  0.00     0.027 C 
ENDBRANCH  11  15
ENDBRANCH   8  10
ENDBRANCH   7   8
ENDBRANCH   5   7
ENDBRANCH   3   5
ENDBRANCH   2   3
ENDBRANCH   1   2
BRANCH   1  17
ATOM     17  C   UNL A   1      34.886  30.316  28.289  1.00  0.00     0.275 C 
BRANCH  17  18
ATOM     18  O   UNL A   1      36.186  30.701  28.779  1.00  0.00    -0.458 OA
BRANCH  18  19
ATOM     19  C   UNL A   1      36.820  29.835  29.595  1.00  0.00     0.338 C 
ATOM     20  O   UNL A   1      36.388  29.302  30.607  1.00  0.00    -0.246 OA
BRANCH  19  21
ATOM     21  C   UNL A   1      38.173  29.604  29.075  1.00  0.00     0.060 A 
ATOM     22  C   UNL A   1      38.410  29.620  27.697  1.00  0.00     0.016 A 
ATOM     23  C   UNL A   1      39.201  29.324  29.974  1.00  0.00     0.016 A 
ATOM     24  C   UNL A   1      39.692  29.349  27.211  1.00  0.00     0.010 A 
ATOM     25  C   UNL A   1      40.486  29.083  29.486  1.00  0.00     0.010 A 
ATOM     26  C   UNL A   1      40.741  29.085  28.102  1.00  0.00    -0.014 A 
BRANCH  26  27
ATOM     27  C   UNL A   1      42.117  28.787  27.633  1.00  0.00     0.031 A 
ATOM     28  C   UNL A   1      42.503  27.368  27.325  1.00  0.00     0.074 A 
ATOM     29  C   UNL A   1      43.041  29.765  27.575  1.00  0.00     0.049 A 
ATOM     30  N   UNL A   1      43.692  26.854  27.149  1.00  0.00    -0.248 NA
ATOM     31  C   UNL A   1      41.403  26.397  27.216  1.00  0.00     0.031 C 
ATOM     32  C   UNL A   1      42.786  31.188  27.807  1.00  0.00     0.029 A 
ATOM     33  N   UNL A   1      44.392  29.702  27.335  1.00  0.00    -0.354 N 
ATOM     34  C   UNL A   1      43.489  25.494  26.945  1.00  0.00     0.074 A 
ATOM     35  C   UNL A   1      42.061  25.264  27.022  1.00  0.00     0.031 C 
ATOM     36  C   UNL A   1      43.946  31.860  27.720  1.00  0.00     0.029 A 
ATOM     37  C   UNL A   1      45.031  30.910  27.488  1.00  0.00     0.049 A 
ATOM     38  H   UNL A   1      44.856  28.873  27.080  1.00  0.00     0.167 HD
ATOM     39  C   UNL A   1      44.410  24.526  26.725  1.00  0.00     0.031 A 
ATOM     40  C   UNL A   1      46.345  31.212  27.492  1.00  0.00     0.031 A 
ATOM     41  C   UNL A   1      45.827  24.764  26.650  1.00  0.00     0.049 A 
ATOM     42  C   UNL A   1      47.356  30.113  27.309  1.00  0.00     0.074 A 
ATOM     43  C   UNL A   1      46.842  23.850  26.422  1.00  0.00     0.029 A 
ATOM     44  N   UNL A   1      46.429  26.004  26.803  1.00  0.00    -0.354 N 
ATOM     45  N   UNL A   1      47.152  28.830  27.130  1.00  0.00    -0.248 NA
ATOM     46  C   UNL A   1      48.774  30.500  27.333  1.00  0.00     0.031 C 
ATOM     47  C   UNL A   1      48.062  24.533  26.476  1.00  0.00     0.029 A 
ATOM     48  C   UNL A   1      47.803  25.878  26.688  1.00  0.00     0.049 A 
ATOM     49  H   UNL A   1      45.951  26.847  26.969  1.00  0.00     0.167 HD
ATOM     50  C   UNL A   1      48.414  28.261  26.993  1.00  0.00     0.074 A 
ATOM     51  C   UNL A   1      49.375  29.338  27.108  1.00  0.00     0.031 C 
ATOM     52  C   UNL A   1      48.745  26.964  26.786  1.00  0.00     0.031 A 
BRANCH  39  53
ATOM     53  C   UNL A   1      43.915  23.113  26.588  1.00  0.00    -0.014 A 
ATOM     54  C   UNL A   1      43.050  22.547  27.540  1.00  0.00     0.010 A 
ATOM     55  C   UNL A   1      44.297  22.350  25.468  1.00  0.00     0.010 A 
ATOM     56  C   UNL A   1      42.606  21.229  27.395  1.00  0.00     0.020 A 
ATOM     57  C   UNL A   1      43.836  21.040  25.308  1.00  0.00     0.020 A 
ATOM     58  C   UNL A   1      43.008  20.482  26.284  1.00  0.00     0.054 A 
BRANCH  58  59
ATOM     59  S   UNL A   1      42.413  18.776  26.117  1.00  0.00     0.124 S 
ATOM     60  O   UNL A   1      41.018  18.982  25.733  1.00  0.00    -0.237 OA
ATOM     61  O   UNL A   1      43.278  18.235  25.072  1.00  0.00    -0.237 OA
ATOM     62  O   UNL A   1      42.617  18.206  27.447  1.00  0.00    -0.744 OA
ENDBRANCH  58  59
ENDBRANCH  39  53
BRANCH  40  63
ATOM     63  C   UNL A   1      46.779  32.617  27.717  1.00  0.00    -0.014 A 
ATOM     64  C   UNL A   1      46.922  33.500  26.633  1.00  0.00     0.010 A 
ATOM     65  C   UNL A   1      47.034  33.084  29.020  1.00  0.00     0.010 A 
ATOM     66  C   UNL A   1      47.321  34.824  26.847  1.00  0.00     0.020 A 
ATOM     67  C   UNL A   1      47.408  34.413  29.239  1.00  0.00     0.020 A 
ATOM     68  C   UNL A   1      47.559  35.272  28.149  1.00  0.00     0.054 A 
BRANCH  68  69
ATOM     69  S   UNL A   1      48.016  37.009  28.409  1.00  0.00     0.124 S 
ATOM     70  O   UNL A   1      46.738  37.604  28.784  1.00  0.00    -0.237 OA
ATOM     71  O   UNL A   1      49.011  36.920  29.475  1.00  0.00    -0.237 OA
ATOM     72  O   UNL A   1      48.541  37.420  27.109  1.00  0.00    -0.744 OA
ENDBRANCH  68  69
ENDBRANCH  40  63
BRANCH  52  73
ATOM     73  C   UNL A   1      50.200  26.630  26.614  1.00  0.00    -0.014 A 
ATOM     74  C   UNL A   1      50.810  26.656  25.348  1.00  0.00     0.010 A 
ATOM     75  C   UNL A   1      50.989  26.386  27.753  1.00  0.00     0.010 A 
ATOM     76  C   UNL A   1      52.186  26.439  25.225  1.00  0.00     0.020 A 
ATOM     77  C   UNL A   1      52.366  26.188  27.637  1.00  0.00     0.020 A 
ATOM     78  C   UNL A   1      52.956  26.212  26.371  1.00  0.00     0.054 A 
BRANCH  78  79
ATOM     79  S   UNL A   1      54.752  26.021  26.196  1.00  0.00     0.124 S 
ATOM     80  O   UNL A   1      55.228  27.381  26.438  1.00  0.00    -0.237 OA
ATOM     81  O   UNL A   1      55.076  25.048  27.236  1.00  0.00    -0.237 OA
ATOM     82  O   UNL A   1      54.916  25.537  24.828  1.00  0.00    -0.744 OA
ENDBRANCH  78  79
ENDBRANCH  52  73
ENDBRANCH  26  27
ENDBRANCH  19  21
ENDBRANCH  18  19
ENDBRANCH  17  18
ENDBRANCH   1  17
TORSDOF 19
ENDMDL
