MODEL 1
REMARK VINA RESULT:     -10.2      0.000      0.000
REMARK SMILES C[C@]([NH2+]Cc1nc(-c2ccsc2)no1)(C(=O)OCCOC(=O)c1ccc(-c2c3nc(c(-c4ccc(S(=O)(=O)[O-])cc4)c4ccc([nH]4)c(-c4ccc(S(=O)(=O)[O-])cc4)c4nc(c(-c5ccc(S(=O)(=O)[O-])cc5)c5ccc2[nH]5)C=C4)C=C3)cc1)C(F)(F)F
REMARK SMILES IDX 18 1 17 2 15 3 16 4 2 5 1 6 83 7 84 8 85 9 86 10 3 11 4 14
REMARK SMILES IDX 5 15 6 16 14 17 7 18 13 19 8 20 9 21 12 22 10 23 11 24 19 25
REMARK SMILES IDX 20 26 21 27 22 28 23 29 24 30 82 31 25 32 81 33 26 34 27 35
REMARK SMILES IDX 28 36 75 37 29 38 80 39 74 40 76 41 30 42 79 43 73 44 72 45
REMARK SMILES IDX 31 47 61 48 42 49 60 50 43 51 46 52 59 53 77 54 44 55 45 56
REMARK SMILES IDX 58 58 78 59 47 60 32 61 33 62 41 63 34 64 40 65 35 66 36 67
REMARK SMILES IDX 37 68 38 69 39 70 62 71 63 72 71 73 64 74 70 75 65 76 66 77
REMARK SMILES IDX 67 78 68 79 69 80 48 81 49 82 57 83 50 84 56 85 51 86 52 87
REMARK SMILES IDX 53 88 54 89 55 90
REMARK H PARENT 3 12 3 13 76 46 46 57
REMARK Flexibility Score: inf
ROOT
ATOM      1  C   UNL A   1      32.931  28.222  26.370  1.00  0.00     0.274 C 
ENDROOT
BRANCH   1   2
ATOM      2  O   UNL A   1      31.793  28.003  25.505  1.00  0.00    -0.457 OA
BRANCH   2   3
ATOM      3  C   UNL A   1      31.925  28.385  24.202  1.00  0.00     0.377 C 
ATOM      4  O   UNL A   1      32.765  29.198  23.835  1.00  0.00    -0.244 OA
BRANCH   3   5
ATOM      5  C   UNL A   1      30.834  27.814  23.283  1.00  0.00     0.287 C 
ATOM      6  C   UNL A   1      29.950  26.899  24.143  1.00  0.00     0.103 C 
BRANCH   5   7
ATOM      7  C   UNL A   1      29.969  29.021  22.830  1.00  0.00     0.455 C 
ATOM      8  F   UNL A   1      30.464  29.574  21.697  1.00  0.00    -0.164 F 
ATOM      9  F   UNL A   1      28.703  28.621  22.540  1.00  0.00    -0.164 F 
ATOM     10  F   UNL A   1      29.859  29.996  23.753  1.00  0.00    -0.164 F 
ENDBRANCH   5   7
BRANCH   5  11
ATOM     11  N   UNL A   1      31.365  27.123  22.070  1.00  0.00    -0.317 N 
ATOM     12  H   UNL A   1      31.106  27.700  21.271  1.00  0.00     0.347 HD
ATOM     13  H   UNL A   1      30.955  26.192  22.146  1.00  0.00     0.347 HD
BRANCH  11  14
ATOM     14  C   UNL A   1      32.785  26.837  21.931  1.00  0.00     0.363 C 
BRANCH  14  15
ATOM     15  C   UNL A   1      33.062  25.425  22.346  1.00  0.00     0.282 A 
ATOM     16  N   UNL A   1      33.035  24.875  23.542  1.00  0.00    -0.186 NA
ATOM     17  O   UNL A   1      33.514  24.579  21.373  1.00  0.00    -0.333 OA
ATOM     18  C   UNL A   1      33.586  23.646  23.304  1.00  0.00     0.203 A 
ATOM     19  N   UNL A   1      33.870  23.391  22.018  1.00  0.00    -0.057 NA
BRANCH  18  20
ATOM     20  C   UNL A   1      33.915  22.754  24.418  1.00  0.00     0.033 A 
ATOM     21  C   UNL A   1      35.013  21.842  24.386  1.00  0.00     0.024 A 
ATOM     22  C   UNL A   1      33.198  22.654  25.591  1.00  0.00     0.077 A 
ATOM     23  C   UNL A   1      35.093  21.086  25.536  1.00  0.00     0.065 A 
ATOM     24  S   UNL A   1      33.843  21.468  26.644  1.00  0.00    -0.152 S 
ENDBRANCH  18  20
ENDBRANCH  14  15
ENDBRANCH  11  14
ENDBRANCH   5  11
ENDBRANCH   3   5
ENDBRANCH   2   3
ENDBRANCH   1   2
BRANCH   1  25
ATOM     25  C   UNL A   1      32.807  29.528  27.154  1.00  0.00     0.275 C 
BRANCH  25  26
ATOM     26  O   UNL A   1      33.906  30.405  26.860  1.00  0.00    -0.458 OA
BRANCH  26  27
ATOM     27  C   UNL A   1      34.532  30.911  27.944  1.00  0.00     0.338 C 
ATOM     28  O   UNL A   1      34.090  31.731  28.737  1.00  0.00    -0.246 OA
BRANCH  27  29
ATOM     29  C   UNL A   1      35.814  30.225  28.136  1.00  0.00     0.060 A 
ATOM     30  C   UNL A   1      36.079  29.705  29.398  1.00  0.00     0.016 A 
ATOM     31  C   UNL A   1      36.802  30.234  27.153  1.00  0.00     0.016 A 
ATOM     32  C   UNL A   1      37.366  29.304  29.730  1.00  0.00     0.010 A 
ATOM     33  C   UNL A   1      38.075  29.733  27.462  1.00  0.00     0.010 A 
ATOM     34  C   UNL A   1      38.383  29.306  28.767  1.00  0.00    -0.014 A 
BRANCH  34  35
ATOM     35  C   UNL A   1      39.767  28.913  29.155  1.00  0.00     0.031 A 
ATOM     36  C   UNL A   1      40.605  29.831  30.009  1.00  0.00     0.074 A 
ATOM     37  C   UNL A   1      40.259  27.711  28.797  1.00  0.00     0.049 A 
ATOM     38  N   UNL A   1      41.868  29.726  30.337  1.00  0.00    -0.248 NA
ATOM     39  C   UNL A   1      39.942  31.025  30.558  1.00  0.00     0.031 C 
ATOM     40  C   UNL A   1      39.542  26.693  28.023  1.00  0.00     0.029 A 
ATOM     41  N   UNL A   1      41.474  27.126  29.060  1.00  0.00    -0.354 N 
ATOM     42  C   UNL A   1      42.166  30.868  31.074  1.00  0.00     0.074 A 
ATOM     43  C   UNL A   1      40.950  31.648  31.152  1.00  0.00     0.031 C 
ATOM     44  C   UNL A   1      40.304  25.593  27.927  1.00  0.00     0.029 A 
ATOM     45  C   UNL A   1      41.595  25.853  28.555  1.00  0.00     0.049 A 
ATOM     46  H   UNL A   1      42.190  27.576  29.562  1.00  0.00     0.167 HD
ATOM     47  C   UNL A   1      43.346  31.235  31.628  1.00  0.00     0.031 A 
ATOM     48  C   UNL A   1      42.634  24.997  28.565  1.00  0.00     0.031 A 
ATOM     49  C   UNL A   1      44.543  30.437  31.595  1.00  0.00     0.049 A 
ATOM     50  C   UNL A   1      43.933  25.425  29.184  1.00  0.00     0.074 A 
ATOM     51  C   UNL A   1      45.795  30.735  32.107  1.00  0.00     0.029 A 
ATOM     52  N   UNL A   1      44.628  29.167  31.045  1.00  0.00    -0.354 N 
ATOM     53  N   UNL A   1      44.222  26.552  29.788  1.00  0.00    -0.248 NA
ATOM     54  C   UNL A   1      45.050  24.476  29.102  1.00  0.00     0.031 C 
ATOM     55  C   UNL A   1      46.643  29.651  31.847  1.00  0.00     0.029 A 
ATOM     56  C   UNL A   1      45.910  28.668  31.204  1.00  0.00     0.049 A 
ATOM     57  H   UNL A   1      43.887  28.691  30.605  1.00  0.00     0.167 HD
ATOM     58  C   UNL A   1      45.559  26.451  30.150  1.00  0.00     0.074 A 
ATOM     59  C   UNL A   1      46.012  25.142  29.726  1.00  0.00     0.031 C 
ATOM     60  C   UNL A   1      46.345  27.366  30.768  1.00  0.00     0.031 A 
BRANCH  47  61
ATOM     61  C   UNL A   1      43.411  32.592  32.277  1.00  0.00    -0.014 A 
ATOM     62  C   UNL A   1      43.164  32.762  33.650  1.00  0.00     0.010 A 
ATOM     63  C   UNL A   1      43.745  33.712  31.494  1.00  0.00     0.010 A 
ATOM     64  C   UNL A   1      43.210  34.037  34.222  1.00  0.00     0.020 A 
ATOM     65  C   UNL A   1      43.811  34.985  32.066  1.00  0.00     0.020 A 
ATOM     66  C   UNL A   1      43.524  35.142  33.423  1.00  0.00     0.054 A 
BRANCH  66  67
ATOM     67  S   UNL A   1      43.584  36.789  34.182  1.00  0.00     0.124 S 
ATOM     68  O   UNL A   1      43.852  37.642  33.026  1.00  0.00    -0.237 OA
ATOM     69  O   UNL A   1      42.254  36.928  34.769  1.00  0.00    -0.237 OA
ATOM     70  O   UNL A   1      44.676  36.684  35.146  1.00  0.00    -0.744 OA
ENDBRANCH  66  67
ENDBRANCH  47  61
BRANCH  48  71
ATOM     71  C   UNL A   1      42.497  23.664  27.920  1.00  0.00    -0.014 A 
ATOM     72  C   UNL A   1      42.901  23.468  26.589  1.00  0.00     0.010 A 
ATOM     73  C   UNL A   1      41.987  22.574  28.650  1.00  0.00     0.010 A 
ATOM     74  C   UNL A   1      42.797  22.205  25.997  1.00  0.00     0.020 A 
ATOM     75  C   UNL A   1      41.903  21.307  28.071  1.00  0.00     0.020 A 
ATOM     76  C   UNL A   1      42.300  21.132  26.743  1.00  0.00     0.054 A 
BRANCH  76  77
ATOM     77  S   UNL A   1      42.241  19.480  25.993  1.00  0.00     0.124 S 
ATOM     78  O   UNL A   1      40.824  19.343  25.675  1.00  0.00    -0.237 OA
ATOM     79  O   UNL A   1      43.138  19.613  24.848  1.00  0.00    -0.237 OA
ATOM     80  O   UNL A   1      42.734  18.610  27.059  1.00  0.00    -0.744 OA
ENDBRANCH  76  77
ENDBRANCH  48  71
BRANCH  60  81
ATOM     81  C   UNL A   1      47.771  26.976  31.026  1.00  0.00    -0.014 A 
ATOM     82  C   UNL A   1      48.116  26.237  32.171  1.00  0.00     0.010 A 
ATOM     83  C   UNL A   1      48.771  27.324  30.101  1.00  0.00     0.010 A 
ATOM     84  C   UNL A   1      49.446  25.876  32.401  1.00  0.00     0.020 A 
ATOM     85  C   UNL A   1      50.098  26.949  30.320  1.00  0.00     0.020 A 
ATOM     86  C   UNL A   1      50.430  26.240  31.477  1.00  0.00     0.054 A 
BRANCH  86  87
ATOM     87  S   UNL A   1      52.146  25.733  31.776  1.00  0.00     0.124 S 
ATOM     88  O   UNL A   1      52.559  26.665  32.821  1.00  0.00    -0.237 OA
ATOM     89  O   UNL A   1      52.008  24.340  32.194  1.00  0.00    -0.237 OA
ATOM     90  O   UNL A   1      52.792  25.925  30.478  1.00  0.00    -0.744 OA
ENDBRANCH  86  87
ENDBRANCH  60  81
ENDBRANCH  34  35
ENDBRANCH  27  29
ENDBRANCH  26  27
ENDBRANCH  25  26
ENDBRANCH   1  25
TORSDOF 19
ENDMDL
MODEL 2
REMARK VINA RESULT:     -10.2      3.578      9.461
REMARK SMILES C[C@]([NH2+]Cc1nc(-c2ccsc2)no1)(C(=O)OCCOC(=O)c1ccc(-c2c3nc(c(-c4ccc(S(=O)(=O)[O-])cc4)c4ccc([nH]4)c(-c4ccc(S(=O)(=O)[O-])cc4)c4nc(c(-c5ccc(S(=O)(=O)[O-])cc5)c5ccc2[nH]5)C=C4)C=C3)cc1)C(F)(F)F
REMARK SMILES IDX 18 1 17 2 15 3 16 4 2 5 1 6 83 7 84 8 85 9 86 10 3 11 4 14
REMARK SMILES IDX 5 15 6 16 14 17 7 18 13 19 8 20 9 21 12 22 10 23 11 24 19 25
REMARK SMILES IDX 20 26 21 27 22 28 23 29 24 30 82 31 25 32 81 33 26 34 27 35
REMARK SMILES IDX 28 36 75 37 29 38 80 39 74 40 76 41 30 42 79 43 73 44 72 45
REMARK SMILES IDX 31 47 61 48 42 49 60 50 43 51 46 52 59 53 77 54 44 55 45 56
REMARK SMILES IDX 58 58 78 59 47 60 32 61 33 62 41 63 34 64 40 65 35 66 36 67
REMARK SMILES IDX 37 68 38 69 39 70 62 71 63 72 71 73 64 74 70 75 65 76 66 77
REMARK SMILES IDX 67 78 68 79 69 80 48 81 49 82 57 83 50 84 56 85 51 86 52 87
REMARK SMILES IDX 53 88 54 89 55 90
REMARK H PARENT 3 12 3 13 76 46 46 57
REMARK Flexibility Score: inf
ROOT
ATOM      1  C   UNL A   1      35.206  23.561  24.338  1.00  0.00     0.274 C 
ENDROOT
BRANCH   1   2
ATOM      2  O   UNL A   1      34.732  22.240  23.988  1.00  0.00    -0.457 OA
BRANCH   2   3
ATOM      3  C   UNL A   1      34.300  21.449  25.012  1.00  0.00     0.377 C 
ATOM      4  O   UNL A   1      35.031  21.105  25.934  1.00  0.00    -0.244 OA
BRANCH   3   5
ATOM      5  C   UNL A   1      32.872  20.918  24.815  1.00  0.00     0.287 C 
ATOM      6  C   UNL A   1      32.404  21.381  23.427  1.00  0.00     0.103 C 
BRANCH   5   7
ATOM      7  C   UNL A   1      32.979  19.370  24.789  1.00  0.00     0.455 C 
ATOM      8  F   UNL A   1      34.220  18.978  24.412  1.00  0.00    -0.164 F 
ATOM      9  F   UNL A   1      32.775  18.854  26.029  1.00  0.00    -0.164 F 
ATOM     10  F   UNL A   1      32.090  18.771  23.974  1.00  0.00    -0.164 F 
ENDBRANCH   5   7
BRANCH   5  11
ATOM     11  N   UNL A   1      31.924  21.315  25.900  1.00  0.00    -0.317 N 
ATOM     12  H   UNL A   1      31.871  20.524  26.541  1.00  0.00     0.347 HD
ATOM     13  H   UNL A   1      31.084  21.572  25.381  1.00  0.00     0.347 HD
BRANCH  11  14
ATOM     14  C   UNL A   1      32.169  22.495  26.716  1.00  0.00     0.363 C 
BRANCH  14  15
ATOM     15  C   UNL A   1      31.249  23.601  26.299  1.00  0.00     0.282 A 
ATOM     16  N   UNL A   1      31.298  24.389  25.246  1.00  0.00    -0.186 NA
ATOM     17  O   UNL A   1      30.257  23.934  27.178  1.00  0.00    -0.333 OA
ATOM     18  C   UNL A   1      30.336  25.315  25.537  1.00  0.00     0.203 A 
ATOM     19  N   UNL A   1      29.652  25.086  26.668  1.00  0.00    -0.057 NA
BRANCH  18  20
ATOM     20  C   UNL A   1      30.175  26.504  24.698  1.00  0.00     0.033 A 
ATOM     21  C   UNL A   1      31.098  27.593  24.706  1.00  0.00     0.024 A 
ATOM     22  C   UNL A   1      29.116  26.736  23.846  1.00  0.00     0.077 A 
ATOM     23  C   UNL A   1      30.709  28.609  23.859  1.00  0.00     0.065 A 
ATOM     24  S   UNL A   1      29.233  28.255  23.065  1.00  0.00    -0.152 S 
ENDBRANCH  18  20
ENDBRANCH  14  15
ENDBRANCH  11  14
ENDBRANCH   5  11
ENDBRANCH   3   5
ENDBRANCH   2   3
ENDBRANCH   1   2
BRANCH   1  25
ATOM     25  C   UNL A   1      36.731  23.613  24.429  1.00  0.00     0.275 C 
BRANCH  25  26
ATOM     26  O   UNL A   1      37.151  23.893  25.774  1.00  0.00    -0.458 OA
BRANCH  26  27
ATOM     27  C   UNL A   1      38.353  23.378  26.111  1.00  0.00     0.338 C 
ATOM     28  O   UNL A   1      38.796  22.278  25.809  1.00  0.00    -0.246 OA
BRANCH  27  29
ATOM     29  C   UNL A   1      39.148  24.398  26.800  1.00  0.00     0.060 A 
ATOM     30  C   UNL A   1      38.937  24.560  28.166  1.00  0.00     0.016 A 
ATOM     31  C   UNL A   1      39.961  25.288  26.101  1.00  0.00     0.016 A 
ATOM     32  C   UNL A   1      39.433  25.680  28.820  1.00  0.00     0.010 A 
ATOM     33  C   UNL A   1      40.544  26.363  26.788  1.00  0.00     0.010 A 
ATOM     34  C   UNL A   1      40.249  26.596  28.144  1.00  0.00    -0.014 A 
BRANCH  34  35
ATOM     35  C   UNL A   1      40.734  27.814  28.852  1.00  0.00     0.031 A 
ATOM     36  C   UNL A   1      42.172  27.913  29.294  1.00  0.00     0.074 A 
ATOM     37  C   UNL A   1      39.908  28.860  29.051  1.00  0.00     0.049 A 
ATOM     38  N   UNL A   1      42.745  28.827  30.035  1.00  0.00    -0.248 NA
ATOM     39  C   UNL A   1      43.083  26.843  28.855  1.00  0.00     0.031 C 
ATOM     40  C   UNL A   1      38.507  28.931  28.624  1.00  0.00     0.029 A 
ATOM     41  N   UNL A   1      40.132  30.079  29.641  1.00  0.00    -0.354 N 
ATOM     42  C   UNL A   1      44.062  28.411  30.204  1.00  0.00     0.074 A 
ATOM     43  C   UNL A   1      44.206  27.166  29.480  1.00  0.00     0.031 C 
ATOM     44  C   UNL A   1      38.020  30.148  28.912  1.00  0.00     0.029 A 
ATOM     45  C   UNL A   1      39.040  30.914  29.619  1.00  0.00     0.049 A 
ATOM     46  H   UNL A   1      40.995  30.331  30.043  1.00  0.00     0.167 HD
ATOM     47  C   UNL A   1      45.057  29.008  30.902  1.00  0.00     0.031 A 
ATOM     48  C   UNL A   1      38.862  32.145  30.134  1.00  0.00     0.031 A 
ATOM     49  C   UNL A   1      44.930  30.271  31.579  1.00  0.00     0.049 A 
ATOM     50  C   UNL A   1      39.979  32.787  30.904  1.00  0.00     0.074 A 
ATOM     51  C   UNL A   1      45.875  30.945  32.334  1.00  0.00     0.029 A 
ATOM     52  N   UNL A   1      43.795  31.067  31.556  1.00  0.00    -0.354 N 
ATOM     53  N   UNL A   1      41.185  32.330  31.137  1.00  0.00    -0.248 NA
ATOM     54  C   UNL A   1      39.701  34.100  31.502  1.00  0.00     0.031 C 
ATOM     55  C   UNL A   1      45.303  32.141  32.785  1.00  0.00     0.029 A 
ATOM     56  C   UNL A   1      44.015  32.225  32.284  1.00  0.00     0.049 A 
ATOM     57  H   UNL A   1      42.957  30.841  31.092  1.00  0.00     0.167 HD
ATOM     58  C   UNL A   1      41.809  33.296  31.916  1.00  0.00     0.074 A 
ATOM     59  C   UNL A   1      40.858  34.375  32.090  1.00  0.00     0.031 C 
ATOM     60  C   UNL A   1      43.053  33.284  32.452  1.00  0.00     0.031 A 
BRANCH  47  61
ATOM     61  C   UNL A   1      46.363  28.268  31.010  1.00  0.00    -0.014 A 
ATOM     62  C   UNL A   1      47.436  28.541  30.143  1.00  0.00     0.010 A 
ATOM     63  C   UNL A   1      46.521  27.295  32.015  1.00  0.00     0.010 A 
ATOM     64  C   UNL A   1      48.631  27.823  30.254  1.00  0.00     0.020 A 
ATOM     65  C   UNL A   1      47.720  26.590  32.140  1.00  0.00     0.020 A 
ATOM     66  C   UNL A   1      48.761  26.844  31.245  1.00  0.00     0.054 A 
BRANCH  66  67
ATOM     67  S   UNL A   1      50.320  25.925  31.377  1.00  0.00     0.124 S 
ATOM     68  O   UNL A   1      51.301  26.948  31.020  1.00  0.00    -0.237 OA
ATOM     69  O   UNL A   1      50.335  25.502  32.774  1.00  0.00    -0.237 OA
ATOM     70  O   UNL A   1      50.166  24.844  30.406  1.00  0.00    -0.744 OA
ENDBRANCH  66  67
ENDBRANCH  47  61
BRANCH  48  71
ATOM     71  C   UNL A   1      37.550  32.827  29.975  1.00  0.00    -0.014 A 
ATOM     72  C   UNL A   1      37.288  33.619  28.845  1.00  0.00     0.010 A 
ATOM     73  C   UNL A   1      36.544  32.660  30.946  1.00  0.00     0.010 A 
ATOM     74  C   UNL A   1      36.042  34.234  28.688  1.00  0.00     0.020 A 
ATOM     75  C   UNL A   1      35.292  33.252  30.780  1.00  0.00     0.020 A 
ATOM     76  C   UNL A   1      35.051  34.045  29.655  1.00  0.00     0.054 A 
BRANCH  76  77
ATOM     77  S   UNL A   1      33.411  34.782  29.405  1.00  0.00     0.124 S 
ATOM     78  O   UNL A   1      33.744  36.048  28.760  1.00  0.00    -0.237 OA
ATOM     79  O   UNL A   1      32.739  33.798  28.559  1.00  0.00    -0.237 OA
ATOM     80  O   UNL A   1      32.880  34.888  30.762  1.00  0.00    -0.744 OA
ENDBRANCH  76  77
ENDBRANCH  48  71
BRANCH  60  81
ATOM     81  C   UNL A   1      43.456  34.478  33.267  1.00  0.00    -0.014 A 
ATOM     82  C   UNL A   1      43.911  35.652  32.642  1.00  0.00     0.010 A 
ATOM     83  C   UNL A   1      43.349  34.438  34.668  1.00  0.00     0.010 A 
ATOM     84  C   UNL A   1      44.280  36.760  33.409  1.00  0.00     0.020 A 
ATOM     85  C   UNL A   1      43.702  35.550  35.436  1.00  0.00     0.020 A 
ATOM     86  C   UNL A   1      44.180  36.700  34.802  1.00  0.00     0.054 A 
BRANCH  86  87
ATOM     87  S   UNL A   1      44.632  38.159  35.780  1.00  0.00     0.124 S 
ATOM     88  O   UNL A   1      43.676  38.093  36.882  1.00  0.00    -0.237 OA
ATOM     89  O   UNL A   1      46.023  37.894  36.138  1.00  0.00    -0.237 OA
ATOM     90  O   UNL A   1      44.437  39.270  34.850  1.00  0.00    -0.744 OA
ENDBRANCH  86  87
ENDBRANCH  60  81
ENDBRANCH  34  35
ENDBRANCH  27  29
ENDBRANCH  26  27
ENDBRANCH  25  26
ENDBRANCH   1  25
TORSDOF 19
ENDMDL
MODEL 3
REMARK VINA RESULT:      -9.9      1.259      1.984
REMARK SMILES C[C@]([NH2+]Cc1nc(-c2ccsc2)no1)(C(=O)OCCOC(=O)c1ccc(-c2c3nc(c(-c4ccc(S(=O)(=O)[O-])cc4)c4ccc([nH]4)c(-c4ccc(S(=O)(=O)[O-])cc4)c4nc(c(-c5ccc(S(=O)(=O)[O-])cc5)c5ccc2[nH]5)C=C4)C=C3)cc1)C(F)(F)F
REMARK SMILES IDX 18 1 17 2 15 3 16 4 2 5 1 6 83 7 84 8 85 9 86 10 3 11 4 14
REMARK SMILES IDX 5 15 6 16 14 17 7 18 13 19 8 20 9 21 12 22 10 23 11 24 19 25
REMARK SMILES IDX 20 26 21 27 22 28 23 29 24 30 82 31 25 32 81 33 26 34 27 35
REMARK SMILES IDX 28 36 75 37 29 38 80 39 74 40 76 41 30 42 79 43 73 44 72 45
REMARK SMILES IDX 31 47 61 48 42 49 60 50 43 51 46 52 59 53 77 54 44 55 45 56
REMARK SMILES IDX 58 58 78 59 47 60 32 61 33 62 41 63 34 64 40 65 35 66 36 67
REMARK SMILES IDX 37 68 38 69 39 70 62 71 63 72 71 73 64 74 70 75 65 76 66 77
REMARK SMILES IDX 67 78 68 79 69 80 48 81 49 82 57 83 50 84 56 85 51 86 52 87
REMARK SMILES IDX 53 88 54 89 55 90
REMARK H PARENT 3 12 3 13 76 46 46 57
REMARK Flexibility Score: inf
ROOT
ATOM      1  C   UNL A   1      31.841  29.060  27.097  1.00  0.00     0.274 C 
ENDROOT
BRANCH   1   2
ATOM      2  O   UNL A   1      31.244  28.712  25.827  1.00  0.00    -0.457 OA
BRANCH   2   3
ATOM      3  C   UNL A   1      31.859  27.731  25.104  1.00  0.00     0.377 C 
ATOM      4  O   UNL A   1      33.038  27.437  25.261  1.00  0.00    -0.244 OA
BRANCH   3   5
ATOM      5  C   UNL A   1      30.977  27.148  23.989  1.00  0.00     0.287 C 
ATOM      6  C   UNL A   1      29.923  28.211  23.642  1.00  0.00     0.103 C 
BRANCH   5   7
ATOM      7  C   UNL A   1      31.897  26.971  22.752  1.00  0.00     0.455 C 
ATOM      8  F   UNL A   1      32.655  28.075  22.549  1.00  0.00    -0.164 F 
ATOM      9  F   UNL A   1      32.764  25.942  22.942  1.00  0.00    -0.164 F 
ATOM     10  F   UNL A   1      31.236  26.706  21.608  1.00  0.00    -0.164 F 
ENDBRANCH   5   7
BRANCH   5  11
ATOM     11  N   UNL A   1      30.368  25.827  24.327  1.00  0.00    -0.317 N 
ATOM     12  H   UNL A   1      30.953  25.117  23.888  1.00  0.00     0.347 HD
ATOM     13  H   UNL A   1      29.408  25.932  23.997  1.00  0.00     0.347 HD
BRANCH  11  14
ATOM     14  C   UNL A   1      30.187  25.418  25.712  1.00  0.00     0.363 C 
BRANCH  14  15
ATOM     15  C   UNL A   1      31.258  24.446  26.099  1.00  0.00     0.282 A 
ATOM     16  N   UNL A   1      32.224  23.921  25.375  1.00  0.00    -0.186 NA
ATOM     17  O   UNL A   1      31.188  23.929  27.362  1.00  0.00    -0.333 OA
ATOM     18  C   UNL A   1      32.720  22.961  26.213  1.00  0.00     0.203 A 
ATOM     19  N   UNL A   1      32.163  22.930  27.433  1.00  0.00    -0.057 NA
BRANCH  18  20
ATOM     20  C   UNL A   1      33.713  21.999  25.731  1.00  0.00     0.033 A 
ATOM     21  C   UNL A   1      33.361  20.739  25.157  1.00  0.00     0.024 A 
ATOM     22  C   UNL A   1      35.080  22.164  25.807  1.00  0.00     0.077 A 
ATOM     23  C   UNL A   1      34.472  19.997  24.816  1.00  0.00     0.065 A 
ATOM     24  S   UNL A   1      35.931  20.811  25.194  1.00  0.00    -0.152 S 
ENDBRANCH  18  20
ENDBRANCH  14  15
ENDBRANCH  11  14
ENDBRANCH   5  11
ENDBRANCH   3   5
ENDBRANCH   2   3
ENDBRANCH   1   2
BRANCH   1  25
ATOM     25  C   UNL A   1      32.566  30.405  27.034  1.00  0.00     0.275 C 
BRANCH  25  26
ATOM     26  O   UNL A   1      33.990  30.214  26.998  1.00  0.00    -0.458 OA
BRANCH  26  27
ATOM     27  C   UNL A   1      34.664  30.795  28.014  1.00  0.00     0.338 C 
ATOM     28  O   UNL A   1      34.247  31.647  28.786  1.00  0.00    -0.246 OA
BRANCH  27  29
ATOM     29  C   UNL A   1      35.973  30.152  28.165  1.00  0.00     0.060 A 
ATOM     30  C   UNL A   1      36.281  29.612  29.410  1.00  0.00     0.016 A 
ATOM     31  C   UNL A   1      36.941  30.220  27.165  1.00  0.00     0.016 A 
ATOM     32  C   UNL A   1      37.588  29.250  29.708  1.00  0.00     0.010 A 
ATOM     33  C   UNL A   1      38.237  29.759  27.438  1.00  0.00     0.010 A 
ATOM     34  C   UNL A   1      38.585  29.312  28.726  1.00  0.00    -0.014 A 
BRANCH  34  35
ATOM     35  C   UNL A   1      39.990  28.961  29.079  1.00  0.00     0.031 A 
ATOM     36  C   UNL A   1      40.838  29.926  29.870  1.00  0.00     0.074 A 
ATOM     37  C   UNL A   1      40.494  27.756  28.747  1.00  0.00     0.049 A 
ATOM     38  N   UNL A   1      42.113  29.858  30.156  1.00  0.00    -0.248 NA
ATOM     39  C   UNL A   1      40.169  31.126  30.398  1.00  0.00     0.031 C 
ATOM     40  C   UNL A   1      39.772  26.697  28.035  1.00  0.00     0.029 A 
ATOM     41  N   UNL A   1      41.729  27.205  28.987  1.00  0.00    -0.354 N 
ATOM     42  C   UNL A   1      42.413  31.031  30.840  1.00  0.00     0.074 A 
ATOM     43  C   UNL A   1      41.184  31.790  30.933  1.00  0.00     0.031 C 
ATOM     44  C   UNL A   1      40.553  25.610  27.952  1.00  0.00     0.029 A 
ATOM     45  C   UNL A   1      41.859  25.917  28.524  1.00  0.00     0.049 A 
ATOM     46  H   UNL A   1      42.453  27.688  29.448  1.00  0.00     0.167 HD
ATOM     47  C   UNL A   1      43.604  31.441  31.339  1.00  0.00     0.031 A 
ATOM     48  C   UNL A   1      42.916  25.083  28.528  1.00  0.00     0.031 A 
ATOM     49  C   UNL A   1      44.815  30.666  31.293  1.00  0.00     0.049 A 
ATOM     50  C   UNL A   1      44.226  25.559  29.085  1.00  0.00     0.074 A 
ATOM     51  C   UNL A   1      46.077  31.006  31.748  1.00  0.00     0.029 A 
ATOM     52  N   UNL A   1      44.907  29.379  30.785  1.00  0.00    -0.354 N 
ATOM     53  N   UNL A   1      44.512  26.713  29.637  1.00  0.00    -0.248 NA
ATOM     54  C   UNL A   1      45.359  24.629  28.997  1.00  0.00     0.031 C 
ATOM     55  C   UNL A   1      46.938  29.931  31.498  1.00  0.00     0.029 A 
ATOM     56  C   UNL A   1      46.204  28.911  30.916  1.00  0.00     0.049 A 
ATOM     57  H   UNL A   1      44.161  28.873  30.389  1.00  0.00     0.167 HD
ATOM     58  C   UNL A   1      45.863  26.651  29.956  1.00  0.00     0.074 A 
ATOM     59  C   UNL A   1      46.328  25.336  29.563  1.00  0.00     0.031 C 
ATOM     60  C   UNL A   1      46.650  27.603  30.512  1.00  0.00     0.031 A 
BRANCH  47  61
ATOM     61  C   UNL A   1      43.662  32.821  31.936  1.00  0.00    -0.014 A 
ATOM     62  C   UNL A   1      43.900  33.956  31.140  1.00  0.00     0.010 A 
ATOM     63  C   UNL A   1      43.456  32.982  33.319  1.00  0.00     0.010 A 
ATOM     64  C   UNL A   1      43.971  35.224  31.725  1.00  0.00     0.020 A 
ATOM     65  C   UNL A   1      43.507  34.250  33.903  1.00  0.00     0.020 A 
ATOM     66  C   UNL A   1      43.784  35.361  33.105  1.00  0.00     0.054 A 
BRANCH  66  67
ATOM     67  S   UNL A   1      43.875  37.015  33.846  1.00  0.00     0.124 S 
ATOM     68  O   UNL A   1      44.983  36.861  34.787  1.00  0.00    -0.237 OA
ATOM     69  O   UNL A   1      44.143  37.875  32.697  1.00  0.00    -0.237 OA
ATOM     70  O   UNL A   1      42.559  37.192  34.456  1.00  0.00    -0.744 OA
ENDBRANCH  66  67
ENDBRANCH  47  61
BRANCH  48  71
ATOM     71  C   UNL A   1      42.784  23.725  27.936  1.00  0.00    -0.014 A 
ATOM     72  C   UNL A   1      42.282  22.657  28.700  1.00  0.00     0.010 A 
ATOM     73  C   UNL A   1      43.133  23.502  26.591  1.00  0.00     0.010 A 
ATOM     74  C   UNL A   1      42.133  21.390  28.129  1.00  0.00     0.020 A 
ATOM     75  C   UNL A   1      42.963  22.244  26.011  1.00  0.00     0.020 A 
ATOM     76  C   UNL A   1      42.472  21.191  26.788  1.00  0.00     0.054 A 
BRANCH  76  77
ATOM     77  S   UNL A   1      42.202  19.563  26.033  1.00  0.00     0.124 S 
ATOM     78  O   UNL A   1      43.062  19.628  24.857  1.00  0.00    -0.237 OA
ATOM     79  O   UNL A   1      42.634  18.644  27.084  1.00  0.00    -0.237 OA
ATOM     80  O   UNL A   1      40.766  19.552  25.764  1.00  0.00    -0.744 OA
ENDBRANCH  76  77
ENDBRANCH  48  71
BRANCH  60  81
ATOM     81  C   UNL A   1      48.093  27.250  30.733  1.00  0.00    -0.014 A 
ATOM     82  C   UNL A   1      48.487  26.526  31.871  1.00  0.00     0.010 A 
ATOM     83  C   UNL A   1      49.058  27.619  29.780  1.00  0.00     0.010 A 
ATOM     84  C   UNL A   1      49.831  26.199  32.067  1.00  0.00     0.020 A 
ATOM     85  C   UNL A   1      50.400  27.280  29.966  1.00  0.00     0.020 A 
ATOM     86  C   UNL A   1      50.780  26.584  31.116  1.00  0.00     0.054 A 
BRANCH  86  87
ATOM     87  S   UNL A   1      52.517  26.123  31.370  1.00  0.00     0.124 S 
ATOM     88  O   UNL A   1      52.392  24.806  31.988  1.00  0.00    -0.237 OA
ATOM     89  O   UNL A   1      53.059  26.132  30.014  1.00  0.00    -0.237 OA
ATOM     90  O   UNL A   1      53.028  27.177  32.244  1.00  0.00    -0.744 OA
ENDBRANCH  86  87
ENDBRANCH  60  81
ENDBRANCH  34  35
ENDBRANCH  27  29
ENDBRANCH  26  27
ENDBRANCH  25  26
ENDBRANCH   1  25
TORSDOF 19
ENDMDL
