MODEL 1
REMARK VINA RESULT:     -11.1      0.000      0.000
REMARK SMILES Cc1cc(C(=O)OCCOC(=O)c2ccc(-c3c4nc(c(-c5ccc(S(=O)(=O)[O-])cc5)c5ccc([nH]5)c(-c5ccc(S(=O)(=O)[O-])cc5)c5nc(c(-c6ccc(S(=O)(=O)[O-])cc6)c6ccc3[nH]6)C=C5)C=C4)cc2)nn1[C@H]1CCS(=O)(=O)C1
REMARK SMILES IDX 9 1 8 2 7 3 5 4 6 5 4 6 1 7 2 8 3 9 74 10 73 11 75 12 76 13
REMARK SMILES IDX 81 14 77 15 78 16 79 17 80 18 10 19 11 20 12 21 13 22 14 23
REMARK SMILES IDX 72 24 15 25 71 26 16 27 17 28 18 29 65 30 19 31 70 32 64 33
REMARK SMILES IDX 66 34 20 35 69 36 63 37 62 38 21 40 51 41 32 42 50 43 33 44
REMARK SMILES IDX 36 45 49 46 67 47 34 48 35 49 48 51 68 52 37 53 22 54 23 55
REMARK SMILES IDX 31 56 24 57 30 58 25 59 26 60 27 61 28 62 29 63 52 64 53 65
REMARK SMILES IDX 61 66 54 67 60 68 55 69 56 70 57 71 58 72 59 73 38 74 39 75
REMARK SMILES IDX 47 76 40 77 46 78 41 79 42 80 43 81 44 82 45 83
REMARK H PARENT 66 39 36 50
REMARK Flexibility Score: inf
ROOT
ATOM      1  C   UNL A   1      33.373  33.636  27.934  1.00  0.00     0.275 C 
ENDROOT
BRANCH   1   2
ATOM      2  C   UNL A   1      33.461  34.820  28.885  1.00  0.00     0.275 C 
BRANCH   2   3
ATOM      3  O   UNL A   1      33.255  34.406  30.245  1.00  0.00    -0.457 OA
BRANCH   3   4
ATOM      4  C   UNL A   1      33.778  35.218  31.230  1.00  0.00     0.358 C 
ATOM      5  O   UNL A   1      33.400  36.353  31.445  1.00  0.00    -0.244 OA
BRANCH   4   6
ATOM      6  C   UNL A   1      34.818  34.506  32.000  1.00  0.00     0.170 A 
ATOM      7  C   UNL A   1      36.873  31.596  32.883  1.00  0.00     0.066 C 
ATOM      8  C   UNL A   1      36.162  32.893  32.773  1.00  0.00     0.037 A 
ATOM      9  C   UNL A   1      35.080  33.122  31.953  1.00  0.00     0.061 A 
ATOM     10  N   UNL A   1      36.418  34.101  33.384  1.00  0.00    -0.265 N 
ATOM     11  N   UNL A   1      35.660  35.102  32.865  1.00  0.00    -0.165 NA
BRANCH  10  12
ATOM     12  C   UNL A   1      37.389  34.512  34.388  1.00  0.00     0.123 C 
ATOM     13  C   UNL A   1      37.448  33.578  35.617  1.00  0.00     0.044 C 
ATOM     14  C   UNL A   1      38.837  34.642  33.951  1.00  0.00     0.164 C 
ATOM     15  C   UNL A   1      38.581  34.079  36.521  1.00  0.00     0.139 C 
ATOM     16  S   UNL A   1      39.714  34.956  35.454  1.00  0.00     0.152 S 
ATOM     17  O   UNL A   1      39.629  36.375  35.728  1.00  0.00    -0.229 OA
ATOM     18  O   UNL A   1      40.982  34.260  35.393  1.00  0.00    -0.229 OA
ENDBRANCH  10  12
ENDBRANCH   4   6
ENDBRANCH   3   4
ENDBRANCH   2   3
ENDBRANCH   1   2
BRANCH   1  19
ATOM     19  O   UNL A   1      34.632  32.977  27.836  1.00  0.00    -0.458 OA
BRANCH  19  20
ATOM     20  C   UNL A   1      34.583  31.626  27.862  1.00  0.00     0.338 C 
ATOM     21  O   UNL A   1      33.660  30.919  27.487  1.00  0.00    -0.246 OA
BRANCH  20  22
ATOM     22  C   UNL A   1      35.729  31.128  28.625  1.00  0.00     0.060 A 
ATOM     23  C   UNL A   1      36.695  32.057  29.027  1.00  0.00     0.016 A 
ATOM     24  C   UNL A   1      35.964  29.746  28.664  1.00  0.00     0.016 A 
ATOM     25  C   UNL A   1      37.965  31.601  29.310  1.00  0.00     0.010 A 
ATOM     26  C   UNL A   1      37.234  29.298  28.917  1.00  0.00     0.010 A 
ATOM     27  C   UNL A   1      38.234  30.236  29.168  1.00  0.00    -0.014 A 
BRANCH  27  28
ATOM     28  C   UNL A   1      39.583  29.764  29.385  1.00  0.00     0.031 A 
ATOM     29  C   UNL A   1      39.909  29.575  30.816  1.00  0.00     0.074 A 
ATOM     30  C   UNL A   1      40.366  29.358  28.368  1.00  0.00     0.049 A 
ATOM     31  N   UNL A   1      40.755  30.235  31.534  1.00  0.00    -0.248 NA
ATOM     32  C   UNL A   1      39.052  28.656  31.586  1.00  0.00     0.031 C 
ATOM     33  C   UNL A   1      39.998  29.200  26.957  1.00  0.00     0.029 A 
ATOM     34  N   UNL A   1      41.629  28.864  28.412  1.00  0.00    -0.354 N 
ATOM     35  C   UNL A   1      40.703  29.646  32.793  1.00  0.00     0.074 A 
ATOM     36  C   UNL A   1      39.496  28.863  32.823  1.00  0.00     0.031 C 
ATOM     37  C   UNL A   1      40.923  28.428  26.343  1.00  0.00     0.029 A 
ATOM     38  C   UNL A   1      42.002  28.152  27.278  1.00  0.00     0.049 A 
ATOM     39  H   UNL A   1      42.230  28.998  29.181  1.00  0.00     0.167 HD
ATOM     40  C   UNL A   1      41.799  29.594  33.598  1.00  0.00     0.031 A 
ATOM     41  C   UNL A   1      43.075  27.329  27.163  1.00  0.00     0.031 A 
ATOM     42  C   UNL A   1      42.808  30.535  33.180  1.00  0.00     0.049 A 
ATOM     43  C   UNL A   1      44.007  27.663  28.270  1.00  0.00     0.074 A 
ATOM     44  C   UNL A   1      42.848  31.904  33.005  1.00  0.00     0.029 A 
ATOM     45  N   UNL A   1      43.883  30.030  32.486  1.00  0.00    -0.354 N 
ATOM     46  N   UNL A   1      44.636  28.802  28.363  1.00  0.00    -0.248 NA
ATOM     47  C   UNL A   1      43.894  26.914  29.512  1.00  0.00     0.031 C 
ATOM     48  C   UNL A   1      43.660  32.105  31.851  1.00  0.00     0.029 A 
ATOM     49  C   UNL A   1      44.122  30.860  31.422  1.00  0.00     0.049 A 
ATOM     50  H   UNL A   1      44.390  29.217  32.714  1.00  0.00     0.167 HD
ATOM     51  C   UNL A   1      44.617  29.112  29.717  1.00  0.00     0.074 A 
ATOM     52  C   UNL A   1      44.240  27.867  30.383  1.00  0.00     0.031 C 
ATOM     53  C   UNL A   1      44.631  30.409  30.144  1.00  0.00     0.031 A 
BRANCH  40  54
ATOM     54  C   UNL A   1      42.130  28.382  34.446  1.00  0.00    -0.014 A 
ATOM     55  C   UNL A   1      42.489  28.584  35.794  1.00  0.00     0.010 A 
ATOM     56  C   UNL A   1      42.392  27.105  33.906  1.00  0.00     0.010 A 
ATOM     57  C   UNL A   1      43.179  27.602  36.516  1.00  0.00     0.020 A 
ATOM     58  C   UNL A   1      43.034  26.103  34.630  1.00  0.00     0.020 A 
ATOM     59  C   UNL A   1      43.468  26.376  35.917  1.00  0.00     0.054 A 
BRANCH  59  60
ATOM     60  S   UNL A   1      44.486  25.171  36.799  1.00  0.00     0.124 S 
ATOM     61  O   UNL A   1      44.051  25.369  38.178  1.00  0.00    -0.237 OA
ATOM     62  O   UNL A   1      44.080  23.914  36.177  1.00  0.00    -0.237 OA
ATOM     63  O   UNL A   1      45.851  25.598  36.501  1.00  0.00    -0.744 OA
ENDBRANCH  59  60
ENDBRANCH  40  54
BRANCH  41  64
ATOM     64  C   UNL A   1      43.187  26.071  26.380  1.00  0.00    -0.014 A 
ATOM     65  C   UNL A   1      44.227  25.887  25.450  1.00  0.00     0.010 A 
ATOM     66  C   UNL A   1      42.435  24.936  26.751  1.00  0.00     0.010 A 
ATOM     67  C   UNL A   1      44.545  24.608  24.961  1.00  0.00     0.020 A 
ATOM     68  C   UNL A   1      42.740  23.660  26.261  1.00  0.00     0.020 A 
ATOM     69  C   UNL A   1      43.811  23.498  25.386  1.00  0.00     0.054 A 
BRANCH  69  70
ATOM     70  S   UNL A   1      44.339  21.829  24.894  1.00  0.00     0.124 S 
ATOM     71  O   UNL A   1      45.560  21.648  25.672  1.00  0.00    -0.237 OA
ATOM     72  O   UNL A   1      43.204  21.004  25.298  1.00  0.00    -0.237 OA
ATOM     73  O   UNL A   1      44.536  21.942  23.450  1.00  0.00    -0.744 OA
ENDBRANCH  69  70
ENDBRANCH  41  64
BRANCH  53  74
ATOM     74  C   UNL A   1      44.979  31.492  29.146  1.00  0.00    -0.014 A 
ATOM     75  C   UNL A   1      46.296  31.905  28.863  1.00  0.00     0.010 A 
ATOM     76  C   UNL A   1      43.934  31.996  28.353  1.00  0.00     0.010 A 
ATOM     77  C   UNL A   1      46.554  32.817  27.828  1.00  0.00     0.020 A 
ATOM     78  C   UNL A   1      44.184  32.891  27.311  1.00  0.00     0.020 A 
ATOM     79  C   UNL A   1      45.492  33.304  27.058  1.00  0.00     0.054 A 
BRANCH  79  80
ATOM     80  S   UNL A   1      45.832  34.444  25.687  1.00  0.00     0.124 S 
ATOM     81  O   UNL A   1      47.262  34.254  25.462  1.00  0.00    -0.237 OA
ATOM     82  O   UNL A   1      44.957  33.948  24.627  1.00  0.00    -0.237 OA
ATOM     83  O   UNL A   1      45.460  35.754  26.222  1.00  0.00    -0.744 OA
ENDBRANCH  79  80
ENDBRANCH  53  74
ENDBRANCH  27  28
ENDBRANCH  20  22
ENDBRANCH  19  20
ENDBRANCH   1  19
TORSDOF 15
ENDMDL
MODEL 2
REMARK VINA RESULT:     -10.5      4.456     11.410
REMARK SMILES Cc1cc(C(=O)OCCOC(=O)c2ccc(-c3c4nc(c(-c5ccc(S(=O)(=O)[O-])cc5)c5ccc([nH]5)c(-c5ccc(S(=O)(=O)[O-])cc5)c5nc(c(-c6ccc(S(=O)(=O)[O-])cc6)c6ccc3[nH]6)C=C5)C=C4)cc2)nn1[C@H]1CCS(=O)(=O)C1
REMARK SMILES IDX 9 1 8 2 7 3 5 4 6 5 4 6 1 7 2 8 3 9 74 10 73 11 75 12 76 13
REMARK SMILES IDX 81 14 77 15 78 16 79 17 80 18 10 19 11 20 12 21 13 22 14 23
REMARK SMILES IDX 72 24 15 25 71 26 16 27 17 28 18 29 65 30 19 31 70 32 64 33
REMARK SMILES IDX 66 34 20 35 69 36 63 37 62 38 21 40 51 41 32 42 50 43 33 44
REMARK SMILES IDX 36 45 49 46 67 47 34 48 35 49 48 51 68 52 37 53 22 54 23 55
REMARK SMILES IDX 31 56 24 57 30 58 25 59 26 60 27 61 28 62 29 63 52 64 53 65
REMARK SMILES IDX 61 66 54 67 60 68 55 69 56 70 57 71 58 72 59 73 38 74 39 75
REMARK SMILES IDX 47 76 40 77 46 78 41 79 42 80 43 81 44 82 45 83
REMARK H PARENT 66 39 36 50
REMARK Flexibility Score: inf
ROOT
ATOM      1  C   UNL A   1      37.835  21.346  25.417  1.00  0.00     0.275 C 
ENDROOT
BRANCH   1   2
ATOM      2  C   UNL A   1      36.338  21.295  25.680  1.00  0.00     0.275 C 
BRANCH   2   3
ATOM      3  O   UNL A   1      35.637  20.733  24.560  1.00  0.00    -0.457 OA
BRANCH   3   4
ATOM      4  C   UNL A   1      34.343  20.307  24.783  1.00  0.00     0.358 C 
ATOM      5  O   UNL A   1      34.019  19.139  24.865  1.00  0.00    -0.244 OA
BRANCH   4   6
ATOM      6  C   UNL A   1      33.432  21.459  24.944  1.00  0.00     0.170 A 
ATOM      7  C   UNL A   1      30.635  23.278  26.474  1.00  0.00     0.066 C 
ATOM      8  C   UNL A   1      31.760  22.764  25.654  1.00  0.00     0.037 A 
ATOM      9  C   UNL A   1      32.273  21.489  25.745  1.00  0.00     0.061 A 
ATOM     10  N   UNL A   1      32.532  23.401  24.708  1.00  0.00    -0.265 N 
ATOM     11  N   UNL A   1      33.596  22.645  24.328  1.00  0.00    -0.165 NA
BRANCH  10  12
ATOM     12  C   UNL A   1      32.477  24.734  24.124  1.00  0.00     0.123 C 
ATOM     13  C   UNL A   1      33.468  25.735  24.759  1.00  0.00     0.044 C 
ATOM     14  C   UNL A   1      32.731  24.856  22.632  1.00  0.00     0.164 C 
ATOM     15  C   UNL A   1      33.366  27.045  23.970  1.00  0.00     0.139 C 
ATOM     16  S   UNL A   1      32.775  26.600  22.344  1.00  0.00     0.152 S 
ATOM     17  O   UNL A   1      31.411  27.058  22.188  1.00  0.00    -0.229 OA
ATOM     18  O   UNL A   1      33.795  26.870  21.352  1.00  0.00    -0.229 OA
ENDBRANCH  10  12
ENDBRANCH   4   6
ENDBRANCH   3   4
ENDBRANCH   2   3
ENDBRANCH   1   2
BRANCH   1  19
ATOM     19  O   UNL A   1      38.396  22.547  25.941  1.00  0.00    -0.458 OA
BRANCH  19  20
ATOM     20  C   UNL A   1      39.552  22.395  26.626  1.00  0.00     0.338 C 
ATOM     21  O   UNL A   1      39.985  21.363  27.114  1.00  0.00    -0.246 OA
BRANCH  20  22
ATOM     22  C   UNL A   1      40.117  23.719  26.892  1.00  0.00     0.060 A 
ATOM     23  C   UNL A   1      41.307  23.783  27.626  1.00  0.00     0.016 A 
ATOM     24  C   UNL A   1      39.318  24.850  26.672  1.00  0.00     0.016 A 
ATOM     25  C   UNL A   1      41.608  24.955  28.285  1.00  0.00     0.010 A 
ATOM     26  C   UNL A   1      39.604  26.005  27.352  1.00  0.00     0.010 A 
ATOM     27  C   UNL A   1      40.706  26.021  28.204  1.00  0.00    -0.014 A 
BRANCH  27  28
ATOM     28  C   UNL A   1      40.977  27.224  28.958  1.00  0.00     0.031 A 
ATOM     29  C   UNL A   1      42.060  28.045  28.373  1.00  0.00     0.074 A 
ATOM     30  C   UNL A   1      40.180  27.626  29.965  1.00  0.00     0.049 A 
ATOM     31  N   UNL A   1      43.227  28.293  28.866  1.00  0.00    -0.248 NA
ATOM     32  C   UNL A   1      41.885  28.495  26.980  1.00  0.00     0.031 C 
ATOM     33  C   UNL A   1      38.901  27.044  30.387  1.00  0.00     0.029 A 
ATOM     34  N   UNL A   1      40.280  28.736  30.739  1.00  0.00    -0.354 N 
ATOM     35  C   UNL A   1      43.842  29.132  27.943  1.00  0.00     0.074 A 
ATOM     36  C   UNL A   1      43.079  29.025  26.727  1.00  0.00     0.031 C 
ATOM     37  C   UNL A   1      38.242  27.938  31.159  1.00  0.00     0.029 A 
ATOM     38  C   UNL A   1      39.102  29.087  31.387  1.00  0.00     0.049 A 
ATOM     39  H   UNL A   1      41.116  29.248  30.833  1.00  0.00     0.167 HD
ATOM     40  C   UNL A   1      44.737  30.081  28.333  1.00  0.00     0.031 A 
ATOM     41  C   UNL A   1      38.839  30.277  31.987  1.00  0.00     0.031 A 
ATOM     42  C   UNL A   1      45.237  29.823  29.660  1.00  0.00     0.049 A 
ATOM     43  C   UNL A   1      40.142  30.948  32.223  1.00  0.00     0.074 A 
ATOM     44  C   UNL A   1      45.901  28.772  30.262  1.00  0.00     0.029 A 
ATOM     45  N   UNL A   1      44.712  30.578  30.683  1.00  0.00    -0.354 N 
ATOM     46  N   UNL A   1      41.044  30.501  33.052  1.00  0.00    -0.248 NA
ATOM     47  C   UNL A   1      40.635  31.866  31.207  1.00  0.00     0.031 C 
ATOM     48  C   UNL A   1      45.355  28.694  31.576  1.00  0.00     0.029 A 
ATOM     49  C   UNL A   1      44.438  29.735  31.728  1.00  0.00     0.049 A 
ATOM     50  H   UNL A   1      44.561  31.551  30.667  1.00  0.00     0.167 HD
ATOM     51  C   UNL A   1      42.258  30.727  32.417  1.00  0.00     0.074 A 
ATOM     52  C   UNL A   1      41.950  31.661  31.336  1.00  0.00     0.031 C 
ATOM     53  C   UNL A   1      43.337  29.922  32.650  1.00  0.00     0.031 A 
BRANCH  40  54
ATOM     54  C   UNL A   1      44.784  31.461  27.709  1.00  0.00    -0.014 A 
ATOM     55  C   UNL A   1      45.949  31.844  27.014  1.00  0.00     0.010 A 
ATOM     56  C   UNL A   1      43.871  32.489  28.028  1.00  0.00     0.010 A 
ATOM     57  C   UNL A   1      46.235  33.192  26.763  1.00  0.00     0.020 A 
ATOM     58  C   UNL A   1      44.123  33.829  27.741  1.00  0.00     0.020 A 
ATOM     59  C   UNL A   1      45.327  34.177  27.152  1.00  0.00     0.054 A 
BRANCH  59  60
ATOM     60  S   UNL A   1      45.767  35.919  26.962  1.00  0.00     0.124 S 
ATOM     61  O   UNL A   1      44.460  36.563  27.038  1.00  0.00    -0.237 OA
ATOM     62  O   UNL A   1      46.652  36.138  28.102  1.00  0.00    -0.237 OA
ATOM     63  O   UNL A   1      46.417  35.965  25.655  1.00  0.00    -0.744 OA
ENDBRANCH  59  60
ENDBRANCH  40  54
BRANCH  41  64
ATOM     64  C   UNL A   1      37.545  31.003  32.056  1.00  0.00    -0.014 A 
ATOM     65  C   UNL A   1      37.079  31.538  33.271  1.00  0.00     0.010 A 
ATOM     66  C   UNL A   1      36.899  31.416  30.871  1.00  0.00     0.010 A 
ATOM     67  C   UNL A   1      36.052  32.498  33.295  1.00  0.00     0.020 A 
ATOM     68  C   UNL A   1      35.871  32.365  30.887  1.00  0.00     0.020 A 
ATOM     69  C   UNL A   1      35.468  32.921  32.099  1.00  0.00     0.054 A 
BRANCH  69  70
ATOM     70  S   UNL A   1      34.273  34.292  32.118  1.00  0.00     0.124 S 
ATOM     71  O   UNL A   1      35.088  35.409  32.582  1.00  0.00    -0.237 OA
ATOM     72  O   UNL A   1      33.842  34.359  30.724  1.00  0.00    -0.237 OA
ATOM     73  O   UNL A   1      33.248  33.841  33.058  1.00  0.00    -0.744 OA
ENDBRANCH  69  70
ENDBRANCH  41  64
BRANCH  53  74
ATOM     74  C   UNL A   1      43.289  28.978  33.831  1.00  0.00    -0.014 A 
ATOM     75  C   UNL A   1      43.713  29.323  35.130  1.00  0.00     0.010 A 
ATOM     76  C   UNL A   1      42.640  27.745  33.643  1.00  0.00     0.010 A 
ATOM     77  C   UNL A   1      43.513  28.443  36.205  1.00  0.00     0.020 A 
ATOM     78  C   UNL A   1      42.422  26.873  34.711  1.00  0.00     0.020 A 
ATOM     79  C   UNL A   1      42.867  27.222  35.987  1.00  0.00     0.054 A 
BRANCH  79  80
ATOM     80  S   UNL A   1      42.563  26.109  37.387  1.00  0.00     0.124 S 
ATOM     81  O   UNL A   1      42.859  24.796  36.822  1.00  0.00    -0.237 OA
ATOM     82  O   UNL A   1      43.507  26.588  38.395  1.00  0.00    -0.237 OA
ATOM     83  O   UNL A   1      41.155  26.337  37.715  1.00  0.00    -0.744 OA
ENDBRANCH  79  80
ENDBRANCH  53  74
ENDBRANCH  27  28
ENDBRANCH  20  22
ENDBRANCH  19  20
ENDBRANCH   1  19
TORSDOF 15
ENDMDL
MODEL 3
REMARK VINA RESULT:     -10.4      3.227     11.774
REMARK SMILES Cc1cc(C(=O)OCCOC(=O)c2ccc(-c3c4nc(c(-c5ccc(S(=O)(=O)[O-])cc5)c5ccc([nH]5)c(-c5ccc(S(=O)(=O)[O-])cc5)c5nc(c(-c6ccc(S(=O)(=O)[O-])cc6)c6ccc3[nH]6)C=C5)C=C4)cc2)nn1[C@H]1CCS(=O)(=O)C1
REMARK SMILES IDX 9 1 8 2 7 3 5 4 6 5 4 6 1 7 2 8 3 9 74 10 73 11 75 12 76 13
REMARK SMILES IDX 81 14 77 15 78 16 79 17 80 18 10 19 11 20 12 21 13 22 14 23
REMARK SMILES IDX 72 24 15 25 71 26 16 27 17 28 18 29 65 30 19 31 70 32 64 33
REMARK SMILES IDX 66 34 20 35 69 36 63 37 62 38 21 40 51 41 32 42 50 43 33 44
REMARK SMILES IDX 36 45 49 46 67 47 34 48 35 49 48 51 68 52 37 53 22 54 23 55
REMARK SMILES IDX 31 56 24 57 30 58 25 59 26 60 27 61 28 62 29 63 52 64 53 65
REMARK SMILES IDX 61 66 54 67 60 68 55 69 56 70 57 71 58 72 59 73 38 74 39 75
REMARK SMILES IDX 47 76 40 77 46 78 41 79 42 80 43 81 44 82 45 83
REMARK H PARENT 66 39 36 50
REMARK Flexibility Score: inf
ROOT
ATOM      1  C   UNL A   1      45.399  20.365  24.368  1.00  0.00     0.275 C 
ENDROOT
BRANCH   1   2
ATOM      2  C   UNL A   1      44.733  19.052  24.750  1.00  0.00     0.275 C 
BRANCH   2   3
ATOM      3  O   UNL A   1      43.302  19.169  24.713  1.00  0.00    -0.457 OA
BRANCH   3   4
ATOM      4  C   UNL A   1      42.616  18.791  25.849  1.00  0.00     0.358 C 
ATOM      5  O   UNL A   1      42.666  17.677  26.332  1.00  0.00    -0.244 OA
BRANCH   4   6
ATOM      6  C   UNL A   1      41.855  19.929  26.406  1.00  0.00     0.170 A 
ATOM      7  C   UNL A   1      41.418  22.909  28.502  1.00  0.00     0.066 C 
ATOM      8  C   UNL A   1      41.299  21.727  27.615  1.00  0.00     0.037 A 
ATOM      9  C   UNL A   1      42.275  20.768  27.457  1.00  0.00     0.061 A 
ATOM     10  N   UNL A   1      40.280  21.352  26.767  1.00  0.00    -0.265 N 
ATOM     11  N   UNL A   1      40.638  20.308  25.974  1.00  0.00    -0.165 NA
BRANCH  10  12
ATOM     12  C   UNL A   1      38.961  21.909  26.504  1.00  0.00     0.123 C 
ATOM     13  C   UNL A   1      38.947  23.449  26.378  1.00  0.00     0.044 C 
ATOM     14  C   UNL A   1      38.232  21.429  25.262  1.00  0.00     0.164 C 
ATOM     15  C   UNL A   1      37.522  23.866  25.997  1.00  0.00     0.139 C 
ATOM     16  S   UNL A   1      36.793  22.453  25.183  1.00  0.00     0.152 S 
ATOM     17  O   UNL A   1      35.787  21.871  26.045  1.00  0.00    -0.229 OA
ATOM     18  O   UNL A   1      36.531  22.759  23.793  1.00  0.00    -0.229 OA
ENDBRANCH  10  12
ENDBRANCH   4   6
ENDBRANCH   3   4
ENDBRANCH   2   3
ENDBRANCH   1   2
BRANCH   1  19
ATOM     19  O   UNL A   1      45.010  21.404  25.262  1.00  0.00    -0.458 OA
BRANCH  19  20
ATOM     20  C   UNL A   1      44.601  22.550  24.673  1.00  0.00     0.338 C 
ATOM     21  O   UNL A   1      44.820  22.904  23.525  1.00  0.00    -0.246 OA
BRANCH  20  22
ATOM     22  C   UNL A   1      44.031  23.427  25.698  1.00  0.00     0.060 A 
ATOM     23  C   UNL A   1      43.077  24.366  25.293  1.00  0.00     0.016 A 
ATOM     24  C   UNL A   1      44.658  23.497  26.950  1.00  0.00     0.016 A 
ATOM     25  C   UNL A   1      42.875  25.478  26.082  1.00  0.00     0.010 A 
ATOM     26  C   UNL A   1      44.477  24.617  27.719  1.00  0.00     0.010 A 
ATOM     27  C   UNL A   1      43.642  25.625  27.242  1.00  0.00    -0.014 A 
BRANCH  27  28
ATOM     28  C   UNL A   1      43.493  26.827  28.030  1.00  0.00     0.031 A 
ATOM     29  C   UNL A   1      44.705  27.678  28.026  1.00  0.00     0.074 A 
ATOM     30  C   UNL A   1      42.305  27.203  28.537  1.00  0.00     0.049 A 
ATOM     31  N   UNL A   1      45.492  27.948  29.012  1.00  0.00    -0.248 NA
ATOM     32  C   UNL A   1      45.200  28.136  26.715  1.00  0.00     0.031 C 
ATOM     33  C   UNL A   1      40.993  26.589  28.304  1.00  0.00     0.029 A 
ATOM     34  N   UNL A   1      42.000  28.309  29.262  1.00  0.00    -0.354 N 
ATOM     35  C   UNL A   1      46.451  28.809  28.488  1.00  0.00     0.074 A 
ATOM     36  C   UNL A   1      46.358  28.695  27.057  1.00  0.00     0.031 C 
ATOM     37  C   UNL A   1      40.025  27.461  28.668  1.00  0.00     0.029 A 
ATOM     38  C   UNL A   1      40.647  28.628  29.273  1.00  0.00     0.049 A 
ATOM     39  H   UNL A   1      42.678  28.839  29.740  1.00  0.00     0.167 HD
ATOM     40  C   UNL A   1      47.031  29.775  29.253  1.00  0.00     0.031 A 
ATOM     41  C   UNL A   1      40.103  29.806  29.672  1.00  0.00     0.031 A 
ATOM     42  C   UNL A   1      46.848  29.517  30.659  1.00  0.00     0.049 A 
ATOM     43  C   UNL A   1      41.122  30.505  30.495  1.00  0.00     0.074 A 
ATOM     44  C   UNL A   1      47.172  28.477  31.508  1.00  0.00     0.029 A 
ATOM     45  N   UNL A   1      45.882  30.251  31.308  1.00  0.00    -0.354 N 
ATOM     46  N   UNL A   1      41.532  30.071  31.654  1.00  0.00    -0.248 NA
ATOM     47  C   UNL A   1      42.015  31.442  29.831  1.00  0.00     0.031 C 
ATOM     48  C   UNL A   1      46.070  28.375  32.406  1.00  0.00     0.029 A 
ATOM     49  C   UNL A   1      45.166  29.394  32.101  1.00  0.00     0.049 A 
ATOM     50  H   UNL A   1      45.734  31.221  31.219  1.00  0.00     0.167 HD
ATOM     51  C   UNL A   1      42.897  30.330  31.670  1.00  0.00     0.074 A 
ATOM     52  C   UNL A   1      43.116  31.266  30.569  1.00  0.00     0.031 C 
ATOM     53  C   UNL A   1      43.755  29.548  32.390  1.00  0.00     0.031 A 
BRANCH  40  54
ATOM     54  C   UNL A   1      47.335  31.161  28.721  1.00  0.00    -0.014 A 
ATOM     55  C   UNL A   1      46.346  31.820  27.963  1.00  0.00     0.010 A 
ATOM     56  C   UNL A   1      48.635  31.708  28.679  1.00  0.00     0.010 A 
ATOM     57  C   UNL A   1      46.671  32.890  27.120  1.00  0.00     0.020 A 
ATOM     58  C   UNL A   1      48.960  32.803  27.880  1.00  0.00     0.020 A 
ATOM     59  C   UNL A   1      47.984  33.357  27.068  1.00  0.00     0.054 A 
BRANCH  59  60
ATOM     60  S   UNL A   1      48.429  34.636  25.871  1.00  0.00     0.124 S 
ATOM     61  O   UNL A   1      47.217  34.717  25.062  1.00  0.00    -0.237 OA
ATOM     62  O   UNL A   1      48.697  35.783  26.734  1.00  0.00    -0.237 OA
ATOM     63  O   UNL A   1      49.600  34.079  25.198  1.00  0.00    -0.744 OA
ENDBRANCH  59  60
ENDBRANCH  40  54
BRANCH  41  64
ATOM     64  C   UNL A   1      38.913  30.501  29.116  1.00  0.00    -0.014 A 
ATOM     65  C   UNL A   1      37.943  29.798  28.377  1.00  0.00     0.010 A 
ATOM     66  C   UNL A   1      38.585  31.803  29.550  1.00  0.00     0.010 A 
ATOM     67  C   UNL A   1      36.672  30.350  28.140  1.00  0.00     0.020 A 
ATOM     68  C   UNL A   1      37.325  32.363  29.310  1.00  0.00     0.020 A 
ATOM     69  C   UNL A   1      36.364  31.622  28.626  1.00  0.00     0.054 A 
BRANCH  69  70
ATOM     70  S   UNL A   1      34.666  32.255  28.475  1.00  0.00     0.124 S 
ATOM     71  O   UNL A   1      34.852  33.454  27.664  1.00  0.00    -0.237 OA
ATOM     72  O   UNL A   1      33.972  31.150  27.819  1.00  0.00    -0.237 OA
ATOM     73  O   UNL A   1      34.265  32.500  29.860  1.00  0.00    -0.744 OA
ENDBRANCH  69  70
ENDBRANCH  41  64
BRANCH  53  74
ATOM     74  C   UNL A   1      43.176  28.593  33.410  1.00  0.00    -0.014 A 
ATOM     75  C   UNL A   1      43.044  27.206  33.201  1.00  0.00     0.010 A 
ATOM     76  C   UNL A   1      42.900  29.107  34.689  1.00  0.00     0.010 A 
ATOM     77  C   UNL A   1      42.625  26.362  34.241  1.00  0.00     0.020 A 
ATOM     78  C   UNL A   1      42.500  28.271  35.732  1.00  0.00     0.020 A 
ATOM     79  C   UNL A   1      42.355  26.903  35.503  1.00  0.00     0.054 A 
BRANCH  79  80
ATOM     80  S   UNL A   1      41.863  25.803  36.860  1.00  0.00     0.124 S 
ATOM     81  O   UNL A   1      43.037  25.822  37.727  1.00  0.00    -0.237 OA
ATOM     82  O   UNL A   1      40.674  26.461  37.397  1.00  0.00    -0.237 OA
ATOM     83  O   UNL A   1      41.605  24.525  36.196  1.00  0.00    -0.744 OA
ENDBRANCH  79  80
ENDBRANCH  53  74
ENDBRANCH  27  28
ENDBRANCH  20  22
ENDBRANCH  19  20
ENDBRANCH   1  19
TORSDOF 15
ENDMDL
