MODEL 1
REMARK VINA RESULT:     -10.9      0.000      0.000
REMARK SMILES Cc1cc(C(=O)N[C@H](CC(C)C)C(=O)OCCOC(=O)c2ccc(-c3c4nc(c(-c5ccc(S(=O)(=O)[O-])cc5)c5ccc([nH]5)c(-c5ccc(S(=O)(=O)[O-])cc5)c5nc(c(-c6ccc(S(=O)(=O)[O-])cc6)c6ccc3[nH]6)C=C5)C=C4)cc2)sc1Br
REMARK SMILES IDX 17 1 16 2 15 3 13 4 14 5 8 6 7 7 5 8 6 9 4 11 1 12 2 13 3 14
REMARK SMILES IDX 82 15 81 16 83 17 9 18 10 19 11 20 12 21 18 22 19 23 20 24
REMARK SMILES IDX 21 25 22 26 80 27 23 28 79 29 24 30 25 31 26 32 73 33 27 34
REMARK SMILES IDX 78 35 72 36 74 37 28 38 77 39 71 40 70 41 29 43 59 44 40 45
REMARK SMILES IDX 58 46 41 47 44 48 57 49 75 50 42 51 43 52 56 54 76 55 45 56
REMARK SMILES IDX 30 57 31 58 39 59 32 60 38 61 33 62 34 63 35 64 36 65 37 66
REMARK SMILES IDX 60 67 61 68 69 69 62 70 68 71 63 72 64 73 65 74 66 75 67 76
REMARK SMILES IDX 46 77 47 78 55 79 48 80 54 81 49 82 50 83 51 84 52 85 53 86
REMARK H PARENT 7 10 74 42 44 53
REMARK Flexibility Score: inf
ROOT
ATOM      1  C   UNL A   1      38.097  21.568  25.406  1.00  0.00     0.275 C 
ENDROOT
BRANCH   1   2
ATOM      2  C   UNL A   1      36.589  21.365  25.510  1.00  0.00     0.274 C 
BRANCH   2   3
ATOM      3  O   UNL A   1      35.807  22.570  25.600  1.00  0.00    -0.461 OA
BRANCH   3   4
ATOM      4  C   UNL A   1      34.644  22.494  26.305  1.00  0.00     0.328 C 
ATOM      5  O   UNL A   1      34.382  21.651  27.157  1.00  0.00    -0.250 OA
BRANCH   4   6
ATOM      6  C   UNL A   1      33.632  23.556  25.896  1.00  0.00     0.192 C 
BRANCH   6   7
ATOM      7  N   UNL A   1      32.451  23.625  26.772  1.00  0.00    -0.338 N 
ATOM      8  C   UNL A   1      31.190  24.165  26.608  1.00  0.00     0.262 C 
ATOM      9  O   UNL A   1      30.303  23.601  27.257  1.00  0.00    -0.268 OA
ATOM     10  H   UNL A   1      32.587  23.202  27.651  1.00  0.00     0.164 HD
BRANCH   8  11
ATOM     11  C   UNL A   1      30.948  25.411  25.886  1.00  0.00     0.093 A 
ATOM     12  C   UNL A   1      30.185  27.573  22.888  1.00  0.00     0.046 C 
ATOM     13  C   UNL A   1      30.526  27.077  24.260  1.00  0.00    -0.025 A 
ATOM     14  C   UNL A   1      30.236  25.746  24.747  1.00  0.00     0.030 A 
ATOM     15  C   UNL A   1      31.171  27.788  25.244  1.00  0.00     0.074 A 
ATOM     16  S   UNL A   1      31.599  26.851  26.587  1.00  0.00    -0.123 S 
ATOM     17  Br  UNL A   1      31.586  29.617  25.136  1.00  0.00    -0.039 Br
ENDBRANCH   8  11
ENDBRANCH   6   7
BRANCH   6  18
ATOM     18  C   UNL A   1      33.237  23.268  24.424  1.00  0.00     0.040 C 
BRANCH  18  19
ATOM     19  C   UNL A   1      33.735  24.232  23.329  1.00  0.00    -0.015 C 
ATOM     20  C   UNL A   1      32.699  24.455  22.226  1.00  0.00     0.007 C 
ATOM     21  C   UNL A   1      34.062  25.590  23.973  1.00  0.00     0.007 C 
ENDBRANCH  18  19
ENDBRANCH   6  18
ENDBRANCH   4   6
ENDBRANCH   3   4
ENDBRANCH   2   3
ENDBRANCH   1   2
BRANCH   1  22
ATOM     22  O   UNL A   1      38.528  22.655  26.216  1.00  0.00    -0.458 OA
BRANCH  22  23
ATOM     23  C   UNL A   1      39.720  22.463  26.817  1.00  0.00     0.338 C 
ATOM     24  O   UNL A   1      40.102  21.430  27.363  1.00  0.00    -0.246 OA
BRANCH  23  25
ATOM     25  C   UNL A   1      40.491  23.706  26.822  1.00  0.00     0.060 A 
ATOM     26  C   UNL A   1      41.631  23.729  27.632  1.00  0.00     0.016 A 
ATOM     27  C   UNL A   1      39.901  24.874  26.325  1.00  0.00     0.016 A 
ATOM     28  C   UNL A   1      42.006  24.929  28.183  1.00  0.00     0.010 A 
ATOM     29  C   UNL A   1      40.258  26.068  26.896  1.00  0.00     0.010 A 
ATOM     30  C   UNL A   1      41.232  26.053  27.893  1.00  0.00    -0.014 A 
BRANCH  30  31
ATOM     31  C   UNL A   1      41.434  27.234  28.697  1.00  0.00     0.031 A 
ATOM     32  C   UNL A   1      42.613  28.023  28.315  1.00  0.00     0.074 A 
ATOM     33  C   UNL A   1      40.536  27.618  29.623  1.00  0.00     0.049 A 
ATOM     34  N   UNL A   1      43.711  28.168  28.974  1.00  0.00    -0.248 NA
ATOM     35  C   UNL A   1      42.632  28.579  26.954  1.00  0.00     0.031 C 
ATOM     36  C   UNL A   1      39.194  27.074  29.849  1.00  0.00     0.029 A 
ATOM     37  N   UNL A   1      40.592  28.680  30.466  1.00  0.00    -0.354 N 
ATOM     38  C   UNL A   1      44.482  29.023  28.199  1.00  0.00     0.074 A 
ATOM     39  C   UNL A   1      43.876  29.048  26.891  1.00  0.00     0.031 C 
ATOM     40  C   UNL A   1      38.484  27.957  30.587  1.00  0.00     0.029 A 
ATOM     41  C   UNL A   1      39.356  29.056  30.973  1.00  0.00     0.049 A 
ATOM     42  H   UNL A   1      41.430  29.141  30.697  1.00  0.00     0.167 HD
ATOM     43  C   UNL A   1      45.377  29.880  28.757  1.00  0.00     0.031 A 
ATOM     44  C   UNL A   1      39.067  30.242  31.565  1.00  0.00     0.031 A 
ATOM     45  C   UNL A   1      45.666  29.550  30.128  1.00  0.00     0.049 A 
ATOM     46  C   UNL A   1      40.352  30.850  31.999  1.00  0.00     0.074 A 
ATOM     47  C   UNL A   1      46.167  28.437  30.773  1.00  0.00     0.029 A 
ATOM     48  N   UNL A   1      45.059  30.316  31.098  1.00  0.00    -0.354 N 
ATOM     49  N   UNL A   1      41.102  30.355  32.942  1.00  0.00    -0.248 NA
ATOM     50  C   UNL A   1      41.026  31.779  31.101  1.00  0.00     0.031 C 
ATOM     51  C   UNL A   1      45.467  28.375  32.012  1.00  0.00     0.029 A 
ATOM     52  C   UNL A   1      44.608  29.473  32.082  1.00  0.00     0.049 A 
ATOM     53  H   UNL A   1      44.966  31.296  31.087  1.00  0.00     0.167 HD
ATOM     54  C   UNL A   1      42.406  30.559  32.510  1.00  0.00     0.074 A 
ATOM     55  C   UNL A   1      42.297  31.546  31.441  1.00  0.00     0.031 C 
ATOM     56  C   UNL A   1      43.407  29.698  32.863  1.00  0.00     0.031 A 
BRANCH  43  57
ATOM     57  C   UNL A   1      45.652  31.243  28.177  1.00  0.00    -0.014 A 
ATOM     58  C   UNL A   1      44.612  32.188  28.125  1.00  0.00     0.010 A 
ATOM     59  C   UNL A   1      46.823  31.537  27.445  1.00  0.00     0.010 A 
ATOM     60  C   UNL A   1      44.725  33.342  27.340  1.00  0.00     0.020 A 
ATOM     61  C   UNL A   1      46.969  32.707  26.706  1.00  0.00     0.020 A 
ATOM     62  C   UNL A   1      45.901  33.586  26.627  1.00  0.00     0.054 A 
BRANCH  62  63
ATOM     63  S   UNL A   1      46.002  35.019  25.532  1.00  0.00     0.124 S 
ATOM     64  O   UNL A   1      47.445  35.173  25.376  1.00  0.00    -0.237 OA
ATOM     65  O   UNL A   1      45.279  34.558  24.350  1.00  0.00    -0.237 OA
ATOM     66  O   UNL A   1      45.335  36.076  26.291  1.00  0.00    -0.744 OA
ENDBRANCH  62  63
ENDBRANCH  43  57
BRANCH  44  67
ATOM     67  C   UNL A   1      37.803  31.015  31.464  1.00  0.00    -0.014 A 
ATOM     68  C   UNL A   1      36.961  31.160  32.580  1.00  0.00     0.010 A 
ATOM     69  C   UNL A   1      37.557  31.844  30.348  1.00  0.00     0.010 A 
ATOM     70  C   UNL A   1      35.964  32.150  32.610  1.00  0.00     0.020 A 
ATOM     71  C   UNL A   1      36.557  32.819  30.364  1.00  0.00     0.020 A 
ATOM     72  C   UNL A   1      35.786  32.990  31.508  1.00  0.00     0.054 A 
BRANCH  72  73
ATOM     73  S   UNL A   1      34.647  34.400  31.629  1.00  0.00     0.124 S 
ATOM     74  O   UNL A   1      35.408  35.344  32.441  1.00  0.00    -0.237 OA
ATOM     75  O   UNL A   1      34.456  34.775  30.231  1.00  0.00    -0.237 OA
ATOM     76  O   UNL A   1      33.467  33.832  32.280  1.00  0.00    -0.744 OA
ENDBRANCH  72  73
ENDBRANCH  44  67
BRANCH  56  77
ATOM     77  C   UNL A   1      43.144  28.726  33.994  1.00  0.00    -0.014 A 
ATOM     78  C   UNL A   1      43.586  28.929  35.316  1.00  0.00     0.010 A 
ATOM     79  C   UNL A   1      42.305  27.628  33.732  1.00  0.00     0.010 A 
ATOM     80  C   UNL A   1      43.237  28.033  36.337  1.00  0.00     0.020 A 
ATOM     81  C   UNL A   1      41.935  26.744  34.750  1.00  0.00     0.020 A 
ATOM     82  C   UNL A   1      42.413  26.943  36.045  1.00  0.00     0.054 A 
BRANCH  82  83
ATOM     83  S   UNL A   1      41.935  25.808  37.378  1.00  0.00     0.124 S 
ATOM     84  O   UNL A   1      40.531  26.145  37.594  1.00  0.00    -0.237 OA
ATOM     85  O   UNL A   1      42.183  24.494  36.790  1.00  0.00    -0.237 OA
ATOM     86  O   UNL A   1      42.832  26.163  38.477  1.00  0.00    -0.744 OA
ENDBRANCH  82  83
ENDBRANCH  56  77
ENDBRANCH  30  31
ENDBRANCH  23  25
ENDBRANCH  22  23
ENDBRANCH   1  22
TORSDOF 18
ENDMDL
MODEL 2
REMARK VINA RESULT:     -10.6      2.826      7.527
REMARK SMILES Cc1cc(C(=O)N[C@H](CC(C)C)C(=O)OCCOC(=O)c2ccc(-c3c4nc(c(-c5ccc(S(=O)(=O)[O-])cc5)c5ccc([nH]5)c(-c5ccc(S(=O)(=O)[O-])cc5)c5nc(c(-c6ccc(S(=O)(=O)[O-])cc6)c6ccc3[nH]6)C=C5)C=C4)cc2)sc1Br
REMARK SMILES IDX 17 1 16 2 15 3 13 4 14 5 8 6 7 7 5 8 6 9 4 11 1 12 2 13 3 14
REMARK SMILES IDX 82 15 81 16 83 17 9 18 10 19 11 20 12 21 18 22 19 23 20 24
REMARK SMILES IDX 21 25 22 26 80 27 23 28 79 29 24 30 25 31 26 32 73 33 27 34
REMARK SMILES IDX 78 35 72 36 74 37 28 38 77 39 71 40 70 41 29 43 59 44 40 45
REMARK SMILES IDX 58 46 41 47 44 48 57 49 75 50 42 51 43 52 56 54 76 55 45 56
REMARK SMILES IDX 30 57 31 58 39 59 32 60 38 61 33 62 34 63 35 64 36 65 37 66
REMARK SMILES IDX 60 67 61 68 69 69 62 70 68 71 63 72 64 73 65 74 66 75 67 76
REMARK SMILES IDX 46 77 47 78 55 79 48 80 54 81 49 82 50 83 51 84 52 85 53 86
REMARK H PARENT 7 10 74 42 44 53
REMARK Flexibility Score: inf
ROOT
ATOM      1  C   UNL A   1      37.426  20.953  24.744  1.00  0.00     0.275 C 
ENDROOT
BRANCH   1   2
ATOM      2  C   UNL A   1      36.062  20.940  25.425  1.00  0.00     0.274 C 
BRANCH   2   3
ATOM      3  O   UNL A   1      35.665  22.181  26.038  1.00  0.00    -0.461 OA
BRANCH   3   4
ATOM      4  C   UNL A   1      34.451  22.196  26.655  1.00  0.00     0.328 C 
ATOM      5  O   UNL A   1      34.107  21.454  27.569  1.00  0.00    -0.250 OA
BRANCH   4   6
ATOM      6  C   UNL A   1      33.496  23.223  26.059  1.00  0.00     0.192 C 
BRANCH   6   7
ATOM      7  N   UNL A   1      32.268  23.423  26.845  1.00  0.00    -0.338 N 
ATOM      8  C   UNL A   1      31.075  24.067  26.577  1.00  0.00     0.262 C 
ATOM      9  O   UNL A   1      30.098  23.604  27.174  1.00  0.00    -0.268 OA
ATOM     10  H   UNL A   1      32.303  23.018  27.742  1.00  0.00     0.164 HD
BRANCH   8  11
ATOM     11  C   UNL A   1      30.998  25.306  25.808  1.00  0.00     0.093 A 
ATOM     12  C   UNL A   1      30.536  27.435  22.726  1.00  0.00     0.046 C 
ATOM     13  C   UNL A   1      30.801  26.951  24.119  1.00  0.00    -0.025 A 
ATOM     14  C   UNL A   1      30.342  25.686  24.649  1.00  0.00     0.030 A 
ATOM     15  C   UNL A   1      31.524  27.611  25.084  1.00  0.00     0.074 A 
ATOM     16  S   UNL A   1      31.821  26.678  26.464  1.00  0.00    -0.123 S 
ATOM     17  Br  UNL A   1      32.169  29.368  24.916  1.00  0.00    -0.039 Br
ENDBRANCH   8  11
ENDBRANCH   6   7
BRANCH   6  18
ATOM     18  C   UNL A   1      33.180  22.765  24.611  1.00  0.00     0.040 C 
BRANCH  18  19
ATOM     19  C   UNL A   1      33.875  23.493  23.443  1.00  0.00    -0.015 C 
ATOM     20  C   UNL A   1      33.032  23.497  22.167  1.00  0.00     0.007 C 
ATOM     21  C   UNL A   1      34.143  24.951  23.856  1.00  0.00     0.007 C 
ENDBRANCH  18  19
ENDBRANCH   6  18
ENDBRANCH   4   6
ENDBRANCH   3   4
ENDBRANCH   2   3
ENDBRANCH   1   2
BRANCH   1  22
ATOM     22  O   UNL A   1      38.453  21.339  25.650  1.00  0.00    -0.458 OA
BRANCH  22  23
ATOM     23  C   UNL A   1      39.467  20.456  25.753  1.00  0.00     0.338 C 
ATOM     24  O   UNL A   1      39.433  19.269  25.435  1.00  0.00    -0.246 OA
BRANCH  23  25
ATOM     25  C   UNL A   1      40.621  21.082  26.398  1.00  0.00     0.060 A 
ATOM     26  C   UNL A   1      40.645  21.054  27.796  1.00  0.00     0.016 A 
ATOM     27  C   UNL A   1      41.431  21.945  25.650  1.00  0.00     0.016 A 
ATOM     28  C   UNL A   1      41.262  22.092  28.450  1.00  0.00     0.010 A 
ATOM     29  C   UNL A   1      42.024  22.995  26.302  1.00  0.00     0.010 A 
ATOM     30  C   UNL A   1      41.835  23.104  27.679  1.00  0.00    -0.014 A 
BRANCH  30  31
ATOM     31  C   UNL A   1      42.209  24.327  28.346  1.00  0.00     0.031 A 
ATOM     32  C   UNL A   1      41.317  25.460  28.063  1.00  0.00     0.074 A 
ATOM     33  C   UNL A   1      43.215  24.363  29.239  1.00  0.00     0.049 A 
ATOM     34  N   UNL A   1      41.578  26.513  27.367  1.00  0.00    -0.248 NA
ATOM     35  C   UNL A   1      39.909  25.317  28.462  1.00  0.00     0.031 C 
ATOM     36  C   UNL A   1      43.944  23.229  29.813  1.00  0.00     0.029 A 
ATOM     37  N   UNL A   1      43.697  25.429  29.927  1.00  0.00    -0.354 N 
ATOM     38  C   UNL A   1      40.421  27.277  27.429  1.00  0.00     0.074 A 
ATOM     39  C   UNL A   1      39.378  26.402  27.903  1.00  0.00     0.031 C 
ATOM     40  C   UNL A   1      44.592  23.645  30.924  1.00  0.00     0.029 A 
ATOM     41  C   UNL A   1      44.414  25.082  31.064  1.00  0.00     0.049 A 
ATOM     42  H   UNL A   1      43.554  26.361  29.646  1.00  0.00     0.167 HD
ATOM     43  C   UNL A   1      40.459  28.635  27.380  1.00  0.00     0.031 A 
ATOM     44  C   UNL A   1      44.729  25.912  32.089  1.00  0.00     0.031 A 
ATOM     45  C   UNL A   1      41.729  29.128  26.917  1.00  0.00     0.049 A 
ATOM     46  C   UNL A   1      44.607  27.307  31.589  1.00  0.00     0.074 A 
ATOM     47  C   UNL A   1      42.477  28.959  25.769  1.00  0.00     0.029 A 
ATOM     48  N   UNL A   1      42.593  29.621  27.869  1.00  0.00    -0.354 N 
ATOM     49  N   UNL A   1      45.398  27.822  30.689  1.00  0.00    -0.248 NA
ATOM     50  C   UNL A   1      43.345  28.010  31.774  1.00  0.00     0.031 C 
ATOM     51  C   UNL A   1      43.833  28.945  26.203  1.00  0.00     0.029 A 
ATOM     52  C   UNL A   1      43.849  29.151  27.584  1.00  0.00     0.049 A 
ATOM     53  H   UNL A   1      42.351  30.209  28.622  1.00  0.00     0.167 HD
ATOM     54  C   UNL A   1      44.578  28.626  29.909  1.00  0.00     0.074 A 
ATOM     55  C   UNL A   1      43.363  28.801  30.697  1.00  0.00     0.031 C 
ATOM     56  C   UNL A   1      44.849  28.832  28.585  1.00  0.00     0.031 A 
BRANCH  43  57
ATOM     57  C   UNL A   1      39.487  29.493  28.147  1.00  0.00    -0.014 A 
ATOM     58  C   UNL A   1      39.820  29.908  29.448  1.00  0.00     0.010 A 
ATOM     59  C   UNL A   1      38.151  29.686  27.733  1.00  0.00     0.010 A 
ATOM     60  C   UNL A   1      38.849  30.444  30.304  1.00  0.00     0.020 A 
ATOM     61  C   UNL A   1      37.190  30.269  28.556  1.00  0.00     0.020 A 
ATOM     62  C   UNL A   1      37.538  30.610  29.853  1.00  0.00     0.054 A 
BRANCH  62  63
ATOM     63  S   UNL A   1      36.267  31.199  30.994  1.00  0.00     0.124 S 
ATOM     64  O   UNL A   1      36.944  32.321  31.637  1.00  0.00    -0.237 OA
ATOM     65  O   UNL A   1      35.176  31.548  30.089  1.00  0.00    -0.237 OA
ATOM     66  O   UNL A   1      36.014  30.042  31.850  1.00  0.00    -0.744 OA
ENDBRANCH  62  63
ENDBRANCH  43  57
BRANCH  44  67
ATOM     67  C   UNL A   1      44.787  25.577  33.535  1.00  0.00    -0.014 A 
ATOM     68  C   UNL A   1      46.005  25.639  34.235  1.00  0.00     0.010 A 
ATOM     69  C   UNL A   1      43.602  25.464  34.293  1.00  0.00     0.010 A 
ATOM     70  C   UNL A   1      46.030  25.668  35.640  1.00  0.00     0.020 A 
ATOM     71  C   UNL A   1      43.620  25.475  35.690  1.00  0.00     0.020 A 
ATOM     72  C   UNL A   1      44.832  25.610  36.357  1.00  0.00     0.054 A 
BRANCH  72  73
ATOM     73  S   UNL A   1      44.851  25.861  38.157  1.00  0.00     0.124 S 
ATOM     74  O   UNL A   1      45.955  26.801  38.327  1.00  0.00    -0.237 OA
ATOM     75  O   UNL A   1      43.517  26.396  38.416  1.00  0.00    -0.237 OA
ATOM     76  O   UNL A   1      45.090  24.520  38.687  1.00  0.00    -0.744 OA
ENDBRANCH  72  73
ENDBRANCH  44  67
BRANCH  56  77
ATOM     77  C   UNL A   1      46.222  28.453  28.073  1.00  0.00    -0.014 A 
ATOM     78  C   UNL A   1      46.541  27.178  27.565  1.00  0.00     0.010 A 
ATOM     79  C   UNL A   1      47.193  29.467  27.985  1.00  0.00     0.010 A 
ATOM     80  C   UNL A   1      47.809  26.914  27.026  1.00  0.00     0.020 A 
ATOM     81  C   UNL A   1      48.451  29.216  27.429  1.00  0.00     0.020 A 
ATOM     82  C   UNL A   1      48.757  27.937  26.964  1.00  0.00     0.054 A 
BRANCH  82  83
ATOM     83  S   UNL A   1      50.384  27.599  26.232  1.00  0.00     0.124 S 
ATOM     84  O   UNL A   1      50.391  26.142  26.134  1.00  0.00    -0.237 OA
ATOM     85  O   UNL A   1      50.322  28.315  24.960  1.00  0.00    -0.237 OA
ATOM     86  O   UNL A   1      51.325  28.158  27.202  1.00  0.00    -0.744 OA
ENDBRANCH  82  83
ENDBRANCH  56  77
ENDBRANCH  30  31
ENDBRANCH  23  25
ENDBRANCH  22  23
ENDBRANCH   1  22
TORSDOF 18
ENDMDL
MODEL 3
REMARK VINA RESULT:     -10.5      1.446      2.062
REMARK SMILES Cc1cc(C(=O)N[C@H](CC(C)C)C(=O)OCCOC(=O)c2ccc(-c3c4nc(c(-c5ccc(S(=O)(=O)[O-])cc5)c5ccc([nH]5)c(-c5ccc(S(=O)(=O)[O-])cc5)c5nc(c(-c6ccc(S(=O)(=O)[O-])cc6)c6ccc3[nH]6)C=C5)C=C4)cc2)sc1Br
REMARK SMILES IDX 17 1 16 2 15 3 13 4 14 5 8 6 7 7 5 8 6 9 4 11 1 12 2 13 3 14
REMARK SMILES IDX 82 15 81 16 83 17 9 18 10 19 11 20 12 21 18 22 19 23 20 24
REMARK SMILES IDX 21 25 22 26 80 27 23 28 79 29 24 30 25 31 26 32 73 33 27 34
REMARK SMILES IDX 78 35 72 36 74 37 28 38 77 39 71 40 70 41 29 43 59 44 40 45
REMARK SMILES IDX 58 46 41 47 44 48 57 49 75 50 42 51 43 52 56 54 76 55 45 56
REMARK SMILES IDX 30 57 31 58 39 59 32 60 38 61 33 62 34 63 35 64 36 65 37 66
REMARK SMILES IDX 60 67 61 68 69 69 62 70 68 71 63 72 64 73 65 74 66 75 67 76
REMARK SMILES IDX 46 77 47 78 55 79 48 80 54 81 49 82 50 83 51 84 52 85 53 86
REMARK H PARENT 7 10 74 42 44 53
REMARK Flexibility Score: inf
ROOT
ATOM      1  C   UNL A   1      39.275  21.077  25.885  1.00  0.00     0.275 C 
ENDROOT
BRANCH   1   2
ATOM      2  C   UNL A   1      38.119  21.684  25.097  1.00  0.00     0.274 C 
BRANCH   2   3
ATOM      3  O   UNL A   1      36.855  21.727  25.787  1.00  0.00    -0.461 OA
BRANCH   3   4
ATOM      4  C   UNL A   1      36.160  22.896  25.715  1.00  0.00     0.328 C 
ATOM      5  O   UNL A   1      36.615  24.011  25.951  1.00  0.00    -0.250 OA
BRANCH   4   6
ATOM      6  C   UNL A   1      34.695  22.693  25.351  1.00  0.00     0.192 C 
BRANCH   6   7
ATOM      7  N   UNL A   1      33.760  22.982  26.449  1.00  0.00    -0.338 N 
ATOM      8  C   UNL A   1      32.725  23.887  26.589  1.00  0.00     0.262 C 
ATOM      9  O   UNL A   1      31.827  23.524  27.354  1.00  0.00    -0.268 OA
ATOM     10  H   UNL A   1      33.898  22.418  27.244  1.00  0.00     0.164 HD
BRANCH   8  11
ATOM     11  C   UNL A   1      32.773  25.238  26.037  1.00  0.00     0.093 A 
ATOM     12  C   UNL A   1      33.948  28.814  25.756  1.00  0.00     0.046 C 
ATOM     13  C   UNL A   1      33.226  27.513  25.574  1.00  0.00    -0.025 A 
ATOM     14  C   UNL A   1      33.743  26.225  25.978  1.00  0.00     0.030 A 
ATOM     15  C   UNL A   1      31.978  27.348  25.022  1.00  0.00     0.074 A 
ATOM     16  S   UNL A   1      31.371  25.776  25.181  1.00  0.00    -0.123 S 
ATOM     17  Br  UNL A   1      30.991  28.715  24.193  1.00  0.00    -0.039 Br
ENDBRANCH   8  11
ENDBRANCH   6   7
BRANCH   6  18
ATOM     18  C   UNL A   1      34.550  21.233  24.844  1.00  0.00     0.040 C 
BRANCH  18  19
ATOM     19  C   UNL A   1      33.317  20.873  23.991  1.00  0.00    -0.015 C 
ATOM     20  C   UNL A   1      32.112  20.465  24.841  1.00  0.00     0.007 C 
ATOM     21  C   UNL A   1      32.926  22.094  23.141  1.00  0.00     0.007 C 
ENDBRANCH  18  19
ENDBRANCH   6  18
ENDBRANCH   4   6
ENDBRANCH   3   4
ENDBRANCH   2   3
ENDBRANCH   1   2
BRANCH   1  22
ATOM     22  O   UNL A   1      40.141  22.086  26.391  1.00  0.00    -0.458 OA
BRANCH  22  23
ATOM     23  C   UNL A   1      41.451  21.863  26.158  1.00  0.00     0.338 C 
ATOM     24  O   UNL A   1      41.953  20.809  25.775  1.00  0.00    -0.246 OA
BRANCH  23  25
ATOM     25  C   UNL A   1      42.237  23.042  26.520  1.00  0.00     0.060 A 
ATOM     26  C   UNL A   1      42.719  23.091  27.832  1.00  0.00     0.016 A 
ATOM     27  C   UNL A   1      42.182  24.174  25.698  1.00  0.00     0.016 A 
ATOM     28  C   UNL A   1      42.870  24.325  28.417  1.00  0.00     0.010 A 
ATOM     29  C   UNL A   1      42.306  25.404  26.290  1.00  0.00     0.010 A 
ATOM     30  C   UNL A   1      42.541  25.452  27.663  1.00  0.00    -0.014 A 
BRANCH  30  31
ATOM     31  C   UNL A   1      42.407  26.709  28.357  1.00  0.00     0.031 A 
ATOM     32  C   UNL A   1      43.533  27.630  28.152  1.00  0.00     0.074 A 
ATOM     33  C   UNL A   1      41.282  27.029  29.022  1.00  0.00     0.049 A 
ATOM     34  N   UNL A   1      44.427  27.985  29.009  1.00  0.00    -0.248 NA
ATOM     35  C   UNL A   1      43.790  28.073  26.773  1.00  0.00     0.031 C 
ATOM     36  C   UNL A   1      40.002  26.313  29.015  1.00  0.00     0.029 A 
ATOM     37  N   UNL A   1      41.011  28.150  29.737  1.00  0.00    -0.354 N 
ATOM     38  C   UNL A   1      45.239  28.881  28.328  1.00  0.00     0.074 A 
ATOM     39  C   UNL A   1      44.947  28.713  26.927  1.00  0.00     0.031 C 
ATOM     40  C   UNL A   1      39.039  27.139  29.483  1.00  0.00     0.029 A 
ATOM     41  C   UNL A   1      39.656  28.381  29.924  1.00  0.00     0.049 A 
ATOM     42  H   UNL A   1      41.711  28.746  30.090  1.00  0.00     0.167 HD
ATOM     43  C   UNL A   1      45.870  29.901  28.968  1.00  0.00     0.031 A 
ATOM     44  C   UNL A   1      39.094  29.554  30.308  1.00  0.00     0.031 A 
ATOM     45  C   UNL A   1      45.880  29.726  30.396  1.00  0.00     0.049 A 
ATOM     46  C   UNL A   1      40.161  30.376  30.936  1.00  0.00     0.074 A 
ATOM     47  C   UNL A   1      46.358  28.753  31.251  1.00  0.00     0.029 A 
ATOM     48  N   UNL A   1      44.979  30.468  31.124  1.00  0.00    -0.354 N 
ATOM     49  N   UNL A   1      40.734  30.072  32.067  1.00  0.00    -0.248 NA
ATOM     50  C   UNL A   1      40.899  31.321  30.107  1.00  0.00     0.031 C 
ATOM     51  C   UNL A   1      45.409  28.686  32.311  1.00  0.00     0.029 A 
ATOM     52  C   UNL A   1      44.425  29.649  32.075  1.00  0.00     0.049 A 
ATOM     53  H   UNL A   1      44.768  31.421  30.988  1.00  0.00     0.167 HD
ATOM     54  C   UNL A   1      42.065  30.430  31.903  1.00  0.00     0.074 A 
ATOM     55  C   UNL A   1      42.078  31.304  30.734  1.00  0.00     0.031 C 
ATOM     56  C   UNL A   1      43.060  29.756  32.554  1.00  0.00     0.031 A 
BRANCH  43  57
ATOM     57  C   UNL A   1      46.096  31.240  28.314  1.00  0.00    -0.014 A 
ATOM     58  C   UNL A   1      45.014  32.127  28.179  1.00  0.00     0.010 A 
ATOM     59  C   UNL A   1      47.272  31.547  27.597  1.00  0.00     0.010 A 
ATOM     60  C   UNL A   1      45.094  33.237  27.329  1.00  0.00     0.020 A 
ATOM     61  C   UNL A   1      47.383  32.678  26.792  1.00  0.00     0.020 A 
ATOM     62  C   UNL A   1      46.277  33.497  26.634  1.00  0.00     0.054 A 
BRANCH  62  63
ATOM     63  S   UNL A   1      46.340  34.867  25.457  1.00  0.00     0.124 S 
ATOM     64  O   UNL A   1      45.940  35.994  26.293  1.00  0.00    -0.237 OA
ATOM     65  O   UNL A   1      47.738  34.851  25.037  1.00  0.00    -0.237 OA
ATOM     66  O   UNL A   1      45.380  34.476  24.427  1.00  0.00    -0.744 OA
ENDBRANCH  62  63
ENDBRANCH  43  57
BRANCH  44  67
ATOM     67  C   UNL A   1      37.799  30.124  29.855  1.00  0.00    -0.014 A 
ATOM     68  C   UNL A   1      36.949  30.779  30.764  1.00  0.00     0.010 A 
ATOM     69  C   UNL A   1      37.521  30.268  28.479  1.00  0.00     0.010 A 
ATOM     70  C   UNL A   1      35.912  31.611  30.310  1.00  0.00     0.020 A 
ATOM     71  C   UNL A   1      36.481  31.081  28.021  1.00  0.00     0.020 A 
ATOM     72  C   UNL A   1      35.701  31.775  28.939  1.00  0.00     0.054 A 
BRANCH  72  73
ATOM     73  S   UNL A   1      34.503  33.011  28.357  1.00  0.00     0.124 S 
ATOM     74  O   UNL A   1      35.315  33.833  27.465  1.00  0.00    -0.237 OA
ATOM     75  O   UNL A   1      33.486  32.186  27.709  1.00  0.00    -0.237 OA
ATOM     76  O   UNL A   1      34.067  33.672  29.586  1.00  0.00    -0.744 OA
ENDBRANCH  72  73
ENDBRANCH  44  67
BRANCH  56  77
ATOM     77  C   UNL A   1      42.672  28.848  33.701  1.00  0.00    -0.014 A 
ATOM     78  C   UNL A   1      42.158  27.548  33.527  1.00  0.00     0.010 A 
ATOM     79  C   UNL A   1      42.959  29.283  35.007  1.00  0.00     0.010 A 
ATOM     80  C   UNL A   1      41.897  26.724  34.632  1.00  0.00     0.020 A 
ATOM     81  C   UNL A   1      42.722  28.458  36.111  1.00  0.00     0.020 A 
ATOM     82  C   UNL A   1      42.180  27.187  35.919  1.00  0.00     0.054 A 
BRANCH  82  83
ATOM     83  S   UNL A   1      41.874  26.102  37.341  1.00  0.00     0.124 S 
ATOM     84  O   UNL A   1      41.992  24.770  36.756  1.00  0.00    -0.237 OA
ATOM     85  O   UNL A   1      42.937  26.478  38.271  1.00  0.00    -0.237 OA
ATOM     86  O   UNL A   1      40.527  26.469  37.776  1.00  0.00    -0.744 OA
ENDBRANCH  82  83
ENDBRANCH  56  77
ENDBRANCH  30  31
ENDBRANCH  23  25
ENDBRANCH  22  23
ENDBRANCH   1  22
TORSDOF 18
ENDMDL
