MODEL 1
REMARK VINA RESULT:      -9.1      0.000      0.000
REMARK SMILES COc1ccc(N[C@H](C)[C@H](C)C(=O)OCCOC(=O)c2ccc(-c3c4nc(c(-c5ccc(S(=O)(=O)[O-])cc5)c5ccc([nH]5)c(-c5ccc(S(=O)(=O)[O-])cc5)c5nc(c(-c6ccc(S(=O)(=O)[O-])cc6)c6ccc3[nH]6)C=C5)C=C4)cc2)c(OC)c1
REMARK SMILES IDX 15 1 14 2 12 3 13 4 10 5 11 6 8 7 9 8 7 9 6 11 3 12 4 13
REMARK SMILES IDX 83 14 5 15 80 16 2 17 1 18 81 19 82 20 16 21 17 22 18 23
REMARK SMILES IDX 19 24 20 25 21 26 79 27 22 28 78 29 23 30 24 31 25 32 72 33
REMARK SMILES IDX 26 34 77 35 71 36 73 37 27 38 76 39 70 40 69 41 28 43 58 44
REMARK SMILES IDX 39 45 57 46 40 47 43 48 56 49 74 50 41 51 42 52 55 54 75 55
REMARK SMILES IDX 44 56 29 57 30 58 38 59 31 60 37 61 32 62 33 63 34 64 35 65
REMARK SMILES IDX 36 66 59 67 60 68 68 69 61 70 67 71 62 72 63 73 64 74 65 75
REMARK SMILES IDX 66 76 45 77 46 78 54 79 47 80 53 81 48 82 49 83 50 84 51 85
REMARK SMILES IDX 52 86
REMARK H PARENT 7 10 73 42 43 53
REMARK Flexibility Score: inf
ROOT
ATOM      1  C   UNL A   1      33.864  33.846  29.048  1.00  0.00     0.274 C 
ENDROOT
BRANCH   1   2
ATOM      2  O   UNL A   1      34.328  34.938  29.873  1.00  0.00    -0.462 OA
BRANCH   2   3
ATOM      3  C   UNL A   1      33.375  35.439  30.705  1.00  0.00     0.310 C 
ATOM      4  O   UNL A   1      32.175  35.295  30.502  1.00  0.00    -0.252 OA
BRANCH   3   5
ATOM      5  C   UNL A   1      33.933  36.102  31.958  1.00  0.00     0.118 C 
ATOM      6  C   UNL A   1      32.874  36.938  32.687  1.00  0.00     0.022 C 
BRANCH   5   7
ATOM      7  C   UNL A   1      34.788  35.205  32.888  1.00  0.00     0.090 C 
ATOM      8  C   UNL A   1      34.105  33.884  33.263  1.00  0.00     0.031 C 
BRANCH   7   9
ATOM      9  N   UNL A   1      36.116  34.876  32.380  1.00  0.00    -0.379 N 
ATOM     10  H   UNL A   1      36.561  35.560  31.831  1.00  0.00     0.160 HD
BRANCH   9  11
ATOM     11  C   UNL A   1      36.813  33.693  32.594  1.00  0.00     0.077 A 
ATOM     12  C   UNL A   1      37.944  31.243  33.412  1.00  0.00     0.122 A 
ATOM     13  C   UNL A   1      37.159  31.314  32.261  1.00  0.00     0.049 A 
ATOM     14  C   UNL A   1      38.255  32.413  34.102  1.00  0.00     0.095 A 
ATOM     15  C   UNL A   1      36.598  32.529  31.854  1.00  0.00     0.033 A 
ATOM     16  C   UNL A   1      37.715  33.634  33.682  1.00  0.00     0.145 A 
BRANCH  12  17
ATOM     17  O   UNL A   1      38.360  29.986  33.759  1.00  0.00    -0.497 OA
ATOM     18  C   UNL A   1      37.821  28.915  32.991  1.00  0.00     0.278 C 
ENDBRANCH  12  17
BRANCH  16  19
ATOM     19  O   UNL A   1      37.941  34.834  34.332  1.00  0.00    -0.494 OA
ATOM     20  C   UNL A   1      39.187  34.925  35.010  1.00  0.00     0.278 C 
ENDBRANCH  16  19
ENDBRANCH   9  11
ENDBRANCH   7   9
ENDBRANCH   5   7
ENDBRANCH   3   5
ENDBRANCH   2   3
ENDBRANCH   1   2
BRANCH   1  21
ATOM     21  C   UNL A   1      34.963  32.829  28.690  1.00  0.00     0.275 C 
BRANCH  21  22
ATOM     22  O   UNL A   1      34.689  32.083  27.485  1.00  0.00    -0.458 OA
BRANCH  22  23
ATOM     23  C   UNL A   1      34.587  30.740  27.648  1.00  0.00     0.338 C 
ATOM     24  O   UNL A   1      33.579  30.069  27.500  1.00  0.00    -0.246 OA
BRANCH  23  25
ATOM     25  C   UNL A   1      35.907  30.130  27.909  1.00  0.00     0.060 A 
ATOM     26  C   UNL A   1      36.116  29.547  29.164  1.00  0.00     0.016 A 
ATOM     27  C   UNL A   1      36.959  30.214  26.995  1.00  0.00     0.016 A 
ATOM     28  C   UNL A   1      37.363  29.036  29.513  1.00  0.00     0.010 A 
ATOM     29  C   UNL A   1      38.223  29.724  27.356  1.00  0.00     0.010 A 
ATOM     30  C   UNL A   1      38.434  29.143  28.620  1.00  0.00    -0.014 A 
BRANCH  30  31
ATOM     31  C   UNL A   1      39.789  28.730  29.057  1.00  0.00     0.031 A 
ATOM     32  C   UNL A   1      40.616  29.669  29.889  1.00  0.00     0.074 A 
ATOM     33  C   UNL A   1      40.257  27.505  28.755  1.00  0.00     0.049 A 
ATOM     34  N   UNL A   1      41.834  29.521  30.341  1.00  0.00    -0.248 NA
ATOM     35  C   UNL A   1      39.983  30.943  30.265  1.00  0.00     0.031 C 
ATOM     36  C   UNL A   1      39.518  26.477  28.026  1.00  0.00     0.029 A 
ATOM     37  N   UNL A   1      41.465  26.917  29.037  1.00  0.00    -0.354 N 
ATOM     38  C   UNL A   1      42.125  30.689  31.036  1.00  0.00     0.074 A 
ATOM     39  C   UNL A   1      40.955  31.537  30.943  1.00  0.00     0.031 C 
ATOM     40  C   UNL A   1      40.284  25.376  27.928  1.00  0.00     0.029 A 
ATOM     41  C   UNL A   1      41.584  25.641  28.540  1.00  0.00     0.049 A 
ATOM     42  H   UNL A   1      42.178  27.366  29.545  1.00  0.00     0.167 HD
ATOM     43  C   UNL A   1      43.267  31.028  31.682  1.00  0.00     0.031 A 
ATOM     44  C   UNL A   1      42.633  24.794  28.556  1.00  0.00     0.031 A 
ATOM     45  C   UNL A   1      44.434  30.189  31.757  1.00  0.00     0.049 A 
ATOM     46  C   UNL A   1      43.924  25.233  29.196  1.00  0.00     0.074 A 
ATOM     47  C   UNL A   1      45.642  30.446  32.383  1.00  0.00     0.029 A 
ATOM     48  N   UNL A   1      44.543  28.933  31.177  1.00  0.00    -0.354 N 
ATOM     49  N   UNL A   1      44.191  26.347  29.836  1.00  0.00    -0.248 NA
ATOM     50  C   UNL A   1      45.060  24.305  29.103  1.00  0.00     0.031 C 
ATOM     51  C   UNL A   1      46.499  29.367  32.135  1.00  0.00     0.029 A 
ATOM     52  C   UNL A   1      45.807  28.416  31.403  1.00  0.00     0.049 A 
ATOM     53  H   UNL A   1      43.827  28.478  30.678  1.00  0.00     0.167 HD
ATOM     54  C   UNL A   1      45.518  26.243  30.242  1.00  0.00     0.074 A 
ATOM     55  C   UNL A   1      45.996  24.955  29.783  1.00  0.00     0.031 C 
ATOM     56  C   UNL A   1      46.270  27.132  30.936  1.00  0.00     0.031 A 
BRANCH  43  57
ATOM     57  C   UNL A   1      43.326  32.401  32.298  1.00  0.00    -0.014 A 
ATOM     58  C   UNL A   1      42.811  32.655  33.580  1.00  0.00     0.010 A 
ATOM     59  C   UNL A   1      43.909  33.456  31.572  1.00  0.00     0.010 A 
ATOM     60  C   UNL A   1      42.832  33.951  34.105  1.00  0.00     0.020 A 
ATOM     61  C   UNL A   1      43.953  34.747  32.103  1.00  0.00     0.020 A 
ATOM     62  C   UNL A   1      43.393  34.992  33.357  1.00  0.00     0.054 A 
BRANCH  62  63
ATOM     63  S   UNL A   1      43.391  36.668  34.050  1.00  0.00     0.124 S 
ATOM     64  O   UNL A   1      44.538  36.622  34.952  1.00  0.00    -0.237 OA
ATOM     65  O   UNL A   1      43.558  37.507  32.865  1.00  0.00    -0.237 OA
ATOM     66  O   UNL A   1      42.088  36.772  34.704  1.00  0.00    -0.744 OA
ENDBRANCH  62  63
ENDBRANCH  43  57
BRANCH  44  67
ATOM     67  C   UNL A   1      42.517  23.455  27.916  1.00  0.00    -0.014 A 
ATOM     68  C   UNL A   1      43.065  23.221  26.643  1.00  0.00     0.010 A 
ATOM     69  C   UNL A   1      41.860  22.403  28.581  1.00  0.00     0.010 A 
ATOM     70  C   UNL A   1      42.951  21.962  26.043  1.00  0.00     0.020 A 
ATOM     71  C   UNL A   1      41.766  21.138  27.996  1.00  0.00     0.020 A 
ATOM     72  C   UNL A   1      42.304  20.928  26.725  1.00  0.00     0.054 A 
BRANCH  72  73
ATOM     73  S   UNL A   1      42.217  19.286  25.955  1.00  0.00     0.124 S 
ATOM     74  O   UNL A   1      42.766  18.431  27.002  1.00  0.00    -0.237 OA
ATOM     75  O   UNL A   1      40.788  19.131  25.695  1.00  0.00    -0.237 OA
ATOM     76  O   UNL A   1      43.047  19.425  24.760  1.00  0.00    -0.744 OA
ENDBRANCH  72  73
ENDBRANCH  44  67
BRANCH  56  77
ATOM     77  C   UNL A   1      47.683  26.734  31.272  1.00  0.00    -0.014 A 
ATOM     78  C   UNL A   1      47.970  25.950  32.402  1.00  0.00     0.010 A 
ATOM     79  C   UNL A   1      48.731  27.100  30.406  1.00  0.00     0.010 A 
ATOM     80  C   UNL A   1      49.284  25.558  32.675  1.00  0.00     0.020 A 
ATOM     81  C   UNL A   1      50.042  26.690  30.663  1.00  0.00     0.020 A 
ATOM     82  C   UNL A   1      50.312  25.931  31.803  1.00  0.00     0.054 A 
BRANCH  82  83
ATOM     83  S   UNL A   1      52.002  25.366  32.147  1.00  0.00     0.124 S 
ATOM     84  O   UNL A   1      52.326  26.104  33.364  1.00  0.00    -0.237 OA
ATOM     85  O   UNL A   1      51.833  23.924  32.312  1.00  0.00    -0.237 OA
ATOM     86  O   UNL A   1      52.750  25.767  30.957  1.00  0.00    -0.744 OA
ENDBRANCH  82  83
ENDBRANCH  56  77
ENDBRANCH  30  31
ENDBRANCH  23  25
ENDBRANCH  22  23
ENDBRANCH  21  22
ENDBRANCH   1  21
TORSDOF 19
ENDMDL
MODEL 2
REMARK VINA RESULT:      -8.6      3.228      6.316
REMARK SMILES COc1ccc(N[C@H](C)[C@H](C)C(=O)OCCOC(=O)c2ccc(-c3c4nc(c(-c5ccc(S(=O)(=O)[O-])cc5)c5ccc([nH]5)c(-c5ccc(S(=O)(=O)[O-])cc5)c5nc(c(-c6ccc(S(=O)(=O)[O-])cc6)c6ccc3[nH]6)C=C5)C=C4)cc2)c(OC)c1
REMARK SMILES IDX 15 1 14 2 12 3 13 4 10 5 11 6 8 7 9 8 7 9 6 11 3 12 4 13
REMARK SMILES IDX 83 14 5 15 80 16 2 17 1 18 81 19 82 20 16 21 17 22 18 23
REMARK SMILES IDX 19 24 20 25 21 26 79 27 22 28 78 29 23 30 24 31 25 32 72 33
REMARK SMILES IDX 26 34 77 35 71 36 73 37 27 38 76 39 70 40 69 41 28 43 58 44
REMARK SMILES IDX 39 45 57 46 40 47 43 48 56 49 74 50 41 51 42 52 55 54 75 55
REMARK SMILES IDX 44 56 29 57 30 58 38 59 31 60 37 61 32 62 33 63 34 64 35 65
REMARK SMILES IDX 36 66 59 67 60 68 68 69 61 70 67 71 62 72 63 73 64 74 65 75
REMARK SMILES IDX 66 76 45 77 46 78 54 79 47 80 53 81 48 82 49 83 50 84 51 85
REMARK SMILES IDX 52 86
REMARK H PARENT 7 10 73 42 43 53
REMARK Flexibility Score: inf
ROOT
ATOM      1  C   UNL A   1      32.506  29.254  25.120  1.00  0.00     0.274 C 
ENDROOT
BRANCH   1   2
ATOM      2  O   UNL A   1      32.669  28.125  24.233  1.00  0.00    -0.462 OA
BRANCH   2   3
ATOM      3  C   UNL A   1      31.495  27.619  23.768  1.00  0.00     0.310 C 
ATOM      4  O   UNL A   1      30.504  28.313  23.572  1.00  0.00    -0.252 OA
BRANCH   3   5
ATOM      5  C   UNL A   1      31.554  26.137  23.418  1.00  0.00     0.118 C 
ATOM      6  C   UNL A   1      31.909  25.908  21.945  1.00  0.00     0.022 C 
BRANCH   5   7
ATOM      7  C   UNL A   1      32.322  25.226  24.409  1.00  0.00     0.090 C 
ATOM      8  C   UNL A   1      31.405  24.378  25.299  1.00  0.00     0.031 C 
BRANCH   7   9
ATOM      9  N   UNL A   1      33.287  24.321  23.794  1.00  0.00    -0.379 N 
ATOM     10  H   UNL A   1      33.178  24.144  22.833  1.00  0.00     0.160 HD
BRANCH   9  11
ATOM     11  C   UNL A   1      34.344  23.682  24.432  1.00  0.00     0.077 A 
ATOM     12  C   UNL A   1      36.660  22.317  25.284  1.00  0.00     0.122 A 
ATOM     13  C   UNL A   1      36.515  23.685  25.517  1.00  0.00     0.049 A 
ATOM     14  C   UNL A   1      35.604  21.604  24.720  1.00  0.00     0.095 A 
ATOM     15  C   UNL A   1      35.367  24.362  25.095  1.00  0.00     0.033 A 
ATOM     16  C   UNL A   1      34.443  22.276  24.319  1.00  0.00     0.145 A 
BRANCH  12  17
ATOM     17  O   UNL A   1      37.863  21.785  25.659  1.00  0.00    -0.497 OA
ATOM     18  C   UNL A   1      38.776  22.681  26.283  1.00  0.00     0.278 C 
ENDBRANCH  12  17
BRANCH  16  19
ATOM     19  O   UNL A   1      33.367  21.651  23.717  1.00  0.00    -0.494 OA
ATOM     20  C   UNL A   1      32.714  20.673  24.517  1.00  0.00     0.278 C 
ENDBRANCH  16  19
ENDBRANCH   9  11
ENDBRANCH   7   9
ENDBRANCH   5   7
ENDBRANCH   3   5
ENDBRANCH   2   3
ENDBRANCH   1   2
BRANCH   1  21
ATOM     21  C   UNL A   1      32.505  28.876  26.612  1.00  0.00     0.275 C 
BRANCH  21  22
ATOM     22  O   UNL A   1      33.824  28.825  27.196  1.00  0.00    -0.458 OA
BRANCH  22  23
ATOM     23  C   UNL A   1      34.300  30.012  27.650  1.00  0.00     0.338 C 
ATOM     24  O   UNL A   1      33.666  31.048  27.768  1.00  0.00    -0.246 OA
BRANCH  23  25
ATOM     25  C   UNL A   1      35.692  29.883  28.128  1.00  0.00     0.060 A 
ATOM     26  C   UNL A   1      36.717  30.053  27.191  1.00  0.00     0.016 A 
ATOM     27  C   UNL A   1      35.998  29.501  29.435  1.00  0.00     0.016 A 
ATOM     28  C   UNL A   1      38.049  29.855  27.550  1.00  0.00     0.010 A 
ATOM     29  C   UNL A   1      37.336  29.275  29.790  1.00  0.00     0.010 A 
ATOM     30  C   UNL A   1      38.366  29.440  28.847  1.00  0.00    -0.014 A 
BRANCH  30  31
ATOM     31  C   UNL A   1      39.769  29.092  29.175  1.00  0.00     0.031 A 
ATOM     32  C   UNL A   1      40.628  30.088  29.901  1.00  0.00     0.074 A 
ATOM     33  C   UNL A   1      40.257  27.875  28.870  1.00  0.00     0.049 A 
ATOM     34  N   UNL A   1      41.887  30.000  30.247  1.00  0.00    -0.248 NA
ATOM     35  C   UNL A   1      39.982  31.350  30.292  1.00  0.00     0.031 C 
ATOM     36  C   UNL A   1      39.497  26.796  28.242  1.00  0.00     0.029 A 
ATOM     37  N   UNL A   1      41.507  27.341  29.062  1.00  0.00    -0.354 N 
ATOM     38  C   UNL A   1      42.192  31.200  30.877  1.00  0.00     0.074 A 
ATOM     39  C   UNL A   1      40.985  32.002  30.862  1.00  0.00     0.031 C 
ATOM     40  C   UNL A   1      40.294  25.721  28.111  1.00  0.00     0.029 A 
ATOM     41  C   UNL A   1      41.631  26.054  28.597  1.00  0.00     0.049 A 
ATOM     42  H   UNL A   1      42.243  27.833  29.491  1.00  0.00     0.167 HD
ATOM     43  C   UNL A   1      43.371  31.603  31.408  1.00  0.00     0.031 A 
ATOM     44  C   UNL A   1      42.710  25.247  28.545  1.00  0.00     0.031 A 
ATOM     45  C   UNL A   1      44.573  30.810  31.405  1.00  0.00     0.049 A 
ATOM     46  C   UNL A   1      44.034  25.753  29.054  1.00  0.00     0.074 A 
ATOM     47  C   UNL A   1      45.819  31.132  31.913  1.00  0.00     0.029 A 
ATOM     48  N   UNL A   1      44.679  29.539  30.857  1.00  0.00    -0.354 N 
ATOM     49  N   UNL A   1      44.313  26.898  29.634  1.00  0.00    -0.248 NA
ATOM     50  C   UNL A   1      45.193  24.864  28.890  1.00  0.00     0.031 C 
ATOM     51  C   UNL A   1      46.693  30.077  31.624  1.00  0.00     0.029 A 
ATOM     52  C   UNL A   1      45.977  29.076  30.986  1.00  0.00     0.049 A 
ATOM     53  H   UNL A   1      43.941  29.042  30.438  1.00  0.00     0.167 HD
ATOM     54  C   UNL A   1      45.672  26.856  29.923  1.00  0.00     0.074 A 
ATOM     55  C   UNL A   1      46.158  25.571  29.463  1.00  0.00     0.031 C 
ATOM     56  C   UNL A   1      46.447  27.795  30.519  1.00  0.00     0.031 A 
BRANCH  43  57
ATOM     57  C   UNL A   1      43.431  32.997  31.973  1.00  0.00    -0.014 A 
ATOM     58  C   UNL A   1      43.667  34.115  31.153  1.00  0.00     0.010 A 
ATOM     59  C   UNL A   1      43.249  33.187  33.356  1.00  0.00     0.010 A 
ATOM     60  C   UNL A   1      43.769  35.392  31.714  1.00  0.00     0.020 A 
ATOM     61  C   UNL A   1      43.327  34.465  33.915  1.00  0.00     0.020 A 
ATOM     62  C   UNL A   1      43.610  35.557  33.094  1.00  0.00     0.054 A 
BRANCH  62  63
ATOM     63  S   UNL A   1      43.767  37.220  33.801  1.00  0.00     0.124 S 
ATOM     64  O   UNL A   1      44.265  37.985  32.661  1.00  0.00    -0.237 OA
ATOM     65  O   UNL A   1      42.400  37.526  34.214  1.00  0.00    -0.237 OA
ATOM     66  O   UNL A   1      44.720  37.042  34.896  1.00  0.00    -0.744 OA
ENDBRANCH  62  63
ENDBRANCH  43  57
BRANCH  44  67
ATOM     67  C   UNL A   1      42.591  23.883  27.961  1.00  0.00    -0.014 A 
ATOM     68  C   UNL A   1      42.377  22.767  28.788  1.00  0.00     0.010 A 
ATOM     69  C   UNL A   1      42.690  23.693  26.570  1.00  0.00     0.010 A 
ATOM     70  C   UNL A   1      42.269  21.486  28.236  1.00  0.00     0.020 A 
ATOM     71  C   UNL A   1      42.558  22.418  26.012  1.00  0.00     0.020 A 
ATOM     72  C   UNL A   1      42.358  21.320  26.851  1.00  0.00     0.054 A 
BRANCH  72  73
ATOM     73  S   UNL A   1      42.159  19.658  26.149  1.00  0.00     0.124 S 
ATOM     74  O   UNL A   1      42.497  18.807  27.285  1.00  0.00    -0.237 OA
ATOM     75  O   UNL A   1      40.755  19.648  25.747  1.00  0.00    -0.237 OA
ATOM     76  O   UNL A   1      43.115  19.637  25.044  1.00  0.00    -0.744 OA
ENDBRANCH  72  73
ENDBRANCH  44  67
BRANCH  56  77
ATOM     77  C   UNL A   1      47.899  27.460  30.741  1.00  0.00    -0.014 A 
ATOM     78  C   UNL A   1      48.338  26.881  31.944  1.00  0.00     0.010 A 
ATOM     79  C   UNL A   1      48.825  27.672  29.703  1.00  0.00     0.010 A 
ATOM     80  C   UNL A   1      49.683  26.541  32.115  1.00  0.00     0.020 A 
ATOM     81  C   UNL A   1      50.166  27.311  29.861  1.00  0.00     0.020 A 
ATOM     82  C   UNL A   1      50.589  26.759  31.071  1.00  0.00     0.054 A 
BRANCH  82  83
ATOM     83  S   UNL A   1      52.319  26.261  31.295  1.00  0.00     0.124 S 
ATOM     84  O   UNL A   1      52.873  26.480  29.961  1.00  0.00    -0.237 OA
ATOM     85  O   UNL A   1      52.789  27.179  32.329  1.00  0.00    -0.237 OA
ATOM     86  O   UNL A   1      52.226  24.862  31.709  1.00  0.00    -0.744 OA
ENDBRANCH  82  83
ENDBRANCH  56  77
ENDBRANCH  30  31
ENDBRANCH  23  25
ENDBRANCH  22  23
ENDBRANCH  21  22
ENDBRANCH   1  21
TORSDOF 19
ENDMDL
MODEL 3
REMARK VINA RESULT:      -8.6      4.332     12.113
REMARK SMILES COc1ccc(N[C@H](C)[C@H](C)C(=O)OCCOC(=O)c2ccc(-c3c4nc(c(-c5ccc(S(=O)(=O)[O-])cc5)c5ccc([nH]5)c(-c5ccc(S(=O)(=O)[O-])cc5)c5nc(c(-c6ccc(S(=O)(=O)[O-])cc6)c6ccc3[nH]6)C=C5)C=C4)cc2)c(OC)c1
REMARK SMILES IDX 15 1 14 2 12 3 13 4 10 5 11 6 8 7 9 8 7 9 6 11 3 12 4 13
REMARK SMILES IDX 83 14 5 15 80 16 2 17 1 18 81 19 82 20 16 21 17 22 18 23
REMARK SMILES IDX 19 24 20 25 21 26 79 27 22 28 78 29 23 30 24 31 25 32 72 33
REMARK SMILES IDX 26 34 77 35 71 36 73 37 27 38 76 39 70 40 69 41 28 43 58 44
REMARK SMILES IDX 39 45 57 46 40 47 43 48 56 49 74 50 41 51 42 52 55 54 75 55
REMARK SMILES IDX 44 56 29 57 30 58 38 59 31 60 37 61 32 62 33 63 34 64 35 65
REMARK SMILES IDX 36 66 59 67 60 68 68 69 61 70 67 71 62 72 63 73 64 74 65 75
REMARK SMILES IDX 66 76 45 77 46 78 54 79 47 80 53 81 48 82 49 83 50 84 51 85
REMARK SMILES IDX 52 86
REMARK H PARENT 7 10 73 42 43 53
REMARK Flexibility Score: inf
ROOT
ATOM      1  C   UNL A   1      45.688  24.042  26.062  1.00  0.00     0.274 C 
ENDROOT
BRANCH   1   2
ATOM      2  O   UNL A   1      45.407  22.626  26.027  1.00  0.00    -0.462 OA
BRANCH   2   3
ATOM      3  C   UNL A   1      45.562  22.066  24.796  1.00  0.00     0.310 C 
ATOM      4  O   UNL A   1      45.989  22.692  23.833  1.00  0.00    -0.252 OA
BRANCH   3   5
ATOM      5  C   UNL A   1      45.258  20.574  24.750  1.00  0.00     0.118 C 
ATOM      6  C   UNL A   1      46.382  19.738  25.372  1.00  0.00     0.022 C 
BRANCH   5   7
ATOM      7  C   UNL A   1      43.832  20.150  25.185  1.00  0.00     0.090 C 
ATOM      8  C   UNL A   1      43.611  18.632  25.163  1.00  0.00     0.031 C 
BRANCH   7   9
ATOM      9  N   UNL A   1      43.419  20.628  26.500  1.00  0.00    -0.379 N 
ATOM     10  H   UNL A   1      44.047  20.479  27.242  1.00  0.00     0.160 HD
BRANCH   9  11
ATOM     11  C   UNL A   1      42.226  21.272  26.808  1.00  0.00     0.077 A 
ATOM     12  C   UNL A   1      40.003  22.958  27.215  1.00  0.00     0.122 A 
ATOM     13  C   UNL A   1      39.931  21.890  26.320  1.00  0.00     0.049 A 
ATOM     14  C   UNL A   1      41.149  23.125  27.990  1.00  0.00     0.095 A 
ATOM     15  C   UNL A   1      41.033  21.054  26.118  1.00  0.00     0.033 A 
ATOM     16  C   UNL A   1      42.245  22.274  27.807  1.00  0.00     0.145 A 
BRANCH  12  17
ATOM     17  O   UNL A   1      38.894  23.759  27.259  1.00  0.00    -0.497 OA
ATOM     18  C   UNL A   1      37.985  23.629  26.171  1.00  0.00     0.278 C 
ENDBRANCH  12  17
BRANCH  16  19
ATOM     19  O   UNL A   1      43.432  22.395  28.505  1.00  0.00    -0.494 OA
ATOM     20  C   UNL A   1      43.417  23.353  29.556  1.00  0.00     0.278 C 
ENDBRANCH  16  19
ENDBRANCH   9  11
ENDBRANCH   7   9
ENDBRANCH   5   7
ENDBRANCH   3   5
ENDBRANCH   2   3
ENDBRANCH   1   2
BRANCH   1  21
ATOM     21  C   UNL A   1      44.603  24.908  25.397  1.00  0.00     0.275 C 
BRANCH  21  22
ATOM     22  O   UNL A   1      43.453  25.140  26.237  1.00  0.00    -0.458 OA
BRANCH  22  23
ATOM     23  C   UNL A   1      42.637  26.146  25.834  1.00  0.00     0.338 C 
ATOM     24  O   UNL A   1      42.256  26.355  24.694  1.00  0.00    -0.246 OA
BRANCH  23  25
ATOM     25  C   UNL A   1      42.133  26.921  26.986  1.00  0.00     0.060 A 
ATOM     26  C   UNL A   1      42.759  28.138  27.273  1.00  0.00     0.016 A 
ATOM     27  C   UNL A   1      41.142  26.429  27.837  1.00  0.00     0.016 A 
ATOM     28  C   UNL A   1      42.398  28.877  28.397  1.00  0.00     0.010 A 
ATOM     29  C   UNL A   1      40.796  27.158  28.984  1.00  0.00     0.010 A 
ATOM     30  C   UNL A   1      41.431  28.380  29.275  1.00  0.00    -0.014 A 
BRANCH  30  31
ATOM     31  C   UNL A   1      41.161  29.101  30.542  1.00  0.00     0.031 A 
ATOM     32  C   UNL A   1      40.015  30.071  30.611  1.00  0.00     0.074 A 
ATOM     33  C   UNL A   1      41.903  28.854  31.637  1.00  0.00     0.049 A 
ATOM     34  N   UNL A   1      39.632  30.831  31.605  1.00  0.00    -0.248 NA
ATOM     35  C   UNL A   1      39.189  30.198  29.401  1.00  0.00     0.031 C 
ATOM     36  C   UNL A   1      42.986  27.877  31.718  1.00  0.00     0.029 A 
ATOM     37  N   UNL A   1      41.847  29.401  32.895  1.00  0.00    -0.354 N 
ATOM     38  C   UNL A   1      38.535  31.544  31.135  1.00  0.00     0.074 A 
ATOM     39  C   UNL A   1      38.316  31.126  29.766  1.00  0.00     0.031 C 
ATOM     40  C   UNL A   1      43.487  27.882  32.965  1.00  0.00     0.029 A 
ATOM     41  C   UNL A   1      42.795  28.899  33.755  1.00  0.00     0.049 A 
ATOM     42  H   UNL A   1      41.191  30.086  33.156  1.00  0.00     0.167 HD
ATOM     43  C   UNL A   1      37.787  32.470  31.782  1.00  0.00     0.031 A 
ATOM     44  C   UNL A   1      43.087  29.242  35.025  1.00  0.00     0.031 A 
ATOM     45  C   UNL A   1      38.019  32.895  33.138  1.00  0.00     0.049 A 
ATOM     46  C   UNL A   1      42.303  30.342  35.690  1.00  0.00     0.074 A 
ATOM     47  C   UNL A   1      37.319  33.831  33.879  1.00  0.00     0.029 A 
ATOM     48  N   UNL A   1      39.036  32.418  33.952  1.00  0.00    -0.354 N 
ATOM     49  N   UNL A   1      41.277  31.020  35.230  1.00  0.00    -0.248 NA
ATOM     50  C   UNL A   1      42.725  30.735  37.043  1.00  0.00     0.031 C 
ATOM     51  C   UNL A   1      37.947  33.958  35.124  1.00  0.00     0.029 A 
ATOM     52  C   UNL A   1      39.003  33.062  35.177  1.00  0.00     0.049 A 
ATOM     53  H   UNL A   1      39.685  31.724  33.696  1.00  0.00     0.167 HD
ATOM     54  C   UNL A   1      40.918  31.901  36.244  1.00  0.00     0.074 A 
ATOM     55  C   UNL A   1      41.829  31.666  37.345  1.00  0.00     0.031 C 
ATOM     56  C   UNL A   1      39.920  32.819  36.263  1.00  0.00     0.031 A 
BRANCH  43  57
ATOM     57  C   UNL A   1      36.688  33.136  30.997  1.00  0.00    -0.014 A 
ATOM     58  C   UNL A   1      36.960  33.885  29.839  1.00  0.00     0.010 A 
ATOM     59  C   UNL A   1      35.356  33.009  31.434  1.00  0.00     0.010 A 
ATOM     60  C   UNL A   1      35.925  34.536  29.160  1.00  0.00     0.020 A 
ATOM     61  C   UNL A   1      34.317  33.639  30.745  1.00  0.00     0.020 A 
ATOM     62  C   UNL A   1      34.612  34.418  29.625  1.00  0.00     0.054 A 
BRANCH  62  63
ATOM     63  S   UNL A   1      33.289  35.289  28.740  1.00  0.00     0.124 S 
ATOM     64  O   UNL A   1      34.046  36.197  27.884  1.00  0.00    -0.237 OA
ATOM     65  O   UNL A   1      32.596  34.205  28.048  1.00  0.00    -0.237 OA
ATOM     66  O   UNL A   1      32.523  35.931  29.807  1.00  0.00    -0.744 OA
ENDBRANCH  62  63
ENDBRANCH  43  57
BRANCH  44  67
ATOM     67  C   UNL A   1      44.196  28.556  35.744  1.00  0.00    -0.014 A 
ATOM     68  C   UNL A   1      45.511  29.045  35.663  1.00  0.00     0.010 A 
ATOM     69  C   UNL A   1      43.940  27.408  36.517  1.00  0.00     0.010 A 
ATOM     70  C   UNL A   1      46.551  28.397  36.337  1.00  0.00     0.020 A 
ATOM     71  C   UNL A   1      44.973  26.772  37.212  1.00  0.00     0.020 A 
ATOM     72  C   UNL A   1      46.275  27.265  37.109  1.00  0.00     0.054 A 
BRANCH  72  73
ATOM     73  S   UNL A   1      47.628  26.471  38.022  1.00  0.00     0.124 S 
ATOM     74  O   UNL A   1      47.228  26.690  39.408  1.00  0.00    -0.237 OA
ATOM     75  O   UNL A   1      47.560  25.089  37.555  1.00  0.00    -0.237 OA
ATOM     76  O   UNL A   1      48.813  27.209  37.587  1.00  0.00    -0.744 OA
ENDBRANCH  72  73
ENDBRANCH  44  67
BRANCH  56  77
ATOM     77  C   UNL A   1      39.737  33.620  37.525  1.00  0.00    -0.014 A 
ATOM     78  C   UNL A   1      40.347  34.876  37.686  1.00  0.00     0.010 A 
ATOM     79  C   UNL A   1      38.890  33.133  38.538  1.00  0.00     0.010 A 
ATOM     80  C   UNL A   1      40.132  35.622  38.849  1.00  0.00     0.020 A 
ATOM     81  C   UNL A   1      38.654  33.886  39.692  1.00  0.00     0.020 A 
ATOM     82  C   UNL A   1      39.286  35.121  39.845  1.00  0.00     0.054 A 
BRANCH  82  83
ATOM     83  S   UNL A   1      38.979  36.129  41.322  1.00  0.00     0.124 S 
ATOM     84  O   UNL A   1      38.798  37.460  40.749  1.00  0.00    -0.237 OA
ATOM     85  O   UNL A   1      37.777  35.518  41.886  1.00  0.00    -0.237 OA
ATOM     86  O   UNL A   1      40.191  35.953  42.119  1.00  0.00    -0.744 OA
ENDBRANCH  82  83
ENDBRANCH  56  77
ENDBRANCH  30  31
ENDBRANCH  23  25
ENDBRANCH  22  23
ENDBRANCH  21  22
ENDBRANCH   1  21
TORSDOF 19
ENDMDL
