MODEL 1
REMARK VINA RESULT:     -10.7      0.000      0.000
REMARK SMILES O=C(OCCOC(=O)c1cc(-c2ccoc2)nc2c(F)cccc12)c1ccc(-c2c3nc(c(-c4ccc(S(=O)(=O)[O-])cc4)c4ccc([nH]4)c(-c4ccc(S(=O)(=O)[O-])cc4)c4nc(c(-c5ccc(S(=O)(=O)[O-])cc5)c5ccc2[nH]5)C=C4)C=C3)cc1
REMARK SMILES IDX 4 1 3 2 2 3 1 4 25 5 26 6 84 7 27 8 83 9 28 10 29 11 30 12
REMARK SMILES IDX 77 13 31 14 82 15 76 16 78 17 32 18 81 19 75 20 74 21 33 23
REMARK SMILES IDX 63 24 44 25 62 26 45 27 48 28 61 29 79 30 46 31 47 32 60 34
REMARK SMILES IDX 80 35 49 36 34 37 35 38 43 39 36 40 42 41 37 42 38 43 39 44
REMARK SMILES IDX 40 45 41 46 64 47 65 48 73 49 66 50 72 51 67 52 68 53 69 54
REMARK SMILES IDX 70 55 71 56 50 57 51 58 59 59 52 60 58 61 53 62 54 63 55 64
REMARK SMILES IDX 56 65 57 66 5 67 6 68 7 69 8 70 9 71 10 72 24 73 11 74 18 75
REMARK SMILES IDX 23 76 17 77 19 78 22 79 20 80 21 81 12 82 13 83 16 84 14 85
REMARK SMILES IDX 15 86
REMARK H PARENT 78 22 48 33
REMARK Flexibility Score: inf
ROOT
ATOM      1  C   UNL A   1      33.374  28.411  25.873  1.00  0.00     0.275 C 
ENDROOT
BRANCH   1   2
ATOM      2  O   UNL A   1      33.752  29.773  26.119  1.00  0.00    -0.458 OA
BRANCH   2   3
ATOM      3  C   UNL A   1      34.126  30.372  27.273  1.00  0.00     0.338 C 
ATOM      4  O   UNL A   1      33.435  31.299  27.694  1.00  0.00    -0.246 OA
BRANCH   3   5
ATOM      5  C   UNL A   1      35.410  30.080  27.992  1.00  0.00     0.060 A 
ATOM      6  C   UNL A   1      35.560  29.525  29.261  1.00  0.00     0.016 A 
ATOM      7  C   UNL A   1      36.582  30.373  27.276  1.00  0.00     0.016 A 
ATOM      8  C   UNL A   1      36.824  29.183  29.753  1.00  0.00     0.010 A 
ATOM      9  C   UNL A   1      37.844  29.988  27.734  1.00  0.00     0.010 A 
ATOM     10  C   UNL A   1      37.973  29.389  28.987  1.00  0.00    -0.014 A 
BRANCH  10  11
ATOM     11  C   UNL A   1      39.304  29.111  29.570  1.00  0.00     0.031 A 
ATOM     12  C   UNL A   1      39.824  30.025  30.641  1.00  0.00     0.074 A 
ATOM     13  C   UNL A   1      39.996  28.008  29.223  1.00  0.00     0.049 A 
ATOM     14  N   UNL A   1      40.909  29.907  31.357  1.00  0.00    -0.248 NA
ATOM     15  C   UNL A   1      38.994  31.191  30.991  1.00  0.00     0.031 C 
ATOM     16  C   UNL A   1      39.542  26.985  28.283  1.00  0.00     0.029 A 
ATOM     17  N   UNL A   1      41.230  27.557  29.621  1.00  0.00    -0.354 N 
ATOM     18  C   UNL A   1      40.851  30.934  32.286  1.00  0.00     0.074 A 
ATOM     19  C   UNL A   1      39.687  31.730  31.981  1.00  0.00     0.031 C 
ATOM     20  C   UNL A   1      40.507  26.061  28.132  1.00  0.00     0.029 A 
ATOM     21  C   UNL A   1      41.650  26.434  28.946  1.00  0.00     0.049 A 
ATOM     22  H   UNL A   1      41.763  27.995  30.323  1.00  0.00     0.167 HD
ATOM     23  C   UNL A   1      41.662  31.152  33.345  1.00  0.00     0.031 A 
ATOM     24  C   UNL A   1      42.830  25.788  28.966  1.00  0.00     0.031 A 
ATOM     25  C   UNL A   1      42.841  30.379  33.619  1.00  0.00     0.049 A 
ATOM     26  C   UNL A   1      43.838  26.197  29.997  1.00  0.00     0.074 A 
ATOM     27  C   UNL A   1      43.742  30.521  34.657  1.00  0.00     0.029 A 
ATOM     28  N   UNL A   1      43.292  29.328  32.833  1.00  0.00    -0.354 N 
ATOM     29  N   UNL A   1      43.742  27.143  30.900  1.00  0.00    -0.248 NA
ATOM     30  C   UNL A   1      45.074  25.411  30.063  1.00  0.00     0.031 C 
ATOM     31  C   UNL A   1      44.772  29.596  34.464  1.00  0.00     0.029 A 
ATOM     32  C   UNL A   1      44.478  28.834  33.343  1.00  0.00     0.049 A 
ATOM     33  H   UNL A   1      42.834  28.984  32.033  1.00  0.00     0.167 HD
ATOM     34  C   UNL A   1      44.877  27.023  31.687  1.00  0.00     0.074 A 
ATOM     35  C   UNL A   1      45.646  25.921  31.145  1.00  0.00     0.031 C 
ATOM     36  C   UNL A   1      45.234  27.745  32.778  1.00  0.00     0.031 A 
BRANCH  23  37
ATOM     37  C   UNL A   1      41.280  32.268  34.275  1.00  0.00    -0.014 A 
ATOM     38  C   UNL A   1      40.545  32.001  35.446  1.00  0.00     0.010 A 
ATOM     39  C   UNL A   1      41.661  33.588  33.988  1.00  0.00     0.010 A 
ATOM     40  C   UNL A   1      40.177  33.041  36.303  1.00  0.00     0.020 A 
ATOM     41  C   UNL A   1      41.314  34.628  34.855  1.00  0.00     0.020 A 
ATOM     42  C   UNL A   1      40.567  34.348  36.001  1.00  0.00     0.054 A 
BRANCH  42  43
ATOM     43  S   UNL A   1      40.110  35.674  37.152  1.00  0.00     0.124 S 
ATOM     44  O   UNL A   1      39.757  36.758  36.240  1.00  0.00    -0.237 OA
ATOM     45  O   UNL A   1      38.994  35.083  37.887  1.00  0.00    -0.237 OA
ATOM     46  O   UNL A   1      41.324  35.888  37.934  1.00  0.00    -0.744 OA
ENDBRANCH  42  43
ENDBRANCH  23  37
BRANCH  24  47
ATOM     47  C   UNL A   1      43.130  24.708  27.986  1.00  0.00    -0.014 A 
ATOM     48  C   UNL A   1      42.779  23.370  28.230  1.00  0.00     0.010 A 
ATOM     49  C   UNL A   1      43.831  25.026  26.806  1.00  0.00     0.010 A 
ATOM     50  C   UNL A   1      43.149  22.366  27.327  1.00  0.00     0.020 A 
ATOM     51  C   UNL A   1      44.182  24.029  25.891  1.00  0.00     0.020 A 
ATOM     52  C   UNL A   1      43.853  22.700  26.166  1.00  0.00     0.054 A 
BRANCH  52  53
ATOM     53  S   UNL A   1      44.308  21.382  25.003  1.00  0.00     0.124 S 
ATOM     54  O   UNL A   1      45.644  21.018  25.462  1.00  0.00    -0.237 OA
ATOM     55  O   UNL A   1      43.264  20.387  25.233  1.00  0.00    -0.237 OA
ATOM     56  O   UNL A   1      44.250  22.043  23.701  1.00  0.00    -0.744 OA
ENDBRANCH  52  53
ENDBRANCH  24  47
BRANCH  36  57
ATOM     57  C   UNL A   1      46.491  27.323  33.482  1.00  0.00    -0.014 A 
ATOM     58  C   UNL A   1      47.735  27.892  33.159  1.00  0.00     0.010 A 
ATOM     59  C   UNL A   1      46.417  26.352  34.497  1.00  0.00     0.010 A 
ATOM     60  C   UNL A   1      48.892  27.462  33.809  1.00  0.00     0.020 A 
ATOM     61  C   UNL A   1      47.567  25.947  35.174  1.00  0.00     0.020 A 
ATOM     62  C   UNL A   1      48.800  26.491  34.811  1.00  0.00     0.054 A 
BRANCH  62  63
ATOM     63  S   UNL A   1      50.314  25.970  35.659  1.00  0.00     0.124 S 
ATOM     64  O   UNL A   1      50.727  24.821  34.859  1.00  0.00    -0.237 OA
ATOM     65  O   UNL A   1      51.164  27.152  35.550  1.00  0.00    -0.237 OA
ATOM     66  O   UNL A   1      49.862  25.657  37.013  1.00  0.00    -0.744 OA
ENDBRANCH  62  63
ENDBRANCH  36  57
ENDBRANCH  10  11
ENDBRANCH   3   5
ENDBRANCH   2   3
ENDBRANCH   1   2
BRANCH   1  67
ATOM     67  C   UNL A   1      33.976  27.793  24.607  1.00  0.00     0.275 C 
BRANCH  67  68
ATOM     68  O   UNL A   1      33.092  26.886  23.924  1.00  0.00    -0.458 OA
BRANCH  68  69
ATOM     69  C   UNL A   1      33.663  25.752  23.445  1.00  0.00     0.339 C 
ATOM     70  O   UNL A   1      33.974  25.526  22.284  1.00  0.00    -0.246 OA
BRANCH  69  71
ATOM     71  C   UNL A   1      33.988  24.837  24.558  1.00  0.00     0.071 A 
ATOM     72  C   UNL A   1      35.332  24.467  24.686  1.00  0.00     0.045 A 
ATOM     73  C   UNL A   1      32.997  24.314  25.423  1.00  0.00     0.018 A 
ATOM     74  C   UNL A   1      35.670  23.633  25.729  1.00  0.00     0.075 A 
ATOM     75  C   UNL A   1      33.455  23.460  26.448  1.00  0.00     0.107 A 
ATOM     76  C   UNL A   1      31.601  24.556  25.302  1.00  0.00     0.011 A 
ATOM     77  N   UNL A   1      34.758  23.145  26.593  1.00  0.00    -0.245 NA
ATOM     78  C   UNL A   1      32.516  22.904  27.314  1.00  0.00     0.149 A 
ATOM     79  C   UNL A   1      30.686  23.954  26.165  1.00  0.00     0.004 A 
ATOM     80  F   UNL A   1      32.923  22.111  28.320  1.00  0.00    -0.205 F 
ATOM     81  C   UNL A   1      31.149  23.121  27.174  1.00  0.00     0.041 A 
BRANCH  74  82
ATOM     82  C   UNL A   1      37.019  23.158  25.961  1.00  0.00     0.038 A 
ATOM     83  C   UNL A   1      38.146  23.892  26.429  1.00  0.00     0.052 A 
ATOM     84  C   UNL A   1      37.504  21.906  25.650  1.00  0.00     0.205 A 
ATOM     85  C   UNL A   1      39.215  23.031  26.399  1.00  0.00     0.195 A 
ATOM     86  O   UNL A   1      38.833  21.818  25.930  1.00  0.00    -0.472 OA
ENDBRANCH  74  82
ENDBRANCH  69  71
ENDBRANCH  68  69
ENDBRANCH  67  68
ENDBRANCH   1  67
TORSDOF 15
ENDMDL
MODEL 2
REMARK VINA RESULT:     -10.7      3.658      9.770
REMARK SMILES O=C(OCCOC(=O)c1cc(-c2ccoc2)nc2c(F)cccc12)c1ccc(-c2c3nc(c(-c4ccc(S(=O)(=O)[O-])cc4)c4ccc([nH]4)c(-c4ccc(S(=O)(=O)[O-])cc4)c4nc(c(-c5ccc(S(=O)(=O)[O-])cc5)c5ccc2[nH]5)C=C4)C=C3)cc1
REMARK SMILES IDX 4 1 3 2 2 3 1 4 25 5 26 6 84 7 27 8 83 9 28 10 29 11 30 12
REMARK SMILES IDX 77 13 31 14 82 15 76 16 78 17 32 18 81 19 75 20 74 21 33 23
REMARK SMILES IDX 63 24 44 25 62 26 45 27 48 28 61 29 79 30 46 31 47 32 60 34
REMARK SMILES IDX 80 35 49 36 34 37 35 38 43 39 36 40 42 41 37 42 38 43 39 44
REMARK SMILES IDX 40 45 41 46 64 47 65 48 73 49 66 50 72 51 67 52 68 53 69 54
REMARK SMILES IDX 70 55 71 56 50 57 51 58 59 59 52 60 58 61 53 62 54 63 55 64
REMARK SMILES IDX 56 65 57 66 5 67 6 68 7 69 8 70 9 71 10 72 24 73 11 74 18 75
REMARK SMILES IDX 23 76 17 77 19 78 22 79 20 80 21 81 12 82 13 83 16 84 14 85
REMARK SMILES IDX 15 86
REMARK H PARENT 78 22 48 33
REMARK Flexibility Score: inf
ROOT
ATOM      1  C   UNL A   1      39.493  23.258  26.871  1.00  0.00     0.275 C 
ENDROOT
BRANCH   1   2
ATOM      2  O   UNL A   1      39.049  24.620  26.960  1.00  0.00    -0.458 OA
BRANCH   2   3
ATOM      3  C   UNL A   1      39.761  25.748  27.187  1.00  0.00     0.338 C 
ATOM      4  O   UNL A   1      40.636  26.053  26.377  1.00  0.00    -0.246 OA
BRANCH   3   5
ATOM      5  C   UNL A   1      39.655  26.568  28.439  1.00  0.00     0.060 A 
ATOM      6  C   UNL A   1      38.815  26.344  29.527  1.00  0.00     0.016 A 
ATOM      7  C   UNL A   1      40.534  27.660  28.519  1.00  0.00     0.016 A 
ATOM      8  C   UNL A   1      38.920  27.117  30.688  1.00  0.00     0.010 A 
ATOM      9  C   UNL A   1      40.684  28.404  29.691  1.00  0.00     0.010 A 
ATOM     10  C   UNL A   1      39.867  28.136  30.791  1.00  0.00    -0.014 A 
BRANCH  10  11
ATOM     11  C   UNL A   1      39.890  29.002  31.991  1.00  0.00     0.031 A 
ATOM     12  C   UNL A   1      40.885  28.705  33.072  1.00  0.00     0.074 A 
ATOM     13  C   UNL A   1      39.104  30.095  32.072  1.00  0.00     0.049 A 
ATOM     14  N   UNL A   1      41.147  29.392  34.151  1.00  0.00    -0.248 NA
ATOM     15  C   UNL A   1      41.734  27.513  32.895  1.00  0.00     0.031 C 
ATOM     16  C   UNL A   1      38.182  30.553  31.034  1.00  0.00     0.029 A 
ATOM     17  N   UNL A   1      38.954  31.023  33.071  1.00  0.00    -0.354 N 
ATOM     18  C   UNL A   1      42.235  28.761  34.735  1.00  0.00     0.074 A 
ATOM     19  C   UNL A   1      42.518  27.577  33.959  1.00  0.00     0.031 C 
ATOM     20  C   UNL A   1      37.521  31.637  31.475  1.00  0.00     0.029 A 
ATOM     21  C   UNL A   1      37.956  31.938  32.827  1.00  0.00     0.049 A 
ATOM     22  H   UNL A   1      39.508  31.033  33.885  1.00  0.00     0.167 HD
ATOM     23  C   UNL A   1      42.974  29.171  35.789  1.00  0.00     0.031 A 
ATOM     24  C   UNL A   1      37.437  32.901  33.611  1.00  0.00     0.031 A 
ATOM     25  C   UNL A   1      42.662  30.328  36.580  1.00  0.00     0.049 A 
ATOM     26  C   UNL A   1      38.124  33.196  34.910  1.00  0.00     0.074 A 
ATOM     27  C   UNL A   1      43.336  30.829  37.677  1.00  0.00     0.029 A 
ATOM     28  N   UNL A   1      41.567  31.154  36.366  1.00  0.00    -0.354 N 
ATOM     29  N   UNL A   1      39.184  32.617  35.421  1.00  0.00    -0.248 NA
ATOM     30  C   UNL A   1      37.599  34.316  35.697  1.00  0.00     0.031 C 
ATOM     31  C   UNL A   1      42.613  31.922  38.166  1.00  0.00     0.029 A 
ATOM     32  C   UNL A   1      41.527  32.141  37.334  1.00  0.00     0.049 A 
ATOM     33  H   UNL A   1      40.917  31.053  35.634  1.00  0.00     0.167 HD
ATOM     34  C   UNL A   1      39.493  33.344  36.561  1.00  0.00     0.074 A 
ATOM     35  C   UNL A   1      38.502  34.398  36.664  1.00  0.00     0.031 C 
ATOM     36  C   UNL A   1      40.523  33.172  37.425  1.00  0.00     0.031 A 
BRANCH  23  37
ATOM     37  C   UNL A   1      44.192  28.357  36.123  1.00  0.00    -0.014 A 
ATOM     38  C   UNL A   1      44.103  27.274  37.019  1.00  0.00     0.010 A 
ATOM     39  C   UNL A   1      45.429  28.664  35.536  1.00  0.00     0.010 A 
ATOM     40  C   UNL A   1      45.238  26.527  37.340  1.00  0.00     0.020 A 
ATOM     41  C   UNL A   1      46.562  27.905  35.838  1.00  0.00     0.020 A 
ATOM     42  C   UNL A   1      46.461  26.847  36.745  1.00  0.00     0.054 A 
BRANCH  42  43
ATOM     43  S   UNL A   1      47.910  25.835  37.149  1.00  0.00     0.124 S 
ATOM     44  O   UNL A   1      47.810  24.758  36.167  1.00  0.00    -0.237 OA
ATOM     45  O   UNL A   1      49.015  26.769  36.945  1.00  0.00    -0.237 OA
ATOM     46  O   UNL A   1      47.681  25.437  38.535  1.00  0.00    -0.744 OA
ENDBRANCH  42  43
ENDBRANCH  23  37
BRANCH  24  47
ATOM     47  C   UNL A   1      36.210  33.640  33.207  1.00  0.00    -0.014 A 
ATOM     48  C   UNL A   1      36.277  34.874  32.538  1.00  0.00     0.010 A 
ATOM     49  C   UNL A   1      34.948  33.118  33.550  1.00  0.00     0.010 A 
ATOM     50  C   UNL A   1      35.107  35.584  32.246  1.00  0.00     0.020 A 
ATOM     51  C   UNL A   1      33.775  33.814  33.240  1.00  0.00     0.020 A 
ATOM     52  C   UNL A   1      33.864  35.053  32.603  1.00  0.00     0.054 A 
BRANCH  52  53
ATOM     53  S   UNL A   1      32.360  35.987  32.199  1.00  0.00     0.124 S 
ATOM     54  O   UNL A   1      31.308  35.040  32.555  1.00  0.00    -0.237 OA
ATOM     55  O   UNL A   1      32.477  37.159  33.062  1.00  0.00    -0.237 OA
ATOM     56  O   UNL A   1      32.502  36.260  30.771  1.00  0.00    -0.744 OA
ENDBRANCH  52  53
ENDBRANCH  24  47
BRANCH  36  57
ATOM     57  C   UNL A   1      40.651  34.180  38.530  1.00  0.00    -0.014 A 
ATOM     58  C   UNL A   1      41.403  35.355  38.362  1.00  0.00     0.010 A 
ATOM     59  C   UNL A   1      39.988  33.951  39.749  1.00  0.00     0.010 A 
ATOM     60  C   UNL A   1      41.530  36.262  39.415  1.00  0.00     0.020 A 
ATOM     61  C   UNL A   1      40.082  34.874  40.790  1.00  0.00     0.020 A 
ATOM     62  C   UNL A   1      40.869  36.014  40.622  1.00  0.00     0.054 A 
BRANCH  62  63
ATOM     63  S   UNL A   1      41.026  37.222  41.963  1.00  0.00     0.124 S 
ATOM     64  O   UNL A   1      41.541  38.392  41.257  1.00  0.00    -0.237 OA
ATOM     65  O   UNL A   1      39.655  37.335  42.454  1.00  0.00    -0.237 OA
ATOM     66  O   UNL A   1      41.964  36.591  42.889  1.00  0.00    -0.744 OA
ENDBRANCH  62  63
ENDBRANCH  36  57
ENDBRANCH  10  11
ENDBRANCH   3   5
ENDBRANCH   2   3
ENDBRANCH   1   2
BRANCH   1  67
ATOM     67  C   UNL A   1      38.549  22.321  26.111  1.00  0.00     0.275 C 
BRANCH  67  68
ATOM     68  O   UNL A   1      37.184  22.774  26.071  1.00  0.00    -0.458 OA
BRANCH  68  69
ATOM     69  C   UNL A   1      36.550  22.634  24.880  1.00  0.00     0.339 C 
ATOM     70  O   UNL A   1      37.022  22.849  23.772  1.00  0.00    -0.246 OA
BRANCH  69  71
ATOM     71  C   UNL A   1      35.207  22.054  25.084  1.00  0.00     0.071 A 
ATOM     72  C   UNL A   1      35.091  20.673  24.885  1.00  0.00     0.045 A 
ATOM     73  C   UNL A   1      34.080  22.846  25.411  1.00  0.00     0.018 A 
ATOM     74  C   UNL A   1      33.856  20.098  25.092  1.00  0.00     0.075 A 
ATOM     75  C   UNL A   1      32.864  22.153  25.587  1.00  0.00     0.107 A 
ATOM     76  C   UNL A   1      34.089  24.262  25.532  1.00  0.00     0.011 A 
ATOM     77  N   UNL A   1      32.770  20.816  25.439  1.00  0.00    -0.245 NA
ATOM     78  C   UNL A   1      31.722  22.891  25.891  1.00  0.00     0.149 A 
ATOM     79  C   UNL A   1      32.919  24.971  25.802  1.00  0.00     0.004 A 
ATOM     80  F   UNL A   1      30.554  22.257  26.095  1.00  0.00    -0.205 F 
ATOM     81  C   UNL A   1      31.729  24.279  25.979  1.00  0.00     0.041 A 
BRANCH  74  82
ATOM     82  C   UNL A   1      33.596  18.686  24.900  1.00  0.00     0.038 A 
ATOM     83  C   UNL A   1      34.003  17.850  23.822  1.00  0.00     0.052 A 
ATOM     84  C   UNL A   1      32.782  17.896  25.685  1.00  0.00     0.205 A 
ATOM     85  C   UNL A   1      33.441  16.618  24.046  1.00  0.00     0.195 A 
ATOM     86  O   UNL A   1      32.698  16.635  25.180  1.00  0.00    -0.472 OA
ENDBRANCH  74  82
ENDBRANCH  69  71
ENDBRANCH  68  69
ENDBRANCH  67  68
ENDBRANCH   1  67
TORSDOF 15
ENDMDL
MODEL 3
REMARK VINA RESULT:     -10.6      5.686      7.328
REMARK SMILES O=C(OCCOC(=O)c1cc(-c2ccoc2)nc2c(F)cccc12)c1ccc(-c2c3nc(c(-c4ccc(S(=O)(=O)[O-])cc4)c4ccc([nH]4)c(-c4ccc(S(=O)(=O)[O-])cc4)c4nc(c(-c5ccc(S(=O)(=O)[O-])cc5)c5ccc2[nH]5)C=C4)C=C3)cc1
REMARK SMILES IDX 4 1 3 2 2 3 1 4 25 5 26 6 84 7 27 8 83 9 28 10 29 11 30 12
REMARK SMILES IDX 77 13 31 14 82 15 76 16 78 17 32 18 81 19 75 20 74 21 33 23
REMARK SMILES IDX 63 24 44 25 62 26 45 27 48 28 61 29 79 30 46 31 47 32 60 34
REMARK SMILES IDX 80 35 49 36 34 37 35 38 43 39 36 40 42 41 37 42 38 43 39 44
REMARK SMILES IDX 40 45 41 46 64 47 65 48 73 49 66 50 72 51 67 52 68 53 69 54
REMARK SMILES IDX 70 55 71 56 50 57 51 58 59 59 52 60 58 61 53 62 54 63 55 64
REMARK SMILES IDX 56 65 57 66 5 67 6 68 7 69 8 70 9 71 10 72 24 73 11 74 18 75
REMARK SMILES IDX 23 76 17 77 19 78 22 79 20 80 21 81 12 82 13 83 16 84 14 85
REMARK SMILES IDX 15 86
REMARK H PARENT 78 22 48 33
REMARK Flexibility Score: inf
ROOT
ATOM      1  C   UNL A   1      35.182  31.158  28.109  1.00  0.00     0.275 C 
ENDROOT
BRANCH   1   2
ATOM      2  O   UNL A   1      36.326  30.364  27.763  1.00  0.00    -0.458 OA
BRANCH   2   3
ATOM      3  C   UNL A   1      37.266  29.809  28.562  1.00  0.00     0.338 C 
ATOM      4  O   UNL A   1      37.000  29.667  29.756  1.00  0.00    -0.246 OA
BRANCH   3   5
ATOM      5  C   UNL A   1      38.665  29.496  28.119  1.00  0.00     0.060 A 
ATOM      6  C   UNL A   1      39.119  29.324  26.813  1.00  0.00     0.016 A 
ATOM      7  C   UNL A   1      39.616  29.404  29.147  1.00  0.00     0.016 A 
ATOM      8  C   UNL A   1      40.482  29.169  26.539  1.00  0.00     0.010 A 
ATOM      9  C   UNL A   1      40.983  29.303  28.883  1.00  0.00     0.010 A 
ATOM     10  C   UNL A   1      41.427  29.179  27.566  1.00  0.00    -0.014 A 
BRANCH  10  11
ATOM     11  C   UNL A   1      42.850  28.913  27.259  1.00  0.00     0.031 A 
ATOM     12  C   UNL A   1      43.822  30.054  27.316  1.00  0.00     0.074 A 
ATOM     13  C   UNL A   1      43.287  27.659  27.029  1.00  0.00     0.049 A 
ATOM     14  N   UNL A   1      45.121  30.026  27.189  1.00  0.00    -0.248 NA
ATOM     15  C   UNL A   1      43.274  31.391  27.609  1.00  0.00     0.031 C 
ATOM     16  C   UNL A   1      42.458  26.455  27.062  1.00  0.00     0.029 A 
ATOM     17  N   UNL A   1      44.537  27.184  26.722  1.00  0.00    -0.354 N 
ATOM     18  C   UNL A   1      45.547  31.317  27.460  1.00  0.00     0.074 A 
ATOM     19  C   UNL A   1      44.370  32.130  27.652  1.00  0.00     0.031 C 
ATOM     20  C   UNL A   1      43.208  25.390  26.729  1.00  0.00     0.029 A 
ATOM     21  C   UNL A   1      44.560  25.837  26.440  1.00  0.00     0.049 A 
ATOM     22  H   UNL A   1      45.341  27.751  26.705  1.00  0.00     0.167 HD
ATOM     23  C   UNL A   1      46.812  31.769  27.603  1.00  0.00     0.031 A 
ATOM     24  C   UNL A   1      45.553  25.052  25.985  1.00  0.00     0.031 A 
ATOM     25  C   UNL A   1      47.978  30.962  27.371  1.00  0.00     0.049 A 
ATOM     26  C   UNL A   1      46.932  25.634  25.913  1.00  0.00     0.074 A 
ATOM     27  C   UNL A   1      49.308  31.321  27.475  1.00  0.00     0.029 A 
ATOM     28  N   UNL A   1      47.948  29.635  26.967  1.00  0.00    -0.354 N 
ATOM     29  N   UNL A   1      47.321  26.848  26.222  1.00  0.00    -0.248 NA
ATOM     30  C   UNL A   1      48.013  24.730  25.509  1.00  0.00     0.031 C 
ATOM     31  C   UNL A   1      50.083  30.229  27.073  1.00  0.00     0.029 A 
ATOM     32  C   UNL A   1      49.237  29.170  26.783  1.00  0.00     0.049 A 
ATOM     33  H   UNL A   1      47.130  29.103  26.834  1.00  0.00     0.167 HD
ATOM     34  C   UNL A   1      48.704  26.836  26.112  1.00  0.00     0.074 A 
ATOM     35  C   UNL A   1      49.077  25.497  25.700  1.00  0.00     0.031 C 
ATOM     36  C   UNL A   1      49.585  27.837  26.359  1.00  0.00     0.031 A 
BRANCH  23  37
ATOM     37  C   UNL A   1      46.979  33.197  28.039  1.00  0.00    -0.014 A 
ATOM     38  C   UNL A   1      47.086  33.519  29.405  1.00  0.00     0.010 A 
ATOM     39  C   UNL A   1      47.038  34.224  27.083  1.00  0.00     0.010 A 
ATOM     40  C   UNL A   1      47.225  34.848  29.810  1.00  0.00     0.020 A 
ATOM     41  C   UNL A   1      47.201  35.552  27.484  1.00  0.00     0.020 A 
ATOM     42  C   UNL A   1      47.284  35.856  28.844  1.00  0.00     0.054 A 
BRANCH  42  43
ATOM     43  S   UNL A   1      47.507  37.569  29.396  1.00  0.00     0.124 S 
ATOM     44  O   UNL A   1      48.465  38.079  28.420  1.00  0.00    -0.237 OA
ATOM     45  O   UNL A   1      46.155  38.114  29.292  1.00  0.00    -0.237 OA
ATOM     46  O   UNL A   1      48.017  37.432  30.757  1.00  0.00    -0.744 OA
ENDBRANCH  42  43
ENDBRANCH  23  37
BRANCH  24  47
ATOM     47  C   UNL A   1      45.288  23.653  25.551  1.00  0.00    -0.014 A 
ATOM     48  C   UNL A   1      45.399  22.571  26.439  1.00  0.00     0.010 A 
ATOM     49  C   UNL A   1      44.969  23.399  24.203  1.00  0.00     0.010 A 
ATOM     50  C   UNL A   1      45.225  21.259  25.981  1.00  0.00     0.020 A 
ATOM     51  C   UNL A   1      44.772  22.092  23.747  1.00  0.00     0.020 A 
ATOM     52  C   UNL A   1      44.917  21.027  24.637  1.00  0.00     0.054 A 
BRANCH  52  53
ATOM     53  S   UNL A   1      44.681  19.319  24.071  1.00  0.00     0.124 S 
ATOM     54  O   UNL A   1      45.898  18.669  24.546  1.00  0.00    -0.237 OA
ATOM     55  O   UNL A   1      43.448  18.931  24.749  1.00  0.00    -0.237 OA
ATOM     56  O   UNL A   1      44.567  19.454  22.620  1.00  0.00    -0.744 OA
ENDBRANCH  52  53
ENDBRANCH  24  47
BRANCH  36  57
ATOM     57  C   UNL A   1      51.041  27.497  26.236  1.00  0.00    -0.014 A 
ATOM     58  C   UNL A   1      51.731  27.668  25.024  1.00  0.00     0.010 A 
ATOM     59  C   UNL A   1      51.731  27.015  27.363  1.00  0.00     0.010 A 
ATOM     60  C   UNL A   1      53.078  27.317  24.929  1.00  0.00     0.020 A 
ATOM     61  C   UNL A   1      53.087  26.699  27.282  1.00  0.00     0.020 A 
ATOM     62  C   UNL A   1      53.747  26.834  26.059  1.00  0.00     0.054 A 
BRANCH  62  63
ATOM     63  S   UNL A   1      55.503  26.413  25.917  1.00  0.00     0.124 S 
ATOM     64  O   UNL A   1      55.684  25.493  27.037  1.00  0.00    -0.237 OA
ATOM     65  O   UNL A   1      55.580  25.810  24.589  1.00  0.00    -0.237 OA
ATOM     66  O   UNL A   1      56.180  27.700  26.052  1.00  0.00    -0.744 OA
ENDBRANCH  62  63
ENDBRANCH  36  57
ENDBRANCH  10  11
ENDBRANCH   3   5
ENDBRANCH   2   3
ENDBRANCH   1   2
BRANCH   1  67
ATOM     67  C   UNL A   1      33.915  30.848  27.305  1.00  0.00     0.275 C 
BRANCH  67  68
ATOM     68  O   UNL A   1      33.948  29.576  26.632  1.00  0.00    -0.458 OA
BRANCH  68  69
ATOM     69  C   UNL A   1      32.818  28.830  26.721  1.00  0.00     0.339 C 
ATOM     70  O   UNL A   1      32.262  28.469  27.749  1.00  0.00    -0.246 OA
BRANCH  69  71
ATOM     71  C   UNL A   1      32.252  28.601  25.376  1.00  0.00     0.071 A 
ATOM     72  C   UNL A   1      31.224  29.465  24.980  1.00  0.00     0.045 A 
ATOM     73  C   UNL A   1      32.680  27.539  24.544  1.00  0.00     0.018 A 
ATOM     74  C   UNL A   1      30.692  29.292  23.721  1.00  0.00     0.075 A 
ATOM     75  C   UNL A   1      32.058  27.450  23.281  1.00  0.00     0.107 A 
ATOM     76  C   UNL A   1      33.643  26.559  24.907  1.00  0.00     0.011 A 
ATOM     77  N   UNL A   1      31.100  28.314  22.889  1.00  0.00    -0.245 NA
ATOM     78  C   UNL A   1      32.431  26.409  22.434  1.00  0.00     0.149 A 
ATOM     79  C   UNL A   1      33.966  25.510  24.046  1.00  0.00     0.004 A 
ATOM     80  F   UNL A   1      31.879  26.315  21.212  1.00  0.00    -0.205 F 
ATOM     81  C   UNL A   1      33.353  25.436  22.804  1.00  0.00     0.041 A 
BRANCH  74  82
ATOM     82  C   UNL A   1      29.611  30.102  23.197  1.00  0.00     0.038 A 
ATOM     83  C   UNL A   1      28.936  31.187  23.825  1.00  0.00     0.052 A 
ATOM     84  C   UNL A   1      28.937  29.891  22.013  1.00  0.00     0.205 A 
ATOM     85  C   UNL A   1      27.933  31.572  22.970  1.00  0.00     0.195 A 
ATOM     86  O   UNL A   1      27.928  30.791  21.862  1.00  0.00    -0.472 OA
ENDBRANCH  74  82
ENDBRANCH  69  71
ENDBRANCH  68  69
ENDBRANCH  67  68
ENDBRANCH   1  67
TORSDOF 15
ENDMDL
