MODEL 1
REMARK VINA RESULT:     -15.9      0.000      0.000
REMARK SMILES CC(=O)Nc1cnc(N2CC=C(c3ccccc3C)CC2)c(C(=O)OCCOC(=O)c2ccc(-c3c4nc(c(-c5ccc(S(=O)(=O)[O-])cc5)c5ccc([nH]5)c(-c5ccc(S(=O)(=O)[O-])cc5)c5nc(c(-c6ccc(S(=O)(=O)[O-])cc6)c6ccc3[nH]6)C=C5)C=C4)cc2)c1
REMARK SMILES IDX 27 1 26 2 25 3 23 4 24 5 22 6 5 7 6 8 91 9 7 10 8 11 4 12
REMARK SMILES IDX 1 13 2 14 3 15 9 17 10 18 21 19 11 20 20 21 12 22 13 23
REMARK SMILES IDX 14 24 18 25 15 26 17 27 19 28 16 29 28 30 29 31 30 32 31 33
REMARK SMILES IDX 32 34 90 35 33 36 89 37 34 38 35 39 36 40 83 41 37 42 88 43
REMARK SMILES IDX 82 44 84 45 38 46 87 47 81 48 80 49 39 51 69 52 50 53 68 54
REMARK SMILES IDX 51 55 54 56 67 57 85 58 52 59 53 60 66 62 86 63 55 64 40 65
REMARK SMILES IDX 41 66 49 67 42 68 48 69 43 70 44 71 45 72 46 73 47 74 70 75
REMARK SMILES IDX 71 76 79 77 72 78 78 79 73 80 74 81 75 82 76 83 77 84 56 85
REMARK SMILES IDX 57 86 65 87 58 88 64 89 59 90 60 91 61 92 62 93 63 94
REMARK H PARENT 4 16 84 50 54 61
REMARK Flexibility Score: inf
ROOT
ATOM      1  C   UNL A   1      34.590  31.584  27.953  1.00  0.00     0.275 C 
ENDROOT
BRANCH   1   2
ATOM      2  C   UNL A   1      33.041  30.622  27.231  1.00  0.00     0.275 C 
BRANCH   2   3
ATOM      3  O   UNL A   1      32.802  28.878  27.311  1.00  0.00    -0.458 OA
BRANCH   3   4
ATOM      4  C   UNL A   1      31.834  27.875  26.770  1.00  0.00     0.342 C 
ATOM      5  O   UNL A   1      30.979  27.410  27.533  1.00  0.00    -0.246 OA
BRANCH   4   6
ATOM      6  C   UNL A   1      31.595  27.531  25.054  1.00  0.00     0.104 A 
ATOM      7  C   UNL A   1      30.790  28.865  23.091  1.00  0.00     0.060 A 
ATOM      8  C   UNL A   1      30.850  27.737  22.318  1.00  0.00     0.139 A 
ATOM      9  C   UNL A   1      31.154  28.762  24.449  1.00  0.00     0.047 A 
ATOM     10  N   UNL A   1      31.269  26.562  22.770  1.00  0.00    -0.236 NA
ATOM     11  C   UNL A   1      31.666  26.361  24.074  1.00  0.00     0.143 A 
BRANCH   7  12
ATOM     12  N   UNL A   1      30.270  30.003  22.456  1.00  0.00    -0.325 N 
ATOM     13  C   UNL A   1      27.876  29.560  22.811  1.00  0.00     0.114 C 
ATOM     14  C   UNL A   1      28.984  30.345  22.174  1.00  0.00     0.221 C 
ATOM     15  O   UNL A   1      28.767  31.357  21.506  1.00  0.00    -0.275 OA
ATOM     16  H   UNL A   1      30.945  30.660  22.168  1.00  0.00     0.169 HD
ENDBRANCH   7  12
BRANCH  11  17
ATOM     17  N   UNL A   1      32.106  25.023  24.076  1.00  0.00    -0.352 N 
ATOM     18  C   UNL A   1      32.458  24.441  25.406  1.00  0.00     0.146 C 
ATOM     19  C   UNL A   1      32.395  24.160  22.921  1.00  0.00     0.123 C 
ATOM     20  C   UNL A   1      32.581  22.923  25.424  1.00  0.00    -0.002 C 
ATOM     21  C   UNL A   1      33.422  23.043  23.152  1.00  0.00     0.057 C 
ATOM     22  C   UNL A   1      33.065  22.232  24.378  1.00  0.00    -0.041 C 
BRANCH  22  23
ATOM     23  C   UNL A   1      33.278  20.757  24.361  1.00  0.00    -0.020 A 
ATOM     24  C   UNL A   1      32.290  19.888  23.861  1.00  0.00     0.008 A 
ATOM     25  C   UNL A   1      34.498  20.190  24.785  1.00  0.00    -0.044 A 
ATOM     26  C   UNL A   1      32.525  18.510  23.729  1.00  0.00     0.001 A 
ATOM     27  C   UNL A   1      34.730  18.807  24.627  1.00  0.00     0.004 A 
ATOM     28  C   UNL A   1      35.590  21.032  25.378  1.00  0.00     0.045 C 
ATOM     29  C   UNL A   1      33.751  17.972  24.097  1.00  0.00     0.000 A 
ENDBRANCH  22  23
ENDBRANCH  11  17
ENDBRANCH   4   6
ENDBRANCH   3   4
ENDBRANCH   2   3
ENDBRANCH   1   2
BRANCH   1  30
ATOM     30  O   UNL A   1      36.397  31.020  27.651  1.00  0.00    -0.458 OA
BRANCH  30  31
ATOM     31  C   UNL A   1      37.717  30.260  28.559  1.00  0.00     0.338 C 
ATOM     32  O   UNL A   1      38.338  31.096  29.237  1.00  0.00    -0.246 OA
BRANCH  31  33
ATOM     33  C   UNL A   1      38.520  28.536  28.553  1.00  0.00     0.060 A 
ATOM     34  C   UNL A   1      38.772  27.808  29.731  1.00  0.00     0.016 A 
ATOM     35  C   UNL A   1      39.575  28.015  27.676  1.00  0.00     0.016 A 
ATOM     36  C   UNL A   1      40.165  27.230  30.034  1.00  0.00     0.010 A 
ATOM     37  C   UNL A   1      40.837  27.329  27.857  1.00  0.00     0.010 A 
ATOM     38  C   UNL A   1      41.274  27.277  29.133  1.00  0.00    -0.014 A 
BRANCH  38  39
ATOM     39  C   UNL A   1      42.741  27.762  29.349  1.00  0.00     0.031 A 
ATOM     40  C   UNL A   1      43.806  27.093  28.588  1.00  0.00     0.074 A 
ATOM     41  C   UNL A   1      43.259  28.907  29.929  1.00  0.00     0.049 A 
ATOM     42  N   UNL A   1      44.440  26.046  28.991  1.00  0.00    -0.248 NA
ATOM     43  C   UNL A   1      44.307  27.661  27.326  1.00  0.00     0.031 C 
ATOM     44  C   UNL A   1      44.593  29.140  30.516  1.00  0.00     0.029 A 
ATOM     45  N   UNL A   1      42.625  30.006  30.461  1.00  0.00    -0.354 N 
ATOM     46  C   UNL A   1      45.632  26.082  28.295  1.00  0.00     0.074 A 
ATOM     47  C   UNL A   1      45.385  26.897  27.115  1.00  0.00     0.031 C 
ATOM     48  C   UNL A   1      44.440  29.873  31.656  1.00  0.00     0.029 A 
ATOM     49  C   UNL A   1      43.042  30.249  31.773  1.00  0.00     0.049 A 
ATOM     50  H   UNL A   1      41.961  30.551  29.979  1.00  0.00     0.167 HD
ATOM     51  C   UNL A   1      46.832  25.944  28.940  1.00  0.00     0.031 A 
ATOM     52  C   UNL A   1      42.109  29.991  32.750  1.00  0.00     0.031 A 
ATOM     53  C   UNL A   1      46.703  26.157  30.394  1.00  0.00     0.049 A 
ATOM     54  C   UNL A   1      42.395  28.545  33.315  1.00  0.00     0.074 A 
ATOM     55  C   UNL A   1      47.231  27.113  31.252  1.00  0.00     0.029 A 
ATOM     56  N   UNL A   1      45.696  25.524  31.118  1.00  0.00    -0.354 N 
ATOM     57  N   UNL A   1      43.422  27.830  32.931  1.00  0.00    -0.248 NA
ATOM     58  C   UNL A   1      41.588  27.777  34.280  1.00  0.00     0.031 C 
ATOM     59  C   UNL A   1      46.459  27.128  32.444  1.00  0.00     0.029 A 
ATOM     60  C   UNL A   1      45.474  26.167  32.324  1.00  0.00     0.049 A 
ATOM     61  H   UNL A   1      45.208  24.725  30.814  1.00  0.00     0.167 HD
ATOM     62  C   UNL A   1      43.435  26.586  33.511  1.00  0.00     0.074 A 
ATOM     63  C   UNL A   1      42.267  26.608  34.372  1.00  0.00     0.031 C 
ATOM     64  C   UNL A   1      44.431  25.685  33.229  1.00  0.00     0.031 A 
BRANCH  51  65
ATOM     65  C   UNL A   1      48.160  25.981  28.208  1.00  0.00    -0.014 A 
ATOM     66  C   UNL A   1      48.899  27.178  28.115  1.00  0.00     0.010 A 
ATOM     67  C   UNL A   1      48.775  24.830  27.668  1.00  0.00     0.010 A 
ATOM     68  C   UNL A   1      50.130  27.246  27.449  1.00  0.00     0.020 A 
ATOM     69  C   UNL A   1      49.992  24.888  26.970  1.00  0.00     0.020 A 
ATOM     70  C   UNL A   1      50.663  26.101  26.864  1.00  0.00     0.054 A 
BRANCH  70  71
ATOM     71  S   UNL A   1      52.259  26.215  26.013  1.00  0.00     0.124 S 
ATOM     72  O   UNL A   1      52.820  24.882  26.218  1.00  0.00    -0.237 OA
ATOM     73  O   UNL A   1      51.860  26.528  24.644  1.00  0.00    -0.237 OA
ATOM     74  O   UNL A   1      52.952  27.291  26.719  1.00  0.00    -0.744 OA
ENDBRANCH  70  71
ENDBRANCH  51  65
BRANCH  52  75
ATOM     75  C   UNL A   1      40.738  30.489  32.198  1.00  0.00    -0.014 A 
ATOM     76  C   UNL A   1      39.520  29.839  32.350  1.00  0.00     0.010 A 
ATOM     77  C   UNL A   1      40.539  31.807  32.430  1.00  0.00     0.010 A 
ATOM     78  C   UNL A   1      38.308  30.551  32.891  1.00  0.00     0.020 A 
ATOM     79  C   UNL A   1      39.481  32.240  33.417  1.00  0.00     0.020 A 
ATOM     80  C   UNL A   1      38.162  31.956  33.569  1.00  0.00     0.054 A 
BRANCH  80  81
ATOM     81  S   UNL A   1      36.378  33.585  33.473  1.00  0.00     0.124 S 
ATOM     82  O   UNL A   1      35.270  33.351  34.409  1.00  0.00    -0.237 OA
ATOM     83  O   UNL A   1      36.861  34.953  33.714  1.00  0.00    -0.237 OA
ATOM     84  O   UNL A   1      35.856  33.548  32.134  1.00  0.00    -0.744 OA
ENDBRANCH  80  81
ENDBRANCH  52  75
BRANCH  64  85
ATOM     85  C   UNL A   1      44.672  24.302  33.814  1.00  0.00    -0.014 A 
ATOM     86  C   UNL A   1      43.787  23.220  33.795  1.00  0.00     0.010 A 
ATOM     87  C   UNL A   1      45.952  24.060  34.396  1.00  0.00     0.010 A 
ATOM     88  C   UNL A   1      44.145  21.985  34.377  1.00  0.00     0.020 A 
ATOM     89  C   UNL A   1      46.333  22.835  34.934  1.00  0.00     0.020 A 
ATOM     90  C   UNL A   1      45.410  21.806  34.953  1.00  0.00     0.054 A 
BRANCH  90  91
ATOM     91  S   UNL A   1      45.865  20.226  35.710  1.00  0.00     0.124 S 
ATOM     92  O   UNL A   1      45.683  20.512  37.131  1.00  0.00    -0.237 OA
ATOM     93  O   UNL A   1      44.902  19.295  35.128  1.00  0.00    -0.237 OA
ATOM     94  O   UNL A   1      47.250  20.024  35.288  1.00  0.00    -0.744 OA
ENDBRANCH  90  91
ENDBRANCH  64  85
ENDBRANCH  38  39
ENDBRANCH  31  33
ENDBRANCH  30  31
ENDBRANCH   1  30
TORSDOF 17
ENDMDL
MODEL 2
REMARK VINA RESULT:     -15.5      5.616      9.209
REMARK SMILES CC(=O)Nc1cnc(N2CC=C(c3ccccc3C)CC2)c(C(=O)OCCOC(=O)c2ccc(-c3c4nc(c(-c5ccc(S(=O)(=O)[O-])cc5)c5ccc([nH]5)c(-c5ccc(S(=O)(=O)[O-])cc5)c5nc(c(-c6ccc(S(=O)(=O)[O-])cc6)c6ccc3[nH]6)C=C5)C=C4)cc2)c1
REMARK SMILES IDX 27 1 26 2 25 3 23 4 24 5 22 6 5 7 6 8 91 9 7 10 8 11 4 12
REMARK SMILES IDX 1 13 2 14 3 15 9 17 10 18 21 19 11 20 20 21 12 22 13 23
REMARK SMILES IDX 14 24 18 25 15 26 17 27 19 28 16 29 28 30 29 31 30 32 31 33
REMARK SMILES IDX 32 34 90 35 33 36 89 37 34 38 35 39 36 40 83 41 37 42 88 43
REMARK SMILES IDX 82 44 84 45 38 46 87 47 81 48 80 49 39 51 69 52 50 53 68 54
REMARK SMILES IDX 51 55 54 56 67 57 85 58 52 59 53 60 66 62 86 63 55 64 40 65
REMARK SMILES IDX 41 66 49 67 42 68 48 69 43 70 44 71 45 72 46 73 47 74 70 75
REMARK SMILES IDX 71 76 79 77 72 78 78 79 73 80 74 81 75 82 76 83 77 84 56 85
REMARK SMILES IDX 57 86 65 87 58 88 64 89 59 90 60 91 61 92 62 93 63 94
REMARK H PARENT 4 16 84 50 54 61
REMARK Flexibility Score: inf
ROOT
ATOM      1  C   UNL A   1      42.463  28.189  34.461  1.00  0.00     0.275 C 
ENDROOT
BRANCH   1   2
ATOM      2  C   UNL A   1      43.011  30.039  34.812  1.00  0.00     0.275 C 
BRANCH   2   3
ATOM      3  O   UNL A   1      42.813  31.385  33.692  1.00  0.00    -0.458 OA
BRANCH   3   4
ATOM      4  C   UNL A   1      41.724  32.322  33.280  1.00  0.00     0.342 C 
ATOM      5  O   UNL A   1      41.812  32.882  32.181  1.00  0.00    -0.246 OA
BRANCH   4   6
ATOM      6  C   UNL A   1      40.156  32.457  34.083  1.00  0.00     0.104 A 
ATOM      7  C   UNL A   1      39.420  33.007  36.414  1.00  0.00     0.060 A 
ATOM      8  C   UNL A   1      38.127  32.736  36.055  1.00  0.00     0.139 A 
ATOM      9  C   UNL A   1      40.427  32.863  35.439  1.00  0.00     0.047 A 
ATOM     10  N   UNL A   1      37.768  32.384  34.827  1.00  0.00    -0.236 NA
ATOM     11  C   UNL A   1      38.672  32.236  33.797  1.00  0.00     0.143 A 
BRANCH   7  12
ATOM     12  N   UNL A   1      39.616  33.312  37.770  1.00  0.00    -0.325 N 
ATOM     13  C   UNL A   1      39.598  35.766  37.601  1.00  0.00     0.114 C 
ATOM     14  C   UNL A   1      39.827  34.508  38.383  1.00  0.00     0.221 C 
ATOM     15  O   UNL A   1      40.082  34.525  39.588  1.00  0.00    -0.275 OA
ATOM     16  H   UNL A   1      39.597  32.535  38.375  1.00  0.00     0.169 HD
ENDBRANCH   7  12
BRANCH  11  17
ATOM     17  N   UNL A   1      37.853  31.952  32.687  1.00  0.00    -0.352 N 
ATOM     18  C   UNL A   1      38.147  32.710  31.434  1.00  0.00     0.146 C 
ATOM     19  C   UNL A   1      36.654  31.102  32.635  1.00  0.00     0.123 C 
ATOM     20  C   UNL A   1      37.500  32.141  30.178  1.00  0.00    -0.002 C 
ATOM     21  C   UNL A   1      35.624  31.451  31.553  1.00  0.00     0.057 C 
ATOM     22  C   UNL A   1      36.287  31.563  30.198  1.00  0.00    -0.041 C 
BRANCH  22  23
ATOM     23  C   UNL A   1      35.570  31.053  28.995  1.00  0.00    -0.020 A 
ATOM     24  C   UNL A   1      35.832  29.767  28.486  1.00  0.00     0.008 A 
ATOM     25  C   UNL A   1      34.564  31.816  28.365  1.00  0.00    -0.044 A 
ATOM     26  C   UNL A   1      35.080  29.229  27.429  1.00  0.00     0.001 A 
ATOM     27  C   UNL A   1      33.802  31.257  27.318  1.00  0.00     0.004 A 
ATOM     28  C   UNL A   1      34.250  33.216  28.806  1.00  0.00     0.045 C 
ATOM     29  C   UNL A   1      34.055  29.969  26.855  1.00  0.00     0.000 A 
ENDBRANCH  22  23
ENDBRANCH  11  17
ENDBRANCH   4   6
ENDBRANCH   3   4
ENDBRANCH   2   3
ENDBRANCH   1   2
BRANCH   1  30
ATOM     30  O   UNL A   1      40.669  27.707  33.992  1.00  0.00    -0.458 OA
BRANCH  30  31
ATOM     31  C   UNL A   1      39.475  28.101  32.741  1.00  0.00     0.338 C 
ATOM     32  O   UNL A   1      38.449  27.413  32.865  1.00  0.00    -0.246 OA
BRANCH  31  33
ATOM     33  C   UNL A   1      39.502  29.151  31.155  1.00  0.00     0.060 A 
ATOM     34  C   UNL A   1      38.830  28.772  29.978  1.00  0.00     0.016 A 
ATOM     35  C   UNL A   1      40.600  29.951  30.599  1.00  0.00     0.016 A 
ATOM     36  C   UNL A   1      39.554  28.718  28.622  1.00  0.00     0.010 A 
ATOM     37  C   UNL A   1      41.249  30.080  29.311  1.00  0.00     0.010 A 
ATOM     38  C   UNL A   1      40.904  29.137  28.409  1.00  0.00    -0.014 A 
BRANCH  38  39
ATOM     39  C   UNL A   1      42.102  28.404  27.730  1.00  0.00     0.031 A 
ATOM     40  C   UNL A   1      41.969  26.964  27.466  1.00  0.00     0.074 A 
ATOM     41  C   UNL A   1      43.211  28.881  27.053  1.00  0.00     0.049 A 
ATOM     42  N   UNL A   1      42.300  26.039  28.299  1.00  0.00    -0.248 NA
ATOM     43  C   UNL A   1      41.536  26.472  26.148  1.00  0.00     0.031 C 
ATOM     44  C   UNL A   1      44.518  28.234  26.820  1.00  0.00     0.029 A 
ATOM     45  N   UNL A   1      43.578  30.166  26.729  1.00  0.00    -0.354 N 
ATOM     46  C   UNL A   1      42.521  24.931  27.505  1.00  0.00     0.074 A 
ATOM     47  C   UNL A   1      41.779  25.162  26.275  1.00  0.00     0.031 C 
ATOM     48  C   UNL A   1      45.497  29.169  26.983  1.00  0.00     0.029 A 
ATOM     49  C   UNL A   1      44.865  30.461  27.190  1.00  0.00     0.049 A 
ATOM     50  H   UNL A   1      43.007  30.799  26.236  1.00  0.00     0.167 HD
ATOM     51  C   UNL A   1      43.668  24.192  27.625  1.00  0.00     0.031 A 
ATOM     52  C   UNL A   1      44.931  31.349  28.238  1.00  0.00     0.031 A 
ATOM     53  C   UNL A   1      44.719  24.922  28.357  1.00  0.00     0.049 A 
ATOM     54  C   UNL A   1      45.042  30.510  29.570  1.00  0.00     0.074 A 
ATOM     55  C   UNL A   1      45.975  25.382  27.982  1.00  0.00     0.029 A 
ATOM     56  N   UNL A   1      44.435  25.562  29.560  1.00  0.00    -0.354 N 
ATOM     57  N   UNL A   1      45.145  29.205  29.574  1.00  0.00    -0.248 NA
ATOM     58  C   UNL A   1      45.007  31.009  30.956  1.00  0.00     0.031 C 
ATOM     59  C   UNL A   1      46.385  26.384  28.902  1.00  0.00     0.029 A 
ATOM     60  C   UNL A   1      45.391  26.520  29.851  1.00  0.00     0.049 A 
ATOM     61  H   UNL A   1      43.657  25.359  30.130  1.00  0.00     0.167 HD
ATOM     62  C   UNL A   1      45.167  28.689  30.846  1.00  0.00     0.074 A 
ATOM     63  C   UNL A   1      45.099  29.871  31.685  1.00  0.00     0.031 C 
ATOM     64  C   UNL A   1      45.265  27.337  31.058  1.00  0.00     0.031 A 
BRANCH  51  65
ATOM     65  C   UNL A   1      43.944  22.971  26.769  1.00  0.00    -0.014 A 
ATOM     66  C   UNL A   1      45.221  22.756  26.211  1.00  0.00     0.010 A 
ATOM     67  C   UNL A   1      42.997  21.945  26.559  1.00  0.00     0.010 A 
ATOM     68  C   UNL A   1      45.511  21.638  25.418  1.00  0.00     0.020 A 
ATOM     69  C   UNL A   1      43.261  20.835  25.741  1.00  0.00     0.020 A 
ATOM     70  C   UNL A   1      44.522  20.689  25.173  1.00  0.00     0.054 A 
BRANCH  70  71
ATOM     71  S   UNL A   1      44.924  19.250  24.149  1.00  0.00     0.124 S 
ATOM     72  O   UNL A   1      46.375  19.159  24.292  1.00  0.00    -0.237 OA
ATOM     73  O   UNL A   1      44.159  18.186  24.793  1.00  0.00    -0.237 OA
ATOM     74  O   UNL A   1      44.458  19.630  22.817  1.00  0.00    -0.744 OA
ENDBRANCH  70  71
ENDBRANCH  51  65
BRANCH  52  75
ATOM     75  C   UNL A   1      43.868  32.453  27.952  1.00  0.00    -0.014 A 
ATOM     76  C   UNL A   1      43.064  33.069  28.903  1.00  0.00     0.010 A 
ATOM     77  C   UNL A   1      44.334  33.412  27.118  1.00  0.00     0.010 A 
ATOM     78  C   UNL A   1      42.977  34.569  29.012  1.00  0.00     0.020 A 
ATOM     79  C   UNL A   1      44.585  34.804  27.645  1.00  0.00     0.020 A 
ATOM     80  C   UNL A   1      43.834  35.696  28.343  1.00  0.00     0.054 A 
BRANCH  80  81
ATOM     81  S   UNL A   1      43.220  37.899  27.555  1.00  0.00     0.124 S 
ATOM     82  O   UNL A   1      41.987  37.953  26.758  1.00  0.00    -0.237 OA
ATOM     83  O   UNL A   1      43.060  38.858  28.659  1.00  0.00    -0.237 OA
ATOM     84  O   UNL A   1      44.309  38.364  26.740  1.00  0.00    -0.744 OA
ENDBRANCH  80  81
ENDBRANCH  52  75
BRANCH  64  85
ATOM     85  C   UNL A   1      45.384  26.575  32.368  1.00  0.00    -0.014 A 
ATOM     86  C   UNL A   1      46.483  26.563  33.232  1.00  0.00     0.010 A 
ATOM     87  C   UNL A   1      44.240  25.836  32.793  1.00  0.00     0.010 A 
ATOM     88  C   UNL A   1      46.455  25.809  34.425  1.00  0.00     0.020 A 
ATOM     89  C   UNL A   1      44.184  25.123  33.987  1.00  0.00     0.020 A 
ATOM     90  C   UNL A   1      45.312  25.085  34.787  1.00  0.00     0.054 A 
BRANCH  90  91
ATOM     91  S   UNL A   1      45.280  24.107  36.309  1.00  0.00     0.124 S 
ATOM     92  O   UNL A   1      43.959  24.430  36.845  1.00  0.00    -0.237 OA
ATOM     93  O   UNL A   1      45.443  22.740  35.823  1.00  0.00    -0.237 OA
ATOM     94  O   UNL A   1      46.408  24.626  37.081  1.00  0.00    -0.744 OA
ENDBRANCH  90  91
ENDBRANCH  64  85
ENDBRANCH  38  39
ENDBRANCH  31  33
ENDBRANCH  30  31
ENDBRANCH   1  30
TORSDOF 17
ENDMDL
MODEL 3
REMARK VINA RESULT:     -15.5      4.775     11.458
REMARK SMILES CC(=O)Nc1cnc(N2CC=C(c3ccccc3C)CC2)c(C(=O)OCCOC(=O)c2ccc(-c3c4nc(c(-c5ccc(S(=O)(=O)[O-])cc5)c5ccc([nH]5)c(-c5ccc(S(=O)(=O)[O-])cc5)c5nc(c(-c6ccc(S(=O)(=O)[O-])cc6)c6ccc3[nH]6)C=C5)C=C4)cc2)c1
REMARK SMILES IDX 27 1 26 2 25 3 23 4 24 5 22 6 5 7 6 8 91 9 7 10 8 11 4 12
REMARK SMILES IDX 1 13 2 14 3 15 9 17 10 18 21 19 11 20 20 21 12 22 13 23
REMARK SMILES IDX 14 24 18 25 15 26 17 27 19 28 16 29 28 30 29 31 30 32 31 33
REMARK SMILES IDX 32 34 90 35 33 36 89 37 34 38 35 39 36 40 83 41 37 42 88 43
REMARK SMILES IDX 82 44 84 45 38 46 87 47 81 48 80 49 39 51 69 52 50 53 68 54
REMARK SMILES IDX 51 55 54 56 67 57 85 58 52 59 53 60 66 62 86 63 55 64 40 65
REMARK SMILES IDX 41 66 49 67 42 68 48 69 43 70 44 71 45 72 46 73 47 74 70 75
REMARK SMILES IDX 71 76 79 77 72 78 78 79 73 80 74 81 75 82 76 83 77 84 56 85
REMARK SMILES IDX 57 86 65 87 58 88 64 89 59 90 60 91 61 92 62 93 63 94
REMARK H PARENT 4 16 84 50 54 61
REMARK Flexibility Score: inf
ROOT
ATOM      1  C   UNL A   1      40.448  22.081  26.889  1.00  0.00     0.275 C 
ENDROOT
BRANCH   1   2
ATOM      2  C   UNL A   1      39.511  20.804  25.732  1.00  0.00     0.275 C 
BRANCH   2   3
ATOM      3  O   UNL A   1      37.768  20.751  25.483  1.00  0.00    -0.458 OA
BRANCH   3   4
ATOM      4  C   UNL A   1      36.737  21.545  24.746  1.00  0.00     0.342 C 
ATOM      5  O   UNL A   1      37.118  22.402  23.941  1.00  0.00    -0.246 OA
BRANCH   4   6
ATOM      6  C   UNL A   1      35.017  21.148  24.683  1.00  0.00     0.104 A 
ATOM      7  C   UNL A   1      33.690  19.042  24.974  1.00  0.00     0.060 A 
ATOM      8  C   UNL A   1      32.556  19.726  24.628  1.00  0.00     0.139 A 
ATOM      9  C   UNL A   1      34.911  19.745  24.995  1.00  0.00     0.047 A 
ATOM     10  N   UNL A   1      32.540  21.024  24.350  1.00  0.00    -0.236 NA
ATOM     11  C   UNL A   1      33.675  21.805  24.364  1.00  0.00     0.143 A 
BRANCH   7  12
ATOM     12  N   UNL A   1      33.522  17.664  25.179  1.00  0.00    -0.325 N 
ATOM     13  C   UNL A   1      34.113  16.882  22.923  1.00  0.00     0.114 C 
ATOM     14  C   UNL A   1      33.571  16.628  24.298  1.00  0.00     0.221 C 
ATOM     15  O   UNL A   1      33.285  15.496  24.690  1.00  0.00    -0.275 OA
ATOM     16  H   UNL A   1      33.340  17.405  26.112  1.00  0.00     0.169 HD
ENDBRANCH   7  12
BRANCH  11  17
ATOM     17  N   UNL A   1      33.181  23.098  24.107  1.00  0.00    -0.352 N 
ATOM     18  C   UNL A   1      31.730  23.199  23.767  1.00  0.00     0.146 C 
ATOM     19  C   UNL A   1      33.937  24.355  23.995  1.00  0.00     0.123 C 
ATOM     20  C   UNL A   1      31.154  24.607  23.845  1.00  0.00    -0.002 C 
ATOM     21  C   UNL A   1      33.310  25.445  23.116  1.00  0.00     0.057 C 
ATOM     22  C   UNL A   1      31.872  25.693  23.513  1.00  0.00    -0.041 C 
BRANCH  22  23
ATOM     23  C   UNL A   1      31.345  27.087  23.499  1.00  0.00    -0.020 A 
ATOM     24  C   UNL A   1      30.587  27.565  22.414  1.00  0.00     0.008 A 
ATOM     25  C   UNL A   1      31.537  27.952  24.597  1.00  0.00    -0.044 A 
ATOM     26  C   UNL A   1      29.985  28.833  22.442  1.00  0.00     0.001 A 
ATOM     27  C   UNL A   1      30.911  29.215  24.623  1.00  0.00     0.004 A 
ATOM     28  C   UNL A   1      32.373  27.548  25.777  1.00  0.00     0.045 C 
ATOM     29  C   UNL A   1      30.135  29.652  23.554  1.00  0.00     0.000 A 
ENDBRANCH  22  23
ENDBRANCH  11  17
ENDBRANCH   4   6
ENDBRANCH   3   4
ENDBRANCH   2   3
ENDBRANCH   1   2
BRANCH   1  30
ATOM     30  O   UNL A   1      39.726  23.797  27.342  1.00  0.00    -0.458 OA
BRANCH  30  31
ATOM     31  C   UNL A   1      40.311  25.379  27.889  1.00  0.00     0.338 C 
ATOM     32  O   UNL A   1      41.393  25.276  28.490  1.00  0.00    -0.246 OA
BRANCH  31  33
ATOM     33  C   UNL A   1      39.562  27.126  27.961  1.00  0.00     0.060 A 
ATOM     34  C   UNL A   1      40.113  28.221  27.268  1.00  0.00     0.016 A 
ATOM     35  C   UNL A   1      38.927  27.809  29.094  1.00  0.00     0.016 A 
ATOM     36  C   UNL A   1      40.441  29.542  27.985  1.00  0.00     0.010 A 
ATOM     37  C   UNL A   1      39.060  29.096  29.745  1.00  0.00     0.010 A 
ATOM     38  C   UNL A   1      40.132  29.818  29.353  1.00  0.00    -0.014 A 
BRANCH  38  39
ATOM     39  C   UNL A   1      41.029  30.349  30.513  1.00  0.00     0.031 A 
ATOM     40  C   UNL A   1      40.411  31.230  31.515  1.00  0.00     0.074 A 
ATOM     41  C   UNL A   1      42.272  29.951  30.975  1.00  0.00     0.049 A 
ATOM     42  N   UNL A   1      40.347  32.513  31.415  1.00  0.00    -0.248 NA
ATOM     43  C   UNL A   1      39.906  30.691  32.788  1.00  0.00     0.031 C 
ATOM     44  C   UNL A   1      43.276  30.714  31.743  1.00  0.00     0.029 A 
ATOM     45  N   UNL A   1      43.086  28.918  30.575  1.00  0.00    -0.354 N 
ATOM     46  C   UNL A   1      40.206  32.947  32.718  1.00  0.00     0.074 A 
ATOM     47  C   UNL A   1      39.664  31.821  33.463  1.00  0.00     0.031 C 
ATOM     48  C   UNL A   1      44.511  30.422  31.245  1.00  0.00     0.029 A 
ATOM     49  C   UNL A   1      44.366  29.376  30.247  1.00  0.00     0.049 A 
ATOM     50  H   UNL A   1      42.804  27.977  30.524  1.00  0.00     0.167 HD
ATOM     51  C   UNL A   1      41.009  33.935  33.225  1.00  0.00     0.031 A 
ATOM     52  C   UNL A   1      44.684  29.345  28.909  1.00  0.00     0.031 A 
ATOM     53  C   UNL A   1      42.208  34.150  32.394  1.00  0.00     0.049 A 
ATOM     54  C   UNL A   1      44.416  30.785  28.320  1.00  0.00     0.074 A 
ATOM     55  C   UNL A   1      43.564  33.987  32.646  1.00  0.00     0.029 A 
ATOM     56  N   UNL A   1      42.101  34.283  31.012  1.00  0.00    -0.354 N 
ATOM     57  N   UNL A   1      44.051  31.795  29.068  1.00  0.00    -0.248 NA
ATOM     58  C   UNL A   1      44.483  31.210  26.911  1.00  0.00     0.031 C 
ATOM     59  C   UNL A   1      44.249  33.905  31.404  1.00  0.00     0.029 A 
ATOM     60  C   UNL A   1      43.316  34.041  30.395  1.00  0.00     0.049 A 
ATOM     61  H   UNL A   1      41.271  34.520  30.538  1.00  0.00     0.167 HD
ATOM     62  C   UNL A   1      43.818  32.930  28.332  1.00  0.00     0.074 A 
ATOM     63  C   UNL A   1      44.125  32.515  26.976  1.00  0.00     0.031 C 
ATOM     64  C   UNL A   1      43.419  34.095  28.937  1.00  0.00     0.031 A 
BRANCH  51  65
ATOM     65  C   UNL A   1      40.883  34.435  34.651  1.00  0.00    -0.014 A 
ATOM     66  C   UNL A   1      39.940  35.428  34.986  1.00  0.00     0.010 A 
ATOM     67  C   UNL A   1      41.612  33.886  35.729  1.00  0.00     0.010 A 
ATOM     68  C   UNL A   1      39.795  35.910  36.294  1.00  0.00     0.020 A 
ATOM     69  C   UNL A   1      41.502  34.380  37.038  1.00  0.00     0.020 A 
ATOM     70  C   UNL A   1      40.590  35.394  37.312  1.00  0.00     0.054 A 
BRANCH  70  71
ATOM     71  S   UNL A   1      40.380  36.031  38.995  1.00  0.00     0.124 S 
ATOM     72  O   UNL A   1      41.656  36.698  39.241  1.00  0.00    -0.237 OA
ATOM     73  O   UNL A   1      39.224  36.913  38.852  1.00  0.00    -0.237 OA
ATOM     74  O   UNL A   1      40.148  34.830  39.795  1.00  0.00    -0.744 OA
ENDBRANCH  70  71
ENDBRANCH  51  65
BRANCH  52  75
ATOM     75  C   UNL A   1      44.097  28.015  28.345  1.00  0.00    -0.014 A 
ATOM     76  C   UNL A   1      43.465  27.866  27.117  1.00  0.00     0.010 A 
ATOM     77  C   UNL A   1      44.943  26.971  28.506  1.00  0.00     0.010 A 
ATOM     78  C   UNL A   1      43.887  26.805  26.135  1.00  0.00     0.020 A 
ATOM     79  C   UNL A   1      45.603  26.350  27.299  1.00  0.00     0.020 A 
ATOM     80  C   UNL A   1      45.140  25.865  26.117  1.00  0.00     0.054 A 
BRANCH  80  81
ATOM     81  S   UNL A   1      45.399  23.582  25.365  1.00  0.00     0.124 S 
ATOM     82  O   UNL A   1      46.419  22.803  26.080  1.00  0.00    -0.237 OA
ATOM     83  O   UNL A   1      44.142  22.823  25.451  1.00  0.00    -0.237 OA
ATOM     84  O   UNL A   1      45.766  23.643  23.976  1.00  0.00    -0.744 OA
ENDBRANCH  80  81
ENDBRANCH  52  75
BRANCH  64  85
ATOM     85  C   UNL A   1      43.187  35.467  28.324  1.00  0.00    -0.014 A 
ATOM     86  C   UNL A   1      42.280  35.787  27.309  1.00  0.00     0.010 A 
ATOM     87  C   UNL A   1      43.930  36.555  28.872  1.00  0.00     0.010 A 
ATOM     88  C   UNL A   1      42.166  37.112  26.835  1.00  0.00     0.020 A 
ATOM     89  C   UNL A   1      43.795  37.872  28.444  1.00  0.00     0.020 A 
ATOM     90  C   UNL A   1      42.933  38.141  27.397  1.00  0.00     0.054 A 
BRANCH  90  91
ATOM     91  S   UNL A   1      42.796  39.837  26.781  1.00  0.00     0.124 S 
ATOM     92  O   UNL A   1      41.481  39.820  26.145  1.00  0.00    -0.237 OA
ATOM     93  O   UNL A   1      42.892  40.636  28.000  1.00  0.00    -0.237 OA
ATOM     94  O   UNL A   1      43.929  39.969  25.867  1.00  0.00    -0.744 OA
ENDBRANCH  90  91
ENDBRANCH  64  85
ENDBRANCH  38  39
ENDBRANCH  31  33
ENDBRANCH  30  31
ENDBRANCH   1  30
TORSDOF 17
ENDMDL
