MODEL 1
REMARK VINA RESULT:     -12.4      0.000      0.000
REMARK SMILES NS(=O)(=O)c1ccc(-n2nc(C(F)F)cc2-c2ccc(C(=O)OCCOC(=O)c3ccc(-c4c5nc(c(-c6ccc(S(=O)(=O)[O-])cc6)c6ccc([nH]6)c(-c6ccc(S(=O)(=O)[O-])cc6)c6nc(c(-c7ccc(S(=O)(=O)[O-])cc7)c7ccc4[nH]7)C=C6)C=C5)cc3)cc2)cc1
REMARK SMILES IDX 24 1 23 2 21 3 22 4 20 5 17 6 18 7 90 8 19 9 89 10 16 11
REMARK SMILES IDX 9 12 10 13 11 14 15 15 8 16 5 17 6 18 92 19 7 20 91 21 2 22
REMARK SMILES IDX 3 23 4 24 1 25 12 28 13 29 14 30 25 31 26 32 27 33 28 34
REMARK SMILES IDX 29 35 30 36 88 37 31 38 87 39 32 40 33 41 34 42 81 43 35 44
REMARK SMILES IDX 86 45 80 46 82 47 36 48 85 49 79 50 78 51 37 53 67 54 48 55
REMARK SMILES IDX 66 56 49 57 52 58 65 59 83 60 50 61 51 62 64 64 84 65 53 66
REMARK SMILES IDX 38 67 39 68 47 69 40 70 46 71 41 72 42 73 43 74 44 75 45 76
REMARK SMILES IDX 68 77 69 78 77 79 70 80 76 81 71 82 72 83 73 84 74 85 75 86
REMARK SMILES IDX 54 87 55 88 63 89 56 90 62 91 57 92 58 93 59 94 60 95 61 96
REMARK H PARENT 1 26 1 27 82 52 52 63
REMARK Flexibility Score: inf
ROOT
ATOM      1  C   UNL A   1      36.202  21.392  25.400  1.00  0.00     0.275 C 
ENDROOT
BRANCH   1   2
ATOM      2  O   UNL A   1      35.538  22.633  25.114  1.00  0.00    -0.458 OA
BRANCH   2   3
ATOM      3  C   UNL A   1      34.757  23.119  26.110  1.00  0.00     0.338 C 
ATOM      4  O   UNL A   1      34.700  22.700  27.255  1.00  0.00    -0.246 OA
BRANCH   3   5
ATOM      5  C   UNL A   1      34.008  24.312  25.643  1.00  0.00     0.060 A 
ATOM      6  C   UNL A   1      32.476  26.495  24.775  1.00  0.00     0.000 A 
ATOM      7  C   UNL A   1      32.069  25.744  25.887  1.00  0.00     0.011 A 
ATOM      8  C   UNL A   1      33.668  26.166  24.122  1.00  0.00     0.011 A 
ATOM      9  C   UNL A   1      32.831  24.658  26.318  1.00  0.00     0.016 A 
ATOM     10  C   UNL A   1      34.438  25.086  24.558  1.00  0.00     0.016 A 
BRANCH   6  11
ATOM     11  C   UNL A   1      31.616  27.553  24.249  1.00  0.00     0.075 A 
ATOM     12  N   UNL A   1      31.482  28.836  24.766  1.00  0.00    -0.233 N 
ATOM     13  N   UNL A   1      30.362  29.447  24.289  1.00  0.00    -0.166 NA
ATOM     14  C   UNL A   1      29.924  28.651  23.301  1.00  0.00     0.129 A 
ATOM     15  C   UNL A   1      30.665  27.450  23.254  1.00  0.00     0.060 A 
BRANCH  12  16
ATOM     16  C   UNL A   1      32.345  29.522  25.663  1.00  0.00     0.065 A 
ATOM     17  C   UNL A   1      34.013  30.862  27.452  1.00  0.00     0.082 A 
ATOM     18  C   UNL A   1      34.471  29.702  26.825  1.00  0.00     0.024 A 
ATOM     19  C   UNL A   1      32.734  31.364  27.180  1.00  0.00     0.024 A 
ATOM     20  C   UNL A   1      33.629  29.024  25.940  1.00  0.00     0.030 A 
ATOM     21  C   UNL A   1      31.908  30.710  26.262  1.00  0.00     0.030 A 
BRANCH  17  22
ATOM     22  S   UNL A   1      35.010  31.750  28.618  1.00  0.00     0.238 S 
ATOM     23  O   UNL A   1      36.084  30.879  29.009  1.00  0.00    -0.207 OA
ATOM     24  O   UNL A   1      34.099  32.362  29.565  1.00  0.00    -0.207 OA
BRANCH  22  25
ATOM     25  N   UNL A   1      35.713  32.998  27.740  1.00  0.00    -0.225 NA
ATOM     26  H   UNL A   1      36.090  33.695  28.381  1.00  0.00     0.137 HD
ATOM     27  H   UNL A   1      35.009  33.432  27.141  1.00  0.00     0.137 HD
ENDBRANCH  22  25
ENDBRANCH  17  22
ENDBRANCH  12  16
BRANCH  14  28
ATOM     28  C   UNL A   1      28.771  29.012  22.414  1.00  0.00     0.393 C 
ATOM     29  F   UNL A   1      27.586  28.504  22.851  1.00  0.00    -0.203 F 
ATOM     30  F   UNL A   1      28.608  30.361  22.321  1.00  0.00    -0.203 F 
ENDBRANCH  14  28
ENDBRANCH   6  11
ENDBRANCH   3   5
ENDBRANCH   2   3
ENDBRANCH   1   2
BRANCH   1  31
ATOM     31  C   UNL A   1      37.711  21.536  25.268  1.00  0.00     0.275 C 
BRANCH  31  32
ATOM     32  O   UNL A   1      38.222  22.577  26.102  1.00  0.00    -0.458 OA
BRANCH  32  33
ATOM     33  C   UNL A   1      39.516  22.435  26.472  1.00  0.00     0.338 C 
ATOM     34  O   UNL A   1      40.122  21.391  26.650  1.00  0.00    -0.246 OA
BRANCH  33  35
ATOM     35  C   UNL A   1      40.049  23.746  26.858  1.00  0.00     0.060 A 
ATOM     36  C   UNL A   1      41.168  23.780  27.694  1.00  0.00     0.016 A 
ATOM     37  C   UNL A   1      39.297  24.900  26.592  1.00  0.00     0.016 A 
ATOM     38  C   UNL A   1      41.460  24.952  28.364  1.00  0.00     0.010 A 
ATOM     39  C   UNL A   1      39.580  26.064  27.271  1.00  0.00     0.010 A 
ATOM     40  C   UNL A   1      40.619  26.061  28.196  1.00  0.00    -0.014 A 
BRANCH  40  41
ATOM     41  C   UNL A   1      40.915  27.267  28.946  1.00  0.00     0.031 A 
ATOM     42  C   UNL A   1      42.117  27.989  28.471  1.00  0.00     0.074 A 
ATOM     43  C   UNL A   1      40.101  27.769  29.893  1.00  0.00     0.049 A 
ATOM     44  N   UNL A   1      43.232  28.164  29.098  1.00  0.00    -0.248 NA
ATOM     45  C   UNL A   1      42.127  28.448  27.074  1.00  0.00     0.031 C 
ATOM     46  C   UNL A   1      38.741  27.347  30.241  1.00  0.00     0.029 A 
ATOM     47  N   UNL A   1      40.290  28.869  30.668  1.00  0.00    -0.354 N 
ATOM     48  C   UNL A   1      44.024  28.930  28.249  1.00  0.00     0.074 A 
ATOM     49  C   UNL A   1      43.366  28.927  26.967  1.00  0.00     0.031 C 
ATOM     50  C   UNL A   1      38.151  28.322  30.971  1.00  0.00     0.029 A 
ATOM     51  C   UNL A   1      39.131  29.358  31.255  1.00  0.00     0.049 A 
ATOM     52  H   UNL A   1      41.174  29.284  30.802  1.00  0.00     0.167 HD
ATOM     53  C   UNL A   1      45.041  29.701  28.719  1.00  0.00     0.031 A 
ATOM     54  C   UNL A   1      38.982  30.569  31.851  1.00  0.00     0.031 A 
ATOM     55  C   UNL A   1      45.418  29.337  30.059  1.00  0.00     0.049 A 
ATOM     56  C   UNL A   1      40.340  31.056  32.207  1.00  0.00     0.074 A 
ATOM     57  C   UNL A   1      45.878  28.179  30.656  1.00  0.00     0.029 A 
ATOM     58  N   UNL A   1      44.962  30.134  31.084  1.00  0.00    -0.354 N 
ATOM     59  N   UNL A   1      41.098  30.484  33.100  1.00  0.00    -0.248 NA
ATOM     60  C   UNL A   1      41.037  31.907  31.254  1.00  0.00     0.031 C 
ATOM     61  C   UNL A   1      45.236  28.142  31.928  1.00  0.00     0.029 A 
ATOM     62  C   UNL A   1      44.471  29.303  32.057  1.00  0.00     0.049 A 
ATOM     63  H   UNL A   1      44.986  31.119  31.113  1.00  0.00     0.167 HD
ATOM     64  C   UNL A   1      42.382  30.550  32.576  1.00  0.00     0.074 A 
ATOM     65  C   UNL A   1      42.295  31.519  31.486  1.00  0.00     0.031 C 
ATOM     66  C   UNL A   1      43.329  29.616  32.891  1.00  0.00     0.031 A 
BRANCH  53  67
ATOM     67  C   UNL A   1      45.412  31.032  28.112  1.00  0.00    -0.014 A 
ATOM     68  C   UNL A   1      44.461  32.072  28.120  1.00  0.00     0.010 A 
ATOM     69  C   UNL A   1      46.544  31.208  27.289  1.00  0.00     0.010 A 
ATOM     70  C   UNL A   1      44.599  33.188  27.284  1.00  0.00     0.020 A 
ATOM     71  C   UNL A   1      46.716  32.337  26.489  1.00  0.00     0.020 A 
ATOM     72  C   UNL A   1      45.720  33.302  26.462  1.00  0.00     0.054 A 
BRANCH  72  73
ATOM     73  S   UNL A   1      45.832  34.681  25.296  1.00  0.00     0.124 S 
ATOM     74  O   UNL A   1      45.302  35.785  26.089  1.00  0.00    -0.237 OA
ATOM     75  O   UNL A   1      47.264  34.730  25.014  1.00  0.00    -0.237 OA
ATOM     76  O   UNL A   1      44.994  34.252  24.178  1.00  0.00    -0.744 OA
ENDBRANCH  72  73
ENDBRANCH  53  67
BRANCH  54  77
ATOM     77  C   UNL A   1      37.794  31.460  31.798  1.00  0.00    -0.014 A 
ATOM     78  C   UNL A   1      36.630  31.164  32.532  1.00  0.00     0.010 A 
ATOM     79  C   UNL A   1      37.906  32.751  31.243  1.00  0.00     0.010 A 
ATOM     80  C   UNL A   1      35.645  32.144  32.753  1.00  0.00     0.020 A 
ATOM     81  C   UNL A   1      36.927  33.729  31.451  1.00  0.00     0.020 A 
ATOM     82  C   UNL A   1      35.812  33.428  32.228  1.00  0.00     0.054 A 
BRANCH  82  83
ATOM     83  S   UNL A   1      34.632  34.740  32.667  1.00  0.00     0.124 S 
ATOM     84  O   UNL A   1      34.457  35.437  31.396  1.00  0.00    -0.237 OA
ATOM     85  O   UNL A   1      33.476  33.982  33.138  1.00  0.00    -0.237 OA
ATOM     86  O   UNL A   1      35.333  35.501  33.700  1.00  0.00    -0.744 OA
ENDBRANCH  82  83
ENDBRANCH  54  77
BRANCH  66  87
ATOM     87  C   UNL A   1      43.062  28.668  34.038  1.00  0.00    -0.014 A 
ATOM     88  C   UNL A   1      43.398  28.947  35.377  1.00  0.00     0.010 A 
ATOM     89  C   UNL A   1      42.293  27.522  33.766  1.00  0.00     0.010 A 
ATOM     90  C   UNL A   1      42.996  28.087  36.410  1.00  0.00     0.020 A 
ATOM     91  C   UNL A   1      41.872  26.672  34.792  1.00  0.00     0.020 A 
ATOM     92  C   UNL A   1      42.233  26.955  36.109  1.00  0.00     0.054 A 
BRANCH  92  93
ATOM     93  S   UNL A   1      41.667  25.885  37.460  1.00  0.00     0.124 S 
ATOM     94  O   UNL A   1      40.376  26.469  37.808  1.00  0.00    -0.237 OA
ATOM     95  O   UNL A   1      41.611  24.570  36.821  1.00  0.00    -0.237 OA
ATOM     96  O   UNL A   1      42.706  26.028  38.478  1.00  0.00    -0.744 OA
ENDBRANCH  92  93
ENDBRANCH  66  87
ENDBRANCH  40  41
ENDBRANCH  33  35
ENDBRANCH  32  33
ENDBRANCH  31  32
ENDBRANCH   1  31
TORSDOF 19
ENDMDL
MODEL 2
REMARK VINA RESULT:     -12.2      3.239      5.240
REMARK SMILES NS(=O)(=O)c1ccc(-n2nc(C(F)F)cc2-c2ccc(C(=O)OCCOC(=O)c3ccc(-c4c5nc(c(-c6ccc(S(=O)(=O)[O-])cc6)c6ccc([nH]6)c(-c6ccc(S(=O)(=O)[O-])cc6)c6nc(c(-c7ccc(S(=O)(=O)[O-])cc7)c7ccc4[nH]7)C=C6)C=C5)cc3)cc2)cc1
REMARK SMILES IDX 24 1 23 2 21 3 22 4 20 5 17 6 18 7 90 8 19 9 89 10 16 11
REMARK SMILES IDX 9 12 10 13 11 14 15 15 8 16 5 17 6 18 92 19 7 20 91 21 2 22
REMARK SMILES IDX 3 23 4 24 1 25 12 28 13 29 14 30 25 31 26 32 27 33 28 34
REMARK SMILES IDX 29 35 30 36 88 37 31 38 87 39 32 40 33 41 34 42 81 43 35 44
REMARK SMILES IDX 86 45 80 46 82 47 36 48 85 49 79 50 78 51 37 53 67 54 48 55
REMARK SMILES IDX 66 56 49 57 52 58 65 59 83 60 50 61 51 62 64 64 84 65 53 66
REMARK SMILES IDX 38 67 39 68 47 69 40 70 46 71 41 72 42 73 43 74 44 75 45 76
REMARK SMILES IDX 68 77 69 78 77 79 70 80 76 81 71 82 72 83 73 84 74 85 75 86
REMARK SMILES IDX 54 87 55 88 63 89 56 90 62 91 57 92 58 93 59 94 60 95 61 96
REMARK H PARENT 1 26 1 27 82 52 52 63
REMARK Flexibility Score: inf
ROOT
ATOM      1  C   UNL A   1      40.321  20.744  26.567  1.00  0.00     0.275 C 
ENDROOT
BRANCH   1   2
ATOM      2  O   UNL A   1      39.440  21.468  25.695  1.00  0.00    -0.458 OA
BRANCH   2   3
ATOM      3  C   UNL A   1      38.911  22.605  26.213  1.00  0.00     0.338 C 
ATOM      4  O   UNL A   1      39.467  23.380  26.974  1.00  0.00    -0.246 OA
BRANCH   3   5
ATOM      5  C   UNL A   1      37.552  22.838  25.666  1.00  0.00     0.060 A 
ATOM      6  C   UNL A   1      34.933  23.269  24.757  1.00  0.00     0.000 A 
ATOM      7  C   UNL A   1      35.401  23.925  25.905  1.00  0.00     0.011 A 
ATOM      8  C   UNL A   1      35.794  22.422  24.052  1.00  0.00     0.011 A 
ATOM      9  C   UNL A   1      36.703  23.710  26.357  1.00  0.00     0.016 A 
ATOM     10  C   UNL A   1      37.102  22.213  24.496  1.00  0.00     0.016 A 
BRANCH   6  11
ATOM     11  C   UNL A   1      33.534  23.397  24.356  1.00  0.00     0.075 A 
ATOM     12  N   UNL A   1      32.687  22.358  23.988  1.00  0.00    -0.233 N 
ATOM     13  N   UNL A   1      31.588  22.825  23.333  1.00  0.00    -0.166 NA
ATOM     14  C   UNL A   1      31.624  24.157  23.496  1.00  0.00     0.129 A 
ATOM     15  C   UNL A   1      32.829  24.558  24.112  1.00  0.00     0.060 A 
BRANCH  12  16
ATOM     16  C   UNL A   1      32.840  20.966  24.227  1.00  0.00     0.065 A 
ATOM     17  C   UNL A   1      33.172  18.232  24.670  1.00  0.00     0.082 A 
ATOM     18  C   UNL A   1      33.320  19.122  25.735  1.00  0.00     0.024 A 
ATOM     19  C   UNL A   1      32.843  18.698  23.390  1.00  0.00     0.024 A 
ATOM     20  C   UNL A   1      33.168  20.493  25.508  1.00  0.00     0.030 A 
ATOM     21  C   UNL A   1      32.649  20.064  23.173  1.00  0.00     0.030 A 
BRANCH  17  22
ATOM     22  S   UNL A   1      33.391  16.485  24.875  1.00  0.00     0.238 S 
ATOM     23  O   UNL A   1      33.499  15.914  23.561  1.00  0.00    -0.207 OA
ATOM     24  O   UNL A   1      32.410  16.053  25.851  1.00  0.00    -0.207 OA
BRANCH  22  25
ATOM     25  N   UNL A   1      34.902  16.309  25.590  1.00  0.00    -0.225 NA
ATOM     26  H   UNL A   1      34.791  15.935  26.531  1.00  0.00     0.137 HD
ATOM     27  H   UNL A   1      35.364  17.218  25.637  1.00  0.00     0.137 HD
ENDBRANCH  22  25
ENDBRANCH  17  22
ENDBRANCH  12  16
BRANCH  14  28
ATOM     28  C   UNL A   1      30.524  25.065  23.034  1.00  0.00     0.393 C 
ATOM     29  F   UNL A   1      29.726  25.491  24.051  1.00  0.00    -0.203 F 
ATOM     30  F   UNL A   1      31.012  26.181  22.425  1.00  0.00    -0.203 F 
ENDBRANCH  14  28
ENDBRANCH   6  11
ENDBRANCH   3   5
ENDBRANCH   2   3
ENDBRANCH   1   2
BRANCH   1  31
ATOM     31  C   UNL A   1      41.764  20.845  26.092  1.00  0.00     0.275 C 
BRANCH  31  32
ATOM     32  O   UNL A   1      42.393  22.045  26.546  1.00  0.00    -0.458 OA
BRANCH  32  33
ATOM     33  C   UNL A   1      42.753  22.909  25.570  1.00  0.00     0.338 C 
ATOM     34  O   UNL A   1      43.124  22.635  24.440  1.00  0.00    -0.246 OA
BRANCH  33  35
ATOM     35  C   UNL A   1      42.854  24.257  26.140  1.00  0.00     0.060 A 
ATOM     36  C   UNL A   1      43.537  24.410  27.349  1.00  0.00     0.016 A 
ATOM     37  C   UNL A   1      42.071  25.291  25.603  1.00  0.00     0.016 A 
ATOM     38  C   UNL A   1      43.333  25.562  28.084  1.00  0.00     0.010 A 
ATOM     39  C   UNL A   1      41.858  26.433  26.344  1.00  0.00     0.010 A 
ATOM     40  C   UNL A   1      42.441  26.530  27.603  1.00  0.00    -0.014 A 
BRANCH  40  41
ATOM     41  C   UNL A   1      42.204  27.709  28.414  1.00  0.00     0.031 A 
ATOM     42  C   UNL A   1      43.303  28.700  28.367  1.00  0.00     0.074 A 
ATOM     43  C   UNL A   1      41.039  27.956  29.039  1.00  0.00     0.049 A 
ATOM     44  N   UNL A   1      44.088  29.054  29.328  1.00  0.00    -0.248 NA
ATOM     45  C   UNL A   1      43.661  29.257  27.053  1.00  0.00     0.031 C 
ATOM     46  C   UNL A   1      39.769  27.236  28.916  1.00  0.00     0.029 A 
ATOM     47  N   UNL A   1      40.719  29.009  29.838  1.00  0.00    -0.354 N 
ATOM     48  C   UNL A   1      44.922  30.031  28.793  1.00  0.00     0.074 A 
ATOM     49  C   UNL A   1      44.729  29.990  27.365  1.00  0.00     0.031 C 
ATOM     50  C   UNL A   1      38.774  28.007  29.413  1.00  0.00     0.029 A 
ATOM     51  C   UNL A   1      39.355  29.199  30.010  1.00  0.00     0.049 A 
ATOM     52  H   UNL A   1      41.397  29.586  30.259  1.00  0.00     0.167 HD
ATOM     53  C   UNL A   1      45.535  30.958  29.577  1.00  0.00     0.031 A 
ATOM     54  C   UNL A   1      38.758  30.303  30.528  1.00  0.00     0.031 A 
ATOM     55  C   UNL A   1      45.531  30.578  30.964  1.00  0.00     0.049 A 
ATOM     56  C   UNL A   1      39.784  31.033  31.315  1.00  0.00     0.074 A 
ATOM     57  C   UNL A   1      46.019  29.498  31.675  1.00  0.00     0.029 A 
ATOM     58  N   UNL A   1      44.605  31.182  31.783  1.00  0.00    -0.354 N 
ATOM     59  N   UNL A   1      40.321  30.563  32.407  1.00  0.00    -0.248 NA
ATOM     60  C   UNL A   1      40.544  32.081  30.651  1.00  0.00     0.031 C 
ATOM     61  C   UNL A   1      45.026  29.231  32.662  1.00  0.00     0.029 A 
ATOM     62  C   UNL A   1      44.023  30.194  32.536  1.00  0.00     0.049 A 
ATOM     63  H   UNL A   1      44.399  32.144  31.822  1.00  0.00     0.167 HD
ATOM     64  C   UNL A   1      41.657  30.935  32.338  1.00  0.00     0.074 A 
ATOM     65  C   UNL A   1      41.713  31.946  31.285  1.00  0.00     0.031 C 
ATOM     66  C   UNL A   1      42.634  30.197  32.945  1.00  0.00     0.031 A 
BRANCH  53  67
ATOM     67  C   UNL A   1      45.777  32.380  29.132  1.00  0.00    -0.014 A 
ATOM     68  C   UNL A   1      44.674  33.172  28.755  1.00  0.00     0.010 A 
ATOM     69  C   UNL A   1      47.057  32.870  28.801  1.00  0.00     0.010 A 
ATOM     70  C   UNL A   1      44.845  34.349  28.015  1.00  0.00     0.020 A 
ATOM     71  C   UNL A   1      47.242  34.065  28.106  1.00  0.00     0.020 A 
ATOM     72  C   UNL A   1      46.130  34.776  27.682  1.00  0.00     0.054 A 
BRANCH  72  73
ATOM     73  S   UNL A   1      46.338  36.227  26.621  1.00  0.00     0.124 S 
ATOM     74  O   UNL A   1      47.535  36.841  27.188  1.00  0.00    -0.237 OA
ATOM     75  O   UNL A   1      46.497  35.624  25.301  1.00  0.00    -0.237 OA
ATOM     76  O   UNL A   1      45.097  36.974  26.816  1.00  0.00    -0.744 OA
ENDBRANCH  72  73
ENDBRANCH  53  67
BRANCH  54  77
ATOM     77  C   UNL A   1      37.484  30.928  30.088  1.00  0.00    -0.014 A 
ATOM     78  C   UNL A   1      36.481  31.266  31.016  1.00  0.00     0.010 A 
ATOM     79  C   UNL A   1      37.369  31.451  28.784  1.00  0.00     0.010 A 
ATOM     80  C   UNL A   1      35.437  32.142  30.667  1.00  0.00     0.020 A 
ATOM     81  C   UNL A   1      36.330  32.317  28.426  1.00  0.00     0.020 A 
ATOM     82  C   UNL A   1      35.381  32.679  29.378  1.00  0.00     0.054 A 
BRANCH  82  83
ATOM     83  S   UNL A   1      34.141  33.950  28.986  1.00  0.00     0.124 S 
ATOM     84  O   UNL A   1      33.562  34.232  30.296  1.00  0.00    -0.237 OA
ATOM     85  O   UNL A   1      34.952  35.017  28.408  1.00  0.00    -0.237 OA
ATOM     86  O   UNL A   1      33.246  33.277  28.045  1.00  0.00    -0.744 OA
ENDBRANCH  82  83
ENDBRANCH  54  77
BRANCH  66  87
ATOM     87  C   UNL A   1      42.229  29.129  33.935  1.00  0.00    -0.014 A 
ATOM     88  C   UNL A   1      41.953  27.794  33.576  1.00  0.00     0.010 A 
ATOM     89  C   UNL A   1      42.290  29.455  35.302  1.00  0.00     0.010 A 
ATOM     90  C   UNL A   1      41.720  26.822  34.560  1.00  0.00     0.020 A 
ATOM     91  C   UNL A   1      42.079  28.486  36.287  1.00  0.00     0.020 A 
ATOM     92  C   UNL A   1      41.787  27.176  35.911  1.00  0.00     0.054 A 
BRANCH  92  93
ATOM     93  S   UNL A   1      41.546  25.897  37.174  1.00  0.00     0.124 S 
ATOM     94  O   UNL A   1      40.207  26.192  37.674  1.00  0.00    -0.237 OA
ATOM     95  O   UNL A   1      41.671  24.661  36.403  1.00  0.00    -0.237 OA
ATOM     96  O   UNL A   1      42.629  26.137  38.126  1.00  0.00    -0.744 OA
ENDBRANCH  92  93
ENDBRANCH  66  87
ENDBRANCH  40  41
ENDBRANCH  33  35
ENDBRANCH  32  33
ENDBRANCH  31  32
ENDBRANCH   1  31
TORSDOF 19
ENDMDL
MODEL 3
REMARK VINA RESULT:     -12.1      3.195      7.885
REMARK SMILES NS(=O)(=O)c1ccc(-n2nc(C(F)F)cc2-c2ccc(C(=O)OCCOC(=O)c3ccc(-c4c5nc(c(-c6ccc(S(=O)(=O)[O-])cc6)c6ccc([nH]6)c(-c6ccc(S(=O)(=O)[O-])cc6)c6nc(c(-c7ccc(S(=O)(=O)[O-])cc7)c7ccc4[nH]7)C=C6)C=C5)cc3)cc2)cc1
REMARK SMILES IDX 24 1 23 2 21 3 22 4 20 5 17 6 18 7 90 8 19 9 89 10 16 11
REMARK SMILES IDX 9 12 10 13 11 14 15 15 8 16 5 17 6 18 92 19 7 20 91 21 2 22
REMARK SMILES IDX 3 23 4 24 1 25 12 28 13 29 14 30 25 31 26 32 27 33 28 34
REMARK SMILES IDX 29 35 30 36 88 37 31 38 87 39 32 40 33 41 34 42 81 43 35 44
REMARK SMILES IDX 86 45 80 46 82 47 36 48 85 49 79 50 78 51 37 53 67 54 48 55
REMARK SMILES IDX 66 56 49 57 52 58 65 59 83 60 50 61 51 62 64 64 84 65 53 66
REMARK SMILES IDX 38 67 39 68 47 69 40 70 46 71 41 72 42 73 43 74 44 75 45 76
REMARK SMILES IDX 68 77 69 78 77 79 70 80 76 81 71 82 72 83 73 84 74 85 75 86
REMARK SMILES IDX 54 87 55 88 63 89 56 90 62 91 57 92 58 93 59 94 60 95 61 96
REMARK H PARENT 1 26 1 27 82 52 52 63
REMARK Flexibility Score: inf
ROOT
ATOM      1  C   UNL A   1      34.020  21.424  25.851  1.00  0.00     0.275 C 
ENDROOT
BRANCH   1   2
ATOM      2  O   UNL A   1      33.824  22.846  25.844  1.00  0.00    -0.458 OA
BRANCH   2   3
ATOM      3  C   UNL A   1      32.769  23.292  26.570  1.00  0.00     0.338 C 
ATOM      4  O   UNL A   1      32.376  22.835  27.631  1.00  0.00    -0.246 OA
BRANCH   3   5
ATOM      5  C   UNL A   1      32.174  24.493  25.933  1.00  0.00     0.060 A 
ATOM      6  C   UNL A   1      31.175  26.806  24.699  1.00  0.00     0.000 A 
ATOM      7  C   UNL A   1      32.213  26.077  24.101  1.00  0.00     0.011 A 
ATOM      8  C   UNL A   1      30.621  26.352  25.901  1.00  0.00     0.011 A 
ATOM      9  C   UNL A   1      32.710  24.927  24.715  1.00  0.00     0.016 A 
ATOM     10  C   UNL A   1      31.109  25.195  26.512  1.00  0.00     0.016 A 
BRANCH   6  11
ATOM     11  C   UNL A   1      30.740  28.075  24.122  1.00  0.00     0.075 A 
ATOM     12  N   UNL A   1      31.031  29.343  24.612  1.00  0.00    -0.233 N 
ATOM     13  N   UNL A   1      30.199  30.281  24.081  1.00  0.00    -0.166 NA
ATOM     14  C   UNL A   1      29.550  29.651  23.088  1.00  0.00     0.129 A 
ATOM     15  C   UNL A   1      29.844  28.270  23.091  1.00  0.00     0.060 A 
BRANCH  12  16
ATOM     16  C   UNL A   1      32.045  29.724  25.532  1.00  0.00     0.065 A 
ATOM     17  C   UNL A   1      34.058  30.479  27.308  1.00  0.00     0.082 A 
ATOM     18  C   UNL A   1      32.844  31.167  27.316  1.00  0.00     0.024 A 
ATOM     19  C   UNL A   1      34.267  29.407  26.430  1.00  0.00     0.024 A 
ATOM     20  C   UNL A   1      31.841  30.796  26.415  1.00  0.00     0.030 A 
ATOM     21  C   UNL A   1      33.249  29.009  25.560  1.00  0.00     0.030 A 
BRANCH  17  22
ATOM     22  S   UNL A   1      35.389  30.920  28.393  1.00  0.00     0.238 S 
ATOM     23  O   UNL A   1      36.172  31.920  27.720  1.00  0.00    -0.207 OA
ATOM     24  O   UNL A   1      35.947  29.680  28.895  1.00  0.00    -0.207 OA
BRANCH  22  25
ATOM     25  N   UNL A   1      34.661  31.692  29.696  1.00  0.00    -0.225 NA
ATOM     26  H   UNL A   1      35.143  32.570  29.884  1.00  0.00     0.137 HD
ATOM     27  H   UNL A   1      34.715  31.092  30.520  1.00  0.00     0.137 HD
ENDBRANCH  22  25
ENDBRANCH  17  22
ENDBRANCH  12  16
BRANCH  14  28
ATOM     28  C   UNL A   1      28.616  30.353  22.150  1.00  0.00     0.393 C 
ATOM     29  F   UNL A   1      27.870  29.495  21.403  1.00  0.00    -0.203 F 
ATOM     30  F   UNL A   1      27.740  31.156  22.815  1.00  0.00    -0.203 F 
ENDBRANCH  14  28
ENDBRANCH   6  11
ENDBRANCH   3   5
ENDBRANCH   2   3
ENDBRANCH   1   2
BRANCH   1  31
ATOM     31  C   UNL A   1      35.338  21.051  25.186  1.00  0.00     0.275 C 
BRANCH  31  32
ATOM     32  O   UNL A   1      36.450  21.697  25.807  1.00  0.00    -0.458 OA
BRANCH  32  33
ATOM     33  C   UNL A   1      37.663  21.197  25.478  1.00  0.00     0.338 C 
ATOM     34  O   UNL A   1      37.911  20.078  25.059  1.00  0.00    -0.246 OA
BRANCH  33  35
ATOM     35  C   UNL A   1      38.702  22.136  25.914  1.00  0.00     0.060 A 
ATOM     36  C   UNL A   1      39.839  21.615  26.539  1.00  0.00     0.016 A 
ATOM     37  C   UNL A   1      38.426  23.512  25.922  1.00  0.00     0.016 A 
ATOM     38  C   UNL A   1      40.637  22.466  27.280  1.00  0.00     0.010 A 
ATOM     39  C   UNL A   1      39.214  24.356  26.672  1.00  0.00     0.010 A 
ATOM     40  C   UNL A   1      40.274  23.815  27.393  1.00  0.00    -0.014 A 
BRANCH  40  41
ATOM     41  C   UNL A   1      41.098  24.680  28.215  1.00  0.00     0.031 A 
ATOM     42  C   UNL A   1      40.520  26.026  28.438  1.00  0.00     0.074 A 
ATOM     43  C   UNL A   1      42.214  24.265  28.841  1.00  0.00     0.049 A 
ATOM     44  N   UNL A   1      40.973  27.159  28.020  1.00  0.00    -0.248 NA
ATOM     45  C   UNL A   1      39.200  26.099  29.083  1.00  0.00     0.031 C 
ATOM     46  C   UNL A   1      42.728  22.899  28.974  1.00  0.00     0.029 A 
ATOM     47  N   UNL A   1      43.068  24.991  29.609  1.00  0.00    -0.354 N 
ATOM     48  C   UNL A   1      40.099  28.120  28.516  1.00  0.00     0.074 A 
ATOM     49  C   UNL A   1      38.949  27.406  29.010  1.00  0.00     0.031 C 
ATOM     50  C   UNL A   1      43.650  22.870  29.965  1.00  0.00     0.029 A 
ATOM     51  C   UNL A   1      43.887  24.227  30.429  1.00  0.00     0.049 A 
ATOM     52  H   UNL A   1      43.104  25.976  29.586  1.00  0.00     0.167 HD
ATOM     53  C   UNL A   1      40.483  29.413  28.697  1.00  0.00     0.031 A 
ATOM     54  C   UNL A   1      44.632  24.682  31.469  1.00  0.00     0.031 A 
ATOM     55  C   UNL A   1      41.694  29.720  27.985  1.00  0.00     0.049 A 
ATOM     56  C   UNL A   1      44.816  26.143  31.274  1.00  0.00     0.074 A 
ATOM     57  C   UNL A   1      42.074  29.681  26.657  1.00  0.00     0.029 A 
ATOM     58  N   UNL A   1      42.863  29.761  28.710  1.00  0.00    -0.354 N 
ATOM     59  N   UNL A   1      45.505  26.657  30.292  1.00  0.00    -0.248 NA
ATOM     60  C   UNL A   1      43.866  27.047  31.904  1.00  0.00     0.031 C 
ATOM     61  C   UNL A   1      43.420  29.215  26.674  1.00  0.00     0.029 A 
ATOM     62  C   UNL A   1      43.803  29.052  28.007  1.00  0.00     0.049 A 
ATOM     63  H   UNL A   1      42.999  30.217  29.573  1.00  0.00     0.167 HD
ATOM     64  C   UNL A   1      44.791  27.782  29.904  1.00  0.00     0.074 A 
ATOM     65  C   UNL A   1      43.845  28.024  30.992  1.00  0.00     0.031 C 
ATOM     66  C   UNL A   1      44.840  28.249  28.620  1.00  0.00     0.031 A 
BRANCH  53  67
ATOM     67  C   UNL A   1      39.979  30.268  29.834  1.00  0.00    -0.014 A 
ATOM     68  C   UNL A   1      40.394  29.971  31.147  1.00  0.00     0.010 A 
ATOM     69  C   UNL A   1      38.899  31.165  29.694  1.00  0.00     0.010 A 
ATOM     70  C   UNL A   1      39.710  30.480  32.258  1.00  0.00     0.020 A 
ATOM     71  C   UNL A   1      38.241  31.717  30.793  1.00  0.00     0.020 A 
ATOM     72  C   UNL A   1      38.626  31.338  32.070  1.00  0.00     0.054 A 
BRANCH  72  73
ATOM     73  S   UNL A   1      37.672  31.893  33.502  1.00  0.00     0.124 S 
ATOM     74  O   UNL A   1      38.270  33.196  33.772  1.00  0.00    -0.237 OA
ATOM     75  O   UNL A   1      36.310  31.915  32.976  1.00  0.00    -0.237 OA
ATOM     76  O   UNL A   1      37.931  30.863  34.505  1.00  0.00    -0.744 OA
ENDBRANCH  72  73
ENDBRANCH  53  67
BRANCH  54  77
ATOM     77  C   UNL A   1      44.873  24.006  32.770  1.00  0.00    -0.014 A 
ATOM     78  C   UNL A   1      44.029  22.975  33.221  1.00  0.00     0.010 A 
ATOM     79  C   UNL A   1      46.102  24.185  33.439  1.00  0.00     0.010 A 
ATOM     80  C   UNL A   1      44.426  22.117  34.263  1.00  0.00     0.020 A 
ATOM     81  C   UNL A   1      46.501  23.341  34.482  1.00  0.00     0.020 A 
ATOM     82  C   UNL A   1      45.672  22.294  34.872  1.00  0.00     0.054 A 
BRANCH  82  83
ATOM     83  S   UNL A   1      46.259  21.076  36.089  1.00  0.00     0.124 S 
ATOM     84  O   UNL A   1      45.464  19.898  35.756  1.00  0.00    -0.237 OA
ATOM     85  O   UNL A   1      47.684  20.986  35.786  1.00  0.00    -0.237 OA
ATOM     86  O   UNL A   1      45.940  21.695  37.375  1.00  0.00    -0.744 OA
ENDBRANCH  82  83
ENDBRANCH  54  77
BRANCH  66  87
ATOM     87  C   UNL A   1      45.900  27.707  27.690  1.00  0.00    -0.014 A 
ATOM     88  C   UNL A   1      45.730  26.553  26.899  1.00  0.00     0.010 A 
ATOM     89  C   UNL A   1      47.051  28.491  27.490  1.00  0.00     0.010 A 
ATOM     90  C   UNL A   1      46.699  26.184  25.954  1.00  0.00     0.020 A 
ATOM     91  C   UNL A   1      48.009  28.140  26.535  1.00  0.00     0.020 A 
ATOM     92  C   UNL A   1      47.832  26.983  25.777  1.00  0.00     0.054 A 
BRANCH  92  93
ATOM     93  S   UNL A   1      49.046  26.530  24.508  1.00  0.00     0.124 S 
ATOM     94  O   UNL A   1      49.402  27.823  23.932  1.00  0.00    -0.237 OA
ATOM     95  O   UNL A   1      50.097  25.880  25.291  1.00  0.00    -0.237 OA
ATOM     96  O   UNL A   1      48.305  25.638  23.618  1.00  0.00    -0.744 OA
ENDBRANCH  92  93
ENDBRANCH  66  87
ENDBRANCH  40  41
ENDBRANCH  33  35
ENDBRANCH  32  33
ENDBRANCH  31  32
ENDBRANCH   1  31
TORSDOF 19
ENDMDL
