MODEL 1
REMARK VINA RESULT:     -11.0      0.000      0.000
REMARK SMILES N#C[C@H]1CN(c2cc(C(=O)OCCOC(=O)c3ccc(-c4c5nc(c(-c6ccc(S(=O)(=O)[O-])cc6)c6ccc([nH]6)c(-c6ccc(S(=O)(=O)[O-])cc6)c6nc(c(-c7ccc(S(=O)(=O)[O-])cc7)c7ccc4[nH]7)C=C6)C=C5)cc3)c(N)cc2F)CCO1
REMARK SMILES IDX 13 1 12 2 11 3 9 4 10 5 8 6 6 7 7 8 80 9 79 10 81 11 77 12
REMARK SMILES IDX 5 13 3 14 4 15 84 16 83 17 82 18 2 19 1 20 78 21 14 24 15 25
REMARK SMILES IDX 16 26 17 27 18 28 76 29 19 30 75 31 20 32 21 33 22 34 69 35
REMARK SMILES IDX 23 36 74 37 68 38 70 39 24 40 73 41 67 42 66 43 25 45 55 46
REMARK SMILES IDX 36 47 54 48 37 49 40 50 53 51 71 52 38 53 39 54 52 56 72 57
REMARK SMILES IDX 41 58 26 59 27 60 35 61 28 62 34 63 29 64 30 65 31 66 32 67
REMARK SMILES IDX 33 68 56 69 57 70 65 71 58 72 64 73 59 74 60 75 61 76 62 77
REMARK SMILES IDX 63 78 42 79 43 80 51 81 44 82 50 83 45 84 46 85 47 86 48 87
REMARK SMILES IDX 49 88
REMARK H PARENT 78 22 78 23 70 44 40 55
REMARK Flexibility Score: inf
ROOT
ATOM      1  C   UNL A   1      39.613  22.328  26.508  1.00  0.00     0.275 C 
ENDROOT
BRANCH   1   2
ATOM      2  C   UNL A   1      38.529  21.660  25.658  1.00  0.00     0.275 C 
BRANCH   2   3
ATOM      3  O   UNL A   1      37.273  22.369  25.747  1.00  0.00    -0.458 OA
BRANCH   3   4
ATOM      4  C   UNL A   1      36.564  22.490  24.592  1.00  0.00     0.340 C 
ATOM      5  O   UNL A   1      37.025  22.771  23.498  1.00  0.00    -0.246 OA
BRANCH   4   6
ATOM      6  C   UNL A   1      35.131  22.144  24.793  1.00  0.00     0.085 A 
ATOM      7  C   UNL A   1      32.849  23.013  25.093  1.00  0.00     0.074 A 
ATOM      8  C   UNL A   1      34.207  23.212  24.856  1.00  0.00     0.047 A 
ATOM      9  C   UNL A   1      32.450  21.700  25.361  1.00  0.00     0.148 A 
ATOM     10  C   UNL A   1      33.348  20.629  25.322  1.00  0.00     0.067 A 
ATOM     11  F   UNL A   1      31.169  21.445  25.672  1.00  0.00    -0.205 F 
ATOM     12  C   UNL A   1      34.692  20.823  24.985  1.00  0.00     0.049 A 
BRANCH   7  13
ATOM     13  N   UNL A   1      31.967  24.067  25.114  1.00  0.00    -0.363 N 
ATOM     14  C   UNL A   1      31.766  26.417  25.818  1.00  0.00     0.240 C 
ATOM     15  C   UNL A   1      31.762  24.939  26.283  1.00  0.00     0.164 C 
ATOM     16  O   UNL A   1      30.785  26.624  24.772  1.00  0.00    -0.360 OA
ATOM     17  C   UNL A   1      31.068  25.792  23.633  1.00  0.00     0.183 C 
ATOM     18  C   UNL A   1      31.053  24.300  23.994  1.00  0.00     0.145 C 
BRANCH  14  19
ATOM     19  C   UNL A   1      31.512  27.317  26.955  1.00  0.00     0.096 C 
ATOM     20  N   UNL A   1      31.289  28.073  27.805  1.00  0.00    -0.195 NA
ENDBRANCH  14  19
ENDBRANCH   7  13
BRANCH  12  21
ATOM     21  N   UNL A   1      35.565  19.735  25.048  1.00  0.00    -0.398 N 
ATOM     22  H   UNL A   1      36.495  19.833  24.741  1.00  0.00     0.156 HD
ATOM     23  H   UNL A   1      35.249  18.871  25.396  1.00  0.00     0.156 HD
ENDBRANCH  12  21
ENDBRANCH   4   6
ENDBRANCH   3   4
ENDBRANCH   2   3
ENDBRANCH   1   2
BRANCH   1  24
ATOM     24  O   UNL A   1      39.434  23.756  26.529  1.00  0.00    -0.458 OA
BRANCH  24  25
ATOM     25  C   UNL A   1      40.526  24.456  26.908  1.00  0.00     0.338 C 
ATOM     26  O   UNL A   1      41.678  24.285  26.543  1.00  0.00    -0.246 OA
BRANCH  25  27
ATOM     27  C   UNL A   1      40.135  25.602  27.739  1.00  0.00     0.060 A 
ATOM     28  C   UNL A   1      40.924  26.734  27.644  1.00  0.00     0.016 A 
ATOM     29  C   UNL A   1      39.196  25.498  28.759  1.00  0.00     0.016 A 
ATOM     30  C   UNL A   1      40.926  27.671  28.668  1.00  0.00     0.010 A 
ATOM     31  C   UNL A   1      39.080  26.541  29.696  1.00  0.00     0.010 A 
ATOM     32  C   UNL A   1      39.992  27.614  29.710  1.00  0.00    -0.014 A 
BRANCH  32  33
ATOM     33  C   UNL A   1      40.015  28.651  30.796  1.00  0.00     0.031 A 
ATOM     34  C   UNL A   1      41.021  28.580  31.930  1.00  0.00     0.074 A 
ATOM     35  C   UNL A   1      39.168  29.706  30.754  1.00  0.00     0.049 A 
ATOM     36  N   UNL A   1      41.092  29.308  33.018  1.00  0.00    -0.248 NA
ATOM     37  C   UNL A   1      42.060  27.543  31.842  1.00  0.00     0.031 C 
ATOM     38  C   UNL A   1      38.156  29.948  29.721  1.00  0.00     0.029 A 
ATOM     39  N   UNL A   1      39.035  30.791  31.589  1.00  0.00    -0.354 N 
ATOM     40  C   UNL A   1      42.155  28.792  33.758  1.00  0.00     0.074 A 
ATOM     41  C   UNL A   1      42.663  27.658  33.017  1.00  0.00     0.031 C 
ATOM     42  C   UNL A   1      37.581  31.139  29.928  1.00  0.00     0.029 A 
ATOM     43  C   UNL A   1      38.067  31.683  31.187  1.00  0.00     0.049 A 
ATOM     44  H   UNL A   1      39.582  30.917  32.398  1.00  0.00     0.167 HD
ATOM     45  C   UNL A   1      42.671  29.221  34.938  1.00  0.00     0.031 A 
ATOM     46  C   UNL A   1      37.567  32.786  31.776  1.00  0.00     0.031 A 
ATOM     47  C   UNL A   1      42.196  30.378  35.657  1.00  0.00     0.049 A 
ATOM     48  C   UNL A   1      38.093  33.195  33.119  1.00  0.00     0.074 A 
ATOM     49  C   UNL A   1      42.654  30.894  36.859  1.00  0.00     0.029 A 
ATOM     50  N   UNL A   1      41.171  31.212  35.234  1.00  0.00    -0.354 N 
ATOM     51  N   UNL A   1      39.050  32.651  33.830  1.00  0.00    -0.248 NA
ATOM     52  C   UNL A   1      37.459  34.362  33.745  1.00  0.00     0.031 C 
ATOM     53  C   UNL A   1      41.854  31.990  37.199  1.00  0.00     0.029 A 
ATOM     54  C   UNL A   1      40.953  32.212  36.171  1.00  0.00     0.049 A 
ATOM     55  H   UNL A   1      40.673  31.109  34.392  1.00  0.00     0.167 HD
ATOM     56  C   UNL A   1      39.149  33.422  34.981  1.00  0.00     0.074 A 
ATOM     57  C   UNL A   1      38.174  34.488  34.853  1.00  0.00     0.031 C 
ATOM     58  C   UNL A   1      39.969  33.259  36.049  1.00  0.00     0.031 A 
BRANCH  45  59
ATOM     59  C   UNL A   1      43.778  28.399  35.561  1.00  0.00    -0.014 A 
ATOM     60  C   UNL A   1      45.138  28.661  35.313  1.00  0.00     0.010 A 
ATOM     61  C   UNL A   1      43.442  27.351  36.441  1.00  0.00     0.010 A 
ATOM     62  C   UNL A   1      46.133  27.858  35.883  1.00  0.00     0.020 A 
ATOM     63  C   UNL A   1      44.434  26.569  37.043  1.00  0.00     0.020 A 
ATOM     64  C   UNL A   1      45.774  26.813  36.741  1.00  0.00     0.054 A 
BRANCH  64  65
ATOM     65  S   UNL A   1      47.082  25.784  37.465  1.00  0.00     0.124 S 
ATOM     66  O   UNL A   1      46.336  24.603  37.895  1.00  0.00    -0.237 OA
ATOM     67  O   UNL A   1      47.988  25.577  36.340  1.00  0.00    -0.237 OA
ATOM     68  O   UNL A   1      47.615  26.608  38.548  1.00  0.00    -0.744 OA
ENDBRANCH  64  65
ENDBRANCH  45  59
BRANCH  46  69
ATOM     69  C   UNL A   1      36.465  33.546  31.117  1.00  0.00    -0.014 A 
ATOM     70  C   UNL A   1      36.581  33.967  29.782  1.00  0.00     0.010 A 
ATOM     71  C   UNL A   1      35.276  33.827  31.819  1.00  0.00     0.010 A 
ATOM     72  C   UNL A   1      35.532  34.654  29.163  1.00  0.00     0.020 A 
ATOM     73  C   UNL A   1      34.211  34.475  31.192  1.00  0.00     0.020 A 
ATOM     74  C   UNL A   1      34.349  34.892  29.868  1.00  0.00     0.054 A 
BRANCH  74  75
ATOM     75  S   UNL A   1      32.974  35.714  29.018  1.00  0.00     0.124 S 
ATOM     76  O   UNL A   1      33.664  36.742  28.245  1.00  0.00    -0.237 OA
ATOM     77  O   UNL A   1      32.390  34.623  28.242  1.00  0.00    -0.237 OA
ATOM     78  O   UNL A   1      32.139  36.207  30.111  1.00  0.00    -0.744 OA
ENDBRANCH  74  75
ENDBRANCH  46  69
BRANCH  58  79
ATOM     79  C   UNL A   1      39.866  34.284  37.150  1.00  0.00    -0.014 A 
ATOM     80  C   UNL A   1      39.060  34.065  38.283  1.00  0.00     0.010 A 
ATOM     81  C   UNL A   1      40.580  35.491  37.042  1.00  0.00     0.010 A 
ATOM     82  C   UNL A   1      38.917  35.062  39.252  1.00  0.00     0.020 A 
ATOM     83  C   UNL A   1      40.471  36.474  38.030  1.00  0.00     0.020 A 
ATOM     84  C   UNL A   1      39.620  36.263  39.115  1.00  0.00     0.054 A 
BRANCH  84  85
ATOM     85  S   UNL A   1      39.411  37.544  40.382  1.00  0.00     0.124 S 
ATOM     86  O   UNL A   1      39.221  36.747  41.592  1.00  0.00    -0.237 OA
ATOM     87  O   UNL A   1      40.670  38.278  40.305  1.00  0.00    -0.237 OA
ATOM     88  O   UNL A   1      38.233  38.286  39.936  1.00  0.00    -0.744 OA
ENDBRANCH  84  85
ENDBRANCH  58  79
ENDBRANCH  32  33
ENDBRANCH  25  27
ENDBRANCH  24  25
ENDBRANCH   1  24
TORSDOF 17
ENDMDL
MODEL 2
REMARK VINA RESULT:     -11.0      7.243     12.694
REMARK SMILES N#C[C@H]1CN(c2cc(C(=O)OCCOC(=O)c3ccc(-c4c5nc(c(-c6ccc(S(=O)(=O)[O-])cc6)c6ccc([nH]6)c(-c6ccc(S(=O)(=O)[O-])cc6)c6nc(c(-c7ccc(S(=O)(=O)[O-])cc7)c7ccc4[nH]7)C=C6)C=C5)cc3)c(N)cc2F)CCO1
REMARK SMILES IDX 13 1 12 2 11 3 9 4 10 5 8 6 6 7 7 8 80 9 79 10 81 11 77 12
REMARK SMILES IDX 5 13 3 14 4 15 84 16 83 17 82 18 2 19 1 20 78 21 14 24 15 25
REMARK SMILES IDX 16 26 17 27 18 28 76 29 19 30 75 31 20 32 21 33 22 34 69 35
REMARK SMILES IDX 23 36 74 37 68 38 70 39 24 40 73 41 67 42 66 43 25 45 55 46
REMARK SMILES IDX 36 47 54 48 37 49 40 50 53 51 71 52 38 53 39 54 52 56 72 57
REMARK SMILES IDX 41 58 26 59 27 60 35 61 28 62 34 63 29 64 30 65 31 66 32 67
REMARK SMILES IDX 33 68 56 69 57 70 65 71 58 72 64 73 59 74 60 75 61 76 62 77
REMARK SMILES IDX 63 78 42 79 43 80 51 81 44 82 50 83 45 84 46 85 47 86 48 87
REMARK SMILES IDX 49 88
REMARK H PARENT 78 22 78 23 70 44 40 55
REMARK Flexibility Score: inf
ROOT
ATOM      1  C   UNL A   1      35.192  30.763  28.344  1.00  0.00     0.275 C 
ENDROOT
BRANCH   1   2
ATOM      2  C   UNL A   1      33.937  30.634  27.478  1.00  0.00     0.275 C 
BRANCH   2   3
ATOM      3  O   UNL A   1      34.068  29.568  26.510  1.00  0.00    -0.458 OA
BRANCH   3   4
ATOM      4  C   UNL A   1      33.251  28.494  26.680  1.00  0.00     0.340 C 
ATOM      5  O   UNL A   1      32.501  28.310  27.626  1.00  0.00    -0.246 OA
BRANCH   4   6
ATOM      6  C   UNL A   1      33.303  27.577  25.509  1.00  0.00     0.085 A 
ATOM      7  C   UNL A   1      33.871  25.320  24.714  1.00  0.00     0.074 A 
ATOM      8  C   UNL A   1      33.733  26.251  25.741  1.00  0.00     0.047 A 
ATOM      9  C   UNL A   1      33.652  25.788  23.416  1.00  0.00     0.148 A 
ATOM     10  C   UNL A   1      33.244  27.101  23.159  1.00  0.00     0.067 A 
ATOM     11  F   UNL A   1      33.842  24.966  22.371  1.00  0.00    -0.205 F 
ATOM     12  C   UNL A   1      33.010  28.003  24.203  1.00  0.00     0.049 A 
BRANCH   7  13
ATOM     13  N   UNL A   1      34.258  24.026  24.972  1.00  0.00    -0.363 N 
ATOM     14  C   UNL A   1      33.727  21.690  24.406  1.00  0.00     0.240 C 
ATOM     15  C   UNL A   1      33.313  22.928  25.241  1.00  0.00     0.164 C 
ATOM     16  O   UNL A   1      35.106  21.335  24.670  1.00  0.00    -0.360 OA
ATOM     17  C   UNL A   1      35.988  22.421  24.334  1.00  0.00     0.183 C 
ATOM     18  C   UNL A   1      35.673  23.688  25.141  1.00  0.00     0.145 C 
BRANCH  14  19
ATOM     19  C   UNL A   1      32.833  20.555  24.688  1.00  0.00     0.096 C 
ATOM     20  N   UNL A   1      32.153  19.662  24.977  1.00  0.00    -0.195 NA
ENDBRANCH  14  19
ENDBRANCH   7  13
BRANCH  12  21
ATOM     21  N   UNL A   1      32.690  29.325  23.889  1.00  0.00    -0.398 N 
ATOM     22  H   UNL A   1      31.894  29.523  23.344  1.00  0.00     0.156 HD
ATOM     23  H   UNL A   1      33.259  30.059  24.213  1.00  0.00     0.156 HD
ENDBRANCH  12  21
ENDBRANCH   4   6
ENDBRANCH   3   4
ENDBRANCH   2   3
ENDBRANCH   1   2
BRANCH   1  24
ATOM     24  O   UNL A   1      36.000  29.577  28.248  1.00  0.00    -0.458 OA
BRANCH  24  25
ATOM     25  C   UNL A   1      36.929  29.447  29.221  1.00  0.00     0.338 C 
ATOM     26  O   UNL A   1      36.766  29.586  30.423  1.00  0.00    -0.246 OA
BRANCH  25  27
ATOM     27  C   UNL A   1      38.191  28.948  28.659  1.00  0.00     0.060 A 
ATOM     28  C   UNL A   1      39.040  28.290  29.530  1.00  0.00     0.016 A 
ATOM     29  C   UNL A   1      38.649  29.327  27.402  1.00  0.00     0.016 A 
ATOM     30  C   UNL A   1      40.393  28.184  29.239  1.00  0.00     0.010 A 
ATOM     31  C   UNL A   1      39.981  29.054  27.044  1.00  0.00     0.010 A 
ATOM     32  C   UNL A   1      40.898  28.542  27.982  1.00  0.00    -0.014 A 
BRANCH  32  33
ATOM     33  C   UNL A   1      42.366  28.403  27.697  1.00  0.00     0.031 A 
ATOM     34  C   UNL A   1      43.335  29.534  27.991  1.00  0.00     0.074 A 
ATOM     35  C   UNL A   1      42.864  27.239  27.219  1.00  0.00     0.049 A 
ATOM     36  N   UNL A   1      44.605  29.636  27.679  1.00  0.00    -0.248 NA
ATOM     37  C   UNL A   1      42.802  30.708  28.698  1.00  0.00     0.031 C 
ATOM     38  C   UNL A   1      42.081  26.039  26.908  1.00  0.00     0.029 A 
ATOM     39  N   UNL A   1      44.155  26.859  26.932  1.00  0.00    -0.354 N 
ATOM     40  C   UNL A   1      45.008  30.896  28.118  1.00  0.00     0.074 A 
ATOM     41  C   UNL A   1      43.835  31.539  28.668  1.00  0.00     0.031 C 
ATOM     42  C   UNL A   1      42.907  25.041  26.570  1.00  0.00     0.029 A 
ATOM     43  C   UNL A   1      44.264  25.560  26.491  1.00  0.00     0.049 A 
ATOM     44  H   UNL A   1      44.927  27.460  27.034  1.00  0.00     0.167 HD
ATOM     45  C   UNL A   1      46.239  31.468  28.078  1.00  0.00     0.031 A 
ATOM     46  C   UNL A   1      45.312  24.862  26.014  1.00  0.00     0.031 A 
ATOM     47  C   UNL A   1      47.420  30.813  27.572  1.00  0.00     0.049 A 
ATOM     48  C   UNL A   1      46.644  25.539  25.900  1.00  0.00     0.074 A 
ATOM     49  C   UNL A   1      48.712  31.308  27.490  1.00  0.00     0.029 A 
ATOM     50  N   UNL A   1      47.462  29.517  27.080  1.00  0.00    -0.354 N 
ATOM     51  N   UNL A   1      46.985  26.754  26.257  1.00  0.00    -0.248 NA
ATOM     52  C   UNL A   1      47.732  24.753  25.304  1.00  0.00     0.031 C 
ATOM     53  C   UNL A   1      49.515  30.340  26.876  1.00  0.00     0.029 A 
ATOM     54  C   UNL A   1      48.746  29.210  26.653  1.00  0.00     0.049 A 
ATOM     55  H   UNL A   1      46.692  28.904  27.040  1.00  0.00     0.167 HD
ATOM     56  C   UNL A   1      48.335  26.872  25.947  1.00  0.00     0.074 A 
ATOM     57  C   UNL A   1      48.751  25.593  25.405  1.00  0.00     0.031 C 
ATOM     58  C   UNL A   1      49.152  27.944  26.096  1.00  0.00     0.031 A 
BRANCH  45  59
ATOM     59  C   UNL A   1      46.363  32.902  28.546  1.00  0.00    -0.014 A 
ATOM     60  C   UNL A   1      46.697  33.232  29.872  1.00  0.00     0.010 A 
ATOM     61  C   UNL A   1      46.164  33.945  27.620  1.00  0.00     0.010 A 
ATOM     62  C   UNL A   1      46.771  34.571  30.275  1.00  0.00     0.020 A 
ATOM     63  C   UNL A   1      46.273  35.284  28.008  1.00  0.00     0.020 A 
ATOM     64  C   UNL A   1      46.554  35.589  29.340  1.00  0.00     0.054 A 
BRANCH  64  65
ATOM     65  S   UNL A   1      46.653  37.316  29.887  1.00  0.00     0.124 S 
ATOM     66  O   UNL A   1      46.632  37.176  31.342  1.00  0.00    -0.237 OA
ATOM     67  O   UNL A   1      47.921  37.762  29.319  1.00  0.00    -0.237 OA
ATOM     68  O   UNL A   1      45.462  37.935  29.309  1.00  0.00    -0.744 OA
ENDBRANCH  64  65
ENDBRANCH  45  59
BRANCH  46  69
ATOM     69  C   UNL A   1      45.122  23.455  25.555  1.00  0.00    -0.014 A 
ATOM     70  C   UNL A   1      44.676  23.179  24.251  1.00  0.00     0.010 A 
ATOM     71  C   UNL A   1      45.417  22.380  26.416  1.00  0.00     0.010 A 
ATOM     72  C   UNL A   1      44.528  21.857  23.819  1.00  0.00     0.020 A 
ATOM     73  C   UNL A   1      45.312  21.060  25.975  1.00  0.00     0.020 A 
ATOM     74  C   UNL A   1      44.859  20.807  24.680  1.00  0.00     0.054 A 
BRANCH  74  75
ATOM     75  S   UNL A   1      44.736  19.103  24.068  1.00  0.00     0.124 S 
ATOM     76  O   UNL A   1      46.029  18.547  24.453  1.00  0.00    -0.237 OA
ATOM     77  O   UNL A   1      43.581  18.591  24.803  1.00  0.00    -0.237 OA
ATOM     78  O   UNL A   1      44.527  19.268  22.632  1.00  0.00    -0.744 OA
ENDBRANCH  74  75
ENDBRANCH  46  69
BRANCH  58  79
ATOM     79  C   UNL A   1      50.594  27.762  25.693  1.00  0.00    -0.014 A 
ATOM     80  C   UNL A   1      51.019  27.980  24.369  1.00  0.00     0.010 A 
ATOM     81  C   UNL A   1      51.535  27.353  26.654  1.00  0.00     0.010 A 
ATOM     82  C   UNL A   1      52.344  27.728  24.002  1.00  0.00     0.020 A 
ATOM     83  C   UNL A   1      52.870  27.139  26.299  1.00  0.00     0.020 A 
ATOM     84  C   UNL A   1      53.260  27.303  24.969  1.00  0.00     0.054 A 
BRANCH  84  85
ATOM     85  S   UNL A   1      54.970  26.975  24.465  1.00  0.00     0.124 S 
ATOM     86  O   UNL A   1      55.653  28.195  24.890  1.00  0.00    -0.237 OA
ATOM     87  O   UNL A   1      55.302  25.773  25.224  1.00  0.00    -0.237 OA
ATOM     88  O   UNL A   1      54.877  26.787  23.018  1.00  0.00    -0.744 OA
ENDBRANCH  84  85
ENDBRANCH  58  79
ENDBRANCH  32  33
ENDBRANCH  25  27
ENDBRANCH  24  25
ENDBRANCH   1  24
TORSDOF 17
ENDMDL
MODEL 3
REMARK VINA RESULT:     -10.9      1.697      2.279
REMARK SMILES N#C[C@H]1CN(c2cc(C(=O)OCCOC(=O)c3ccc(-c4c5nc(c(-c6ccc(S(=O)(=O)[O-])cc6)c6ccc([nH]6)c(-c6ccc(S(=O)(=O)[O-])cc6)c6nc(c(-c7ccc(S(=O)(=O)[O-])cc7)c7ccc4[nH]7)C=C6)C=C5)cc3)c(N)cc2F)CCO1
REMARK SMILES IDX 13 1 12 2 11 3 9 4 10 5 8 6 6 7 7 8 80 9 79 10 81 11 77 12
REMARK SMILES IDX 5 13 3 14 4 15 84 16 83 17 82 18 2 19 1 20 78 21 14 24 15 25
REMARK SMILES IDX 16 26 17 27 18 28 76 29 19 30 75 31 20 32 21 33 22 34 69 35
REMARK SMILES IDX 23 36 74 37 68 38 70 39 24 40 73 41 67 42 66 43 25 45 55 46
REMARK SMILES IDX 36 47 54 48 37 49 40 50 53 51 71 52 38 53 39 54 52 56 72 57
REMARK SMILES IDX 41 58 26 59 27 60 35 61 28 62 34 63 29 64 30 65 31 66 32 67
REMARK SMILES IDX 33 68 56 69 57 70 65 71 58 72 64 73 59 74 60 75 61 76 62 77
REMARK SMILES IDX 63 78 42 79 43 80 51 81 44 82 50 83 45 84 46 85 47 86 48 87
REMARK SMILES IDX 49 88
REMARK H PARENT 78 22 78 23 70 44 40 55
REMARK Flexibility Score: inf
ROOT
ATOM      1  C   UNL A   1      39.790  23.252  26.763  1.00  0.00     0.275 C 
ENDROOT
BRANCH   1   2
ATOM      2  C   UNL A   1      38.738  22.512  25.935  1.00  0.00     0.275 C 
BRANCH   2   3
ATOM      3  O   UNL A   1      37.406  23.005  26.205  1.00  0.00    -0.458 OA
BRANCH   3   4
ATOM      4  C   UNL A   1      36.613  23.226  25.122  1.00  0.00     0.340 C 
ATOM      5  O   UNL A   1      36.961  23.147  23.954  1.00  0.00    -0.246 OA
BRANCH   4   6
ATOM      6  C   UNL A   1      35.206  23.499  25.522  1.00  0.00     0.085 A 
ATOM      7  C   UNL A   1      33.426  25.189  25.685  1.00  0.00     0.074 A 
ATOM      8  C   UNL A   1      34.709  24.804  25.303  1.00  0.00     0.047 A 
ATOM      9  C   UNL A   1      32.675  24.243  26.387  1.00  0.00     0.148 A 
ATOM     10  C   UNL A   1      33.152  22.951  26.632  1.00  0.00     0.067 A 
ATOM     11  F   UNL A   1      31.459  24.571  26.852  1.00  0.00    -0.205 F 
ATOM     12  C   UNL A   1      34.402  22.538  26.158  1.00  0.00     0.049 A 
BRANCH   7  13
ATOM     13  N   UNL A   1      32.956  26.455  25.427  1.00  0.00    -0.363 N 
ATOM     14  C   UNL A   1      31.085  27.654  24.369  1.00  0.00     0.240 C 
ATOM     15  C   UNL A   1      32.401  26.874  24.128  1.00  0.00     0.164 C 
ATOM     16  O   UNL A   1      31.307  28.760  25.278  1.00  0.00    -0.360 OA
ATOM     17  C   UNL A   1      31.790  28.289  26.548  1.00  0.00     0.183 C 
ATOM     18  C   UNL A   1      33.116  27.527  26.412  1.00  0.00     0.145 C 
BRANCH  14  19
ATOM     19  C   UNL A   1      30.528  28.133  23.093  1.00  0.00     0.096 C 
ATOM     20  N   UNL A   1      30.151  28.494  22.058  1.00  0.00    -0.195 NA
ENDBRANCH  14  19
ENDBRANCH   7  13
BRANCH  12  21
ATOM     21  N   UNL A   1      34.868  21.269  26.506  1.00  0.00    -0.398 N 
ATOM     22  H   UNL A   1      34.491  20.471  26.070  1.00  0.00     0.156 HD
ATOM     23  H   UNL A   1      35.570  21.173  27.188  1.00  0.00     0.156 HD
ENDBRANCH  12  21
ENDBRANCH   4   6
ENDBRANCH   3   4
ENDBRANCH   2   3
ENDBRANCH   1   2
BRANCH   1  24
ATOM     24  O   UNL A   1      39.212  24.401  27.409  1.00  0.00    -0.458 OA
BRANCH  24  25
ATOM     25  C   UNL A   1      39.847  25.567  27.161  1.00  0.00     0.338 C 
ATOM     26  O   UNL A   1      40.472  25.870  26.157  1.00  0.00    -0.246 OA
BRANCH  25  27
ATOM     27  C   UNL A   1      39.565  26.540  28.225  1.00  0.00     0.060 A 
ATOM     28  C   UNL A   1      40.200  27.764  28.129  1.00  0.00     0.016 A 
ATOM     29  C   UNL A   1      38.914  26.189  29.402  1.00  0.00     0.016 A 
ATOM     30  C   UNL A   1      40.363  28.556  29.258  1.00  0.00     0.010 A 
ATOM     31  C   UNL A   1      38.933  27.080  30.490  1.00  0.00     0.010 A 
ATOM     32  C   UNL A   1      39.718  28.248  30.463  1.00  0.00    -0.014 A 
BRANCH  32  33
ATOM     33  C   UNL A   1      39.907  29.133  31.662  1.00  0.00     0.031 A 
ATOM     34  C   UNL A   1      41.121  28.988  32.562  1.00  0.00     0.074 A 
ATOM     35  C   UNL A   1      39.020  30.118  31.933  1.00  0.00     0.049 A 
ATOM     36  N   UNL A   1      41.372  29.570  33.710  1.00  0.00    -0.248 NA
ATOM     37  C   UNL A   1      42.169  28.051  32.131  1.00  0.00     0.031 C 
ATOM     38  C   UNL A   1      37.814  30.419  31.156  1.00  0.00     0.029 A 
ATOM     39  N   UNL A   1      39.005  31.072  32.925  1.00  0.00    -0.354 N 
ATOM     40  C   UNL A   1      42.583  29.041  34.153  1.00  0.00     0.074 A 
ATOM     41  C   UNL A   1      42.987  28.055  33.174  1.00  0.00     0.031 C 
ATOM     42  C   UNL A   1      37.236  31.527  31.637  1.00  0.00     0.029 A 
ATOM     43  C   UNL A   1      37.936  31.935  32.846  1.00  0.00     0.049 A 
ATOM     44  H   UNL A   1      39.695  31.131  33.624  1.00  0.00     0.167 HD
ATOM     45  C   UNL A   1      43.303  29.348  35.262  1.00  0.00     0.031 A 
ATOM     46  C   UNL A   1      37.512  32.911  33.670  1.00  0.00     0.031 A 
ATOM     47  C   UNL A   1      42.926  30.363  36.216  1.00  0.00     0.049 A 
ATOM     48  C   UNL A   1      38.274  33.178  34.934  1.00  0.00     0.074 A 
ATOM     49  C   UNL A   1      43.588  30.749  37.371  1.00  0.00     0.029 A 
ATOM     50  N   UNL A   1      41.799  31.167  36.119  1.00  0.00    -0.354 N 
ATOM     51  N   UNL A   1      39.378  32.617  35.364  1.00  0.00    -0.248 NA
ATOM     52  C   UNL A   1      37.723  34.203  35.829  1.00  0.00     0.031 C 
ATOM     53  C   UNL A   1      42.821  31.728  38.011  1.00  0.00     0.029 A 
ATOM     54  C   UNL A   1      41.725  32.016  37.214  1.00  0.00     0.049 A 
ATOM     55  H   UNL A   1      41.149  31.139  35.381  1.00  0.00     0.167 HD
ATOM     56  C   UNL A   1      39.666  33.236  36.575  1.00  0.00     0.074 A 
ATOM     57  C   UNL A   1      38.637  34.235  36.788  1.00  0.00     0.031 C 
ATOM     58  C   UNL A   1      40.688  32.995  37.432  1.00  0.00     0.031 A 
BRANCH  45  59
ATOM     59  C   UNL A   1      44.548  28.536  35.540  1.00  0.00    -0.014 A 
ATOM     60  C   UNL A   1      44.512  27.332  36.268  1.00  0.00     0.010 A 
ATOM     61  C   UNL A   1      45.785  28.983  35.034  1.00  0.00     0.010 A 
ATOM     62  C   UNL A   1      45.691  26.625  36.532  1.00  0.00     0.020 A 
ATOM     63  C   UNL A   1      46.961  28.260  35.263  1.00  0.00     0.020 A 
ATOM     64  C   UNL A   1      46.910  27.096  36.032  1.00  0.00     0.054 A 
BRANCH  64  65
ATOM     65  S   UNL A   1      48.424  26.164  36.390  1.00  0.00     0.124 S 
ATOM     66  O   UNL A   1      48.017  25.352  37.535  1.00  0.00    -0.237 OA
ATOM     67  O   UNL A   1      48.651  25.429  35.150  1.00  0.00    -0.237 OA
ATOM     68  O   UNL A   1      49.411  27.200  36.687  1.00  0.00    -0.744 OA
ENDBRANCH  64  65
ENDBRANCH  45  59
BRANCH  46  69
ATOM     69  C   UNL A   1      36.267  33.668  33.349  1.00  0.00    -0.014 A 
ATOM     70  C   UNL A   1      36.333  34.949  32.775  1.00  0.00     0.010 A 
ATOM     71  C   UNL A   1      35.003  33.093  33.589  1.00  0.00     0.010 A 
ATOM     72  C   UNL A   1      35.162  35.640  32.450  1.00  0.00     0.020 A 
ATOM     73  C   UNL A   1      33.833  33.762  33.227  1.00  0.00     0.020 A 
ATOM     74  C   UNL A   1      33.919  35.037  32.666  1.00  0.00     0.054 A 
BRANCH  74  75
ATOM     75  S   UNL A   1      32.418  35.920  32.162  1.00  0.00     0.124 S 
ATOM     76  O   UNL A   1      32.552  37.184  32.880  1.00  0.00    -0.237 OA
ATOM     77  O   UNL A   1      32.573  35.996  30.711  1.00  0.00    -0.237 OA
ATOM     78  O   UNL A   1      31.337  35.051  32.620  1.00  0.00    -0.744 OA
ENDBRANCH  74  75
ENDBRANCH  46  69
BRANCH  58  79
ATOM     79  C   UNL A   1      40.758  33.856  38.668  1.00  0.00    -0.014 A 
ATOM     80  C   UNL A   1      40.115  33.479  39.863  1.00  0.00     0.010 A 
ATOM     81  C   UNL A   1      41.469  35.069  38.629  1.00  0.00     0.010 A 
ATOM     82  C   UNL A   1      40.126  34.331  40.971  1.00  0.00     0.020 A 
ATOM     83  C   UNL A   1      41.516  35.904  39.748  1.00  0.00     0.020 A 
ATOM     84  C   UNL A   1      40.822  35.541  40.904  1.00  0.00     0.054 A 
BRANCH  84  85
ATOM     85  S   UNL A   1      40.814  36.632  42.352  1.00  0.00     0.124 S 
ATOM     86  O   UNL A   1      41.485  37.825  41.839  1.00  0.00    -0.237 OA
ATOM     87  O   UNL A   1      39.389  36.784  42.630  1.00  0.00    -0.237 OA
ATOM     88  O   UNL A   1      41.563  35.881  43.358  1.00  0.00    -0.744 OA
ENDBRANCH  84  85
ENDBRANCH  58  79
ENDBRANCH  32  33
ENDBRANCH  25  27
ENDBRANCH  24  25
ENDBRANCH   1  24
TORSDOF 17
ENDMDL
