MODEL 1
REMARK VINA RESULT:     -11.4      0.000      0.000
REMARK SMILES O=C(C[NH+]1CCC(C(=O)OCCOC(=O)c2ccc(-c3c4nc(c(-c5ccc(S(=O)(=O)[O-])cc5)c5ccc([nH]5)c(-c5ccc(S(=O)(=O)[O-])cc5)c5nc(c(-c6ccc(S(=O)(=O)[O-])cc6)c6ccc3[nH]6)C=C5)C=C4)cc2)CC1)Nc1ccccc1Oc1ccccc1
REMARK SMILES IDX 11 1 10 2 8 3 9 4 7 5 4 6 5 7 77 8 6 10 76 11 3 12 2 13 1 14
REMARK SMILES IDX 78 15 79 17 80 18 84 19 81 20 83 21 82 22 85 23 86 24 87 25
REMARK SMILES IDX 91 26 88 27 90 28 89 29 12 30 13 31 14 32 15 33 16 34 17 35
REMARK SMILES IDX 75 36 18 37 74 38 19 39 20 40 21 41 68 42 22 43 73 44 67 45
REMARK SMILES IDX 69 46 23 47 72 48 66 49 65 50 24 52 54 53 35 54 53 55 36 56
REMARK SMILES IDX 39 57 52 58 70 59 37 60 38 61 51 63 71 64 40 65 25 66 26 67
REMARK SMILES IDX 34 68 27 69 33 70 28 71 29 72 30 73 31 74 32 75 55 76 56 77
REMARK SMILES IDX 64 78 57 79 63 80 58 81 59 82 60 83 61 84 62 85 41 86 42 87
REMARK SMILES IDX 50 88 43 89 49 90 44 91 45 92 46 93 47 94 48 95
REMARK H PARENT 4 9 78 16 69 51 39 62
REMARK Flexibility Score: inf
ROOT
ATOM      1  C   UNL A   1      32.185  29.733  25.337  1.00  0.00     0.274 C 
ENDROOT
BRANCH   1   2
ATOM      2  O   UNL A   1      30.900  30.032  24.765  1.00  0.00    -0.462 OA
BRANCH   2   3
ATOM      3  C   UNL A   1      30.576  29.304  23.667  1.00  0.00     0.309 C 
ATOM      4  O   UNL A   1      30.156  29.773  22.615  1.00  0.00    -0.252 OA
BRANCH   3   5
ATOM      5  C   UNL A   1      30.727  27.819  23.872  1.00  0.00     0.110 C 
ATOM      6  N   UNL A   1      30.793  24.989  23.248  1.00  0.00    -0.327 N 
ATOM      7  C   UNL A   1      29.756  25.531  24.138  1.00  0.00     0.263 C 
ATOM      8  C   UNL A   1      32.015  25.801  23.239  1.00  0.00     0.263 C 
ATOM      9  H   UNL A   1      30.442  25.043  22.293  1.00  0.00     0.348 HD
ATOM     10  C   UNL A   1      29.446  26.992  23.797  1.00  0.00     0.077 C 
ATOM     11  C   UNL A   1      31.748  27.260  22.896  1.00  0.00     0.077 C 
BRANCH   6  12
ATOM     12  C   UNL A   1      31.036  23.552  23.535  1.00  0.00     0.363 C 
BRANCH  12  13
ATOM     13  C   UNL A   1      32.473  23.077  23.259  1.00  0.00     0.279 C 
ATOM     14  O   UNL A   1      32.877  22.789  22.138  1.00  0.00    -0.268 OA
ATOM     15  N   UNL A   1      33.201  22.951  24.437  1.00  0.00    -0.318 N 
ATOM     16  H   UNL A   1      32.739  23.153  25.283  1.00  0.00     0.170 HD
BRANCH  15  17
ATOM     17  C   UNL A   1      34.544  22.559  24.507  1.00  0.00     0.084 A 
ATOM     18  C   UNL A   1      35.463  23.501  24.013  1.00  0.00     0.030 A 
ATOM     19  C   UNL A   1      34.998  21.308  24.953  1.00  0.00     0.150 A 
ATOM     20  C   UNL A   1      36.832  23.244  24.032  1.00  0.00     0.002 A 
ATOM     21  C   UNL A   1      36.383  21.064  24.953  1.00  0.00     0.049 A 
ATOM     22  C   UNL A   1      37.294  22.024  24.505  1.00  0.00     0.004 A 
BRANCH  19  23
ATOM     23  O   UNL A   1      34.278  20.212  25.381  1.00  0.00    -0.455 OA
BRANCH  23  24
ATOM     24  C   UNL A   1      33.830  19.262  24.503  1.00  0.00     0.127 A 
ATOM     25  C   UNL A   1      34.589  18.093  24.412  1.00  0.00     0.047 A 
ATOM     26  C   UNL A   1      32.714  19.439  23.682  1.00  0.00     0.047 A 
ATOM     27  C   UNL A   1      34.181  17.058  23.574  1.00  0.00     0.004 A 
ATOM     28  C   UNL A   1      32.304  18.398  22.846  1.00  0.00     0.004 A 
ATOM     29  C   UNL A   1      33.029  17.204  22.802  1.00  0.00     0.000 A 
ENDBRANCH  23  24
ENDBRANCH  19  23
ENDBRANCH  15  17
ENDBRANCH  12  13
ENDBRANCH   6  12
ENDBRANCH   3   5
ENDBRANCH   2   3
ENDBRANCH   1   2
BRANCH   1  30
ATOM     30  C   UNL A   1      32.367  30.420  26.692  1.00  0.00     0.275 C 
BRANCH  30  31
ATOM     31  O   UNL A   1      33.658  30.150  27.267  1.00  0.00    -0.458 OA
BRANCH  31  32
ATOM     32  C   UNL A   1      34.259  31.215  27.851  1.00  0.00     0.338 C 
ATOM     33  O   UNL A   1      33.781  32.322  28.031  1.00  0.00    -0.246 OA
BRANCH  32  34
ATOM     34  C   UNL A   1      35.589  30.832  28.351  1.00  0.00     0.060 A 
ATOM     35  C   UNL A   1      35.704  29.678  29.130  1.00  0.00     0.016 A 
ATOM     36  C   UNL A   1      36.692  31.660  28.149  1.00  0.00     0.016 A 
ATOM     37  C   UNL A   1      36.921  29.344  29.719  1.00  0.00     0.010 A 
ATOM     38  C   UNL A   1      37.915  31.324  28.739  1.00  0.00     0.010 A 
ATOM     39  C   UNL A   1      38.034  30.172  29.539  1.00  0.00    -0.014 A 
BRANCH  39  40
ATOM     40  C   UNL A   1      39.309  29.866  30.231  1.00  0.00     0.031 A 
ATOM     41  C   UNL A   1      40.198  28.773  29.710  1.00  0.00     0.074 A 
ATOM     42  C   UNL A   1      39.662  30.556  31.330  1.00  0.00     0.049 A 
ATOM     43  N   UNL A   1      41.285  28.271  30.235  1.00  0.00    -0.248 NA
ATOM     44  C   UNL A   1      39.804  28.162  28.431  1.00  0.00     0.031 C 
ATOM     45  C   UNL A   1      38.906  31.667  31.909  1.00  0.00     0.029 A 
ATOM     46  N   UNL A   1      40.744  30.414  32.162  1.00  0.00    -0.354 N 
ATOM     47  C   UNL A   1      41.687  27.258  29.372  1.00  0.00     0.074 A 
ATOM     48  C   UNL A   1      40.722  27.216  28.294  1.00  0.00     0.031 C 
ATOM     49  C   UNL A   1      39.541  32.098  33.010  1.00  0.00     0.029 A 
ATOM     50  C   UNL A   1      40.718  31.264  33.241  1.00  0.00     0.049 A 
ATOM     51  H   UNL A   1      41.466  29.765  32.003  1.00  0.00     0.167 HD
ATOM     52  C   UNL A   1      42.758  26.434  29.475  1.00  0.00     0.031 A 
ATOM     53  C   UNL A   1      41.527  31.341  34.316  1.00  0.00     0.031 A 
ATOM     54  C   UNL A   1      43.715  26.483  30.549  1.00  0.00     0.049 A 
ATOM     55  C   UNL A   1      42.689  30.395  34.432  1.00  0.00     0.074 A 
ATOM     56  C   UNL A   1      44.846  25.707  30.732  1.00  0.00     0.029 A 
ATOM     57  N   UNL A   1      43.650  27.354  31.627  1.00  0.00    -0.354 N 
ATOM     58  N   UNL A   1      43.058  29.441  33.610  1.00  0.00    -0.248 NA
ATOM     59  C   UNL A   1      43.542  30.534  35.619  1.00  0.00     0.031 C 
ATOM     60  C   UNL A   1      45.438  26.078  31.946  1.00  0.00     0.029 A 
ATOM     61  C   UNL A   1      44.705  27.118  32.494  1.00  0.00     0.049 A 
ATOM     62  H   UNL A   1      42.955  28.039  31.758  1.00  0.00     0.167 HD
ATOM     63  C   UNL A   1      44.193  28.872  34.175  1.00  0.00     0.074 A 
ATOM     64  C   UNL A   1      44.458  29.600  35.400  1.00  0.00     0.031 C 
ATOM     65  C   UNL A   1      44.946  27.840  33.719  1.00  0.00     0.031 A 
BRANCH  52  66
ATOM     66  C   UNL A   1      42.902  25.367  28.422  1.00  0.00    -0.014 A 
ATOM     67  C   UNL A   1      42.260  24.121  28.543  1.00  0.00     0.010 A 
ATOM     68  C   UNL A   1      43.712  25.613  27.299  1.00  0.00     0.010 A 
ATOM     69  C   UNL A   1      42.481  23.118  27.593  1.00  0.00     0.020 A 
ATOM     70  C   UNL A   1      43.914  24.623  26.334  1.00  0.00     0.020 A 
ATOM     71  C   UNL A   1      43.319  23.372  26.502  1.00  0.00     0.054 A 
BRANCH  71  72
ATOM     72  S   UNL A   1      43.620  22.046  25.301  1.00  0.00     0.124 S 
ATOM     73  O   UNL A   1      44.937  21.563  25.711  1.00  0.00    -0.237 OA
ATOM     74  O   UNL A   1      42.511  21.127  25.545  1.00  0.00    -0.237 OA
ATOM     75  O   UNL A   1      43.582  22.732  24.012  1.00  0.00    -0.744 OA
ENDBRANCH  71  72
ENDBRANCH  52  66
BRANCH  53  76
ATOM     76  C   UNL A   1      41.225  32.337  35.378  1.00  0.00    -0.014 A 
ATOM     77  C   UNL A   1      41.811  33.612  35.353  1.00  0.00     0.010 A 
ATOM     78  C   UNL A   1      40.282  32.034  36.379  1.00  0.00     0.010 A 
ATOM     79  C   UNL A   1      41.448  34.574  36.301  1.00  0.00     0.020 A 
ATOM     80  C   UNL A   1      39.899  33.000  37.312  1.00  0.00     0.020 A 
ATOM     81  C   UNL A   1      40.485  34.266  37.267  1.00  0.00     0.054 A 
BRANCH  81  82
ATOM     82  S   UNL A   1      39.943  35.564  38.414  1.00  0.00     0.124 S 
ATOM     83  O   UNL A   1      38.846  34.910  39.118  1.00  0.00    -0.237 OA
ATOM     84  O   UNL A   1      41.146  35.811  39.206  1.00  0.00    -0.237 OA
ATOM     85  O   UNL A   1      39.556  36.661  37.529  1.00  0.00    -0.744 OA
ENDBRANCH  81  82
ENDBRANCH  53  76
BRANCH  65  86
ATOM     86  C   UNL A   1      46.142  27.443  34.543  1.00  0.00    -0.014 A 
ATOM     87  C   UNL A   1      46.041  26.454  35.536  1.00  0.00     0.010 A 
ATOM     88  C   UNL A   1      47.394  28.029  34.281  1.00  0.00     0.010 A 
ATOM     89  C   UNL A   1      47.167  26.076  36.274  1.00  0.00     0.020 A 
ATOM     90  C   UNL A   1      48.526  27.638  35.000  1.00  0.00     0.020 A 
ATOM     91  C   UNL A   1      48.403  26.673  36.003  1.00  0.00     0.054 A 
BRANCH  91  92
ATOM     92  S   UNL A   1      49.860  26.136  36.940  1.00  0.00     0.124 S 
ATOM     93  O   UNL A   1      49.524  26.566  38.295  1.00  0.00    -0.237 OA
ATOM     94  O   UNL A   1      49.870  24.691  36.724  1.00  0.00    -0.237 OA
ATOM     95  O   UNL A   1      50.962  26.860  36.312  1.00  0.00    -0.744 OA
ENDBRANCH  91  92
ENDBRANCH  65  86
ENDBRANCH  39  40
ENDBRANCH  32  34
ENDBRANCH  31  32
ENDBRANCH  30  31
ENDBRANCH   1  30
TORSDOF 19
ENDMDL
MODEL 2
REMARK VINA RESULT:     -11.0      0.740      7.969
REMARK SMILES O=C(C[NH+]1CCC(C(=O)OCCOC(=O)c2ccc(-c3c4nc(c(-c5ccc(S(=O)(=O)[O-])cc5)c5ccc([nH]5)c(-c5ccc(S(=O)(=O)[O-])cc5)c5nc(c(-c6ccc(S(=O)(=O)[O-])cc6)c6ccc3[nH]6)C=C5)C=C4)cc2)CC1)Nc1ccccc1Oc1ccccc1
REMARK SMILES IDX 11 1 10 2 8 3 9 4 7 5 4 6 5 7 77 8 6 10 76 11 3 12 2 13 1 14
REMARK SMILES IDX 78 15 79 17 80 18 84 19 81 20 83 21 82 22 85 23 86 24 87 25
REMARK SMILES IDX 91 26 88 27 90 28 89 29 12 30 13 31 14 32 15 33 16 34 17 35
REMARK SMILES IDX 75 36 18 37 74 38 19 39 20 40 21 41 68 42 22 43 73 44 67 45
REMARK SMILES IDX 69 46 23 47 72 48 66 49 65 50 24 52 54 53 35 54 53 55 36 56
REMARK SMILES IDX 39 57 52 58 70 59 37 60 38 61 51 63 71 64 40 65 25 66 26 67
REMARK SMILES IDX 34 68 27 69 33 70 28 71 29 72 30 73 31 74 32 75 55 76 56 77
REMARK SMILES IDX 64 78 57 79 63 80 58 81 59 82 60 83 61 84 62 85 41 86 42 87
REMARK SMILES IDX 50 88 43 89 49 90 44 91 45 92 46 93 47 94 48 95
REMARK H PARENT 4 9 78 16 69 51 39 62
REMARK Flexibility Score: inf
ROOT
ATOM      1  C   UNL A   1      32.374  29.696  25.531  1.00  0.00     0.274 C 
ENDROOT
BRANCH   1   2
ATOM      2  O   UNL A   1      31.050  29.977  25.043  1.00  0.00    -0.462 OA
BRANCH   2   3
ATOM      3  C   UNL A   1      30.689  29.287  23.933  1.00  0.00     0.309 C 
ATOM      4  O   UNL A   1      30.231  29.791  22.912  1.00  0.00    -0.252 OA
BRANCH   3   5
ATOM      5  C   UNL A   1      30.849  27.796  24.081  1.00  0.00     0.110 C 
ATOM      6  N   UNL A   1      30.905  24.990  23.356  1.00  0.00    -0.327 N 
ATOM      7  C   UNL A   1      29.892  25.497  24.291  1.00  0.00     0.263 C 
ATOM      8  C   UNL A   1      32.124  25.806  23.342  1.00  0.00     0.263 C 
ATOM      9  H   UNL A   1      30.528  25.076  22.413  1.00  0.00     0.348 HD
ATOM     10  C   UNL A   1      29.569  26.967  24.011  1.00  0.00     0.077 C 
ATOM     11  C   UNL A   1      31.845  27.275  23.058  1.00  0.00     0.077 C 
BRANCH   6  12
ATOM     12  C   UNL A   1      31.160  23.544  23.585  1.00  0.00     0.363 C 
BRANCH  12  13
ATOM     13  C   UNL A   1      32.602  23.093  23.294  1.00  0.00     0.279 C 
ATOM     14  O   UNL A   1      33.020  22.884  22.160  1.00  0.00    -0.268 OA
ATOM     15  N   UNL A   1      33.315  22.888  24.469  1.00  0.00    -0.318 N 
ATOM     16  H   UNL A   1      32.843  23.029  25.322  1.00  0.00     0.170 HD
BRANCH  15  17
ATOM     17  C   UNL A   1      34.659  22.495  24.528  1.00  0.00     0.084 A 
ATOM     18  C   UNL A   1      35.574  23.431  24.016  1.00  0.00     0.030 A 
ATOM     19  C   UNL A   1      35.117  21.248  24.980  1.00  0.00     0.150 A 
ATOM     20  C   UNL A   1      36.943  23.173  24.021  1.00  0.00     0.002 A 
ATOM     21  C   UNL A   1      36.502  21.002  24.967  1.00  0.00     0.049 A 
ATOM     22  C   UNL A   1      37.409  21.957  24.501  1.00  0.00     0.004 A 
BRANCH  19  23
ATOM     23  O   UNL A   1      34.401  20.156  25.426  1.00  0.00    -0.455 OA
BRANCH  23  24
ATOM     24  C   UNL A   1      33.902  19.223  24.557  1.00  0.00     0.127 A 
ATOM     25  C   UNL A   1      34.644  18.049  24.413  1.00  0.00     0.047 A 
ATOM     26  C   UNL A   1      32.750  19.423  23.794  1.00  0.00     0.047 A 
ATOM     27  C   UNL A   1      34.186  17.031  23.581  1.00  0.00     0.004 A 
ATOM     28  C   UNL A   1      32.289  18.398  22.964  1.00  0.00     0.004 A 
ATOM     29  C   UNL A   1      33.000  17.199  22.867  1.00  0.00     0.000 A 
ENDBRANCH  23  24
ENDBRANCH  19  23
ENDBRANCH  15  17
ENDBRANCH  12  13
ENDBRANCH   6  12
ENDBRANCH   3   5
ENDBRANCH   2   3
ENDBRANCH   1   2
BRANCH   1  30
ATOM     30  C   UNL A   1      32.663  30.456  26.827  1.00  0.00     0.275 C 
BRANCH  30  31
ATOM     31  O   UNL A   1      33.969  30.155  27.351  1.00  0.00    -0.458 OA
BRANCH  31  32
ATOM     32  C   UNL A   1      34.726  31.237  27.657  1.00  0.00     0.338 C 
ATOM     33  O   UNL A   1      34.488  32.401  27.389  1.00  0.00    -0.246 OA
BRANCH  32  34
ATOM     34  C   UNL A   1      35.881  30.829  28.474  1.00  0.00     0.060 A 
ATOM     35  C   UNL A   1      37.072  31.548  28.354  1.00  0.00     0.016 A 
ATOM     36  C   UNL A   1      35.824  29.683  29.266  1.00  0.00     0.016 A 
ATOM     37  C   UNL A   1      38.220  31.125  29.020  1.00  0.00     0.010 A 
ATOM     38  C   UNL A   1      36.976  29.259  29.936  1.00  0.00     0.010 A 
ATOM     39  C   UNL A   1      38.184  29.968  29.807  1.00  0.00    -0.014 A 
BRANCH  39  40
ATOM     40  C   UNL A   1      39.423  29.468  30.450  1.00  0.00     0.031 A 
ATOM     41  C   UNL A   1      39.937  30.129  31.697  1.00  0.00     0.074 A 
ATOM     42  C   UNL A   1      40.092  28.432  29.911  1.00  0.00     0.049 A 
ATOM     43  N   UNL A   1      41.057  29.925  32.340  1.00  0.00    -0.248 NA
ATOM     44  C   UNL A   1      39.076  31.162  32.293  1.00  0.00     0.031 C 
ATOM     45  C   UNL A   1      39.672  27.680  28.728  1.00  0.00     0.029 A 
ATOM     46  N   UNL A   1      41.274  27.844  30.284  1.00  0.00    -0.354 N 
ATOM     47  C   UNL A   1      41.056  30.829  33.395  1.00  0.00     0.074 A 
ATOM     48  C   UNL A   1      39.825  31.586  33.300  1.00  0.00     0.031 C 
ATOM     49  C   UNL A   1      40.591  26.737  28.465  1.00  0.00     0.029 A 
ATOM     50  C   UNL A   1      41.683  26.851  29.428  1.00  0.00     0.049 A 
ATOM     51  H   UNL A   1      41.780  28.109  31.086  1.00  0.00     0.167 HD
ATOM     52  C   UNL A   1      41.999  31.016  34.350  1.00  0.00     0.031 A 
ATOM     53  C   UNL A   1      42.825  26.137  29.397  1.00  0.00     0.031 A 
ATOM     54  C   UNL A   1      43.220  30.258  34.440  1.00  0.00     0.049 A 
ATOM     55  C   UNL A   1      43.876  26.382  30.442  1.00  0.00     0.074 A 
ATOM     56  C   UNL A   1      44.228  30.355  35.383  1.00  0.00     0.029 A 
ATOM     57  N   UNL A   1      43.601  29.265  33.549  1.00  0.00    -0.354 N 
ATOM     58  N   UNL A   1      43.864  27.240  31.434  1.00  0.00    -0.248 NA
ATOM     59  C   UNL A   1      45.094  25.565  30.364  1.00  0.00     0.031 C 
ATOM     60  C   UNL A   1      45.241  29.454  35.034  1.00  0.00     0.029 A 
ATOM     61  C   UNL A   1      44.841  28.759  33.903  1.00  0.00     0.049 A 
ATOM     62  H   UNL A   1      43.068  28.964  32.778  1.00  0.00     0.167 HD
ATOM     63  C   UNL A   1      45.068  27.060  32.107  1.00  0.00     0.074 A 
ATOM     64  C   UNL A   1      45.775  26.000  31.416  1.00  0.00     0.031 C 
ATOM     65  C   UNL A   1      45.541  27.715  33.196  1.00  0.00     0.031 A 
BRANCH  52  66
ATOM     66  C   UNL A   1      41.764  32.133  35.332  1.00  0.00    -0.014 A 
ATOM     67  C   UNL A   1      41.237  31.891  36.613  1.00  0.00     0.010 A 
ATOM     68  C   UNL A   1      42.062  33.455  34.954  1.00  0.00     0.010 A 
ATOM     69  C   UNL A   1      40.949  32.957  37.472  1.00  0.00     0.020 A 
ATOM     70  C   UNL A   1      41.800  34.521  35.819  1.00  0.00     0.020 A 
ATOM     71  C   UNL A   1      41.219  34.266  37.062  1.00  0.00     0.054 A 
BRANCH  71  72
ATOM     72  S   UNL A   1      40.805  35.637  38.176  1.00  0.00     0.124 S 
ATOM     73  O   UNL A   1      41.563  36.740  37.589  1.00  0.00    -0.237 OA
ATOM     74  O   UNL A   1      39.354  35.735  38.046  1.00  0.00    -0.237 OA
ATOM     75  O   UNL A   1      41.280  35.179  39.480  1.00  0.00    -0.744 OA
ENDBRANCH  71  72
ENDBRANCH  52  66
BRANCH  53  76
ATOM     76  C   UNL A   1      43.030  25.149  28.304  1.00  0.00    -0.014 A 
ATOM     77  C   UNL A   1      43.734  25.502  27.142  1.00  0.00     0.010 A 
ATOM     78  C   UNL A   1      42.585  23.822  28.462  1.00  0.00     0.010 A 
ATOM     79  C   UNL A   1      44.005  24.540  26.162  1.00  0.00     0.020 A 
ATOM     80  C   UNL A   1      42.874  22.854  27.497  1.00  0.00     0.020 A 
ATOM     81  C   UNL A   1      43.583  23.220  26.352  1.00  0.00     0.054 A 
BRANCH  81  82
ATOM     82  S   UNL A   1      44.047  21.965  25.125  1.00  0.00     0.124 S 
ATOM     83  O   UNL A   1      43.841  22.678  23.868  1.00  0.00    -0.237 OA
ATOM     84  O   UNL A   1      45.437  21.681  25.471  1.00  0.00    -0.237 OA
ATOM     85  O   UNL A   1      43.113  20.872  25.386  1.00  0.00    -0.744 OA
ENDBRANCH  81  82
ENDBRANCH  53  76
BRANCH  65  86
ATOM     86  C   UNL A   1      46.888  27.294  33.721  1.00  0.00    -0.014 A 
ATOM     87  C   UNL A   1      47.008  26.247  34.651  1.00  0.00     0.010 A 
ATOM     88  C   UNL A   1      48.051  27.918  33.235  1.00  0.00     0.010 A 
ATOM     89  C   UNL A   1      48.268  25.849  35.107  1.00  0.00     0.020 A 
ATOM     90  C   UNL A   1      49.314  27.509  33.671  1.00  0.00     0.020 A 
ATOM     91  C   UNL A   1      49.414  26.485  34.616  1.00  0.00     0.054 A 
BRANCH  91  92
ATOM     92  S   UNL A   1      51.041  25.923  35.188  1.00  0.00     0.124 S 
ATOM     93  O   UNL A   1      50.748  25.480  36.548  1.00  0.00    -0.237 OA
ATOM     94  O   UNL A   1      51.370  24.862  34.238  1.00  0.00    -0.237 OA
ATOM     95  O   UNL A   1      51.874  27.119  35.088  1.00  0.00    -0.744 OA
ENDBRANCH  91  92
ENDBRANCH  65  86
ENDBRANCH  39  40
ENDBRANCH  32  34
ENDBRANCH  31  32
ENDBRANCH  30  31
ENDBRANCH   1  30
TORSDOF 19
ENDMDL
MODEL 3
REMARK VINA RESULT:     -10.9      2.943      9.610
REMARK SMILES O=C(C[NH+]1CCC(C(=O)OCCOC(=O)c2ccc(-c3c4nc(c(-c5ccc(S(=O)(=O)[O-])cc5)c5ccc([nH]5)c(-c5ccc(S(=O)(=O)[O-])cc5)c5nc(c(-c6ccc(S(=O)(=O)[O-])cc6)c6ccc3[nH]6)C=C5)C=C4)cc2)CC1)Nc1ccccc1Oc1ccccc1
REMARK SMILES IDX 11 1 10 2 8 3 9 4 7 5 4 6 5 7 77 8 6 10 76 11 3 12 2 13 1 14
REMARK SMILES IDX 78 15 79 17 80 18 84 19 81 20 83 21 82 22 85 23 86 24 87 25
REMARK SMILES IDX 91 26 88 27 90 28 89 29 12 30 13 31 14 32 15 33 16 34 17 35
REMARK SMILES IDX 75 36 18 37 74 38 19 39 20 40 21 41 68 42 22 43 73 44 67 45
REMARK SMILES IDX 69 46 23 47 72 48 66 49 65 50 24 52 54 53 35 54 53 55 36 56
REMARK SMILES IDX 39 57 52 58 70 59 37 60 38 61 51 63 71 64 40 65 25 66 26 67
REMARK SMILES IDX 34 68 27 69 33 70 28 71 29 72 30 73 31 74 32 75 55 76 56 77
REMARK SMILES IDX 64 78 57 79 63 80 58 81 59 82 60 83 61 84 62 85 41 86 42 87
REMARK SMILES IDX 50 88 43 89 49 90 44 91 45 92 46 93 47 94 48 95
REMARK H PARENT 4 9 78 16 69 51 39 62
REMARK Flexibility Score: inf
ROOT
ATOM      1  C   UNL A   1      37.858  23.686  26.310  1.00  0.00     0.274 C 
ENDROOT
BRANCH   1   2
ATOM      2  O   UNL A   1      37.172  23.616  25.048  1.00  0.00    -0.462 OA
BRANCH   2   3
ATOM      3  C   UNL A   1      36.456  22.482  24.844  1.00  0.00     0.309 C 
ATOM      4  O   UNL A   1      36.939  21.384  24.590  1.00  0.00    -0.252 OA
BRANCH   3   5
ATOM      5  C   UNL A   1      34.966  22.701  24.904  1.00  0.00     0.110 C 
ATOM      6  N   UNL A   1      32.435  23.981  25.505  1.00  0.00    -0.327 N 
ATOM      7  C   UNL A   1      32.798  22.710  26.148  1.00  0.00     0.263 C 
ATOM      8  C   UNL A   1      33.098  24.172  24.210  1.00  0.00     0.263 C 
ATOM      9  H   UNL A   1      32.790  24.737  26.089  1.00  0.00     0.348 HD
ATOM     10  C   UNL A   1      34.317  22.573  26.280  1.00  0.00     0.077 C 
ATOM     11  C   UNL A   1      34.613  24.051  24.302  1.00  0.00     0.077 C 
BRANCH   6  12
ATOM     12  C   UNL A   1      30.959  24.141  25.446  1.00  0.00     0.363 C 
BRANCH  12  13
ATOM     13  C   UNL A   1      30.474  25.600  25.403  1.00  0.00     0.279 C 
ATOM     14  O   UNL A   1      30.411  26.312  26.400  1.00  0.00    -0.268 OA
ATOM     15  N   UNL A   1      30.055  25.957  24.127  1.00  0.00    -0.318 N 
ATOM     16  H   UNL A   1      30.095  25.270  23.423  1.00  0.00     0.170 HD
BRANCH  15  17
ATOM     17  C   UNL A   1      29.580  27.226  23.769  1.00  0.00     0.084 A 
ATOM     18  C   UNL A   1      28.196  27.298  23.534  1.00  0.00     0.030 A 
ATOM     19  C   UNL A   1      30.381  28.362  23.570  1.00  0.00     0.150 A 
ATOM     20  C   UNL A   1      27.590  28.501  23.180  1.00  0.00     0.002 A 
ATOM     21  C   UNL A   1      29.751  29.564  23.203  1.00  0.00     0.049 A 
ATOM     22  C   UNL A   1      28.369  29.638  23.017  1.00  0.00     0.004 A 
BRANCH  19  23
ATOM     23  O   UNL A   1      31.752  28.496  23.646  1.00  0.00    -0.455 OA
BRANCH  23  24
ATOM     24  C   UNL A   1      32.381  28.756  24.834  1.00  0.00     0.127 A 
ATOM     25  C   UNL A   1      33.373  27.852  25.221  1.00  0.00     0.047 A 
ATOM     26  C   UNL A   1      32.038  29.821  25.669  1.00  0.00     0.047 A 
ATOM     27  C   UNL A   1      34.092  28.064  26.395  1.00  0.00     0.004 A 
ATOM     28  C   UNL A   1      32.764  30.035  26.843  1.00  0.00     0.004 A 
ATOM     29  C   UNL A   1      33.798  29.165  27.199  1.00  0.00     0.000 A 
ENDBRANCH  23  24
ENDBRANCH  19  23
ENDBRANCH  15  17
ENDBRANCH  12  13
ENDBRANCH   6  12
ENDBRANCH   3   5
ENDBRANCH   2   3
ENDBRANCH   1   2
BRANCH   1  30
ATOM     30  C   UNL A   1      39.316  23.243  26.177  1.00  0.00     0.275 C 
BRANCH  30  31
ATOM     31  O   UNL A   1      40.124  23.702  27.276  1.00  0.00    -0.458 OA
BRANCH  31  32
ATOM     32  C   UNL A   1      40.882  24.794  27.013  1.00  0.00     0.338 C 
ATOM     33  O   UNL A   1      41.606  24.972  26.048  1.00  0.00    -0.246 OA
BRANCH  32  34
ATOM     34  C   UNL A   1      40.646  25.830  28.031  1.00  0.00     0.060 A 
ATOM     35  C   UNL A   1      41.673  26.731  28.320  1.00  0.00     0.016 A 
ATOM     36  C   UNL A   1      39.465  25.845  28.771  1.00  0.00     0.016 A 
ATOM     37  C   UNL A   1      41.533  27.651  29.357  1.00  0.00     0.010 A 
ATOM     38  C   UNL A   1      39.322  26.770  29.810  1.00  0.00     0.010 A 
ATOM     39  C   UNL A   1      40.360  27.669  30.119  1.00  0.00    -0.014 A 
BRANCH  39  40
ATOM     40  C   UNL A   1      40.239  28.589  31.275  1.00  0.00     0.031 A 
ATOM     41  C   UNL A   1      39.229  29.700  31.243  1.00  0.00     0.074 A 
ATOM     42  C   UNL A   1      41.040  28.437  32.345  1.00  0.00     0.049 A 
ATOM     43  N   UNL A   1      39.048  30.679  32.092  1.00  0.00    -0.248 NA
ATOM     44  C   UNL A   1      38.304  29.712  30.099  1.00  0.00     0.031 C 
ATOM     45  C   UNL A   1      42.030  27.373  32.514  1.00  0.00     0.029 A 
ATOM     46  N   UNL A   1      41.155  29.190  33.486  1.00  0.00    -0.354 N 
ATOM     47  C   UNL A   1      38.016  31.447  31.567  1.00  0.00     0.074 A 
ATOM     48  C   UNL A   1      37.615  30.821  30.324  1.00  0.00     0.031 C 
ATOM     49  C   UNL A   1      42.661  27.549  33.686  1.00  0.00     0.029 A 
ATOM     50  C   UNL A   1      42.155  28.761  34.324  1.00  0.00     0.049 A 
ATOM     51  H   UNL A   1      40.578  29.962  33.685  1.00  0.00     0.167 HD
ATOM     52  C   UNL A   1      37.459  32.574  32.072  1.00  0.00     0.031 A 
ATOM     53  C   UNL A   1      42.638  29.302  35.460  1.00  0.00     0.031 A 
ATOM     54  C   UNL A   1      37.860  33.190  33.309  1.00  0.00     0.049 A 
ATOM     55  C   UNL A   1      42.034  30.572  35.987  1.00  0.00     0.074 A 
ATOM     56  C   UNL A   1      37.344  34.320  33.918  1.00  0.00     0.029 A 
ATOM     57  N   UNL A   1      38.883  32.729  34.126  1.00  0.00    -0.354 N 
ATOM     58  N   UNL A   1      41.058  31.290  35.481  1.00  0.00    -0.248 NA
ATOM     59  C   UNL A   1      42.594  31.107  37.234  1.00  0.00     0.031 C 
ATOM     60  C   UNL A   1      38.087  34.569  35.079  1.00  0.00     0.029 A 
ATOM     61  C   UNL A   1      39.032  33.566  35.220  1.00  0.00     0.049 A 
ATOM     62  H   UNL A   1      39.424  31.925  33.954  1.00  0.00     0.167 HD
ATOM     63  C   UNL A   1      40.880  32.357  36.354  1.00  0.00     0.074 A 
ATOM     64  C   UNL A   1      41.838  32.180  37.428  1.00  0.00     0.031 C 
ATOM     65  C   UNL A   1      40.002  33.387  36.273  1.00  0.00     0.031 A 
BRANCH  52  66
ATOM     66  C   UNL A   1      36.398  33.244  31.238  1.00  0.00    -0.014 A 
ATOM     67  C   UNL A   1      36.724  33.995  30.094  1.00  0.00     0.010 A 
ATOM     68  C   UNL A   1      35.049  33.133  31.623  1.00  0.00     0.010 A 
ATOM     69  C   UNL A   1      35.727  34.677  29.389  1.00  0.00     0.020 A 
ATOM     70  C   UNL A   1      34.047  33.792  30.906  1.00  0.00     0.020 A 
ATOM     71  C   UNL A   1      34.396  34.582  29.809  1.00  0.00     0.054 A 
BRANCH  71  72
ATOM     72  S   UNL A   1      33.122  35.503  28.903  1.00  0.00     0.124 S 
ATOM     73  O   UNL A   1      32.412  36.178  29.987  1.00  0.00    -0.237 OA
ATOM     74  O   UNL A   1      33.908  36.373  28.032  1.00  0.00    -0.237 OA
ATOM     75  O   UNL A   1      32.365  34.460  28.216  1.00  0.00    -0.744 OA
ENDBRANCH  71  72
ENDBRANCH  52  66
BRANCH  53  76
ATOM     76  C   UNL A   1      43.785  28.644  36.143  1.00  0.00    -0.014 A 
ATOM     77  C   UNL A   1      43.579  27.544  36.991  1.00  0.00     0.010 A 
ATOM     78  C   UNL A   1      45.100  29.072  35.879  1.00  0.00     0.010 A 
ATOM     79  C   UNL A   1      44.670  26.873  37.552  1.00  0.00     0.020 A 
ATOM     80  C   UNL A   1      46.193  28.389  36.418  1.00  0.00     0.020 A 
ATOM     81  C   UNL A   1      45.971  27.293  37.252  1.00  0.00     0.054 A 
BRANCH  81  82
ATOM     82  S   UNL A   1      47.373  26.336  37.896  1.00  0.00     0.124 S 
ATOM     83  O   UNL A   1      47.553  25.325  36.860  1.00  0.00    -0.237 OA
ATOM     84  O   UNL A   1      48.428  27.342  37.990  1.00  0.00    -0.237 OA
ATOM     85  O   UNL A   1      46.885  25.838  39.180  1.00  0.00    -0.744 OA
ENDBRANCH  81  82
ENDBRANCH  53  76
BRANCH  65  86
ATOM     86  C   UNL A   1      40.026  34.402  37.384  1.00  0.00    -0.014 A 
ATOM     87  C   UNL A   1      39.221  34.246  38.526  1.00  0.00     0.010 A 
ATOM     88  C   UNL A   1      40.905  35.498  37.308  1.00  0.00     0.010 A 
ATOM     89  C   UNL A   1      39.276  35.183  39.562  1.00  0.00     0.020 A 
ATOM     90  C   UNL A   1      40.979  36.424  38.351  1.00  0.00     0.020 A 
ATOM     91  C   UNL A   1      40.153  36.268  39.466  1.00  0.00     0.054 A 
BRANCH  91  92
ATOM     92  S   UNL A   1      40.240  37.448  40.842  1.00  0.00     0.124 S 
ATOM     93  O   UNL A   1      39.115  38.332  40.555  1.00  0.00    -0.237 OA
ATOM     94  O   UNL A   1      40.083  36.591  42.015  1.00  0.00    -0.237 OA
ATOM     95  O   UNL A   1      41.562  38.053  40.695  1.00  0.00    -0.744 OA
ENDBRANCH  91  92
ENDBRANCH  65  86
ENDBRANCH  39  40
ENDBRANCH  32  34
ENDBRANCH  31  32
ENDBRANCH  30  31
ENDBRANCH   1  30
TORSDOF 19
ENDMDL
