MODEL 1
REMARK VINA RESULT:      -9.8      0.000      0.000
REMARK SMILES CS(=O)(=O)CC[C@H](NC(=O)Cc1ccn[nH]1)C(=O)OCCOC(=O)c1ccc(-c2c3nc(c(-c4ccc(S(=O)(=O)[O-])cc4)c4ccc([nH]4)c(-c4ccc(S(=O)(=O)[O-])cc4)c4nc(c(-c5ccc(S(=O)(=O)[O-])cc5)c5ccc2[nH]5)C=C4)C=C3)cc1
REMARK SMILES IDX 20 1 19 2 17 3 18 4 7 5 6 6 5 7 2 8 1 9 3 10 4 11 8 12 9 13
REMARK SMILES IDX 10 15 11 16 12 17 13 18 16 19 14 20 15 21 21 23 22 24 23 25
REMARK SMILES IDX 24 26 25 27 26 28 84 29 27 30 83 31 28 32 29 33 30 34 77 35
REMARK SMILES IDX 31 36 82 37 76 38 78 39 32 40 81 41 75 42 74 43 33 45 63 46
REMARK SMILES IDX 44 47 62 48 45 49 48 50 61 51 79 52 46 53 47 54 60 56 80 57
REMARK SMILES IDX 49 58 34 59 35 60 43 61 36 62 42 63 37 64 38 65 39 66 40 67
REMARK SMILES IDX 41 68 64 69 65 70 73 71 66 72 72 73 67 74 68 75 69 76 70 77
REMARK SMILES IDX 71 78 50 79 51 80 59 81 52 82 58 83 53 84 54 85 55 86 56 87
REMARK SMILES IDX 57 88
REMARK H PARENT 8 14 16 22 78 44 48 55
REMARK Flexibility Score: inf
ROOT
ATOM      1  C   UNL A   1      32.048  28.533  25.710  1.00  0.00     0.274 C 
ENDROOT
BRANCH   1   2
ATOM      2  O   UNL A   1      32.028  27.165  25.257  1.00  0.00    -0.461 OA
BRANCH   2   3
ATOM      3  C   UNL A   1      30.855  26.494  25.442  1.00  0.00     0.328 C 
ATOM      4  O   UNL A   1      30.335  26.309  26.536  1.00  0.00    -0.250 OA
BRANCH   3   5
ATOM      5  C   UNL A   1      30.267  25.920  24.129  1.00  0.00     0.193 C 
BRANCH   5   6
ATOM      6  C   UNL A   1      30.841  24.518  23.936  1.00  0.00     0.053 C 
BRANCH   6   7
ATOM      7  C   UNL A   1      31.046  23.662  25.191  1.00  0.00     0.139 C 
BRANCH   7   8
ATOM      8  S   UNL A   1      32.676  22.934  25.345  1.00  0.00     0.147 S 
ATOM      9  C   UNL A   1      33.590  24.079  26.346  1.00  0.00     0.158 C 
ATOM     10  O   UNL A   1      33.270  22.942  24.028  1.00  0.00    -0.229 OA
ATOM     11  O   UNL A   1      32.555  21.691  26.092  1.00  0.00    -0.229 OA
ENDBRANCH   7   8
ENDBRANCH   6   7
ENDBRANCH   5   6
BRANCH   5  12
ATOM     12  N   UNL A   1      30.430  26.913  23.044  1.00  0.00    -0.342 N 
ATOM     13  C   UNL A   1      29.809  28.069  22.681  1.00  0.00     0.226 C 
ATOM     14  H   UNL A   1      31.167  26.681  22.435  1.00  0.00     0.164 HD
ATOM     15  O   UNL A   1      30.433  28.844  21.948  1.00  0.00    -0.275 OA
BRANCH  13  16
ATOM     16  C   UNL A   1      28.383  28.391  23.090  1.00  0.00     0.155 C 
BRANCH  16  17
ATOM     17  C   UNL A   1      28.045  29.802  22.727  1.00  0.00     0.044 A 
ATOM     18  C   UNL A   1      27.970  30.960  23.475  1.00  0.00     0.045 A 
ATOM     19  N   UNL A   1      27.866  30.194  21.424  1.00  0.00    -0.282 N 
ATOM     20  C   UNL A   1      27.890  31.992  22.527  1.00  0.00     0.135 A 
ATOM     21  N   UNL A   1      27.826  31.530  21.277  1.00  0.00    -0.184 NA
ATOM     22  H   UNL A   1      27.776  29.561  20.674  1.00  0.00     0.190 HD
ENDBRANCH  16  17
ENDBRANCH  13  16
ENDBRANCH   5  12
ENDBRANCH   3   5
ENDBRANCH   2   3
ENDBRANCH   1   2
BRANCH   1  23
ATOM     23  C   UNL A   1      33.471  29.099  25.812  1.00  0.00     0.275 C 
BRANCH  23  24
ATOM     24  O   UNL A   1      34.047  28.946  27.125  1.00  0.00    -0.458 OA
BRANCH  24  25
ATOM     25  C   UNL A   1      34.574  30.080  27.644  1.00  0.00     0.338 C 
ATOM     26  O   UNL A   1      33.974  31.125  27.863  1.00  0.00    -0.246 OA
BRANCH  25  27
ATOM     27  C   UNL A   1      35.934  29.839  28.160  1.00  0.00     0.060 A 
ATOM     28  C   UNL A   1      36.971  29.932  27.232  1.00  0.00     0.016 A 
ATOM     29  C   UNL A   1      36.206  29.454  29.472  1.00  0.00     0.016 A 
ATOM     30  C   UNL A   1      38.282  29.671  27.595  1.00  0.00     0.010 A 
ATOM     31  C   UNL A   1      37.533  29.172  29.839  1.00  0.00     0.010 A 
ATOM     32  C   UNL A   1      38.576  29.286  28.902  1.00  0.00    -0.014 A 
BRANCH  32  33
ATOM     33  C   UNL A   1      39.974  28.906  29.210  1.00  0.00     0.031 A 
ATOM     34  C   UNL A   1      40.837  29.858  29.985  1.00  0.00     0.074 A 
ATOM     35  C   UNL A   1      40.424  27.673  28.911  1.00  0.00     0.049 A 
ATOM     36  N   UNL A   1      42.097  29.748  30.313  1.00  0.00    -0.248 NA
ATOM     37  C   UNL A   1      40.188  31.087  30.471  1.00  0.00     0.031 C 
ATOM     38  C   UNL A   1      39.632  26.610  28.288  1.00  0.00     0.029 A 
ATOM     39  N   UNL A   1      41.653  27.098  29.110  1.00  0.00    -0.354 N 
ATOM     40  C   UNL A   1      42.403  30.905  31.020  1.00  0.00     0.074 A 
ATOM     41  C   UNL A   1      41.197  31.704  31.069  1.00  0.00     0.031 C 
ATOM     42  C   UNL A   1      40.397  25.513  28.159  1.00  0.00     0.029 A 
ATOM     43  C   UNL A   1      41.747  25.816  28.624  1.00  0.00     0.049 A 
ATOM     44  H   UNL A   1      42.398  27.561  29.560  1.00  0.00     0.167 HD
ATOM     45  C   UNL A   1      43.586  31.268  31.568  1.00  0.00     0.031 A 
ATOM     46  C   UNL A   1      42.814  24.998  28.520  1.00  0.00     0.031 A 
ATOM     47  C   UNL A   1      44.782  30.470  31.501  1.00  0.00     0.049 A 
ATOM     48  C   UNL A   1      44.153  25.483  29.012  1.00  0.00     0.074 A 
ATOM     49  C   UNL A   1      46.043  30.767  31.987  1.00  0.00     0.029 A 
ATOM     50  N   UNL A   1      44.865  29.218  30.910  1.00  0.00    -0.354 N 
ATOM     51  N   UNL A   1      44.450  26.607  29.620  1.00  0.00    -0.248 NA
ATOM     52  C   UNL A   1      45.303  24.594  28.794  1.00  0.00     0.031 C 
ATOM     53  C   UNL A   1      46.902  29.721  31.633  1.00  0.00     0.029 A 
ATOM     54  C   UNL A   1      46.162  28.741  30.993  1.00  0.00     0.049 A 
ATOM     55  H   UNL A   1      44.113  28.740  30.493  1.00  0.00     0.167 HD
ATOM     56  C   UNL A   1      45.814  26.548  29.884  1.00  0.00     0.074 A 
ATOM     57  C   UNL A   1      46.280  25.272  29.380  1.00  0.00     0.031 C 
ATOM     58  C   UNL A   1      46.610  27.464  30.489  1.00  0.00     0.031 A 
BRANCH  45  59
ATOM     59  C   UNL A   1      43.658  32.625  32.218  1.00  0.00    -0.014 A 
ATOM     60  C   UNL A   1      43.330  32.814  33.572  1.00  0.00     0.010 A 
ATOM     61  C   UNL A   1      44.073  33.730  31.453  1.00  0.00     0.010 A 
ATOM     62  C   UNL A   1      43.373  34.093  34.137  1.00  0.00     0.020 A 
ATOM     63  C   UNL A   1      44.146  35.004  32.020  1.00  0.00     0.020 A 
ATOM     64  C   UNL A   1      43.777  35.180  33.355  1.00  0.00     0.054 A 
BRANCH  64  65
ATOM     65  S   UNL A   1      43.826  36.827  34.112  1.00  0.00     0.124 S 
ATOM     66  O   UNL A   1      45.263  37.034  34.284  1.00  0.00    -0.237 OA
ATOM     67  O   UNL A   1      43.188  37.664  33.100  1.00  0.00    -0.237 OA
ATOM     68  O   UNL A   1      43.070  36.664  35.351  1.00  0.00    -0.744 OA
ENDBRANCH  64  65
ENDBRANCH  45  59
BRANCH  46  69
ATOM     69  C   UNL A   1      42.678  23.665  27.868  1.00  0.00    -0.014 A 
ATOM     70  C   UNL A   1      42.300  22.531  28.608  1.00  0.00     0.010 A 
ATOM     71  C   UNL A   1      42.949  23.521  26.493  1.00  0.00     0.010 A 
ATOM     72  C   UNL A   1      42.215  21.278  27.991  1.00  0.00     0.020 A 
ATOM     73  C   UNL A   1      42.832  22.277  25.866  1.00  0.00     0.020 A 
ATOM     74  C   UNL A   1      42.479  21.160  26.624  1.00  0.00     0.054 A 
BRANCH  74  75
ATOM     75  S   UNL A   1      42.329  19.532  25.837  1.00  0.00     0.124 S 
ATOM     76  O   UNL A   1      40.930  19.524  25.420  1.00  0.00    -0.237 OA
ATOM     77  O   UNL A   1      43.312  19.611  24.760  1.00  0.00    -0.237 OA
ATOM     78  O   UNL A   1      42.666  18.600  26.911  1.00  0.00    -0.744 OA
ENDBRANCH  74  75
ENDBRANCH  46  69
BRANCH  58  79
ATOM     79  C   UNL A   1      48.060  27.107  30.687  1.00  0.00    -0.014 A 
ATOM     80  C   UNL A   1      49.058  27.582  29.819  1.00  0.00     0.010 A 
ATOM     81  C   UNL A   1      48.433  26.330  31.800  1.00  0.00     0.010 A 
ATOM     82  C   UNL A   1      50.400  27.262  30.044  1.00  0.00     0.020 A 
ATOM     83  C   UNL A   1      49.775  26.036  32.047  1.00  0.00     0.020 A 
ATOM     84  C   UNL A   1      50.750  26.493  31.159  1.00  0.00     0.054 A 
BRANCH  84  85
ATOM     85  S   UNL A   1      52.504  26.137  31.459  1.00  0.00     0.124 S 
ATOM     86  O   UNL A   1      52.903  27.262  32.300  1.00  0.00    -0.237 OA
ATOM     87  O   UNL A   1      52.457  24.838  32.126  1.00  0.00    -0.237 OA
ATOM     88  O   UNL A   1      53.089  26.123  30.120  1.00  0.00    -0.744 OA
ENDBRANCH  84  85
ENDBRANCH  58  79
ENDBRANCH  32  33
ENDBRANCH  25  27
ENDBRANCH  24  25
ENDBRANCH  23  24
ENDBRANCH   1  23
TORSDOF 20
ENDMDL
MODEL 2
REMARK VINA RESULT:      -9.7      2.171      3.868
REMARK SMILES CS(=O)(=O)CC[C@H](NC(=O)Cc1ccn[nH]1)C(=O)OCCOC(=O)c1ccc(-c2c3nc(c(-c4ccc(S(=O)(=O)[O-])cc4)c4ccc([nH]4)c(-c4ccc(S(=O)(=O)[O-])cc4)c4nc(c(-c5ccc(S(=O)(=O)[O-])cc5)c5ccc2[nH]5)C=C4)C=C3)cc1
REMARK SMILES IDX 20 1 19 2 17 3 18 4 7 5 6 6 5 7 2 8 1 9 3 10 4 11 8 12 9 13
REMARK SMILES IDX 10 15 11 16 12 17 13 18 16 19 14 20 15 21 21 23 22 24 23 25
REMARK SMILES IDX 24 26 25 27 26 28 84 29 27 30 83 31 28 32 29 33 30 34 77 35
REMARK SMILES IDX 31 36 82 37 76 38 78 39 32 40 81 41 75 42 74 43 33 45 63 46
REMARK SMILES IDX 44 47 62 48 45 49 48 50 61 51 79 52 46 53 47 54 60 56 80 57
REMARK SMILES IDX 49 58 34 59 35 60 43 61 36 62 42 63 37 64 38 65 39 66 40 67
REMARK SMILES IDX 41 68 64 69 65 70 73 71 66 72 72 73 67 74 68 75 69 76 70 77
REMARK SMILES IDX 71 78 50 79 51 80 59 81 52 82 58 83 53 84 54 85 55 86 56 87
REMARK SMILES IDX 57 88
REMARK H PARENT 8 14 16 22 78 44 48 55
REMARK Flexibility Score: inf
ROOT
ATOM      1  C   UNL A   1      31.571  28.066  27.368  1.00  0.00     0.274 C 
ENDROOT
BRANCH   1   2
ATOM      2  O   UNL A   1      32.261  26.802  27.365  1.00  0.00    -0.461 OA
BRANCH   2   3
ATOM      3  C   UNL A   1      31.754  25.847  26.535  1.00  0.00     0.328 C 
ATOM      4  O   UNL A   1      30.565  25.560  26.466  1.00  0.00    -0.250 OA
BRANCH   3   5
ATOM      5  C   UNL A   1      32.842  25.102  25.723  1.00  0.00     0.193 C 
BRANCH   5   6
ATOM      6  C   UNL A   1      33.350  26.055  24.643  1.00  0.00     0.053 C 
BRANCH   6   7
ATOM      7  C   UNL A   1      32.312  26.928  23.928  1.00  0.00     0.139 C 
BRANCH   7   8
ATOM      8  S   UNL A   1      31.492  26.139  22.545  1.00  0.00     0.147 S 
ATOM      9  C   UNL A   1      32.808  25.493  21.546  1.00  0.00     0.158 C 
ATOM     10  O   UNL A   1      30.847  27.184  21.783  1.00  0.00    -0.229 OA
ATOM     11  O   UNL A   1      30.723  25.012  23.049  1.00  0.00    -0.229 OA
ENDBRANCH   7   8
ENDBRANCH   6   7
ENDBRANCH   5   6
BRANCH   5  12
ATOM     12  N   UNL A   1      32.329  23.775  25.319  1.00  0.00    -0.342 N 
ATOM     13  C   UNL A   1      32.304  22.531  25.871  1.00  0.00     0.226 C 
ATOM     14  H   UNL A   1      31.901  23.796  24.433  1.00  0.00     0.164 HD
ATOM     15  O   UNL A   1      31.469  21.731  25.436  1.00  0.00    -0.275 OA
BRANCH  13  16
ATOM     16  C   UNL A   1      33.294  22.092  26.936  1.00  0.00     0.155 C 
BRANCH  16  17
ATOM     17  C   UNL A   1      34.580  21.665  26.303  1.00  0.00     0.044 A 
ATOM     18  C   UNL A   1      34.870  20.716  25.342  1.00  0.00     0.045 A 
ATOM     19  N   UNL A   1      35.760  22.325  26.536  1.00  0.00    -0.282 N 
ATOM     20  C   UNL A   1      36.196  20.984  24.967  1.00  0.00     0.135 A 
ATOM     21  N   UNL A   1      36.742  21.962  25.691  1.00  0.00    -0.184 NA
ATOM     22  H   UNL A   1      35.875  22.996  27.248  1.00  0.00     0.190 HD
ENDBRANCH  16  17
ENDBRANCH  13  16
ENDBRANCH   5  12
ENDBRANCH   3   5
ENDBRANCH   2   3
ENDBRANCH   1   2
BRANCH   1  23
ATOM     23  C   UNL A   1      32.417  29.201  26.774  1.00  0.00     0.275 C 
BRANCH  23  24
ATOM     24  O   UNL A   1      33.810  29.116  27.136  1.00  0.00    -0.458 OA
BRANCH  24  25
ATOM     25  C   UNL A   1      34.324  30.251  27.666  1.00  0.00     0.338 C 
ATOM     26  O   UNL A   1      33.713  31.288  27.892  1.00  0.00    -0.246 OA
BRANCH  25  27
ATOM     27  C   UNL A   1      35.686  30.020  28.183  1.00  0.00     0.060 A 
ATOM     28  C   UNL A   1      36.725  30.142  27.260  1.00  0.00     0.016 A 
ATOM     29  C   UNL A   1      35.959  29.618  29.489  1.00  0.00     0.016 A 
ATOM     30  C   UNL A   1      38.038  29.894  27.623  1.00  0.00     0.010 A 
ATOM     31  C   UNL A   1      37.288  29.348  29.856  1.00  0.00     0.010 A 
ATOM     32  C   UNL A   1      38.333  29.492  28.925  1.00  0.00    -0.014 A 
BRANCH  32  33
ATOM     33  C   UNL A   1      39.735  29.126  29.231  1.00  0.00     0.031 A 
ATOM     34  C   UNL A   1      40.599  30.101  29.976  1.00  0.00     0.074 A 
ATOM     35  C   UNL A   1      40.188  27.888  28.960  1.00  0.00     0.049 A 
ATOM     36  N   UNL A   1      41.862  30.005  30.297  1.00  0.00    -0.248 NA
ATOM     37  C   UNL A   1      39.948  31.338  30.436  1.00  0.00     0.031 C 
ATOM     38  C   UNL A   1      39.397  26.806  28.369  1.00  0.00     0.029 A 
ATOM     39  N   UNL A   1      41.422  27.324  29.163  1.00  0.00    -0.354 N 
ATOM     40  C   UNL A   1      42.168  31.180  30.972  1.00  0.00     0.074 A 
ATOM     41  C   UNL A   1      40.958  31.974  31.011  1.00  0.00     0.031 C 
ATOM     42  C   UNL A   1      40.166  25.710  28.261  1.00  0.00     0.029 A 
ATOM     43  C   UNL A   1      41.518  26.030  28.708  1.00  0.00     0.049 A 
ATOM     44  H   UNL A   1      42.167  27.801  29.596  1.00  0.00     0.167 HD
ATOM     45  C   UNL A   1      43.353  31.562  31.503  1.00  0.00     0.031 A 
ATOM     46  C   UNL A   1      42.588  25.215  28.617  1.00  0.00     0.031 A 
ATOM     47  C   UNL A   1      44.552  30.768  31.446  1.00  0.00     0.049 A 
ATOM     48  C   UNL A   1      43.928  25.718  29.086  1.00  0.00     0.074 A 
ATOM     49  C   UNL A   1      45.816  31.083  31.915  1.00  0.00     0.029 A 
ATOM     50  N   UNL A   1      44.637  29.502  30.885  1.00  0.00    -0.354 N 
ATOM     51  N   UNL A   1      44.224  26.858  29.663  1.00  0.00    -0.248 NA
ATOM     52  C   UNL A   1      45.081  24.830  28.881  1.00  0.00     0.031 C 
ATOM     53  C   UNL A   1      46.677  30.032  31.580  1.00  0.00     0.029 A 
ATOM     54  C   UNL A   1      45.937  29.033  30.970  1.00  0.00     0.049 A 
ATOM     55  H   UNL A   1      43.884  29.010  30.487  1.00  0.00     0.167 HD
ATOM     56  C   UNL A   1      45.591  26.812  29.918  1.00  0.00     0.074 A 
ATOM     57  C   UNL A   1      46.060  25.526  29.443  1.00  0.00     0.031 C 
ATOM     58  C   UNL A   1      46.387  27.747  30.494  1.00  0.00     0.031 A 
BRANCH  45  59
ATOM     59  C   UNL A   1      43.423  32.934  32.118  1.00  0.00    -0.014 A 
ATOM     60  C   UNL A   1      43.885  34.047  31.393  1.00  0.00     0.010 A 
ATOM     61  C   UNL A   1      43.006  33.110  33.450  1.00  0.00     0.010 A 
ATOM     62  C   UNL A   1      43.970  35.302  32.005  1.00  0.00     0.020 A 
ATOM     63  C   UNL A   1      43.061  34.368  34.056  1.00  0.00     0.020 A 
ATOM     64  C   UNL A   1      43.562  35.452  33.334  1.00  0.00     0.054 A 
BRANCH  64  65
ATOM     65  S   UNL A   1      43.680  37.091  34.102  1.00  0.00     0.124 S 
ATOM     66  O   UNL A   1      45.058  37.096  34.587  1.00  0.00    -0.237 OA
ATOM     67  O   UNL A   1      43.405  37.988  32.984  1.00  0.00    -0.237 OA
ATOM     68  O   UNL A   1      42.655  37.063  35.142  1.00  0.00    -0.744 OA
ENDBRANCH  64  65
ENDBRANCH  45  59
BRANCH  46  69
ATOM     69  C   UNL A   1      42.454  23.865  27.999  1.00  0.00    -0.014 A 
ATOM     70  C   UNL A   1      42.171  22.734  28.783  1.00  0.00     0.010 A 
ATOM     71  C   UNL A   1      42.631  23.704  26.610  1.00  0.00     0.010 A 
ATOM     72  C   UNL A   1      42.086  21.467  28.195  1.00  0.00     0.020 A 
ATOM     73  C   UNL A   1      42.514  22.446  26.014  1.00  0.00     0.020 A 
ATOM     74  C   UNL A   1      42.256  21.331  26.814  1.00  0.00     0.054 A 
BRANCH  74  75
ATOM     75  S   UNL A   1      42.108  19.684  26.068  1.00  0.00     0.124 S 
ATOM     76  O   UNL A   1      43.032  19.777  24.942  1.00  0.00    -0.237 OA
ATOM     77  O   UNL A   1      42.523  18.806  27.158  1.00  0.00    -0.237 OA
ATOM     78  O   UNL A   1      40.694  19.596  25.711  1.00  0.00    -0.744 OA
ENDBRANCH  74  75
ENDBRANCH  46  69
BRANCH  58  79
ATOM     79  C   UNL A   1      47.840  27.401  30.690  1.00  0.00    -0.014 A 
ATOM     80  C   UNL A   1      48.299  26.804  31.877  1.00  0.00     0.010 A 
ATOM     81  C   UNL A   1      48.749  27.622  29.640  1.00  0.00     0.010 A 
ATOM     82  C   UNL A   1      49.646  26.462  32.021  1.00  0.00     0.020 A 
ATOM     83  C   UNL A   1      50.090  27.253  29.767  1.00  0.00     0.020 A 
ATOM     84  C   UNL A   1      50.533  26.687  30.963  1.00  0.00     0.054 A 
BRANCH  84  85
ATOM     85  S   UNL A   1      52.267  26.186  31.155  1.00  0.00     0.124 S 
ATOM     86  O   UNL A   1      52.739  26.192  29.773  1.00  0.00    -0.237 OA
ATOM     87  O   UNL A   1      52.810  27.238  32.010  1.00  0.00    -0.237 OA
ATOM     88  O   UNL A   1      52.179  24.867  31.777  1.00  0.00    -0.744 OA
ENDBRANCH  84  85
ENDBRANCH  58  79
ENDBRANCH  32  33
ENDBRANCH  25  27
ENDBRANCH  24  25
ENDBRANCH  23  24
ENDBRANCH   1  23
TORSDOF 20
ENDMDL
MODEL 3
REMARK VINA RESULT:      -9.6      3.003      4.650
REMARK SMILES CS(=O)(=O)CC[C@H](NC(=O)Cc1ccn[nH]1)C(=O)OCCOC(=O)c1ccc(-c2c3nc(c(-c4ccc(S(=O)(=O)[O-])cc4)c4ccc([nH]4)c(-c4ccc(S(=O)(=O)[O-])cc4)c4nc(c(-c5ccc(S(=O)(=O)[O-])cc5)c5ccc2[nH]5)C=C4)C=C3)cc1
REMARK SMILES IDX 20 1 19 2 17 3 18 4 7 5 6 6 5 7 2 8 1 9 3 10 4 11 8 12 9 13
REMARK SMILES IDX 10 15 11 16 12 17 13 18 16 19 14 20 15 21 21 23 22 24 23 25
REMARK SMILES IDX 24 26 25 27 26 28 84 29 27 30 83 31 28 32 29 33 30 34 77 35
REMARK SMILES IDX 31 36 82 37 76 38 78 39 32 40 81 41 75 42 74 43 33 45 63 46
REMARK SMILES IDX 44 47 62 48 45 49 48 50 61 51 79 52 46 53 47 54 60 56 80 57
REMARK SMILES IDX 49 58 34 59 35 60 43 61 36 62 42 63 37 64 38 65 39 66 40 67
REMARK SMILES IDX 41 68 64 69 65 70 73 71 66 72 72 73 67 74 68 75 69 76 70 77
REMARK SMILES IDX 71 78 50 79 51 80 59 81 52 82 58 83 53 84 54 85 55 86 56 87
REMARK SMILES IDX 57 88
REMARK H PARENT 8 14 16 22 78 44 48 55
REMARK Flexibility Score: inf
ROOT
ATOM      1  C   UNL A   1      32.230  28.859  27.539  1.00  0.00     0.274 C 
ENDROOT
BRANCH   1   2
ATOM      2  O   UNL A   1      31.474  28.003  26.661  1.00  0.00    -0.461 OA
BRANCH   2   3
ATOM      3  C   UNL A   1      32.172  26.994  26.066  1.00  0.00     0.328 C 
ATOM      4  O   UNL A   1      33.395  26.913  26.067  1.00  0.00    -0.250 OA
BRANCH   3   5
ATOM      5  C   UNL A   1      31.268  25.982  25.321  1.00  0.00     0.193 C 
BRANCH   5   6
ATOM      6  C   UNL A   1      30.078  26.753  24.752  1.00  0.00     0.053 C 
BRANCH   6   7
ATOM      7  C   UNL A   1      30.123  27.119  23.264  1.00  0.00     0.139 C 
BRANCH   7   8
ATOM      8  S   UNL A   1      30.615  28.807  22.920  1.00  0.00     0.147 S 
ATOM      9  C   UNL A   1      32.379  28.737  22.742  1.00  0.00     0.158 C 
ATOM     10  O   UNL A   1      30.332  29.581  24.107  1.00  0.00    -0.229 OA
ATOM     11  O   UNL A   1      30.055  29.196  21.635  1.00  0.00    -0.229 OA
ENDBRANCH   7   8
ENDBRANCH   6   7
ENDBRANCH   5   6
BRANCH   5  12
ATOM     12  N   UNL A   1      31.010  24.818  26.197  1.00  0.00    -0.342 N 
ATOM     13  C   UNL A   1      31.736  23.759  26.648  1.00  0.00     0.226 C 
ATOM     14  H   UNL A   1      30.086  24.806  26.538  1.00  0.00     0.164 HD
ATOM     15  O   UNL A   1      31.331  23.181  27.662  1.00  0.00    -0.275 OA
BRANCH  13  16
ATOM     16  C   UNL A   1      32.964  23.244  25.919  1.00  0.00     0.155 C 
BRANCH  16  17
ATOM     17  C   UNL A   1      32.642  21.977  25.192  1.00  0.00     0.044 A 
ATOM     18  C   UNL A   1      32.891  21.559  23.900  1.00  0.00     0.045 A 
ATOM     19  N   UNL A   1      32.100  20.890  25.832  1.00  0.00    -0.282 N 
ATOM     20  C   UNL A   1      32.602  20.186  23.907  1.00  0.00     0.135 A 
ATOM     21  N   UNL A   1      32.121  19.774  25.081  1.00  0.00    -0.184 NA
ATOM     22  H   UNL A   1      31.735  20.924  26.746  1.00  0.00     0.190 HD
ENDBRANCH  16  17
ENDBRANCH  13  16
ENDBRANCH   5  12
ENDBRANCH   3   5
ENDBRANCH   2   3
ENDBRANCH   1   2
BRANCH   1  23
ATOM     23  C   UNL A   1      32.555  30.218  26.903  1.00  0.00     0.275 C 
BRANCH  23  24
ATOM     24  O   UNL A   1      33.970  30.446  26.751  1.00  0.00    -0.458 OA
BRANCH  24  25
ATOM     25  C   UNL A   1      34.466  31.441  27.524  1.00  0.00     0.338 C 
ATOM     26  O   UNL A   1      33.956  32.539  27.709  1.00  0.00    -0.246 OA
BRANCH  25  27
ATOM     27  C   UNL A   1      35.599  30.961  28.336  1.00  0.00     0.060 A 
ATOM     28  C   UNL A   1      36.742  31.762  28.334  1.00  0.00     0.016 A 
ATOM     29  C   UNL A   1      35.605  29.742  29.012  1.00  0.00     0.016 A 
ATOM     30  C   UNL A   1      37.884  31.380  29.018  1.00  0.00     0.010 A 
ATOM     31  C   UNL A   1      36.768  29.344  29.693  1.00  0.00     0.010 A 
ATOM     32  C   UNL A   1      37.910  30.166  29.702  1.00  0.00    -0.014 A 
BRANCH  32  33
ATOM     33  C   UNL A   1      39.191  29.751  30.319  1.00  0.00     0.031 A 
ATOM     34  C   UNL A   1      39.644  30.418  31.584  1.00  0.00     0.074 A 
ATOM     35  C   UNL A   1      39.873  28.702  29.823  1.00  0.00     0.049 A 
ATOM     36  N   UNL A   1      40.751  30.245  32.256  1.00  0.00    -0.248 NA
ATOM     37  C   UNL A   1      38.718  31.394  32.181  1.00  0.00     0.031 C 
ATOM     38  C   UNL A   1      39.457  27.881  28.683  1.00  0.00     0.029 A 
ATOM     39  N   UNL A   1      41.054  28.133  30.228  1.00  0.00    -0.354 N 
ATOM     40  C   UNL A   1      40.671  31.110  33.340  1.00  0.00     0.074 A 
ATOM     41  C   UNL A   1      39.408  31.808  33.234  1.00  0.00     0.031 C 
ATOM     42  C   UNL A   1      40.368  26.915  28.483  1.00  0.00     0.029 A 
ATOM     43  C   UNL A   1      41.464  27.089  29.433  1.00  0.00     0.049 A 
ATOM     44  H   UNL A   1      41.559  28.443  31.014  1.00  0.00     0.167 HD
ATOM     45  C   UNL A   1      41.575  31.308  34.328  1.00  0.00     0.031 A 
ATOM     46  C   UNL A   1      42.614  26.385  29.440  1.00  0.00     0.031 A 
ATOM     47  C   UNL A   1      42.834  30.616  34.416  1.00  0.00     0.049 A 
ATOM     48  C   UNL A   1      43.666  26.722  30.465  1.00  0.00     0.074 A 
ATOM     49  C   UNL A   1      43.840  30.774  35.353  1.00  0.00     0.029 A 
ATOM     50  N   UNL A   1      43.261  29.635  33.533  1.00  0.00    -0.354 N 
ATOM     51  N   UNL A   1      43.611  27.589  31.448  1.00  0.00    -0.248 NA
ATOM     52  C   UNL A   1      44.939  25.993  30.375  1.00  0.00     0.031 C 
ATOM     53  C   UNL A   1      44.900  29.933  34.998  1.00  0.00     0.029 A 
ATOM     54  C   UNL A   1      44.526  29.198  33.885  1.00  0.00     0.049 A 
ATOM     55  H   UNL A   1      42.740  29.298  32.769  1.00  0.00     0.167 HD
ATOM     56  C   UNL A   1      44.829  27.489  32.112  1.00  0.00     0.074 A 
ATOM     57  C   UNL A   1      45.594  26.468  31.426  1.00  0.00     0.031 C 
ATOM     58  C   UNL A   1      45.274  28.177  33.192  1.00  0.00     0.031 A 
BRANCH  45  59
ATOM     59  C   UNL A   1      41.263  32.373  35.346  1.00  0.00    -0.014 A 
ATOM     60  C   UNL A   1      40.614  32.071  36.556  1.00  0.00     0.010 A 
ATOM     61  C   UNL A   1      41.640  33.703  35.084  1.00  0.00     0.010 A 
ATOM     62  C   UNL A   1      40.307  33.089  37.465  1.00  0.00     0.020 A 
ATOM     63  C   UNL A   1      41.362  34.718  36.002  1.00  0.00     0.020 A 
ATOM     64  C   UNL A   1      40.679  34.407  37.179  1.00  0.00     0.054 A 
BRANCH  64  65
ATOM     65  S   UNL A   1      40.272  35.707  38.376  1.00  0.00     0.124 S 
ATOM     66  O   UNL A   1      39.204  35.078  39.149  1.00  0.00    -0.237 OA
ATOM     67  O   UNL A   1      41.534  35.895  39.085  1.00  0.00    -0.237 OA
ATOM     68  O   UNL A   1      39.855  36.831  37.541  1.00  0.00    -0.744 OA
ENDBRANCH  64  65
ENDBRANCH  45  59
BRANCH  46  69
ATOM     69  C   UNL A   1      42.863  25.341  28.406  1.00  0.00    -0.014 A 
ATOM     70  C   UNL A   1      42.523  23.997  28.637  1.00  0.00     0.010 A 
ATOM     71  C   UNL A   1      43.466  25.690  27.182  1.00  0.00     0.010 A 
ATOM     72  C   UNL A   1      42.798  23.020  27.673  1.00  0.00     0.020 A 
ATOM     73  C   UNL A   1      43.712  24.723  26.203  1.00  0.00     0.020 A 
ATOM     74  C   UNL A   1      43.388  23.390  26.462  1.00  0.00     0.054 A 
BRANCH  74  75
ATOM     75  S   UNL A   1      43.705  22.113  25.212  1.00  0.00     0.124 S 
ATOM     76  O   UNL A   1      45.064  21.696  25.543  1.00  0.00    -0.237 OA
ATOM     77  O   UNL A   1      42.656  21.136  25.489  1.00  0.00    -0.237 OA
ATOM     78  O   UNL A   1      43.561  22.830  23.947  1.00  0.00    -0.744 OA
ENDBRANCH  74  75
ENDBRANCH  46  69
BRANCH  58  79
ATOM     79  C   UNL A   1      46.634  27.820  33.734  1.00  0.00    -0.014 A 
ATOM     80  C   UNL A   1      46.800  26.797  34.684  1.00  0.00     0.010 A 
ATOM     81  C   UNL A   1      47.771  28.481  33.235  1.00  0.00     0.010 A 
ATOM     82  C   UNL A   1      48.076  26.463  35.147  1.00  0.00     0.020 A 
ATOM     83  C   UNL A   1      49.050  28.129  33.670  1.00  0.00     0.020 A 
ATOM     84  C   UNL A   1      49.194  27.130  34.634  1.00  0.00     0.054 A 
BRANCH  84  85
ATOM     85  S   UNL A   1      50.843  26.641  35.212  1.00  0.00     0.124 S 
ATOM     86  O   UNL A   1      50.800  27.033  36.618  1.00  0.00    -0.237 OA
ATOM     87  O   UNL A   1      50.856  25.202  34.960  1.00  0.00    -0.237 OA
ATOM     88  O   UNL A   1      51.749  27.423  34.374  1.00  0.00    -0.744 OA
ENDBRANCH  84  85
ENDBRANCH  58  79
ENDBRANCH  32  33
ENDBRANCH  25  27
ENDBRANCH  24  25
ENDBRANCH  23  24
ENDBRANCH   1  23
TORSDOF 20
ENDMDL
