MODEL 1
REMARK VINA RESULT:     -10.2      0.000      0.000
REMARK SMILES Cc1cc(C)cc(-c2ccc([C@@H](C)C(=O)OCCOC(=O)c3ccc(-c4c5nc(c(-c6ccc(S(=O)(=O)[O-])cc6)c6ccc([nH]6)c(-c6ccc(S(=O)(=O)[O-])cc6)c6nc(c(-c7ccc(S(=O)(=O)[O-])cc7)c7ccc4[nH]7)C=C6)C=C5)cc3)cc2F)c1
REMARK SMILES IDX 18 1 17 2 16 3 14 4 15 5 12 6 13 7 11 8 8 9 9 10 83 11 10 12
REMARK SMILES IDX 82 13 84 14 7 15 1 16 2 17 3 18 85 19 4 20 5 21 6 22 19 23
REMARK SMILES IDX 20 24 21 25 22 26 23 27 81 28 24 29 80 30 25 31 26 32 27 33
REMARK SMILES IDX 74 34 28 35 79 36 73 37 75 38 29 39 78 40 72 41 71 42 30 44
REMARK SMILES IDX 60 45 41 46 59 47 42 48 45 49 58 50 76 51 43 52 44 53 57 55
REMARK SMILES IDX 77 56 46 57 31 58 32 59 40 60 33 61 39 62 34 63 35 64 36 65
REMARK SMILES IDX 37 66 38 67 61 68 62 69 70 70 63 71 69 72 64 73 65 74 66 75
REMARK SMILES IDX 67 76 68 77 47 78 48 79 56 80 49 81 55 82 50 83 51 84 52 85
REMARK SMILES IDX 53 86 54 87
REMARK H PARENT 75 43 45 54
REMARK Flexibility Score: inf
ROOT
ATOM      1  C   UNL A   1      33.101  32.717  27.710  1.00  0.00     0.275 C 
ENDROOT
BRANCH   1   2
ATOM      2  C   UNL A   1      33.191  34.224  27.963  1.00  0.00     0.274 C 
BRANCH   2   3
ATOM      3  O   UNL A   1      32.593  34.586  29.222  1.00  0.00    -0.462 OA
BRANCH   3   4
ATOM      4  C   UNL A   1      32.963  35.782  29.752  1.00  0.00     0.313 C 
ATOM      5  O   UNL A   1      33.160  36.795  29.090  1.00  0.00    -0.252 OA
BRANCH   4   6
ATOM      6  C   UNL A   1      33.181  35.746  31.260  1.00  0.00     0.126 C 
ATOM      7  C   UNL A   1      33.411  37.165  31.781  1.00  0.00     0.025 C 
BRANCH   6   8
ATOM      8  C   UNL A   1      34.232  34.766  31.762  1.00  0.00    -0.031 A 
ATOM      9  C   UNL A   1      36.228  32.991  32.751  1.00  0.00     0.017 A 
ATOM     10  C   UNL A   1      36.049  33.191  31.373  1.00  0.00     0.012 A 
ATOM     11  C   UNL A   1      35.372  33.679  33.618  1.00  0.00     0.131 A 
ATOM     12  C   UNL A   1      35.069  34.064  30.884  1.00  0.00     0.005 A 
ATOM     13  C   UNL A   1      34.397  34.556  33.139  1.00  0.00     0.044 A 
ATOM     14  F   UNL A   1      35.496  33.538  34.947  1.00  0.00    -0.206 F 
BRANCH   9  15
ATOM     15  C   UNL A   1      37.306  32.122  33.245  1.00  0.00    -0.015 A 
ATOM     16  C   UNL A   1      40.265  32.216  35.661  1.00  0.00     0.044 C 
ATOM     17  C   UNL A   1      39.262  31.730  34.656  1.00  0.00    -0.050 A 
ATOM     18  C   UNL A   1      39.339  30.415  34.178  1.00  0.00     0.006 A 
ATOM     19  C   UNL A   1      38.248  32.575  34.182  1.00  0.00     0.012 A 
ATOM     20  C   UNL A   1      38.421  29.943  33.235  1.00  0.00    -0.050 A 
ATOM     21  C   UNL A   1      38.519  28.537  32.724  1.00  0.00     0.044 C 
ATOM     22  C   UNL A   1      37.412  30.800  32.780  1.00  0.00     0.012 A 
ENDBRANCH   9  15
ENDBRANCH   6   8
ENDBRANCH   4   6
ENDBRANCH   3   4
ENDBRANCH   2   3
ENDBRANCH   1   2
BRANCH   1  23
ATOM     23  O   UNL A   1      34.349  32.060  27.991  1.00  0.00    -0.458 OA
BRANCH  23  24
ATOM     24  C   UNL A   1      34.323  30.713  27.865  1.00  0.00     0.338 C 
ATOM     25  O   UNL A   1      33.382  30.023  27.516  1.00  0.00    -0.246 OA
BRANCH  24  26
ATOM     26  C   UNL A   1      35.671  30.169  28.089  1.00  0.00     0.060 A 
ATOM     27  C   UNL A   1      35.984  29.718  29.373  1.00  0.00     0.016 A 
ATOM     28  C   UNL A   1      36.642  30.188  27.088  1.00  0.00     0.016 A 
ATOM     29  C   UNL A   1      37.277  29.307  29.675  1.00  0.00     0.010 A 
ATOM     30  C   UNL A   1      37.942  29.762  27.389  1.00  0.00     0.010 A 
ATOM     31  C   UNL A   1      38.270  29.338  28.689  1.00  0.00    -0.014 A 
BRANCH  31  32
ATOM     32  C   UNL A   1      39.660  28.971  29.052  1.00  0.00     0.031 A 
ATOM     33  C   UNL A   1      40.519  29.943  29.810  1.00  0.00     0.074 A 
ATOM     34  C   UNL A   1      40.129  27.747  28.746  1.00  0.00     0.049 A 
ATOM     35  N   UNL A   1      41.759  29.812  30.206  1.00  0.00    -0.248 NA
ATOM     36  C   UNL A   1      39.902  31.230  30.171  1.00  0.00     0.031 C 
ATOM     37  C   UNL A   1      39.374  26.701  28.054  1.00  0.00     0.029 A 
ATOM     38  N   UNL A   1      41.350  27.173  28.992  1.00  0.00    -0.354 N 
ATOM     39  C   UNL A   1      42.078  31.004  30.849  1.00  0.00     0.074 A 
ATOM     40  C   UNL A   1      40.907  31.851  30.774  1.00  0.00     0.031 C 
ATOM     41  C   UNL A   1      40.147  25.607  27.943  1.00  0.00     0.029 A 
ATOM     42  C   UNL A   1      41.458  25.886  28.520  1.00  0.00     0.049 A 
ATOM     43  H   UNL A   1      42.081  27.638  29.460  1.00  0.00     0.167 HD
ATOM     44  C   UNL A   1      43.242  31.358  31.447  1.00  0.00     0.031 A 
ATOM     45  C   UNL A   1      42.500  25.034  28.537  1.00  0.00     0.031 A 
ATOM     46  C   UNL A   1      44.405  30.514  31.521  1.00  0.00     0.049 A 
ATOM     47  C   UNL A   1      43.794  25.467  29.168  1.00  0.00     0.074 A 
ATOM     48  C   UNL A   1      45.631  30.785  32.102  1.00  0.00     0.029 A 
ATOM     49  N   UNL A   1      44.487  29.232  30.998  1.00  0.00    -0.354 N 
ATOM     50  N   UNL A   1      44.083  26.602  29.759  1.00  0.00    -0.248 NA
ATOM     51  C   UNL A   1      44.902  24.502  29.137  1.00  0.00     0.031 C 
ATOM     52  C   UNL A   1      46.468  29.681  31.899  1.00  0.00     0.029 A 
ATOM     53  C   UNL A   1      45.746  28.705  31.228  1.00  0.00     0.049 A 
ATOM     54  H   UNL A   1      43.757  28.766  30.530  1.00  0.00     0.167 HD
ATOM     55  C   UNL A   1      45.402  26.484  30.181  1.00  0.00     0.074 A 
ATOM     56  C   UNL A   1      45.848  25.159  29.796  1.00  0.00     0.031 C 
ATOM     57  C   UNL A   1      46.176  27.389  30.829  1.00  0.00     0.031 A 
BRANCH  44  58
ATOM     58  C   UNL A   1      43.320  32.739  32.036  1.00  0.00    -0.014 A 
ATOM     59  C   UNL A   1      42.836  33.010  33.329  1.00  0.00     0.010 A 
ATOM     60  C   UNL A   1      43.906  33.779  31.292  1.00  0.00     0.010 A 
ATOM     61  C   UNL A   1      42.901  34.305  33.850  1.00  0.00     0.020 A 
ATOM     62  C   UNL A   1      43.993  35.071  31.819  1.00  0.00     0.020 A 
ATOM     63  C   UNL A   1      43.472  35.329  33.088  1.00  0.00     0.054 A 
BRANCH  63  64
ATOM     64  S   UNL A   1      43.555  37.001  33.790  1.00  0.00     0.124 S 
ATOM     65  O   UNL A   1      43.517  37.832  32.589  1.00  0.00    -0.237 OA
ATOM     66  O   UNL A   1      42.362  37.060  34.630  1.00  0.00    -0.237 OA
ATOM     67  O   UNL A   1      44.823  37.010  34.514  1.00  0.00    -0.744 OA
ENDBRANCH  63  64
ENDBRANCH  44  58
BRANCH  45  68
ATOM     68  C   UNL A   1      42.365  23.689  27.919  1.00  0.00    -0.014 A 
ATOM     69  C   UNL A   1      42.894  23.429  26.643  1.00  0.00     0.010 A 
ATOM     70  C   UNL A   1      41.716  22.653  28.615  1.00  0.00     0.010 A 
ATOM     71  C   UNL A   1      42.769  22.160  26.071  1.00  0.00     0.020 A 
ATOM     72  C   UNL A   1      41.609  21.377  28.056  1.00  0.00     0.020 A 
ATOM     73  C   UNL A   1      42.128  21.142  26.781  1.00  0.00     0.054 A 
BRANCH  73  74
ATOM     74  S   UNL A   1      42.028  19.484  26.049  1.00  0.00     0.124 S 
ATOM     75  O   UNL A   1      42.530  18.644  27.132  1.00  0.00    -0.237 OA
ATOM     76  O   UNL A   1      40.604  19.350  25.752  1.00  0.00    -0.237 OA
ATOM     77  O   UNL A   1      42.893  19.579  24.875  1.00  0.00    -0.744 OA
ENDBRANCH  73  74
ENDBRANCH  45  68
BRANCH  57  78
ATOM     78  C   UNL A   1      47.577  26.967  31.178  1.00  0.00    -0.014 A 
ATOM     79  C   UNL A   1      47.843  26.242  32.352  1.00  0.00     0.010 A 
ATOM     80  C   UNL A   1      48.635  27.278  30.306  1.00  0.00     0.010 A 
ATOM     81  C   UNL A   1      49.152  25.866  32.667  1.00  0.00     0.020 A 
ATOM     82  C   UNL A   1      49.941  26.885  30.607  1.00  0.00     0.020 A 
ATOM     83  C   UNL A   1      50.194  26.196  31.795  1.00  0.00     0.054 A 
BRANCH  83  84
ATOM     84  S   UNL A   1      51.883  25.678  32.209  1.00  0.00     0.124 S 
ATOM     85  O   UNL A   1      52.562  25.804  30.922  1.00  0.00    -0.237 OA
ATOM     86  O   UNL A   1      52.280  26.648  33.226  1.00  0.00    -0.237 OA
ATOM     87  O   UNL A   1      51.714  24.311  32.694  1.00  0.00    -0.744 OA
ENDBRANCH  83  84
ENDBRANCH  57  78
ENDBRANCH  31  32
ENDBRANCH  24  26
ENDBRANCH  23  24
ENDBRANCH   1  23
TORSDOF 16
ENDMDL
MODEL 2
REMARK VINA RESULT:     -10.0      2.457      8.620
REMARK SMILES Cc1cc(C)cc(-c2ccc([C@@H](C)C(=O)OCCOC(=O)c3ccc(-c4c5nc(c(-c6ccc(S(=O)(=O)[O-])cc6)c6ccc([nH]6)c(-c6ccc(S(=O)(=O)[O-])cc6)c6nc(c(-c7ccc(S(=O)(=O)[O-])cc7)c7ccc4[nH]7)C=C6)C=C5)cc3)cc2F)c1
REMARK SMILES IDX 18 1 17 2 16 3 14 4 15 5 12 6 13 7 11 8 8 9 9 10 83 11 10 12
REMARK SMILES IDX 82 13 84 14 7 15 1 16 2 17 3 18 85 19 4 20 5 21 6 22 19 23
REMARK SMILES IDX 20 24 21 25 22 26 23 27 81 28 24 29 80 30 25 31 26 32 27 33
REMARK SMILES IDX 74 34 28 35 79 36 73 37 75 38 29 39 78 40 72 41 71 42 30 44
REMARK SMILES IDX 60 45 41 46 59 47 42 48 45 49 58 50 76 51 43 52 44 53 57 55
REMARK SMILES IDX 77 56 46 57 31 58 32 59 40 60 33 61 39 62 34 63 35 64 36 65
REMARK SMILES IDX 37 66 38 67 61 68 62 69 70 70 63 71 69 72 64 73 65 74 66 75
REMARK SMILES IDX 67 76 68 77 47 78 48 79 56 80 49 81 55 82 50 83 51 84 52 85
REMARK SMILES IDX 53 86 54 87
REMARK H PARENT 75 43 45 54
REMARK Flexibility Score: inf
ROOT
ATOM      1  C   UNL A   1      33.310  32.533  27.865  1.00  0.00     0.275 C 
ENDROOT
BRANCH   1   2
ATOM      2  C   UNL A   1      33.533  34.016  28.174  1.00  0.00     0.274 C 
BRANCH   2   3
ATOM      3  O   UNL A   1      32.945  34.386  29.435  1.00  0.00    -0.462 OA
BRANCH   3   4
ATOM      4  C   UNL A   1      33.804  34.665  30.451  1.00  0.00     0.313 C 
ATOM      5  O   UNL A   1      33.890  35.759  30.998  1.00  0.00    -0.252 OA
BRANCH   4   6
ATOM      6  C   UNL A   1      34.719  33.503  30.821  1.00  0.00     0.126 C 
ATOM      7  C   UNL A   1      34.424  33.051  32.251  1.00  0.00     0.025 C 
BRANCH   6   8
ATOM      8  C   UNL A   1      36.205  33.716  30.574  1.00  0.00    -0.031 A 
ATOM      9  C   UNL A   1      38.980  34.194  30.139  1.00  0.00     0.017 A 
ATOM     10  C   UNL A   1      38.167  33.648  29.132  1.00  0.00     0.012 A 
ATOM     11  C   UNL A   1      38.379  34.471  31.372  1.00  0.00     0.131 A 
ATOM     12  C   UNL A   1      36.803  33.414  29.343  1.00  0.00     0.005 A 
ATOM     13  C   UNL A   1      37.018  34.246  31.588  1.00  0.00     0.044 A 
ATOM     14  F   UNL A   1      39.097  35.001  32.374  1.00  0.00    -0.206 F 
BRANCH   9  15
ATOM     15  C   UNL A   1      40.395  34.495  29.876  1.00  0.00    -0.015 A 
ATOM     16  C   UNL A   1      43.868  33.612  31.201  1.00  0.00     0.044 C 
ATOM     17  C   UNL A   1      42.770  34.218  30.376  1.00  0.00    -0.050 A 
ATOM     18  C   UNL A   1      43.090  35.083  29.322  1.00  0.00     0.006 A 
ATOM     19  C   UNL A   1      41.424  33.934  30.648  1.00  0.00     0.012 A 
ATOM     20  C   UNL A   1      42.083  35.666  28.546  1.00  0.00    -0.050 A 
ATOM     21  C   UNL A   1      42.437  36.598  27.426  1.00  0.00     0.044 C 
ATOM     22  C   UNL A   1      40.746  35.363  28.828  1.00  0.00     0.012 A 
ENDBRANCH   9  15
ENDBRANCH   6   8
ENDBRANCH   4   6
ENDBRANCH   3   4
ENDBRANCH   2   3
ENDBRANCH   1   2
BRANCH   1  23
ATOM     23  O   UNL A   1      34.511  31.912  27.373  1.00  0.00    -0.458 OA
BRANCH  23  24
ATOM     24  C   UNL A   1      34.526  30.561  27.455  1.00  0.00     0.338 C 
ATOM     25  O   UNL A   1      33.691  29.787  27.025  1.00  0.00    -0.246 OA
BRANCH  24  26
ATOM     26  C   UNL A   1      35.798  30.116  28.044  1.00  0.00     0.060 A 
ATOM     27  C   UNL A   1      35.776  29.643  29.357  1.00  0.00     0.016 A 
ATOM     28  C   UNL A   1      37.006  30.248  27.358  1.00  0.00     0.016 A 
ATOM     29  C   UNL A   1      36.962  29.323  30.006  1.00  0.00     0.010 A 
ATOM     30  C   UNL A   1      38.201  29.914  28.008  1.00  0.00     0.010 A 
ATOM     31  C   UNL A   1      38.186  29.468  29.342  1.00  0.00    -0.014 A 
BRANCH  31  32
ATOM     32  C   UNL A   1      39.444  29.198  30.078  1.00  0.00     0.031 A 
ATOM     33  C   UNL A   1      40.384  28.131  29.590  1.00  0.00     0.074 A 
ATOM     34  C   UNL A   1      39.766  29.947  31.149  1.00  0.00     0.049 A 
ATOM     35  N   UNL A   1      41.523  27.739  30.102  1.00  0.00    -0.248 NA
ATOM     36  C   UNL A   1      39.992  27.412  28.367  1.00  0.00     0.031 C 
ATOM     37  C   UNL A   1      38.958  31.041  31.689  1.00  0.00     0.029 A 
ATOM     38  N   UNL A   1      40.866  29.907  31.968  1.00  0.00    -0.354 N 
ATOM     39  C   UNL A   1      41.977  26.717  29.275  1.00  0.00     0.074 A 
ATOM     40  C   UNL A   1      40.983  26.539  28.239  1.00  0.00     0.031 C 
ATOM     41  C   UNL A   1      39.598  31.578  32.741  1.00  0.00     0.029 A 
ATOM     42  C   UNL A   1      40.837  30.843  32.973  1.00  0.00     0.049 A 
ATOM     43  H   UNL A   1      41.605  29.267  31.847  1.00  0.00     0.167 HD
ATOM     44  C   UNL A   1      43.119  25.995  29.372  1.00  0.00     0.031 A 
ATOM     45  C   UNL A   1      41.705  31.075  33.976  1.00  0.00     0.031 A 
ATOM     46  C   UNL A   1      44.107  26.173  30.403  1.00  0.00     0.049 A 
ATOM     47  C   UNL A   1      42.943  30.230  34.087  1.00  0.00     0.074 A 
ATOM     48  C   UNL A   1      45.295  25.487  30.587  1.00  0.00     0.029 A 
ATOM     49  N   UNL A   1      44.024  27.107  31.425  1.00  0.00    -0.354 N 
ATOM     50  N   UNL A   1      43.351  29.258  33.304  1.00  0.00    -0.248 NA
ATOM     51  C   UNL A   1      43.841  30.514  35.215  1.00  0.00     0.031 C 
ATOM     52  C   UNL A   1      45.913  25.982  31.743  1.00  0.00     0.029 A 
ATOM     53  C   UNL A   1      45.129  27.006  32.252  1.00  0.00     0.049 A 
ATOM     54  H   UNL A   1      43.285  27.747  31.545  1.00  0.00     0.167 HD
ATOM     55  C   UNL A   1      44.558  28.824  33.838  1.00  0.00     0.074 A 
ATOM     56  C   UNL A   1      44.825  29.651  34.998  1.00  0.00     0.031 C 
ATOM     57  C   UNL A   1      45.374  27.830  33.408  1.00  0.00     0.031 A 
BRANCH  44  58
ATOM     58  C   UNL A   1      43.338  24.914  28.349  1.00  0.00    -0.014 A 
ATOM     59  C   UNL A   1      42.855  23.609  28.552  1.00  0.00     0.010 A 
ATOM     60  C   UNL A   1      44.021  25.214  27.156  1.00  0.00     0.010 A 
ATOM     61  C   UNL A   1      43.085  22.614  27.598  1.00  0.00     0.020 A 
ATOM     62  C   UNL A   1      44.234  24.226  26.190  1.00  0.00     0.020 A 
ATOM     63  C   UNL A   1      43.780  22.928  26.426  1.00  0.00     0.054 A 
BRANCH  63  64
ATOM     64  S   UNL A   1      44.060  21.622  25.197  1.00  0.00     0.124 S 
ATOM     65  O   UNL A   1      43.898  22.352  23.943  1.00  0.00    -0.237 OA
ATOM     66  O   UNL A   1      45.419  21.180  25.495  1.00  0.00    -0.237 OA
ATOM     67  O   UNL A   1      43.014  20.644  25.488  1.00  0.00    -0.744 OA
ENDBRANCH  63  64
ENDBRANCH  44  58
BRANCH  45  68
ATOM     68  C   UNL A   1      41.419  32.144  34.968  1.00  0.00    -0.014 A 
ATOM     69  C   UNL A   1      41.815  33.471  34.727  1.00  0.00     0.010 A 
ATOM     70  C   UNL A   1      40.733  31.839  36.158  1.00  0.00     0.010 A 
ATOM     71  C   UNL A   1      41.537  34.473  35.662  1.00  0.00     0.020 A 
ATOM     72  C   UNL A   1      40.433  32.842  37.083  1.00  0.00     0.020 A 
ATOM     73  C   UNL A   1      40.847  34.152  36.834  1.00  0.00     0.054 A 
BRANCH  73  74
ATOM     74  S   UNL A   1      40.440  35.475  38.008  1.00  0.00     0.124 S 
ATOM     75  O   UNL A   1      39.335  34.886  38.756  1.00  0.00    -0.237 OA
ATOM     76  O   UNL A   1      41.689  35.640  38.748  1.00  0.00    -0.237 OA
ATOM     77  O   UNL A   1      40.087  36.598  37.143  1.00  0.00    -0.744 OA
ENDBRANCH  73  74
ENDBRANCH  45  68
BRANCH  57  78
ATOM     78  C   UNL A   1      46.640  27.598  34.186  1.00  0.00    -0.014 A 
ATOM     79  C   UNL A   1      46.674  26.693  35.261  1.00  0.00     0.010 A 
ATOM     80  C   UNL A   1      47.816  28.275  33.819  1.00  0.00     0.010 A 
ATOM     81  C   UNL A   1      47.856  26.496  35.980  1.00  0.00     0.020 A 
ATOM     82  C   UNL A   1      49.005  28.064  34.522  1.00  0.00     0.020 A 
ATOM     83  C   UNL A   1      49.013  27.189  35.610  1.00  0.00     0.054 A 
BRANCH  83  84
ATOM     84  S   UNL A   1      50.544  26.901  36.540  1.00  0.00     0.124 S 
ATOM     85  O   UNL A   1      51.535  26.812  35.471  1.00  0.00    -0.237 OA
ATOM     86  O   UNL A   1      50.637  28.088  37.387  1.00  0.00    -0.237 OA
ATOM     87  O   UNL A   1      50.283  25.654  37.254  1.00  0.00    -0.744 OA
ENDBRANCH  83  84
ENDBRANCH  57  78
ENDBRANCH  31  32
ENDBRANCH  24  26
ENDBRANCH  23  24
ENDBRANCH   1  23
TORSDOF 16
ENDMDL
MODEL 3
REMARK VINA RESULT:     -10.0      2.406      3.628
REMARK SMILES Cc1cc(C)cc(-c2ccc([C@@H](C)C(=O)OCCOC(=O)c3ccc(-c4c5nc(c(-c6ccc(S(=O)(=O)[O-])cc6)c6ccc([nH]6)c(-c6ccc(S(=O)(=O)[O-])cc6)c6nc(c(-c7ccc(S(=O)(=O)[O-])cc7)c7ccc4[nH]7)C=C6)C=C5)cc3)cc2F)c1
REMARK SMILES IDX 18 1 17 2 16 3 14 4 15 5 12 6 13 7 11 8 8 9 9 10 83 11 10 12
REMARK SMILES IDX 82 13 84 14 7 15 1 16 2 17 3 18 85 19 4 20 5 21 6 22 19 23
REMARK SMILES IDX 20 24 21 25 22 26 23 27 81 28 24 29 80 30 25 31 26 32 27 33
REMARK SMILES IDX 74 34 28 35 79 36 73 37 75 38 29 39 78 40 72 41 71 42 30 44
REMARK SMILES IDX 60 45 41 46 59 47 42 48 45 49 58 50 76 51 43 52 44 53 57 55
REMARK SMILES IDX 77 56 46 57 31 58 32 59 40 60 33 61 39 62 34 63 35 64 36 65
REMARK SMILES IDX 37 66 38 67 61 68 62 69 70 70 63 71 69 72 64 73 65 74 66 75
REMARK SMILES IDX 67 76 68 77 47 78 48 79 56 80 49 81 55 82 50 83 51 84 52 85
REMARK SMILES IDX 53 86 54 87
REMARK H PARENT 75 43 45 54
REMARK Flexibility Score: inf
ROOT
ATOM      1  C   UNL A   1      33.170  32.899  28.011  1.00  0.00     0.275 C 
ENDROOT
BRANCH   1   2
ATOM      2  C   UNL A   1      33.490  34.293  28.558  1.00  0.00     0.274 C 
BRANCH   2   3
ATOM      3  O   UNL A   1      32.850  34.521  29.828  1.00  0.00    -0.462 OA
BRANCH   3   4
ATOM      4  C   UNL A   1      33.659  34.853  30.868  1.00  0.00     0.313 C 
ATOM      5  O   UNL A   1      33.689  35.962  31.390  1.00  0.00    -0.252 OA
BRANCH   4   6
ATOM      6  C   UNL A   1      34.594  33.729  31.303  1.00  0.00     0.126 C 
ATOM      7  C   UNL A   1      34.323  33.371  32.764  1.00  0.00     0.025 C 
BRANCH   6   8
ATOM      8  C   UNL A   1      36.075  33.945  31.024  1.00  0.00    -0.031 A 
ATOM      9  C   UNL A   1      38.851  34.270  30.477  1.00  0.00     0.017 A 
ATOM     10  C   UNL A   1      38.303  34.647  31.714  1.00  0.00     0.012 A 
ATOM     11  C   UNL A   1      37.977  33.752  29.516  1.00  0.00     0.131 A 
ATOM     12  C   UNL A   1      36.939  34.487  31.985  1.00  0.00     0.005 A 
ATOM     13  C   UNL A   1      36.616  33.583  29.781  1.00  0.00     0.044 A 
ATOM     14  F   UNL A   1      38.438  33.365  28.317  1.00  0.00    -0.206 F 
BRANCH   9  15
ATOM     15  C   UNL A   1      40.297  34.384  30.236  1.00  0.00    -0.015 A 
ATOM     16  C   UNL A   1      43.606  33.045  31.601  1.00  0.00     0.044 C 
ATOM     17  C   UNL A   1      42.609  33.795  30.766  1.00  0.00    -0.050 A 
ATOM     18  C   UNL A   1      43.054  34.617  29.723  1.00  0.00     0.006 A 
ATOM     19  C   UNL A   1      41.233  33.688  31.017  1.00  0.00     0.012 A 
ATOM     20  C   UNL A   1      42.144  35.332  28.938  1.00  0.00    -0.050 A 
ATOM     21  C   UNL A   1      42.633  36.216  27.831  1.00  0.00     0.044 C 
ATOM     22  C   UNL A   1      40.774  35.205  29.200  1.00  0.00     0.012 A 
ENDBRANCH   9  15
ENDBRANCH   6   8
ENDBRANCH   4   6
ENDBRANCH   3   4
ENDBRANCH   2   3
ENDBRANCH   1   2
BRANCH   1  23
ATOM     23  O   UNL A   1      34.361  32.218  27.577  1.00  0.00    -0.458 OA
BRANCH  23  24
ATOM     24  C   UNL A   1      34.307  30.869  27.665  1.00  0.00     0.338 C 
ATOM     25  O   UNL A   1      33.404  30.141  27.295  1.00  0.00    -0.246 OA
BRANCH  24  26
ATOM     26  C   UNL A   1      35.589  30.355  28.171  1.00  0.00     0.060 A 
ATOM     27  C   UNL A   1      35.609  29.812  29.457  1.00  0.00     0.016 A 
ATOM     28  C   UNL A   1      36.769  30.490  27.441  1.00  0.00     0.016 A 
ATOM     29  C   UNL A   1      36.811  29.422  30.034  1.00  0.00     0.010 A 
ATOM     30  C   UNL A   1      37.980  30.086  28.018  1.00  0.00     0.010 A 
ATOM     31  C   UNL A   1      38.009  29.568  29.325  1.00  0.00    -0.014 A 
BRANCH  31  32
ATOM     32  C   UNL A   1      39.289  29.221  29.988  1.00  0.00     0.031 A 
ATOM     33  C   UNL A   1      39.702  29.936  31.243  1.00  0.00     0.074 A 
ATOM     34  C   UNL A   1      40.051  28.228  29.491  1.00  0.00     0.049 A 
ATOM     35  N   UNL A   1      40.786  29.785  31.959  1.00  0.00    -0.248 NA
ATOM     36  C   UNL A   1      38.774  30.955  31.760  1.00  0.00     0.031 C 
ATOM     37  C   UNL A   1      39.732  27.430  28.307  1.00  0.00     0.029 A 
ATOM     38  N   UNL A   1      41.244  27.714  29.931  1.00  0.00    -0.354 N 
ATOM     39  C   UNL A   1      40.681  30.698  33.003  1.00  0.00     0.074 A 
ATOM     40  C   UNL A   1      39.435  31.411  32.816  1.00  0.00     0.031 C 
ATOM     41  C   UNL A   1      40.700  26.516  28.123  1.00  0.00     0.029 A 
ATOM     42  C   UNL A   1      41.722  26.690  29.150  1.00  0.00     0.049 A 
ATOM     43  H   UNL A   1      41.713  28.048  30.730  1.00  0.00     0.167 HD
ATOM     44  C   UNL A   1      41.543  30.920  34.024  1.00  0.00     0.031 A 
ATOM     45  C   UNL A   1      42.863  25.981  29.242  1.00  0.00     0.031 A 
ATOM     46  C   UNL A   1      42.781  30.210  34.209  1.00  0.00     0.049 A 
ATOM     47  C   UNL A   1      43.825  26.277  30.359  1.00  0.00     0.074 A 
ATOM     48  C   UNL A   1      43.724  30.367  35.210  1.00  0.00     0.029 A 
ATOM     49  N   UNL A   1      43.249  29.206  33.375  1.00  0.00    -0.354 N 
ATOM     50  N   UNL A   1      43.716  27.154  31.329  1.00  0.00    -0.248 NA
ATOM     51  C   UNL A   1      45.063  25.486  30.395  1.00  0.00     0.031 C 
ATOM     52  C   UNL A   1      44.780  29.482  34.960  1.00  0.00     0.029 A 
ATOM     53  C   UNL A   1      44.473  28.744  33.828  1.00  0.00     0.049 A 
ATOM     54  H   UNL A   1      42.780  28.871  32.576  1.00  0.00     0.167 HD
ATOM     55  C   UNL A   1      44.865  27.011  32.098  1.00  0.00     0.074 A 
ATOM     56  C   UNL A   1      45.646  25.951  31.492  1.00  0.00     0.031 C 
ATOM     57  C   UNL A   1      45.241  27.695  33.206  1.00  0.00     0.031 A 
BRANCH  44  58
ATOM     58  C   UNL A   1      41.189  32.009  35.000  1.00  0.00    -0.014 A 
ATOM     59  C   UNL A   1      40.388  31.746  36.126  1.00  0.00     0.010 A 
ATOM     60  C   UNL A   1      41.683  33.310  34.798  1.00  0.00     0.010 A 
ATOM     61  C   UNL A   1      40.055  32.776  37.010  1.00  0.00     0.020 A 
ATOM     62  C   UNL A   1      41.369  34.338  35.692  1.00  0.00     0.020 A 
ATOM     63  C   UNL A   1      40.541  34.067  36.783  1.00  0.00     0.054 A 
BRANCH  63  64
ATOM     64  S   UNL A   1      40.103  35.386  37.950  1.00  0.00     0.124 S 
ATOM     65  O   UNL A   1      41.325  35.504  38.742  1.00  0.00    -0.237 OA
ATOM     66  O   UNL A   1      39.815  36.516  37.070  1.00  0.00    -0.237 OA
ATOM     67  O   UNL A   1      38.948  34.847  38.663  1.00  0.00    -0.744 OA
ENDBRANCH  63  64
ENDBRANCH  44  58
BRANCH  45  68
ATOM     68  C   UNL A   1      43.165  24.932  28.233  1.00  0.00    -0.014 A 
ATOM     69  C   UNL A   1      43.865  25.249  27.056  1.00  0.00     0.010 A 
ATOM     70  C   UNL A   1      42.765  23.601  28.455  1.00  0.00     0.010 A 
ATOM     71  C   UNL A   1      44.151  24.257  26.114  1.00  0.00     0.020 A 
ATOM     72  C   UNL A   1      43.070  22.603  27.527  1.00  0.00     0.020 A 
ATOM     73  C   UNL A   1      43.752  22.939  26.356  1.00  0.00     0.054 A 
BRANCH  73  74
ATOM     74  S   UNL A   1      44.185  21.651  25.153  1.00  0.00     0.124 S 
ATOM     75  O   UNL A   1      43.172  20.636  25.417  1.00  0.00    -0.237 OA
ATOM     76  O   UNL A   1      44.062  22.352  23.876  1.00  0.00    -0.237 OA
ATOM     77  O   UNL A   1      45.552  21.288  25.523  1.00  0.00    -0.744 OA
ENDBRANCH  73  74
ENDBRANCH  45  68
BRANCH  57  78
ATOM     78  C   UNL A   1      46.546  27.303  33.844  1.00  0.00    -0.014 A 
ATOM     79  C   UNL A   1      47.748  27.936  33.483  1.00  0.00     0.010 A 
ATOM     80  C   UNL A   1      46.564  26.306  34.835  1.00  0.00     0.010 A 
ATOM     81  C   UNL A   1      48.953  27.553  34.077  1.00  0.00     0.020 A 
ATOM     82  C   UNL A   1      47.764  25.936  35.448  1.00  0.00     0.020 A 
ATOM     83  C   UNL A   1      48.954  26.550  35.052  1.00  0.00     0.054 A 
BRANCH  83  84
ATOM     84  S   UNL A   1      50.525  26.083  35.830  1.00  0.00     0.124 S 
ATOM     85  O   UNL A   1      51.496  26.790  34.999  1.00  0.00    -0.237 OA
ATOM     86  O   UNL A   1      50.377  26.590  37.191  1.00  0.00    -0.237 OA
ATOM     87  O   UNL A   1      50.547  24.627  35.713  1.00  0.00    -0.744 OA
ENDBRANCH  83  84
ENDBRANCH  57  78
ENDBRANCH  31  32
ENDBRANCH  24  26
ENDBRANCH  23  24
ENDBRANCH   1  23
TORSDOF 16
ENDMDL
