MODEL 1
REMARK VINA RESULT:      -8.8      0.000      0.000
REMARK SMILES C=CCN(CC(=O)OCCOC(=O)c1ccc(-c2c3nc(c(-c4ccc(S(=O)(=O)[O-])cc4)c4ccc([nH]4)c(-c4ccc(S(=O)(=O)[O-])cc4)c4nc(c(-c5ccc(S(=O)(=O)[O-])cc5)c5ccc2[nH]5)C=C4)C=C3)cc1)C(=O)NC(C)(C)CC
REMARK SMILES IDX 9 1 8 2 6 3 7 4 5 5 4 6 3 7 2 8 1 9 74 10 75 11 76 12 77 14
REMARK SMILES IDX 78 15 79 16 80 17 81 18 10 19 11 20 12 21 13 22 14 23 15 24
REMARK SMILES IDX 73 25 16 26 72 27 17 28 18 29 19 30 66 31 20 32 71 33 65 34
REMARK SMILES IDX 67 35 21 36 70 37 64 38 63 39 22 41 52 42 33 43 51 44 34 45
REMARK SMILES IDX 37 46 50 47 68 48 35 49 36 50 49 52 69 53 38 54 23 55 24 56
REMARK SMILES IDX 32 57 25 58 31 59 26 60 27 61 28 62 29 63 30 64 53 65 54 66
REMARK SMILES IDX 62 67 55 68 61 69 56 70 57 71 58 72 59 73 60 74 39 75 40 76
REMARK SMILES IDX 48 77 41 78 47 79 42 80 43 81 44 82 45 83 46 84
REMARK H PARENT 76 13 67 40 37 51
REMARK Flexibility Score: inf
ROOT
ATOM      1  C   UNL A   1      36.786  33.149  34.507  1.00  0.00     0.274 C 
ENDROOT
BRANCH   1   2
ATOM      2  O   UNL A   1      37.574  34.248  33.997  1.00  0.00    -0.461 OA
BRANCH   2   3
ATOM      3  C   UNL A   1      37.231  34.664  32.751  1.00  0.00     0.325 C 
ATOM      4  O   UNL A   1      37.939  34.519  31.756  1.00  0.00    -0.250 OA
BRANCH   3   5
ATOM      5  C   UNL A   1      35.814  35.235  32.629  1.00  0.00     0.244 C 
BRANCH   5   6
ATOM      6  N   UNL A   1      34.734  34.594  31.859  1.00  0.00    -0.310 N 
BRANCH   6   7
ATOM      7  C   UNL A   1      33.615  35.463  31.505  1.00  0.00     0.149 C 
BRANCH   7   8
ATOM      8  C   UNL A   1      33.568  36.613  32.477  1.00  0.00    -0.013 C 
ATOM      9  C   UNL A   1      33.511  37.899  32.104  1.00  0.00     0.006 C 
ENDBRANCH   7   8
ENDBRANCH   6   7
BRANCH   6  10
ATOM     10  C   UNL A   1      34.588  33.302  31.430  1.00  0.00     0.318 C 
ATOM     11  O   UNL A   1      34.300  32.408  32.238  1.00  0.00    -0.249 OA
ATOM     12  N   UNL A   1      34.328  32.997  30.137  1.00  0.00    -0.333 N 
ATOM     13  H   UNL A   1      33.446  32.576  30.021  1.00  0.00     0.165 HD
BRANCH  12  14
ATOM     14  C   UNL A   1      35.049  33.144  28.871  1.00  0.00     0.036 C 
ATOM     15  C   UNL A   1      34.712  34.539  28.325  1.00  0.00     0.034 C 
ATOM     16  C   UNL A   1      36.575  33.137  29.123  1.00  0.00     0.034 C 
BRANCH  14  17
ATOM     17  C   UNL A   1      34.775  32.039  27.854  1.00  0.00     0.024 C 
ATOM     18  C   UNL A   1      35.338  30.662  28.193  1.00  0.00     0.006 C 
ENDBRANCH  14  17
ENDBRANCH  12  14
ENDBRANCH   6  10
ENDBRANCH   5   6
ENDBRANCH   3   5
ENDBRANCH   2   3
ENDBRANCH   1   2
BRANCH   1  19
ATOM     19  C   UNL A   1      37.377  31.796  34.087  1.00  0.00     0.275 C 
BRANCH  19  20
ATOM     20  O   UNL A   1      37.477  31.475  32.678  1.00  0.00    -0.458 OA
BRANCH  20  21
ATOM     21  C   UNL A   1      37.426  30.202  32.225  1.00  0.00     0.338 C 
ATOM     22  O   UNL A   1      36.670  29.326  32.590  1.00  0.00    -0.246 OA
BRANCH  21  23
ATOM     23  C   UNL A   1      38.583  29.941  31.324  1.00  0.00     0.060 A 
ATOM     24  C   UNL A   1      39.788  29.598  31.941  1.00  0.00     0.016 A 
ATOM     25  C   UNL A   1      38.557  30.154  29.938  1.00  0.00     0.016 A 
ATOM     26  C   UNL A   1      40.973  29.581  31.204  1.00  0.00     0.010 A 
ATOM     27  C   UNL A   1      39.735  30.036  29.181  1.00  0.00     0.010 A 
ATOM     28  C   UNL A   1      40.954  29.740  29.808  1.00  0.00    -0.014 A 
BRANCH  28  29
ATOM     29  C   UNL A   1      42.141  29.313  29.018  1.00  0.00     0.031 A 
ATOM     30  C   UNL A   1      42.343  27.916  28.494  1.00  0.00     0.074 A 
ATOM     31  C   UNL A   1      43.089  30.254  28.830  1.00  0.00     0.049 A 
ATOM     32  N   UNL A   1      43.410  27.401  27.932  1.00  0.00    -0.248 NA
ATOM     33  C   UNL A   1      41.216  26.980  28.594  1.00  0.00     0.031 C 
ATOM     34  C   UNL A   1      42.985  31.654  29.264  1.00  0.00     0.029 A 
ATOM     35  N   UNL A   1      44.328  30.186  28.250  1.00  0.00    -0.354 N 
ATOM     36  C   UNL A   1      43.091  26.080  27.622  1.00  0.00     0.074 A 
ATOM     37  C   UNL A   1      41.723  25.876  28.051  1.00  0.00     0.031 C 
ATOM     38  C   UNL A   1      44.094  32.313  28.924  1.00  0.00     0.029 A 
ATOM     39  C   UNL A   1      45.039  31.356  28.376  1.00  0.00     0.049 A 
ATOM     40  H   UNL A   1      44.674  29.386  27.793  1.00  0.00     0.167 HD
ATOM     41  C   UNL A   1      43.882  25.132  27.058  1.00  0.00     0.031 A 
ATOM     42  C   UNL A   1      46.337  31.632  28.170  1.00  0.00     0.031 A 
ATOM     43  C   UNL A   1      45.260  25.360  26.689  1.00  0.00     0.049 A 
ATOM     44  C   UNL A   1      47.221  30.541  27.670  1.00  0.00     0.074 A 
ATOM     45  C   UNL A   1      46.156  24.474  26.113  1.00  0.00     0.029 A 
ATOM     46  N   UNL A   1      45.950  26.550  26.878  1.00  0.00    -0.354 N 
ATOM     47  N   UNL A   1      46.908  29.297  27.402  1.00  0.00    -0.248 NA
ATOM     48  C   UNL A   1      48.627  30.885  27.442  1.00  0.00     0.031 C 
ATOM     49  C   UNL A   1      47.402  25.104  26.025  1.00  0.00     0.029 A 
ATOM     50  C   UNL A   1      47.265  26.410  26.466  1.00  0.00     0.049 A 
ATOM     51  H   UNL A   1      45.561  27.374  27.251  1.00  0.00     0.167 HD
ATOM     52  C   UNL A   1      48.074  28.713  26.933  1.00  0.00     0.074 A 
ATOM     53  C   UNL A   1      49.097  29.742  26.961  1.00  0.00     0.031 C 
ATOM     54  C   UNL A   1      48.270  27.444  26.504  1.00  0.00     0.031 A 
BRANCH  41  55
ATOM     55  C   UNL A   1      43.325  23.739  26.863  1.00  0.00    -0.014 A 
ATOM     56  C   UNL A   1      42.942  23.261  25.598  1.00  0.00     0.010 A 
ATOM     57  C   UNL A   1      43.274  22.855  27.961  1.00  0.00     0.010 A 
ATOM     58  C   UNL A   1      42.493  21.942  25.439  1.00  0.00     0.020 A 
ATOM     59  C   UNL A   1      42.850  21.531  27.805  1.00  0.00     0.020 A 
ATOM     60  C   UNL A   1      42.446  21.086  26.545  1.00  0.00     0.054 A 
BRANCH  60  61
ATOM     61  S   UNL A   1      41.876  19.378  26.310  1.00  0.00     0.124 S 
ATOM     62  O   UNL A   1      40.428  19.552  26.234  1.00  0.00    -0.237 OA
ATOM     63  O   UNL A   1      42.527  18.991  25.060  1.00  0.00    -0.237 OA
ATOM     64  O   UNL A   1      42.356  18.682  27.501  1.00  0.00    -0.744 OA
ENDBRANCH  60  61
ENDBRANCH  41  55
BRANCH  42  65
ATOM     65  C   UNL A   1      46.841  32.985  28.511  1.00  0.00    -0.014 A 
ATOM     66  C   UNL A   1      46.749  34.034  27.585  1.00  0.00     0.010 A 
ATOM     67  C   UNL A   1      47.300  33.256  29.817  1.00  0.00     0.010 A 
ATOM     68  C   UNL A   1      47.104  35.334  27.960  1.00  0.00     0.020 A 
ATOM     69  C   UNL A   1      47.620  34.557  30.205  1.00  0.00     0.020 A 
ATOM     70  C   UNL A   1      47.528  35.587  29.270  1.00  0.00     0.054 A 
BRANCH  70  71
ATOM     71  S   UNL A   1      47.897  37.295  29.750  1.00  0.00     0.124 S 
ATOM     72  O   UNL A   1      47.581  37.281  31.176  1.00  0.00    -0.237 OA
ATOM     73  O   UNL A   1      49.313  37.418  29.416  1.00  0.00    -0.237 OA
ATOM     74  O   UNL A   1      46.996  38.089  28.916  1.00  0.00    -0.744 OA
ENDBRANCH  70  71
ENDBRANCH  42  65
BRANCH  54  75
ATOM     75  C   UNL A   1      49.633  27.112  25.968  1.00  0.00    -0.014 A 
ATOM     76  C   UNL A   1      50.624  26.541  26.784  1.00  0.00     0.010 A 
ATOM     77  C   UNL A   1      49.900  27.329  24.604  1.00  0.00     0.010 A 
ATOM     78  C   UNL A   1      51.867  26.206  26.246  1.00  0.00     0.020 A 
ATOM     79  C   UNL A   1      51.131  26.968  24.056  1.00  0.00     0.020 A 
ATOM     80  C   UNL A   1      52.109  26.413  24.883  1.00  0.00     0.054 A 
BRANCH  80  81
ATOM     81  S   UNL A   1      53.704  25.898  24.193  1.00  0.00     0.124 S 
ATOM     82  O   UNL A   1      53.826  24.532  24.694  1.00  0.00    -0.237 OA
ATOM     83  O   UNL A   1      53.483  26.023  22.754  1.00  0.00    -0.237 OA
ATOM     84  O   UNL A   1      54.652  26.855  24.757  1.00  0.00    -0.744 OA
ENDBRANCH  80  81
ENDBRANCH  54  75
ENDBRANCH  28  29
ENDBRANCH  21  23
ENDBRANCH  20  21
ENDBRANCH  19  20
ENDBRANCH   1  19
TORSDOF 20
ENDMDL
MODEL 2
REMARK VINA RESULT:      -8.4      4.270     10.485
REMARK SMILES C=CCN(CC(=O)OCCOC(=O)c1ccc(-c2c3nc(c(-c4ccc(S(=O)(=O)[O-])cc4)c4ccc([nH]4)c(-c4ccc(S(=O)(=O)[O-])cc4)c4nc(c(-c5ccc(S(=O)(=O)[O-])cc5)c5ccc2[nH]5)C=C4)C=C3)cc1)C(=O)NC(C)(C)CC
REMARK SMILES IDX 9 1 8 2 6 3 7 4 5 5 4 6 3 7 2 8 1 9 74 10 75 11 76 12 77 14
REMARK SMILES IDX 78 15 79 16 80 17 81 18 10 19 11 20 12 21 13 22 14 23 15 24
REMARK SMILES IDX 73 25 16 26 72 27 17 28 18 29 19 30 66 31 20 32 71 33 65 34
REMARK SMILES IDX 67 35 21 36 70 37 64 38 63 39 22 41 52 42 33 43 51 44 34 45
REMARK SMILES IDX 37 46 50 47 68 48 35 49 36 50 49 52 69 53 38 54 23 55 24 56
REMARK SMILES IDX 32 57 25 58 31 59 26 60 27 61 28 62 29 63 30 64 53 65 54 66
REMARK SMILES IDX 62 67 55 68 61 69 56 70 57 71 58 72 59 73 60 74 39 75 40 76
REMARK SMILES IDX 48 77 41 78 47 79 42 80 43 81 44 82 45 83 46 84
REMARK H PARENT 76 13 67 40 37 51
REMARK Flexibility Score: inf
ROOT
ATOM      1  C   UNL A   1      34.527  23.333  25.387  1.00  0.00     0.274 C 
ENDROOT
BRANCH   1   2
ATOM      2  O   UNL A   1      33.753  23.183  24.177  1.00  0.00    -0.461 OA
BRANCH   2   3
ATOM      3  C   UNL A   1      33.416  24.350  23.569  1.00  0.00     0.325 C 
ATOM      4  O   UNL A   1      34.178  25.002  22.857  1.00  0.00    -0.250 OA
BRANCH   3   5
ATOM      5  C   UNL A   1      31.947  24.758  23.728  1.00  0.00     0.244 C 
BRANCH   5   6
ATOM      6  N   UNL A   1      31.445  25.608  24.821  1.00  0.00    -0.310 N 
BRANCH   6   7
ATOM      7  C   UNL A   1      30.288  26.436  24.491  1.00  0.00     0.149 C 
BRANCH   7   8
ATOM      8  C   UNL A   1      30.295  26.710  23.010  1.00  0.00    -0.013 C 
ATOM      9  C   UNL A   1      30.458  27.930  22.481  1.00  0.00     0.006 C 
ENDBRANCH   7   8
ENDBRANCH   6   7
BRANCH   6  10
ATOM     10  C   UNL A   1      31.894  25.771  26.104  1.00  0.00     0.318 C 
ATOM     11  O   UNL A   1      31.775  24.850  26.925  1.00  0.00    -0.249 OA
ATOM     12  N   UNL A   1      32.824  26.698  26.430  1.00  0.00    -0.333 N 
ATOM     13  H   UNL A   1      33.662  26.292  26.751  1.00  0.00     0.165 HD
BRANCH  12  14
ATOM     14  C   UNL A   1      32.879  28.161  26.419  1.00  0.00     0.036 C 
ATOM     15  C   UNL A   1      31.724  28.657  27.300  1.00  0.00     0.034 C 
ATOM     16  C   UNL A   1      34.180  28.649  27.099  1.00  0.00     0.034 C 
BRANCH  14  17
ATOM     17  C   UNL A   1      32.861  28.785  25.026  1.00  0.00     0.024 C 
ATOM     18  C   UNL A   1      33.901  28.260  24.042  1.00  0.00     0.006 C 
ENDBRANCH  14  17
ENDBRANCH  12  14
ENDBRANCH   6  10
ENDBRANCH   5   6
ENDBRANCH   3   5
ENDBRANCH   2   3
ENDBRANCH   1   2
BRANCH   1  19
ATOM     19  C   UNL A   1      35.956  22.802  25.206  1.00  0.00     0.275 C 
BRANCH  19  20
ATOM     20  O   UNL A   1      37.075  23.686  25.459  1.00  0.00    -0.458 OA
BRANCH  20  21
ATOM     21  C   UNL A   1      38.234  23.243  25.998  1.00  0.00     0.338 C 
ATOM     22  O   UNL A   1      38.623  22.095  26.053  1.00  0.00    -0.246 OA
BRANCH  21  23
ATOM     23  C   UNL A   1      38.914  24.358  26.715  1.00  0.00     0.060 A 
ATOM     24  C   UNL A   1      39.695  25.214  25.936  1.00  0.00     0.016 A 
ATOM     25  C   UNL A   1      38.920  24.500  28.110  1.00  0.00     0.016 A 
ATOM     26  C   UNL A   1      40.561  26.123  26.546  1.00  0.00     0.010 A 
ATOM     27  C   UNL A   1      39.716  25.486  28.717  1.00  0.00     0.010 A 
ATOM     28  C   UNL A   1      40.539  26.313  27.939  1.00  0.00    -0.014 A 
BRANCH  28  29
ATOM     29  C   UNL A   1      41.149  27.546  28.508  1.00  0.00     0.031 A 
ATOM     30  C   UNL A   1      40.354  28.707  29.044  1.00  0.00     0.074 A 
ATOM     31  C   UNL A   1      42.496  27.602  28.473  1.00  0.00     0.049 A 
ATOM     32  N   UNL A   1      40.783  29.888  29.415  1.00  0.00    -0.248 NA
ATOM     33  C   UNL A   1      38.905  28.528  29.199  1.00  0.00     0.031 C 
ATOM     34  C   UNL A   1      43.373  26.519  28.007  1.00  0.00     0.029 A 
ATOM     35  N   UNL A   1      43.369  28.602  28.810  1.00  0.00    -0.354 N 
ATOM     36  C   UNL A   1      39.661  30.599  29.836  1.00  0.00     0.074 A 
ATOM     37  C   UNL A   1      38.529  29.709  29.683  1.00  0.00     0.031 C 
ATOM     38  C   UNL A   1      44.648  26.901  28.102  1.00  0.00     0.029 A 
ATOM     39  C   UNL A   1      44.673  28.297  28.502  1.00  0.00     0.049 A 
ATOM     40  H   UNL A   1      43.093  29.450  29.227  1.00  0.00     0.167 HD
ATOM     41  C   UNL A   1      39.592  31.880  30.280  1.00  0.00     0.031 A 
ATOM     42  C   UNL A   1      45.775  29.064  28.447  1.00  0.00     0.031 A 
ATOM     43  C   UNL A   1      40.738  32.755  30.372  1.00  0.00     0.049 A 
ATOM     44  C   UNL A   1      45.654  30.502  28.817  1.00  0.00     0.074 A 
ATOM     45  C   UNL A   1      40.787  34.070  30.806  1.00  0.00     0.029 A 
ATOM     46  N   UNL A   1      42.033  32.413  30.005  1.00  0.00    -0.354 N 
ATOM     47  N   UNL A   1      44.585  31.160  29.193  1.00  0.00    -0.248 NA
ATOM     48  C   UNL A   1      46.880  31.302  28.760  1.00  0.00     0.031 C 
ATOM     49  C   UNL A   1      42.091  34.543  30.630  1.00  0.00     0.029 A 
ATOM     50  C   UNL A   1      42.878  33.500  30.167  1.00  0.00     0.049 A 
ATOM     51  H   UNL A   1      42.312  31.527  29.678  1.00  0.00     0.167 HD
ATOM     52  C   UNL A   1      45.016  32.450  29.458  1.00  0.00     0.074 A 
ATOM     53  C   UNL A   1      46.441  32.477  29.192  1.00  0.00     0.031 C 
ATOM     54  C   UNL A   1      44.294  33.509  29.895  1.00  0.00     0.031 A 
BRANCH  41  55
ATOM     55  C   UNL A   1      38.240  32.456  30.637  1.00  0.00    -0.014 A 
ATOM     56  C   UNL A   1      37.725  32.395  31.944  1.00  0.00     0.010 A 
ATOM     57  C   UNL A   1      37.509  33.161  29.658  1.00  0.00     0.010 A 
ATOM     58  C   UNL A   1      36.499  32.998  32.257  1.00  0.00     0.020 A 
ATOM     59  C   UNL A   1      36.297  33.787  29.970  1.00  0.00     0.020 A 
ATOM     60  C   UNL A   1      35.790  33.688  31.266  1.00  0.00     0.054 A 
BRANCH  60  61
ATOM     61  S   UNL A   1      34.212  34.474  31.702  1.00  0.00     0.124 S 
ATOM     62  O   UNL A   1      34.655  35.755  32.246  1.00  0.00    -0.237 OA
ATOM     63  O   UNL A   1      33.522  34.544  30.416  1.00  0.00    -0.237 OA
ATOM     64  O   UNL A   1      33.622  33.557  32.674  1.00  0.00    -0.744 OA
ENDBRANCH  60  61
ENDBRANCH  41  55
BRANCH  42  65
ATOM     65  C   UNL A   1      47.040  28.460  27.959  1.00  0.00    -0.014 A 
ATOM     66  C   UNL A   1      47.913  27.819  28.849  1.00  0.00     0.010 A 
ATOM     67  C   UNL A   1      47.309  28.416  26.575  1.00  0.00     0.010 A 
ATOM     68  C   UNL A   1      49.035  27.140  28.364  1.00  0.00     0.020 A 
ATOM     69  C   UNL A   1      48.407  27.709  26.085  1.00  0.00     0.020 A 
ATOM     70  C   UNL A   1      49.268  27.081  26.985  1.00  0.00     0.054 A 
BRANCH  70  71
ATOM     71  S   UNL A   1      50.681  26.120  26.381  1.00  0.00     0.124 S 
ATOM     72  O   UNL A   1      51.807  26.961  26.777  1.00  0.00    -0.237 OA
ATOM     73  O   UNL A   1      50.541  24.862  27.109  1.00  0.00    -0.237 OA
ATOM     74  O   UNL A   1      50.443  26.028  24.941  1.00  0.00    -0.744 OA
ENDBRANCH  70  71
ENDBRANCH  42  65
BRANCH  54  75
ATOM     75  C   UNL A   1      45.050  34.775  30.178  1.00  0.00    -0.014 A 
ATOM     76  C   UNL A   1      45.215  35.767  29.196  1.00  0.00     0.010 A 
ATOM     77  C   UNL A   1      45.557  34.992  31.473  1.00  0.00     0.010 A 
ATOM     78  C   UNL A   1      45.887  36.951  29.503  1.00  0.00     0.020 A 
ATOM     79  C   UNL A   1      46.203  36.186  31.790  1.00  0.00     0.020 A 
ATOM     80  C   UNL A   1      46.370  37.156  30.800  1.00  0.00     0.054 A 
BRANCH  80  81
ATOM     81  S   UNL A   1      47.171  38.734  31.192  1.00  0.00     0.124 S 
ATOM     82  O   UNL A   1      48.307  38.734  30.277  1.00  0.00    -0.237 OA
ATOM     83  O   UNL A   1      46.121  39.706  30.892  1.00  0.00    -0.237 OA
ATOM     84  O   UNL A   1      47.510  38.609  32.607  1.00  0.00    -0.744 OA
ENDBRANCH  80  81
ENDBRANCH  54  75
ENDBRANCH  28  29
ENDBRANCH  21  23
ENDBRANCH  20  21
ENDBRANCH  19  20
ENDBRANCH   1  19
TORSDOF 20
ENDMDL
MODEL 3
REMARK VINA RESULT:      -8.3      6.054      8.977
REMARK SMILES C=CCN(CC(=O)OCCOC(=O)c1ccc(-c2c3nc(c(-c4ccc(S(=O)(=O)[O-])cc4)c4ccc([nH]4)c(-c4ccc(S(=O)(=O)[O-])cc4)c4nc(c(-c5ccc(S(=O)(=O)[O-])cc5)c5ccc2[nH]5)C=C4)C=C3)cc1)C(=O)NC(C)(C)CC
REMARK SMILES IDX 9 1 8 2 6 3 7 4 5 5 4 6 3 7 2 8 1 9 74 10 75 11 76 12 77 14
REMARK SMILES IDX 78 15 79 16 80 17 81 18 10 19 11 20 12 21 13 22 14 23 15 24
REMARK SMILES IDX 73 25 16 26 72 27 17 28 18 29 19 30 66 31 20 32 71 33 65 34
REMARK SMILES IDX 67 35 21 36 70 37 64 38 63 39 22 41 52 42 33 43 51 44 34 45
REMARK SMILES IDX 37 46 50 47 68 48 35 49 36 50 49 52 69 53 38 54 23 55 24 56
REMARK SMILES IDX 32 57 25 58 31 59 26 60 27 61 28 62 29 63 30 64 53 65 54 66
REMARK SMILES IDX 62 67 55 68 61 69 56 70 57 71 58 72 59 73 60 74 39 75 40 76
REMARK SMILES IDX 48 77 41 78 47 79 42 80 43 81 44 82 45 83 46 84
REMARK H PARENT 76 13 67 40 37 51
REMARK Flexibility Score: inf
ROOT
ATOM      1  C   UNL A   1      31.810  29.191  26.432  1.00  0.00     0.274 C 
ENDROOT
BRANCH   1   2
ATOM      2  O   UNL A   1      32.978  28.397  26.128  1.00  0.00    -0.461 OA
BRANCH   2   3
ATOM      3  C   UNL A   1      33.156  28.128  24.809  1.00  0.00     0.325 C 
ATOM      4  O   UNL A   1      33.277  28.989  23.939  1.00  0.00    -0.250 OA
BRANCH   3   5
ATOM      5  C   UNL A   1      33.324  26.641  24.472  1.00  0.00     0.244 C 
BRANCH   5   6
ATOM      6  N   UNL A   1      32.218  25.767  24.042  1.00  0.00    -0.310 N 
BRANCH   6   7
ATOM      7  C   UNL A   1      31.522  26.187  22.829  1.00  0.00     0.149 C 
BRANCH   7   8
ATOM      8  C   UNL A   1      32.524  26.302  21.711  1.00  0.00    -0.013 C 
ATOM      9  C   UNL A   1      32.541  25.493  20.642  1.00  0.00     0.006 C 
ENDBRANCH   7   8
ENDBRANCH   6   7
BRANCH   6  10
ATOM     10  C   UNL A   1      31.714  24.625  24.603  1.00  0.00     0.318 C 
ATOM     11  O   UNL A   1      30.645  24.660  25.229  1.00  0.00    -0.249 OA
ATOM     12  N   UNL A   1      32.075  23.392  24.177  1.00  0.00    -0.333 N 
ATOM     13  H   UNL A   1      31.324  22.897  23.779  1.00  0.00     0.165 HD
BRANCH  12  14
ATOM     14  C   UNL A   1      33.320  22.621  24.168  1.00  0.00     0.036 C 
ATOM     15  C   UNL A   1      32.937  21.159  23.901  1.00  0.00     0.034 C 
ATOM     16  C   UNL A   1      34.209  23.058  22.981  1.00  0.00     0.034 C 
BRANCH  14  17
ATOM     17  C   UNL A   1      34.172  22.780  25.425  1.00  0.00     0.024 C 
ATOM     18  C   UNL A   1      34.622  21.488  26.099  1.00  0.00     0.006 C 
ENDBRANCH  14  17
ENDBRANCH  12  14
ENDBRANCH   6  10
ENDBRANCH   5   6
ENDBRANCH   3   5
ENDBRANCH   2   3
ENDBRANCH   1   2
BRANCH   1  19
ATOM     19  C   UNL A   1      32.198  30.581  26.954  1.00  0.00     0.275 C 
BRANCH  19  20
ATOM     20  O   UNL A   1      33.591  30.979  26.934  1.00  0.00    -0.458 OA
BRANCH  20  21
ATOM     21  C   UNL A   1      34.108  31.835  27.844  1.00  0.00     0.338 C 
ATOM     22  O   UNL A   1      33.717  32.955  28.099  1.00  0.00    -0.246 OA
BRANCH  21  23
ATOM     23  C   UNL A   1      35.385  31.287  28.383  1.00  0.00     0.060 A 
ATOM     24  C   UNL A   1      36.470  32.164  28.421  1.00  0.00     0.016 A 
ATOM     25  C   UNL A   1      35.578  29.937  28.711  1.00  0.00     0.016 A 
ATOM     26  C   UNL A   1      37.755  31.678  28.670  1.00  0.00     0.010 A 
ATOM     27  C   UNL A   1      36.856  29.471  29.062  1.00  0.00     0.010 A 
ATOM     28  C   UNL A   1      37.957  30.340  29.053  1.00  0.00    -0.014 A 
BRANCH  28  29
ATOM     29  C   UNL A   1      39.242  29.962  29.702  1.00  0.00     0.031 A 
ATOM     30  C   UNL A   1      40.115  28.827  29.238  1.00  0.00     0.074 A 
ATOM     31  C   UNL A   1      39.577  30.674  30.797  1.00  0.00     0.049 A 
ATOM     32  N   UNL A   1      41.170  28.316  29.824  1.00  0.00    -0.248 NA
ATOM     33  C   UNL A   1      39.782  28.189  27.957  1.00  0.00     0.031 C 
ATOM     34  C   UNL A   1      38.823  31.823  31.318  1.00  0.00     0.029 A 
ATOM     35  N   UNL A   1      40.614  30.540  31.681  1.00  0.00    -0.354 N 
ATOM     36  C   UNL A   1      41.622  27.291  28.995  1.00  0.00     0.074 A 
ATOM     37  C   UNL A   1      40.728  27.259  27.856  1.00  0.00     0.031 C 
ATOM     38  C   UNL A   1      39.424  32.295  32.412  1.00  0.00     0.029 A 
ATOM     39  C   UNL A   1      40.521  31.404  32.746  1.00  0.00     0.049 A 
ATOM     40  H   UNL A   1      41.347  29.892  31.568  1.00  0.00     0.167 HD
ATOM     41  C   UNL A   1      42.667  26.447  29.191  1.00  0.00     0.031 A 
ATOM     42  C   UNL A   1      41.173  31.439  33.920  1.00  0.00     0.031 A 
ATOM     43  C   UNL A   1      43.507  26.477  30.366  1.00  0.00     0.049 A 
ATOM     44  C   UNL A   1      42.234  30.423  34.170  1.00  0.00     0.074 A 
ATOM     45  C   UNL A   1      44.592  25.671  30.672  1.00  0.00     0.029 A 
ATOM     46  N   UNL A   1      43.345  27.343  31.439  1.00  0.00    -0.354 N 
ATOM     47  N   UNL A   1      42.633  29.452  33.385  1.00  0.00    -0.248 NA
ATOM     48  C   UNL A   1      42.933  30.503  35.455  1.00  0.00     0.031 C 
ATOM     49  C   UNL A   1      45.035  26.000  31.957  1.00  0.00     0.029 A 
ATOM     50  C   UNL A   1      44.283  27.068  32.421  1.00  0.00     0.049 A 
ATOM     51  H   UNL A   1      42.662  28.051  31.495  1.00  0.00     0.167 HD
ATOM     52  C   UNL A   1      43.664  28.824  34.066  1.00  0.00     0.074 A 
ATOM     53  C   UNL A   1      43.819  29.524  35.327  1.00  0.00     0.031 C 
ATOM     54  C   UNL A   1      44.421  27.773  33.671  1.00  0.00     0.031 A 
BRANCH  41  55
ATOM     55  C   UNL A   1      42.937  25.369  28.164  1.00  0.00    -0.014 A 
ATOM     56  C   UNL A   1      43.814  25.573  27.084  1.00  0.00     0.010 A 
ATOM     57  C   UNL A   1      42.370  24.090  28.340  1.00  0.00     0.010 A 
ATOM     58  C   UNL A   1      44.095  24.532  26.187  1.00  0.00     0.020 A 
ATOM     59  C   UNL A   1      42.667  23.040  27.463  1.00  0.00     0.020 A 
ATOM     60  C   UNL A   1      43.516  23.272  26.381  1.00  0.00     0.054 A 
BRANCH  60  61
ATOM     61  S   UNL A   1      43.909  21.937  25.215  1.00  0.00     0.124 S 
ATOM     62  O   UNL A   1      42.874  20.954  25.523  1.00  0.00    -0.237 OA
ATOM     63  O   UNL A   1      43.782  22.595  23.917  1.00  0.00    -0.237 OA
ATOM     64  O   UNL A   1      45.268  21.542  25.580  1.00  0.00    -0.744 OA
ENDBRANCH  60  61
ENDBRANCH  41  55
BRANCH  42  65
ATOM     65  C   UNL A   1      40.762  32.442  34.934  1.00  0.00    -0.014 A 
ATOM     66  C   UNL A   1      39.921  32.078  35.995  1.00  0.00     0.010 A 
ATOM     67  C   UNL A   1      41.318  33.738  34.906  1.00  0.00     0.010 A 
ATOM     68  C   UNL A   1      39.645  32.992  37.016  1.00  0.00     0.020 A 
ATOM     69  C   UNL A   1      41.074  34.640  35.942  1.00  0.00     0.020 A 
ATOM     70  C   UNL A   1      40.232  34.263  36.987  1.00  0.00     0.054 A 
BRANCH  70  71
ATOM     71  S   UNL A   1      39.925  35.395  38.369  1.00  0.00     0.124 S 
ATOM     72  O   UNL A   1      39.784  36.676  37.682  1.00  0.00    -0.237 OA
ATOM     73  O   UNL A   1      38.703  34.852  38.956  1.00  0.00    -0.237 OA
ATOM     74  O   UNL A   1      41.121  35.256  39.198  1.00  0.00    -0.744 OA
ENDBRANCH  70  71
ENDBRANCH  42  65
BRANCH  54  75
ATOM     75  C   UNL A   1      45.533  27.354  34.590  1.00  0.00    -0.014 A 
ATOM     76  C   UNL A   1      46.781  27.999  34.572  1.00  0.00     0.010 A 
ATOM     77  C   UNL A   1      45.296  26.329  35.523  1.00  0.00     0.010 A 
ATOM     78  C   UNL A   1      47.781  27.613  35.467  1.00  0.00     0.020 A 
ATOM     79  C   UNL A   1      46.283  25.962  36.438  1.00  0.00     0.020 A 
ATOM     80  C   UNL A   1      47.522  26.603  36.400  1.00  0.00     0.054 A 
BRANCH  80  81
ATOM     81  S   UNL A   1      48.810  26.174  37.600  1.00  0.00     0.124 S 
ATOM     82  O   UNL A   1      49.252  27.489  38.055  1.00  0.00    -0.237 OA
ATOM     83  O   UNL A   1      48.076  25.381  38.584  1.00  0.00    -0.237 OA
ATOM     84  O   UNL A   1      49.786  25.428  36.810  1.00  0.00    -0.744 OA
ENDBRANCH  80  81
ENDBRANCH  54  75
ENDBRANCH  28  29
ENDBRANCH  21  23
ENDBRANCH  20  21
ENDBRANCH  19  20
ENDBRANCH   1  19
TORSDOF 20
ENDMDL
