MODEL 1
REMARK VINA RESULT:     -11.7      0.000      0.000
REMARK SMILES C[C@H]1CC=C(C2=NN=C(C(=O)OCCOC(=O)c3ccc(-c4c5nc(c(-c6ccc(S(=O)(=O)[O-])cc6)c6ccc([nH]6)c(-c6ccc(S(=O)(=O)[O-])cc6)c6nc(c(-c7ccc(S(=O)(=O)[O-])cc7)c7ccc4[nH]7)C=C6)C=C5)cc3)C2)O1
REMARK SMILES IDX 14 1 13 2 12 3 10 4 11 5 9 6 6 7 7 8 78 9 8 10 5 11 1 12
REMARK SMILES IDX 2 13 3 14 79 15 4 16 15 17 16 18 17 19 18 20 19 21 77 22
REMARK SMILES IDX 20 23 76 24 21 25 22 26 23 27 70 28 24 29 75 30 69 31 71 32
REMARK SMILES IDX 25 33 74 34 68 35 67 36 26 38 56 39 37 40 55 41 38 42 41 43
REMARK SMILES IDX 54 44 72 45 39 46 40 47 53 49 73 50 42 51 27 52 28 53 36 54
REMARK SMILES IDX 29 55 35 56 30 57 31 58 32 59 33 60 34 61 57 62 58 63 66 64
REMARK SMILES IDX 59 65 65 66 60 67 61 68 62 69 63 70 64 71 43 72 44 73 52 74
REMARK SMILES IDX 45 75 51 76 46 77 47 78 48 79 49 80 50 81
REMARK H PARENT 71 37 41 48
REMARK Flexibility Score: inf
ROOT
ATOM      1  C   UNL A   1      41.032  19.810  26.165  1.00  0.00     0.275 C 
ENDROOT
BRANCH   1   2
ATOM      2  C   UNL A   1      42.454  19.263  26.129  1.00  0.00     0.275 C 
BRANCH   2   3
ATOM      3  O   UNL A   1      42.997  19.300  24.800  1.00  0.00    -0.458 OA
BRANCH   3   4
ATOM      4  C   UNL A   1      44.342  19.341  24.731  1.00  0.00     0.355 C 
ATOM      5  O   UNL A   1      45.120  18.405  24.763  1.00  0.00    -0.245 OA
BRANCH   4   6
ATOM      6  C   UNL A   1      44.847  20.736  24.501  1.00  0.00     0.154 C 
ATOM      7  C   UNL A   1      45.760  22.726  24.891  1.00  0.00     0.111 C 
ATOM      8  N   UNL A   1      45.050  22.810  23.805  1.00  0.00    -0.151 NA
ATOM      9  C   UNL A   1      45.793  21.351  25.467  1.00  0.00     0.128 C 
ATOM     10  N   UNL A   1      44.462  21.528  23.547  1.00  0.00    -0.147 NA
BRANCH   7  11
ATOM     11  C   UNL A   1      46.375  23.851  25.612  1.00  0.00     0.139 C 
ATOM     12  C   UNL A   1      48.331  25.368  28.064  1.00  0.00     0.053 C 
ATOM     13  C   UNL A   1      47.024  25.102  27.334  1.00  0.00     0.174 C 
ATOM     14  C   UNL A   1      46.855  26.020  26.117  1.00  0.00     0.076 C 
ATOM     15  O   UNL A   1      46.941  23.728  26.877  1.00  0.00    -0.489 OA
ATOM     16  C   UNL A   1      46.265  25.088  25.138  1.00  0.00     0.025 C 
ENDBRANCH   7  11
ENDBRANCH   4   6
ENDBRANCH   3   4
ENDBRANCH   2   3
ENDBRANCH   1   2
BRANCH   1  17
ATOM     17  O   UNL A   1      40.975  21.213  25.893  1.00  0.00    -0.458 OA
BRANCH  17  18
ATOM     18  C   UNL A   1      39.781  21.785  26.157  1.00  0.00     0.338 C 
ATOM     19  O   UNL A   1      38.705  21.525  25.631  1.00  0.00    -0.246 OA
BRANCH  18  20
ATOM     20  C   UNL A   1      39.951  22.928  27.047  1.00  0.00     0.060 A 
ATOM     21  C   UNL A   1      39.120  24.038  26.857  1.00  0.00     0.016 A 
ATOM     22  C   UNL A   1      41.080  22.978  27.872  1.00  0.00     0.016 A 
ATOM     23  C   UNL A   1      39.488  25.244  27.417  1.00  0.00     0.010 A 
ATOM     24  C   UNL A   1      41.452  24.183  28.417  1.00  0.00     0.010 A 
ATOM     25  C   UNL A   1      40.682  25.313  28.141  1.00  0.00    -0.014 A 
BRANCH  25  26
ATOM     26  C   UNL A   1      41.034  26.570  28.777  1.00  0.00     0.031 A 
ATOM     27  C   UNL A   1      42.215  27.207  28.138  1.00  0.00     0.074 A 
ATOM     28  C   UNL A   1      40.248  27.141  29.710  1.00  0.00     0.049 A 
ATOM     29  N   UNL A   1      43.369  27.449  28.663  1.00  0.00    -0.248 NA
ATOM     30  C   UNL A   1      42.169  27.424  26.678  1.00  0.00     0.031 C 
ATOM     31  C   UNL A   1      38.933  26.678  30.172  1.00  0.00     0.029 A 
ATOM     32  N   UNL A   1      40.387  28.333  30.351  1.00  0.00    -0.354 N 
ATOM     33  C   UNL A   1      44.107  28.080  27.665  1.00  0.00     0.074 A 
ATOM     34  C   UNL A   1      43.410  27.839  26.430  1.00  0.00     0.031 C 
ATOM     35  C   UNL A   1      38.298  27.691  30.803  1.00  0.00     0.029 A 
ATOM     36  C   UNL A   1      39.208  28.819  30.912  1.00  0.00     0.049 A 
ATOM     37  H   UNL A   1      41.245  28.810  30.413  1.00  0.00     0.167 HD
ATOM     38  C   UNL A   1      45.049  29.012  27.972  1.00  0.00     0.031 A 
ATOM     39  C   UNL A   1      38.978  30.078  31.367  1.00  0.00     0.031 A 
ATOM     40  C   UNL A   1      45.431  28.928  29.358  1.00  0.00     0.049 A 
ATOM     41  C   UNL A   1      40.303  30.703  31.594  1.00  0.00     0.074 A 
ATOM     42  C   UNL A   1      46.047  27.988  30.155  1.00  0.00     0.029 A 
ATOM     43  N   UNL A   1      44.794  29.808  30.198  1.00  0.00    -0.354 N 
ATOM     44  N   UNL A   1      41.144  30.288  32.499  1.00  0.00    -0.248 NA
ATOM     45  C   UNL A   1      40.881  31.504  30.526  1.00  0.00     0.031 C 
ATOM     46  C   UNL A   1      45.429  28.121  31.434  1.00  0.00     0.029 A 
ATOM     47  C   UNL A   1      44.516  29.178  31.380  1.00  0.00     0.049 A 
ATOM     48  H   UNL A   1      44.572  30.743  29.985  1.00  0.00     0.167 HD
ATOM     49  C   UNL A   1      42.390  30.389  31.896  1.00  0.00     0.074 A 
ATOM     50  C   UNL A   1      42.178  31.260  30.741  1.00  0.00     0.031 C 
ATOM     51  C   UNL A   1      43.396  29.529  32.231  1.00  0.00     0.031 A 
BRANCH  38  52
ATOM     52  C   UNL A   1      45.217  30.296  27.184  1.00  0.00    -0.014 A 
ATOM     53  C   UNL A   1      46.524  30.769  26.948  1.00  0.00     0.010 A 
ATOM     54  C   UNL A   1      44.161  31.202  26.950  1.00  0.00     0.010 A 
ATOM     55  C   UNL A   1      46.762  32.104  26.593  1.00  0.00     0.020 A 
ATOM     56  C   UNL A   1      44.385  32.523  26.555  1.00  0.00     0.020 A 
ATOM     57  C   UNL A   1      45.688  32.975  26.417  1.00  0.00     0.054 A 
BRANCH  57  58
ATOM     58  S   UNL A   1      46.007  34.721  26.071  1.00  0.00     0.124 S 
ATOM     59  O   UNL A   1      46.472  35.202  27.368  1.00  0.00    -0.237 OA
ATOM     60  O   UNL A   1      47.018  34.645  25.020  1.00  0.00    -0.237 OA
ATOM     61  O   UNL A   1      44.705  35.228  25.642  1.00  0.00    -0.744 OA
ENDBRANCH  57  58
ENDBRANCH  38  52
BRANCH  39  62
ATOM     62  C   UNL A   1      37.722  30.872  31.301  1.00  0.00    -0.014 A 
ATOM     63  C   UNL A   1      36.757  30.815  32.325  1.00  0.00     0.010 A 
ATOM     64  C   UNL A   1      37.599  31.906  30.350  1.00  0.00     0.010 A 
ATOM     65  C   UNL A   1      35.737  31.782  32.419  1.00  0.00     0.020 A 
ATOM     66  C   UNL A   1      36.585  32.871  30.436  1.00  0.00     0.020 A 
ATOM     67  C   UNL A   1      35.668  32.815  31.482  1.00  0.00     0.054 A 
BRANCH  67  68
ATOM     68  S   UNL A   1      34.445  34.146  31.691  1.00  0.00     0.124 S 
ATOM     69  O   UNL A   1      33.516  33.568  32.658  1.00  0.00    -0.237 OA
ATOM     70  O   UNL A   1      35.258  35.255  32.182  1.00  0.00    -0.237 OA
ATOM     71  O   UNL A   1      33.901  34.329  30.346  1.00  0.00    -0.744 OA
ENDBRANCH  67  68
ENDBRANCH  39  62
BRANCH  51  72
ATOM     72  C   UNL A   1      43.258  28.736  33.509  1.00  0.00    -0.014 A 
ATOM     73  C   UNL A   1      43.580  29.222  34.791  1.00  0.00     0.010 A 
ATOM     74  C   UNL A   1      42.639  27.478  33.404  1.00  0.00     0.010 A 
ATOM     75  C   UNL A   1      43.306  28.455  35.935  1.00  0.00     0.020 A 
ATOM     76  C   UNL A   1      42.346  26.720  34.536  1.00  0.00     0.020 A 
ATOM     77  C   UNL A   1      42.689  27.206  35.798  1.00  0.00     0.054 A 
BRANCH  77  78
ATOM     78  S   UNL A   1      42.297  26.228  37.276  1.00  0.00     0.124 S 
ATOM     79  O   UNL A   1      40.935  26.650  37.585  1.00  0.00    -0.237 OA
ATOM     80  O   UNL A   1      42.440  24.852  36.802  1.00  0.00    -0.237 OA
ATOM     81  O   UNL A   1      43.308  26.646  38.247  1.00  0.00    -0.744 OA
ENDBRANCH  77  78
ENDBRANCH  51  72
ENDBRANCH  25  26
ENDBRANCH  18  20
ENDBRANCH  17  18
ENDBRANCH   1  17
TORSDOF 15
ENDMDL
MODEL 2
REMARK VINA RESULT:     -11.6      2.939     12.030
REMARK SMILES C[C@H]1CC=C(C2=NN=C(C(=O)OCCOC(=O)c3ccc(-c4c5nc(c(-c6ccc(S(=O)(=O)[O-])cc6)c6ccc([nH]6)c(-c6ccc(S(=O)(=O)[O-])cc6)c6nc(c(-c7ccc(S(=O)(=O)[O-])cc7)c7ccc4[nH]7)C=C6)C=C5)cc3)C2)O1
REMARK SMILES IDX 14 1 13 2 12 3 10 4 11 5 9 6 6 7 7 8 78 9 8 10 5 11 1 12
REMARK SMILES IDX 2 13 3 14 79 15 4 16 15 17 16 18 17 19 18 20 19 21 77 22
REMARK SMILES IDX 20 23 76 24 21 25 22 26 23 27 70 28 24 29 75 30 69 31 71 32
REMARK SMILES IDX 25 33 74 34 68 35 67 36 26 38 56 39 37 40 55 41 38 42 41 43
REMARK SMILES IDX 54 44 72 45 39 46 40 47 53 49 73 50 42 51 27 52 28 53 36 54
REMARK SMILES IDX 29 55 35 56 30 57 31 58 32 59 33 60 34 61 57 62 58 63 66 64
REMARK SMILES IDX 59 65 65 66 60 67 61 68 62 69 63 70 64 71 43 72 44 73 52 74
REMARK SMILES IDX 45 75 51 76 46 77 47 78 48 79 49 80 50 81
REMARK H PARENT 71 37 41 48
REMARK Flexibility Score: inf
ROOT
ATOM      1  C   UNL A   1      33.489  33.495  27.987  1.00  0.00     0.275 C 
ENDROOT
BRANCH   1   2
ATOM      2  C   UNL A   1      33.792  34.832  28.652  1.00  0.00     0.275 C 
BRANCH   2   3
ATOM      3  O   UNL A   1      32.680  35.292  29.436  1.00  0.00    -0.458 OA
BRANCH   3   4
ATOM      4  C   UNL A   1      33.005  36.049  30.502  1.00  0.00     0.355 C 
ATOM      5  O   UNL A   1      32.850  37.249  30.641  1.00  0.00    -0.245 OA
BRANCH   4   6
ATOM      6  C   UNL A   1      33.530  35.219  31.637  1.00  0.00     0.154 C 
ATOM      7  C   UNL A   1      34.918  34.001  32.876  1.00  0.00     0.111 C 
ATOM      8  N   UNL A   1      33.702  33.758  33.269  1.00  0.00    -0.151 NA
ATOM      9  C   UNL A   1      34.995  35.038  31.808  1.00  0.00     0.128 C 
ATOM     10  N   UNL A   1      32.804  34.544  32.475  1.00  0.00    -0.147 NA
BRANCH   7  11
ATOM     11  C   UNL A   1      36.124  33.270  33.293  1.00  0.00     0.139 C 
ATOM     12  C   UNL A   1      38.069  31.271  35.383  1.00  0.00     0.053 C 
ATOM     13  C   UNL A   1      37.756  32.553  34.626  1.00  0.00     0.174 C 
ATOM     14  C   UNL A   1      38.264  32.496  33.180  1.00  0.00     0.076 C 
ATOM     15  O   UNL A   1      36.329  32.815  34.591  1.00  0.00    -0.489 OA
ATOM     16  C   UNL A   1      37.157  33.156  32.464  1.00  0.00     0.025 C 
ENDBRANCH   7  11
ENDBRANCH   4   6
ENDBRANCH   3   4
ENDBRANCH   2   3
ENDBRANCH   1   2
BRANCH   1  17
ATOM     17  O   UNL A   1      34.023  32.385  28.714  1.00  0.00    -0.458 OA
BRANCH  17  18
ATOM     18  C   UNL A   1      34.536  31.405  27.941  1.00  0.00     0.338 C 
ATOM     19  O   UNL A   1      33.995  30.856  26.988  1.00  0.00    -0.246 OA
BRANCH  18  20
ATOM     20  C   UNL A   1      35.792  30.921  28.501  1.00  0.00     0.060 A 
ATOM     21  C   UNL A   1      36.713  31.865  28.966  1.00  0.00     0.016 A 
ATOM     22  C   UNL A   1      36.135  29.575  28.324  1.00  0.00     0.016 A 
ATOM     23  C   UNL A   1      38.024  31.478  29.152  1.00  0.00     0.010 A 
ATOM     24  C   UNL A   1      37.443  29.194  28.496  1.00  0.00     0.010 A 
ATOM     25  C   UNL A   1      38.384  30.159  28.857  1.00  0.00    -0.014 A 
BRANCH  25  26
ATOM     26  C   UNL A   1      39.751  29.742  29.111  1.00  0.00     0.031 A 
ATOM     27  C   UNL A   1      40.073  29.737  30.562  1.00  0.00     0.074 A 
ATOM     28  C   UNL A   1      40.539  29.251  28.135  1.00  0.00     0.049 A 
ATOM     29  N   UNL A   1      40.941  30.460  31.186  1.00  0.00    -0.248 NA
ATOM     30  C   UNL A   1      39.181  28.973  31.458  1.00  0.00     0.031 C 
ATOM     31  C   UNL A   1      40.167  28.984  26.740  1.00  0.00     0.029 A 
ATOM     32  N   UNL A   1      41.804  28.756  28.207  1.00  0.00    -0.354 N 
ATOM     33  C   UNL A   1      40.876  30.055  32.516  1.00  0.00     0.074 A 
ATOM     34  C   UNL A   1      39.650  29.316  32.657  1.00  0.00     0.031 C 
ATOM     35  C   UNL A   1      41.078  28.151  26.185  1.00  0.00     0.029 A 
ATOM     36  C   UNL A   1      42.160  27.944  27.132  1.00  0.00     0.049 A 
ATOM     37  H   UNL A   1      42.414  28.954  28.953  1.00  0.00     0.167 HD
ATOM     38  C   UNL A   1      41.978  30.082  33.312  1.00  0.00     0.031 A 
ATOM     39  C   UNL A   1      43.229  27.109  27.058  1.00  0.00     0.031 A 
ATOM     40  C   UNL A   1      43.005  30.922  32.751  1.00  0.00     0.049 A 
ATOM     41  C   UNL A   1      44.190  27.545  28.099  1.00  0.00     0.074 A 
ATOM     42  C   UNL A   1      43.133  32.263  32.464  1.00  0.00     0.029 A 
ATOM     43  N   UNL A   1      43.974  30.266  32.032  1.00  0.00    -0.354 N 
ATOM     44  N   UNL A   1      44.802  28.696  28.071  1.00  0.00    -0.248 NA
ATOM     45  C   UNL A   1      44.139  26.898  29.401  1.00  0.00     0.031 C 
ATOM     46  C   UNL A   1      43.927  32.318  31.281  1.00  0.00     0.029 A 
ATOM     47  C   UNL A   1      44.305  31.017  30.938  1.00  0.00     0.049 A 
ATOM     48  H   UNL A   1      44.368  29.395  32.266  1.00  0.00     0.167 HD
ATOM     49  C   UNL A   1      44.819  29.120  29.392  1.00  0.00     0.074 A 
ATOM     50  C   UNL A   1      44.517  27.922  30.174  1.00  0.00     0.031 C 
ATOM     51  C   UNL A   1      44.793  30.450  29.696  1.00  0.00     0.031 A 
BRANCH  38  52
ATOM     52  C   UNL A   1      42.316  28.966  34.282  1.00  0.00    -0.014 A 
ATOM     53  C   UNL A   1      42.827  27.760  33.761  1.00  0.00     0.010 A 
ATOM     54  C   UNL A   1      41.860  28.939  35.617  1.00  0.00     0.010 A 
ATOM     55  C   UNL A   1      42.792  26.573  34.504  1.00  0.00     0.020 A 
ATOM     56  C   UNL A   1      41.859  27.770  36.381  1.00  0.00     0.020 A 
ATOM     57  C   UNL A   1      42.290  26.585  35.805  1.00  0.00     0.054 A 
BRANCH  57  58
ATOM     58  S   UNL A   1      42.143  25.031  36.716  1.00  0.00     0.124 S 
ATOM     59  O   UNL A   1      42.019  24.060  35.633  1.00  0.00    -0.237 OA
ATOM     60  O   UNL A   1      43.396  24.995  37.464  1.00  0.00    -0.237 OA
ATOM     61  O   UNL A   1      40.942  25.222  37.527  1.00  0.00    -0.744 OA
ENDBRANCH  57  58
ENDBRANCH  38  52
BRANCH  39  62
ATOM     62  C   UNL A   1      43.325  25.784  26.389  1.00  0.00    -0.014 A 
ATOM     63  C   UNL A   1      44.209  25.561  25.315  1.00  0.00     0.010 A 
ATOM     64  C   UNL A   1      42.739  24.653  26.993  1.00  0.00     0.010 A 
ATOM     65  C   UNL A   1      44.528  24.255  24.893  1.00  0.00     0.020 A 
ATOM     66  C   UNL A   1      43.050  23.350  26.576  1.00  0.00     0.020 A 
ATOM     67  C   UNL A   1      43.958  23.156  25.539  1.00  0.00     0.054 A 
BRANCH  67  68
ATOM     68  S   UNL A   1      44.485  21.472  25.093  1.00  0.00     0.124 S 
ATOM     69  O   UNL A   1      44.384  21.488  23.637  1.00  0.00    -0.237 OA
ATOM     70  O   UNL A   1      45.841  21.408  25.631  1.00  0.00    -0.237 OA
ATOM     71  O   UNL A   1      43.512  20.616  25.771  1.00  0.00    -0.744 OA
ENDBRANCH  67  68
ENDBRANCH  39  62
BRANCH  51  72
ATOM     72  C   UNL A   1      45.126  31.436  28.601  1.00  0.00    -0.014 A 
ATOM     73  C   UNL A   1      44.188  31.983  27.704  1.00  0.00     0.010 A 
ATOM     74  C   UNL A   1      46.442  31.929  28.580  1.00  0.00     0.010 A 
ATOM     75  C   UNL A   1      44.569  32.984  26.795  1.00  0.00     0.020 A 
ATOM     76  C   UNL A   1      46.822  32.936  27.694  1.00  0.00     0.020 A 
ATOM     77  C   UNL A   1      45.887  33.454  26.798  1.00  0.00     0.054 A 
BRANCH  77  78
ATOM     78  S   UNL A   1      46.374  34.775  25.652  1.00  0.00     0.124 S 
ATOM     79  O   UNL A   1      46.143  35.981  26.440  1.00  0.00    -0.237 OA
ATOM     80  O   UNL A   1      47.775  34.462  25.372  1.00  0.00    -0.237 OA
ATOM     81  O   UNL A   1      45.472  34.600  24.514  1.00  0.00    -0.744 OA
ENDBRANCH  77  78
ENDBRANCH  51  72
ENDBRANCH  25  26
ENDBRANCH  18  20
ENDBRANCH  17  18
ENDBRANCH   1  17
TORSDOF 15
ENDMDL
MODEL 3
REMARK VINA RESULT:     -11.5      3.880     11.383
REMARK SMILES C[C@H]1CC=C(C2=NN=C(C(=O)OCCOC(=O)c3ccc(-c4c5nc(c(-c6ccc(S(=O)(=O)[O-])cc6)c6ccc([nH]6)c(-c6ccc(S(=O)(=O)[O-])cc6)c6nc(c(-c7ccc(S(=O)(=O)[O-])cc7)c7ccc4[nH]7)C=C6)C=C5)cc3)C2)O1
REMARK SMILES IDX 14 1 13 2 12 3 10 4 11 5 9 6 6 7 7 8 78 9 8 10 5 11 1 12
REMARK SMILES IDX 2 13 3 14 79 15 4 16 15 17 16 18 17 19 18 20 19 21 77 22
REMARK SMILES IDX 20 23 76 24 21 25 22 26 23 27 70 28 24 29 75 30 69 31 71 32
REMARK SMILES IDX 25 33 74 34 68 35 67 36 26 38 56 39 37 40 55 41 38 42 41 43
REMARK SMILES IDX 54 44 72 45 39 46 40 47 53 49 73 50 42 51 27 52 28 53 36 54
REMARK SMILES IDX 29 55 35 56 30 57 31 58 32 59 33 60 34 61 57 62 58 63 66 64
REMARK SMILES IDX 59 65 65 66 60 67 61 68 62 69 63 70 64 71 43 72 44 73 52 74
REMARK SMILES IDX 45 75 51 76 46 77 47 78 48 79 49 80 50 81
REMARK H PARENT 71 37 41 48
REMARK Flexibility Score: inf
ROOT
ATOM      1  C   UNL A   1      32.920  36.546  28.771  1.00  0.00     0.275 C 
ENDROOT
BRANCH   1   2
ATOM      2  C   UNL A   1      33.275  37.449  29.946  1.00  0.00     0.275 C 
BRANCH   2   3
ATOM      3  O   UNL A   1      32.572  37.059  31.138  1.00  0.00    -0.458 OA
BRANCH   3   4
ATOM      4  C   UNL A   1      33.299  37.102  32.271  1.00  0.00     0.355 C 
ATOM      5  O   UNL A   1      33.683  38.087  32.875  1.00  0.00    -0.245 OA
BRANCH   4   6
ATOM      6  C   UNL A   1      33.544  35.730  32.830  1.00  0.00     0.154 C 
ATOM      7  C   UNL A   1      34.610  33.965  33.663  1.00  0.00     0.111 C 
ATOM      8  N   UNL A   1      33.461  33.567  33.201  1.00  0.00    -0.151 NA
ATOM      9  C   UNL A   1      34.806  35.440  33.558  1.00  0.00     0.128 C 
ATOM     10  N   UNL A   1      32.769  34.702  32.666  1.00  0.00    -0.147 NA
BRANCH   7  11
ATOM     11  C   UNL A   1      35.705  33.099  34.125  1.00  0.00     0.139 C 
ATOM     12  C   UNL A   1      37.831  31.635  36.466  1.00  0.00     0.053 C 
ATOM     13  C   UNL A   1      37.530  32.482  35.239  1.00  0.00     0.174 C 
ATOM     14  C   UNL A   1      37.437  31.627  33.968  1.00  0.00     0.076 C 
ATOM     15  O   UNL A   1      36.281  33.206  35.386  1.00  0.00    -0.489 OA
ATOM     16  C   UNL A   1      36.305  32.270  33.276  1.00  0.00     0.025 C 
ENDBRANCH   7  11
ENDBRANCH   4   6
ENDBRANCH   3   4
ENDBRANCH   2   3
ENDBRANCH   1   2
BRANCH   1  17
ATOM     17  O   UNL A   1      32.527  35.235  29.183  1.00  0.00    -0.458 OA
BRANCH  17  18
ATOM     18  C   UNL A   1      33.015  34.238  28.415  1.00  0.00     0.338 C 
ATOM     19  O   UNL A   1      32.390  33.540  27.625  1.00  0.00    -0.246 OA
BRANCH  18  20
ATOM     20  C   UNL A   1      34.397  33.946  28.778  1.00  0.00     0.060 A 
ATOM     21  C   UNL A   1      35.353  33.921  27.757  1.00  0.00     0.016 A 
ATOM     22  C   UNL A   1      34.669  33.459  30.062  1.00  0.00     0.016 A 
ATOM     23  C   UNL A   1      36.563  33.301  27.996  1.00  0.00     0.010 A 
ATOM     24  C   UNL A   1      35.868  32.831  30.294  1.00  0.00     0.010 A 
ATOM     25  C   UNL A   1      36.781  32.712  29.246  1.00  0.00    -0.014 A 
BRANCH  25  26
ATOM     26  C   UNL A   1      38.076  32.113  29.512  1.00  0.00     0.031 A 
ATOM     27  C   UNL A   1      38.097  30.662  29.191  1.00  0.00     0.074 A 
ATOM     28  C   UNL A   1      39.152  32.857  29.834  1.00  0.00     0.049 A 
ATOM     29  N   UNL A   1      38.279  29.672  29.999  1.00  0.00    -0.248 NA
ATOM     30  C   UNL A   1      37.666  30.254  27.839  1.00  0.00     0.031 C 
ATOM     31  C   UNL A   1      39.237  34.321  29.893  1.00  0.00     0.029 A 
ATOM     32  N   UNL A   1      40.440  32.473  30.047  1.00  0.00    -0.354 N 
ATOM     33  C   UNL A   1      38.236  28.530  29.204  1.00  0.00     0.074 A 
ATOM     34  C   UNL A   1      37.648  28.926  27.953  1.00  0.00     0.031 C 
ATOM     35  C   UNL A   1      40.537  34.696  29.865  1.00  0.00     0.029 A 
ATOM     36  C   UNL A   1      41.368  33.506  29.927  1.00  0.00     0.049 A 
ATOM     37  H   UNL A   1      40.694  31.548  30.265  1.00  0.00     0.167 HD
ATOM     38  C   UNL A   1      38.975  27.431  29.516  1.00  0.00     0.031 A 
ATOM     39  C   UNL A   1      42.717  33.383  29.818  1.00  0.00     0.031 A 
ATOM     40  C   UNL A   1      39.415  27.470  30.886  1.00  0.00     0.049 A 
ATOM     41  C   UNL A   1      43.068  32.028  30.305  1.00  0.00     0.074 A 
ATOM     42  C   UNL A   1      38.800  27.453  32.119  1.00  0.00     0.029 A 
ATOM     43  N   UNL A   1      40.688  27.947  31.082  1.00  0.00    -0.354 N 
ATOM     44  N   UNL A   1      42.908  31.649  31.542  1.00  0.00    -0.248 NA
ATOM     45  C   UNL A   1      43.179  30.952  29.333  1.00  0.00     0.031 C 
ATOM     46  C   UNL A   1      39.604  28.288  32.949  1.00  0.00     0.029 A 
ATOM     47  C   UNL A   1      40.708  28.722  32.209  1.00  0.00     0.049 A 
ATOM     48  H   UNL A   1      41.463  27.761  30.504  1.00  0.00     0.167 HD
ATOM     49  C   UNL A   1      42.460  30.339  31.455  1.00  0.00     0.074 A 
ATOM     50  C   UNL A   1      42.771  29.926  30.088  1.00  0.00     0.031 C 
ATOM     51  C   UNL A   1      41.630  29.823  32.408  1.00  0.00     0.031 A 
BRANCH  38  52
ATOM     52  C   UNL A   1      39.722  26.624  28.471  1.00  0.00    -0.014 A 
ATOM     53  C   UNL A   1      39.280  25.314  28.197  1.00  0.00     0.010 A 
ATOM     54  C   UNL A   1      41.002  26.976  27.993  1.00  0.00     0.010 A 
ATOM     55  C   UNL A   1      40.113  24.381  27.567  1.00  0.00     0.020 A 
ATOM     56  C   UNL A   1      41.825  26.066  27.326  1.00  0.00     0.020 A 
ATOM     57  C   UNL A   1      41.389  24.762  27.152  1.00  0.00     0.054 A 
BRANCH  57  58
ATOM     58  S   UNL A   1      42.500  23.524  26.443  1.00  0.00     0.124 S 
ATOM     59  O   UNL A   1      41.595  22.399  26.227  1.00  0.00    -0.237 OA
ATOM     60  O   UNL A   1      42.979  24.197  25.239  1.00  0.00    -0.237 OA
ATOM     61  O   UNL A   1      43.505  23.330  27.486  1.00  0.00    -0.744 OA
ENDBRANCH  57  58
ENDBRANCH  38  52
BRANCH  39  62
ATOM     62  C   UNL A   1      43.661  34.215  29.025  1.00  0.00    -0.014 A 
ATOM     63  C   UNL A   1      44.962  34.497  29.484  1.00  0.00     0.010 A 
ATOM     64  C   UNL A   1      43.371  34.506  27.676  1.00  0.00     0.010 A 
ATOM     65  C   UNL A   1      45.947  35.007  28.615  1.00  0.00     0.020 A 
ATOM     66  C   UNL A   1      44.345  35.016  26.806  1.00  0.00     0.020 A 
ATOM     67  C   UNL A   1      45.636  35.247  27.275  1.00  0.00     0.054 A 
BRANCH  67  68
ATOM     68  S   UNL A   1      46.946  35.762  26.121  1.00  0.00     0.124 S 
ATOM     69  O   UNL A   1      46.771  34.827  25.013  1.00  0.00    -0.237 OA
ATOM     70  O   UNL A   1      46.595  37.150  25.837  1.00  0.00    -0.237 OA
ATOM     71  O   UNL A   1      48.175  35.582  26.892  1.00  0.00    -0.744 OA
ENDBRANCH  67  68
ENDBRANCH  39  62
BRANCH  51  72
ATOM     72  C   UNL A   1      41.518  30.554  33.725  1.00  0.00    -0.014 A 
ATOM     73  C   UNL A   1      42.011  30.071  34.953  1.00  0.00     0.010 A 
ATOM     74  C   UNL A   1      41.003  31.861  33.676  1.00  0.00     0.010 A 
ATOM     75  C   UNL A   1      41.968  30.874  36.105  1.00  0.00     0.020 A 
ATOM     76  C   UNL A   1      40.975  32.670  34.811  1.00  0.00     0.020 A 
ATOM     77  C   UNL A   1      41.449  32.171  36.024  1.00  0.00     0.054 A 
BRANCH  77  78
ATOM     78  S   UNL A   1      41.427  33.226  37.501  1.00  0.00     0.124 S 
ATOM     79  O   UNL A   1      40.721  34.415  37.032  1.00  0.00    -0.237 OA
ATOM     80  O   UNL A   1      40.707  32.408  38.474  1.00  0.00    -0.237 OA
ATOM     81  O   UNL A   1      42.843  33.429  37.804  1.00  0.00    -0.744 OA
ENDBRANCH  77  78
ENDBRANCH  51  72
ENDBRANCH  25  26
ENDBRANCH  18  20
ENDBRANCH  17  18
ENDBRANCH   1  17
TORSDOF 15
ENDMDL
