MODEL 1
REMARK VINA RESULT:     -12.1      0.000      0.000
REMARK SMILES Cc1ccc(C(=O)N2CCC3(CCC(=O)N(CC(=O)OCCOC(=O)c4ccc(-c5c6nc(c(-c7ccc(S(=O)(=O)[O-])cc7)c7ccc([nH]7)c(-c7ccc(S(=O)(=O)[O-])cc7)c7nc(c(-c8ccc(S(=O)(=O)[O-])cc8)c8ccc5[nH]8)C=C7)C=C6)cc4)C3)CC2)cc1O
REMARK SMILES IDX 21 1 20 2 18 3 19 4 17 5 16 6 6 7 7 8 8 9 9 10 88 11 10 12
REMARK SMILES IDX 87 13 11 14 12 15 86 16 13 17 14 18 15 19 5 20 1 21 2 22
REMARK SMILES IDX 3 23 90 24 4 25 89 26 91 27 22 29 23 30 24 31 25 32 26 33
REMARK SMILES IDX 27 34 85 35 28 36 84 37 29 38 30 39 31 40 78 41 32 42 83 43
REMARK SMILES IDX 77 44 79 45 33 46 82 47 76 48 75 49 34 51 64 52 45 53 63 54
REMARK SMILES IDX 46 55 49 56 62 57 80 58 47 59 48 60 61 62 81 63 50 64 35 65
REMARK SMILES IDX 36 66 44 67 37 68 43 69 38 70 39 71 40 72 41 73 42 74 65 75
REMARK SMILES IDX 66 76 74 77 67 78 73 79 68 80 69 81 70 82 71 83 72 84 51 85
REMARK SMILES IDX 52 86 60 87 53 88 59 89 54 90 55 91 56 92 57 93 58 94
REMARK H PARENT 91 28 79 50 49 61
REMARK Flexibility Score: inf
ROOT
ATOM      1  C   UNL A   1      33.580  31.076  27.541  1.00  0.00     0.274 C 
ENDROOT
BRANCH   1   2
ATOM      2  O   UNL A   1      33.627  30.075  26.510  1.00  0.00    -0.461 OA
BRANCH   2   3
ATOM      3  C   UNL A   1      32.754  29.048  26.641  1.00  0.00     0.325 C 
ATOM      4  O   UNL A   1      32.807  28.190  27.517  1.00  0.00    -0.250 OA
BRANCH   3   5
ATOM      5  C   UNL A   1      31.639  29.053  25.600  1.00  0.00     0.242 C 
BRANCH   5   6
ATOM      6  N   UNL A   1      31.943  28.757  24.201  1.00  0.00    -0.331 N 
ATOM      7  C   UNL A   1      33.957  22.655  25.158  1.00  0.00     0.253 C 
ATOM      8  O   UNL A   1      33.334  21.830  25.820  1.00  0.00    -0.269 OA
ATOM      9  N   UNL A   1      33.333  23.681  24.459  1.00  0.00    -0.339 N 
ATOM     10  C   UNL A   1      32.071  24.204  24.951  1.00  0.00     0.120 C 
ATOM     11  C   UNL A   1      33.716  24.122  23.127  1.00  0.00     0.120 C 
ATOM     12  C   UNL A   1      32.173  25.730  25.028  1.00  0.00     0.030 C 
ATOM     13  C   UNL A   1      33.795  25.642  23.058  1.00  0.00     0.030 C 
ATOM     14  C   UNL A   1      32.576  26.386  23.677  1.00  0.00    -0.008 C 
ATOM     15  C   UNL A   1      31.387  26.391  22.677  1.00  0.00     0.019 C 
ATOM     16  C   UNL A   1      33.027  27.852  23.898  1.00  0.00     0.127 C 
ATOM     17  C   UNL A   1      30.305  27.409  23.033  1.00  0.00     0.101 C 
ATOM     18  C   UNL A   1      30.896  28.781  23.289  1.00  0.00     0.223 C 
ATOM     19  O   UNL A   1      30.439  29.812  22.816  1.00  0.00    -0.275 OA
BRANCH   7  20
ATOM     20  C   UNL A   1      35.444  22.654  25.247  1.00  0.00     0.043 A 
ATOM     21  C   UNL A   1      39.657  22.397  26.176  1.00  0.00     0.048 C 
ATOM     22  C   UNL A   1      38.205  22.477  25.806  1.00  0.00    -0.009 A 
ATOM     23  C   UNL A   1      37.497  23.655  26.073  1.00  0.00     0.008 A 
ATOM     24  C   UNL A   1      37.506  21.393  25.260  1.00  0.00     0.119 A 
ATOM     25  C   UNL A   1      36.127  23.737  25.812  1.00  0.00     0.014 A 
ATOM     26  C   UNL A   1      36.144  21.477  24.969  1.00  0.00     0.060 A 
BRANCH  24  27
ATOM     27  O   UNL A   1      38.103  20.186  25.019  1.00  0.00    -0.508 OA
ATOM     28  H   UNL A   1      38.629  20.069  24.253  1.00  0.00     0.293 HD
ENDBRANCH  24  27
ENDBRANCH   7  20
ENDBRANCH   5   6
ENDBRANCH   3   5
ENDBRANCH   2   3
ENDBRANCH   1   2
BRANCH   1  29
ATOM     29  C   UNL A   1      34.959  31.266  28.169  1.00  0.00     0.275 C 
BRANCH  29  30
ATOM     30  O   UNL A   1      35.613  29.992  28.323  1.00  0.00    -0.458 OA
BRANCH  30  31
ATOM     31  C   UNL A   1      36.319  29.834  29.464  1.00  0.00     0.338 C 
ATOM     32  O   UNL A   1      35.909  29.837  30.610  1.00  0.00    -0.246 OA
BRANCH  31  33
ATOM     33  C   UNL A   1      37.748  29.696  29.159  1.00  0.00     0.060 A 
ATOM     34  C   UNL A   1      38.182  29.589  27.837  1.00  0.00     0.016 A 
ATOM     35  C   UNL A   1      38.637  29.517  30.219  1.00  0.00     0.016 A 
ATOM     36  C   UNL A   1      39.506  29.240  27.574  1.00  0.00     0.010 A 
ATOM     37  C   UNL A   1      39.974  29.224  29.952  1.00  0.00     0.010 A 
ATOM     38  C   UNL A   1      40.412  29.051  28.629  1.00  0.00    -0.014 A 
BRANCH  38  39
ATOM     39  C   UNL A   1      41.816  28.659  28.355  1.00  0.00     0.031 A 
ATOM     40  C   UNL A   1      42.906  29.697  28.348  1.00  0.00     0.074 A 
ATOM     41  C   UNL A   1      42.105  27.369  28.096  1.00  0.00     0.049 A 
ATOM     42  N   UNL A   1      44.167  29.562  28.026  1.00  0.00    -0.248 NA
ATOM     43  C   UNL A   1      42.530  31.064  28.744  1.00  0.00     0.031 C 
ATOM     44  C   UNL A   1      41.136  26.271  28.085  1.00  0.00     0.029 A 
ATOM     45  N   UNL A   1      43.297  26.766  27.786  1.00  0.00    -0.354 N 
ATOM     46  C   UNL A   1      44.727  30.830  28.145  1.00  0.00     0.074 A 
ATOM     47  C   UNL A   1      43.670  31.721  28.568  1.00  0.00     0.031 C 
ATOM     48  C   UNL A   1      41.773  25.127  27.790  1.00  0.00     0.029 A 
ATOM     49  C   UNL A   1      43.181  25.418  27.542  1.00  0.00     0.049 A 
ATOM     50  H   UNL A   1      44.152  27.252  27.740  1.00  0.00     0.167 HD
ATOM     51  C   UNL A   1      46.006  31.213  27.918  1.00  0.00     0.031 A 
ATOM     52  C   UNL A   1      44.098  24.521  27.133  1.00  0.00     0.031 A 
ATOM     53  C   UNL A   1      47.061  30.318  27.522  1.00  0.00     0.049 A 
ATOM     54  C   UNL A   1      45.507  24.974  26.885  1.00  0.00     0.074 A 
ATOM     55  C   UNL A   1      48.396  30.608  27.295  1.00  0.00     0.029 A 
ATOM     56  N   UNL A   1      46.903  28.960  27.294  1.00  0.00    -0.354 N 
ATOM     57  N   UNL A   1      46.017  26.176  27.007  1.00  0.00    -0.248 NA
ATOM     58  C   UNL A   1      46.464  23.951  26.441  1.00  0.00     0.031 C 
ATOM     59  C   UNL A   1      49.039  29.429  26.902  1.00  0.00     0.029 A 
ATOM     60  C   UNL A   1      48.112  28.400  26.918  1.00  0.00     0.049 A 
ATOM     61  H   UNL A   1      46.057  28.466  27.388  1.00  0.00     0.167 HD
ATOM     62  C   UNL A   1      47.357  26.053  26.663  1.00  0.00     0.074 A 
ATOM     63  C   UNL A   1      47.584  24.656  26.347  1.00  0.00     0.031 C 
ATOM     64  C   UNL A   1      48.314  27.010  26.606  1.00  0.00     0.031 A 
BRANCH  51  65
ATOM     65  C   UNL A   1      46.339  32.671  28.065  1.00  0.00    -0.014 A 
ATOM     66  C   UNL A   1      46.205  33.562  26.985  1.00  0.00     0.010 A 
ATOM     67  C   UNL A   1      46.720  33.171  29.324  1.00  0.00     0.010 A 
ATOM     68  C   UNL A   1      46.465  34.925  27.158  1.00  0.00     0.020 A 
ATOM     69  C   UNL A   1      46.966  34.536  29.504  1.00  0.00     0.020 A 
ATOM     70  C   UNL A   1      46.847  35.403  28.416  1.00  0.00     0.054 A 
BRANCH  70  71
ATOM     71  S   UNL A   1      47.133  37.182  28.630  1.00  0.00     0.124 S 
ATOM     72  O   UNL A   1      46.529  37.730  27.417  1.00  0.00    -0.237 OA
ATOM     73  O   UNL A   1      46.424  37.478  29.872  1.00  0.00    -0.237 OA
ATOM     74  O   UNL A   1      48.587  37.292  28.706  1.00  0.00    -0.744 OA
ENDBRANCH  70  71
ENDBRANCH  51  65
BRANCH  52  75
ATOM     75  C   UNL A   1      43.694  23.111  26.894  1.00  0.00    -0.014 A 
ATOM     76  C   UNL A   1      43.043  22.372  27.896  1.00  0.00     0.010 A 
ATOM     77  C   UNL A   1      43.946  22.508  25.649  1.00  0.00     0.010 A 
ATOM     78  C   UNL A   1      42.664  21.047  27.660  1.00  0.00     0.020 A 
ATOM     79  C   UNL A   1      43.548  21.193  25.402  1.00  0.00     0.020 A 
ATOM     80  C   UNL A   1      42.921  20.465  26.416  1.00  0.00     0.054 A 
BRANCH  80  81
ATOM     81  S   UNL A   1      42.373  18.764  26.101  1.00  0.00     0.124 S 
ATOM     82  O   UNL A   1      40.974  18.960  25.736  1.00  0.00    -0.237 OA
ATOM     83  O   UNL A   1      43.257  18.336  25.019  1.00  0.00    -0.237 OA
ATOM     84  O   UNL A   1      42.601  18.095  27.380  1.00  0.00    -0.744 OA
ENDBRANCH  80  81
ENDBRANCH  52  75
BRANCH  64  85
ATOM     85  C   UNL A   1      49.695  26.573  26.207  1.00  0.00    -0.014 A 
ATOM     86  C   UNL A   1      50.196  26.855  24.925  1.00  0.00     0.010 A 
ATOM     87  C   UNL A   1      50.511  25.907  27.138  1.00  0.00     0.010 A 
ATOM     88  C   UNL A   1      51.486  26.451  24.569  1.00  0.00     0.020 A 
ATOM     89  C   UNL A   1      51.807  25.518  26.791  1.00  0.00     0.020 A 
ATOM     90  C   UNL A   1      52.280  25.780  25.503  1.00  0.00     0.054 A 
BRANCH  90  91
ATOM     91  S   UNL A   1      53.965  25.293  25.036  1.00  0.00     0.124 S 
ATOM     92  O   UNL A   1      54.748  25.797  26.161  1.00  0.00    -0.237 OA
ATOM     93  O   UNL A   1      53.869  23.839  24.940  1.00  0.00    -0.237 OA
ATOM     94  O   UNL A   1      54.181  25.982  23.765  1.00  0.00    -0.744 OA
ENDBRANCH  90  91
ENDBRANCH  64  85
ENDBRANCH  38  39
ENDBRANCH  31  33
ENDBRANCH  30  31
ENDBRANCH  29  30
ENDBRANCH   1  29
TORSDOF 17
ENDMDL
MODEL 2
REMARK VINA RESULT:     -11.9      6.270     12.068
REMARK SMILES Cc1ccc(C(=O)N2CCC3(CCC(=O)N(CC(=O)OCCOC(=O)c4ccc(-c5c6nc(c(-c7ccc(S(=O)(=O)[O-])cc7)c7ccc([nH]7)c(-c7ccc(S(=O)(=O)[O-])cc7)c7nc(c(-c8ccc(S(=O)(=O)[O-])cc8)c8ccc5[nH]8)C=C7)C=C6)cc4)C3)CC2)cc1O
REMARK SMILES IDX 21 1 20 2 18 3 19 4 17 5 16 6 6 7 7 8 8 9 9 10 88 11 10 12
REMARK SMILES IDX 87 13 11 14 12 15 86 16 13 17 14 18 15 19 5 20 1 21 2 22
REMARK SMILES IDX 3 23 90 24 4 25 89 26 91 27 22 29 23 30 24 31 25 32 26 33
REMARK SMILES IDX 27 34 85 35 28 36 84 37 29 38 30 39 31 40 78 41 32 42 83 43
REMARK SMILES IDX 77 44 79 45 33 46 82 47 76 48 75 49 34 51 64 52 45 53 63 54
REMARK SMILES IDX 46 55 49 56 62 57 80 58 47 59 48 60 61 62 81 63 50 64 35 65
REMARK SMILES IDX 36 66 44 67 37 68 43 69 38 70 39 71 40 72 41 73 42 74 65 75
REMARK SMILES IDX 66 76 74 77 67 78 73 79 68 80 69 81 70 82 71 83 72 84 51 85
REMARK SMILES IDX 52 86 60 87 53 88 59 89 54 90 55 91 56 92 57 93 58 94
REMARK H PARENT 91 28 79 50 49 61
REMARK Flexibility Score: inf
ROOT
ATOM      1  C   UNL A   1      38.706  21.778  25.706  1.00  0.00     0.274 C 
ENDROOT
BRANCH   1   2
ATOM      2  O   UNL A   1      37.316  21.985  26.011  1.00  0.00    -0.461 OA
BRANCH   2   3
ATOM      3  C   UNL A   1      36.591  22.625  25.064  1.00  0.00     0.325 C 
ATOM      4  O   UNL A   1      36.942  23.647  24.482  1.00  0.00    -0.250 OA
BRANCH   3   5
ATOM      5  C   UNL A   1      35.267  21.940  24.737  1.00  0.00     0.242 C 
BRANCH   5   6
ATOM      6  N   UNL A   1      34.163  21.987  25.694  1.00  0.00    -0.331 N 
ATOM      7  C   UNL A   1      31.849  27.775  23.866  1.00  0.00     0.253 C 
ATOM      8  O   UNL A   1      31.638  28.084  22.696  1.00  0.00    -0.269 OA
ATOM      9  N   UNL A   1      31.753  26.467  24.325  1.00  0.00    -0.339 N 
ATOM     10  C   UNL A   1      32.021  25.376  23.406  1.00  0.00     0.120 C 
ATOM     11  C   UNL A   1      31.165  26.083  25.598  1.00  0.00     0.120 C 
ATOM     12  C   UNL A   1      33.026  24.424  24.061  1.00  0.00     0.030 C 
ATOM     13  C   UNL A   1      32.053  25.082  26.328  1.00  0.00     0.030 C 
ATOM     14  C   UNL A   1      32.560  23.902  25.450  1.00  0.00    -0.008 C 
ATOM     15  C   UNL A   1      31.448  22.827  25.303  1.00  0.00     0.019 C 
ATOM     16  C   UNL A   1      33.747  23.267  26.218  1.00  0.00     0.127 C 
ATOM     17  C   UNL A   1      31.972  21.485  24.794  1.00  0.00     0.101 C 
ATOM     18  C   UNL A   1      33.174  21.019  25.592  1.00  0.00     0.223 C 
ATOM     19  O   UNL A   1      33.299  19.880  26.020  1.00  0.00    -0.275 OA
BRANCH   7  20
ATOM     20  C   UNL A   1      32.392  28.816  24.784  1.00  0.00     0.043 A 
ATOM     21  C   UNL A   1      33.754  31.389  27.978  1.00  0.00     0.048 C 
ATOM     22  C   UNL A   1      33.318  30.513  26.841  1.00  0.00    -0.009 A 
ATOM     23  C   UNL A   1      32.016  30.641  26.341  1.00  0.00     0.008 A 
ATOM     24  C   UNL A   1      34.142  29.520  26.296  1.00  0.00     0.119 A 
ATOM     25  C   UNL A   1      31.552  29.790  25.336  1.00  0.00     0.014 A 
ATOM     26  C   UNL A   1      33.696  28.686  25.270  1.00  0.00     0.060 A 
BRANCH  24  27
ATOM     27  O   UNL A   1      35.407  29.286  26.758  1.00  0.00    -0.508 OA
ATOM     28  H   UNL A   1      35.955  30.004  27.007  1.00  0.00     0.293 HD
ENDBRANCH  24  27
ENDBRANCH   7  20
ENDBRANCH   5   6
ENDBRANCH   3   5
ENDBRANCH   2   3
ENDBRANCH   1   2
BRANCH   1  29
ATOM     29  C   UNL A   1      39.593  22.492  26.725  1.00  0.00     0.275 C 
BRANCH  29  30
ATOM     30  O   UNL A   1      39.530  23.917  26.524  1.00  0.00    -0.458 OA
BRANCH  30  31
ATOM     31  C   UNL A   1      40.704  24.575  26.647  1.00  0.00     0.338 C 
ATOM     32  O   UNL A   1      41.782  24.289  26.160  1.00  0.00    -0.246 OA
BRANCH  31  33
ATOM     33  C   UNL A   1      40.544  25.731  27.536  1.00  0.00     0.060 A 
ATOM     34  C   UNL A   1      41.457  26.785  27.498  1.00  0.00     0.016 A 
ATOM     35  C   UNL A   1      39.556  25.677  28.520  1.00  0.00     0.016 A 
ATOM     36  C   UNL A   1      41.420  27.764  28.490  1.00  0.00     0.010 A 
ATOM     37  C   UNL A   1      39.486  26.688  29.478  1.00  0.00     0.010 A 
ATOM     38  C   UNL A   1      40.437  27.722  29.490  1.00  0.00    -0.014 A 
BRANCH  38  39
ATOM     39  C   UNL A   1      40.406  28.748  30.560  1.00  0.00     0.031 A 
ATOM     40  C   UNL A   1      41.337  28.647  31.739  1.00  0.00     0.074 A 
ATOM     41  C   UNL A   1      39.524  29.763  30.478  1.00  0.00     0.049 A 
ATOM     42  N   UNL A   1      41.381  29.386  32.817  1.00  0.00    -0.248 NA
ATOM     43  C   UNL A   1      42.342  27.571  31.705  1.00  0.00     0.031 C 
ATOM     44  C   UNL A   1      38.578  29.975  29.380  1.00  0.00     0.029 A 
ATOM     45  N   UNL A   1      39.276  30.804  31.336  1.00  0.00    -0.354 N 
ATOM     46  C   UNL A   1      42.392  28.845  33.607  1.00  0.00     0.074 A 
ATOM     47  C   UNL A   1      42.935  27.716  32.884  1.00  0.00     0.031 C 
ATOM     48  C   UNL A   1      37.857  31.080  29.628  1.00  0.00     0.029 A 
ATOM     49  C   UNL A   1      38.255  31.624  30.923  1.00  0.00     0.049 A 
ATOM     50  H   UNL A   1      39.781  30.948  32.170  1.00  0.00     0.167 HD
ATOM     51  C   UNL A   1      42.822  29.253  34.824  1.00  0.00     0.031 A 
ATOM     52  C   UNL A   1      37.678  32.678  31.530  1.00  0.00     0.031 A 
ATOM     53  C   UNL A   1      42.296  30.393  35.529  1.00  0.00     0.049 A 
ATOM     54  C   UNL A   1      38.172  33.107  32.881  1.00  0.00     0.074 A 
ATOM     55  C   UNL A   1      42.687  30.902  36.755  1.00  0.00     0.029 A 
ATOM     56  N   UNL A   1      41.267  31.202  35.070  1.00  0.00    -0.354 N 
ATOM     57  N   UNL A   1      39.131  32.585  33.608  1.00  0.00    -0.248 NA
ATOM     58  C   UNL A   1      37.506  34.263  33.495  1.00  0.00     0.031 C 
ATOM     59  C   UNL A   1      41.874  32.001  37.052  1.00  0.00     0.029 A 
ATOM     60  C   UNL A   1      41.002  32.197  35.994  1.00  0.00     0.049 A 
ATOM     61  H   UNL A   1      40.797  31.085  34.213  1.00  0.00     0.167 HD
ATOM     62  C   UNL A   1      39.187  33.354  34.763  1.00  0.00     0.074 A 
ATOM     63  C   UNL A   1      38.181  34.390  34.629  1.00  0.00     0.031 C 
ATOM     64  C   UNL A   1      39.996  33.214  35.842  1.00  0.00     0.031 A 
BRANCH  51  65
ATOM     65  C   UNL A   1      43.901  28.449  35.493  1.00  0.00    -0.014 A 
ATOM     66  C   UNL A   1      43.587  27.366  36.334  1.00  0.00     0.010 A 
ATOM     67  C   UNL A   1      45.250  28.735  35.217  1.00  0.00     0.010 A 
ATOM     68  C   UNL A   1      44.607  26.595  36.902  1.00  0.00     0.020 A 
ATOM     69  C   UNL A   1      46.271  27.956  35.770  1.00  0.00     0.020 A 
ATOM     70  C   UNL A   1      45.943  26.897  36.618  1.00  0.00     0.054 A 
BRANCH  70  71
ATOM     71  S   UNL A   1      47.247  25.854  37.327  1.00  0.00     0.124 S 
ATOM     72  O   UNL A   1      46.570  25.272  38.483  1.00  0.00    -0.237 OA
ATOM     73  O   UNL A   1      47.545  24.925  36.240  1.00  0.00    -0.237 OA
ATOM     74  O   UNL A   1      48.315  26.801  37.641  1.00  0.00    -0.744 OA
ENDBRANCH  70  71
ENDBRANCH  51  65
BRANCH  52  75
ATOM     75  C   UNL A   1      36.539  33.373  30.876  1.00  0.00    -0.014 A 
ATOM     76  C   UNL A   1      35.277  33.417  31.491  1.00  0.00     0.010 A 
ATOM     77  C   UNL A   1      36.723  34.012  29.637  1.00  0.00     0.010 A 
ATOM     78  C   UNL A   1      34.213  34.078  30.870  1.00  0.00     0.020 A 
ATOM     79  C   UNL A   1      35.668  34.693  29.024  1.00  0.00     0.020 A 
ATOM     80  C   UNL A   1      34.414  34.710  29.639  1.00  0.00     0.054 A 
BRANCH  80  81
ATOM     81  S   UNL A   1      33.041  35.613  28.869  1.00  0.00     0.124 S 
ATOM     82  O   UNL A   1      32.277  36.048  30.033  1.00  0.00    -0.237 OA
ATOM     83  O   UNL A   1      33.726  36.670  28.129  1.00  0.00    -0.237 OA
ATOM     84  O   UNL A   1      32.398  34.599  28.036  1.00  0.00    -0.744 OA
ENDBRANCH  80  81
ENDBRANCH  52  75
BRANCH  64  85
ATOM     85  C   UNL A   1      39.836  34.216  36.950  1.00  0.00    -0.014 A 
ATOM     86  C   UNL A   1      40.430  35.487  36.862  1.00  0.00     0.010 A 
ATOM     87  C   UNL A   1      39.051  33.895  38.071  1.00  0.00     0.010 A 
ATOM     88  C   UNL A   1      40.266  36.413  37.896  1.00  0.00     0.020 A 
ATOM     89  C   UNL A   1      38.871  34.825  39.098  1.00  0.00     0.020 A 
ATOM     90  C   UNL A   1      39.492  36.073  39.010  1.00  0.00     0.054 A 
BRANCH  90  91
ATOM     91  S   UNL A   1      39.260  37.300  40.326  1.00  0.00     0.124 S 
ATOM     92  O   UNL A   1      38.510  38.346  39.636  1.00  0.00    -0.237 OA
ATOM     93  O   UNL A   1      38.513  36.556  41.337  1.00  0.00    -0.237 OA
ATOM     94  O   UNL A   1      40.625  37.657  40.707  1.00  0.00    -0.744 OA
ENDBRANCH  90  91
ENDBRANCH  64  85
ENDBRANCH  38  39
ENDBRANCH  31  33
ENDBRANCH  30  31
ENDBRANCH  29  30
ENDBRANCH   1  29
TORSDOF 17
ENDMDL
MODEL 3
REMARK VINA RESULT:     -11.9      0.543      7.955
REMARK SMILES Cc1ccc(C(=O)N2CCC3(CCC(=O)N(CC(=O)OCCOC(=O)c4ccc(-c5c6nc(c(-c7ccc(S(=O)(=O)[O-])cc7)c7ccc([nH]7)c(-c7ccc(S(=O)(=O)[O-])cc7)c7nc(c(-c8ccc(S(=O)(=O)[O-])cc8)c8ccc5[nH]8)C=C7)C=C6)cc4)C3)CC2)cc1O
REMARK SMILES IDX 21 1 20 2 18 3 19 4 17 5 16 6 6 7 7 8 8 9 9 10 88 11 10 12
REMARK SMILES IDX 87 13 11 14 12 15 86 16 13 17 14 18 15 19 5 20 1 21 2 22
REMARK SMILES IDX 3 23 90 24 4 25 89 26 91 27 22 29 23 30 24 31 25 32 26 33
REMARK SMILES IDX 27 34 85 35 28 36 84 37 29 38 30 39 31 40 78 41 32 42 83 43
REMARK SMILES IDX 77 44 79 45 33 46 82 47 76 48 75 49 34 51 64 52 45 53 63 54
REMARK SMILES IDX 46 55 49 56 62 57 80 58 47 59 48 60 61 62 81 63 50 64 35 65
REMARK SMILES IDX 36 66 44 67 37 68 43 69 38 70 39 71 40 72 41 73 42 74 65 75
REMARK SMILES IDX 66 76 74 77 67 78 73 79 68 80 69 81 70 82 71 83 72 84 51 85
REMARK SMILES IDX 52 86 60 87 53 88 59 89 54 90 55 91 56 92 57 93 58 94
REMARK H PARENT 91 28 79 50 49 61
REMARK Flexibility Score: inf
ROOT
ATOM      1  C   UNL A   1      34.185  30.928  27.335  1.00  0.00     0.274 C 
ENDROOT
BRANCH   1   2
ATOM      2  O   UNL A   1      33.039  30.089  27.560  1.00  0.00    -0.461 OA
BRANCH   2   3
ATOM      3  C   UNL A   1      32.039  30.196  26.655  1.00  0.00     0.325 C 
ATOM      4  O   UNL A   1      31.495  31.247  26.330  1.00  0.00    -0.250 OA
BRANCH   3   5
ATOM      5  C   UNL A   1      31.642  28.867  26.018  1.00  0.00     0.242 C 
BRANCH   5   6
ATOM      6  N   UNL A   1      31.902  28.629  24.599  1.00  0.00    -0.331 N 
ATOM      7  C   UNL A   1      33.936  22.493  25.244  1.00  0.00     0.253 C 
ATOM      8  O   UNL A   1      33.332  21.641  25.890  1.00  0.00    -0.269 OA
ATOM      9  N   UNL A   1      33.292  23.547  24.607  1.00  0.00    -0.339 N 
ATOM     10  C   UNL A   1      32.047  24.050  25.158  1.00  0.00     0.120 C 
ATOM     11  C   UNL A   1      33.635  24.042  23.283  1.00  0.00     0.120 C 
ATOM     12  C   UNL A   1      32.153  25.571  25.294  1.00  0.00     0.030 C 
ATOM     13  C   UNL A   1      33.715  25.564  23.274  1.00  0.00     0.030 C 
ATOM     14  C   UNL A   1      32.516  26.282  23.959  1.00  0.00    -0.008 C 
ATOM     15  C   UNL A   1      31.298  26.328  22.997  1.00  0.00     0.019 C 
ATOM     16  C   UNL A   1      32.976  27.737  24.226  1.00  0.00     0.127 C 
ATOM     17  C   UNL A   1      30.228  27.331  23.428  1.00  0.00     0.101 C 
ATOM     18  C   UNL A   1      30.829  28.691  23.722  1.00  0.00     0.223 C 
ATOM     19  O   UNL A   1      30.358  29.740  23.305  1.00  0.00    -0.275 OA
BRANCH   7  20
ATOM     20  C   UNL A   1      35.425  22.488  25.287  1.00  0.00     0.043 A 
ATOM     21  C   UNL A   1      39.664  22.224  26.089  1.00  0.00     0.048 C 
ATOM     22  C   UNL A   1      38.202  22.306  25.763  1.00  0.00    -0.009 A 
ATOM     23  C   UNL A   1      37.505  23.487  26.046  1.00  0.00     0.008 A 
ATOM     24  C   UNL A   1      37.483  21.221  25.243  1.00  0.00     0.119 A 
ATOM     25  C   UNL A   1      36.129  23.571  25.827  1.00  0.00     0.014 A 
ATOM     26  C   UNL A   1      36.113  21.308  24.993  1.00  0.00     0.060 A 
BRANCH  24  27
ATOM     27  O   UNL A   1      38.069  20.012  24.989  1.00  0.00    -0.508 OA
ATOM     28  H   UNL A   1      38.878  19.787  25.406  1.00  0.00     0.293 HD
ENDBRANCH  24  27
ENDBRANCH   7  20
ENDBRANCH   5   6
ENDBRANCH   3   5
ENDBRANCH   2   3
ENDBRANCH   1   2
BRANCH   1  29
ATOM     29  C   UNL A   1      35.066  30.981  28.582  1.00  0.00     0.275 C 
BRANCH  29  30
ATOM     30  O   UNL A   1      35.763  29.732  28.748  1.00  0.00    -0.458 OA
BRANCH  30  31
ATOM     31  C   UNL A   1      36.596  29.667  29.811  1.00  0.00     0.338 C 
ATOM     32  O   UNL A   1      36.311  29.703  30.993  1.00  0.00    -0.246 OA
BRANCH  31  33
ATOM     33  C   UNL A   1      37.989  29.591  29.357  1.00  0.00     0.060 A 
ATOM     34  C   UNL A   1      38.294  29.645  27.996  1.00  0.00     0.016 A 
ATOM     35  C   UNL A   1      38.978  29.309  30.300  1.00  0.00     0.016 A 
ATOM     36  C   UNL A   1      39.589  29.353  27.570  1.00  0.00     0.010 A 
ATOM     37  C   UNL A   1      40.285  29.073  29.874  1.00  0.00     0.010 A 
ATOM     38  C   UNL A   1      40.594  29.061  28.504  1.00  0.00    -0.014 A 
BRANCH  38  39
ATOM     39  C   UNL A   1      41.968  28.730  28.055  1.00  0.00     0.031 A 
ATOM     40  C   UNL A   1      42.314  27.325  27.640  1.00  0.00     0.074 A 
ATOM     41  C   UNL A   1      42.909  29.694  28.038  1.00  0.00     0.049 A 
ATOM     42  N   UNL A   1      43.480  26.825  27.322  1.00  0.00    -0.248 NA
ATOM     43  C   UNL A   1      41.208  26.354  27.584  1.00  0.00     0.031 C 
ATOM     44  C   UNL A   1      42.692  31.094  28.407  1.00  0.00     0.029 A 
ATOM     45  N   UNL A   1      44.238  29.639  27.702  1.00  0.00    -0.354 N 
ATOM     46  C   UNL A   1      43.258  25.476  27.064  1.00  0.00     0.074 A 
ATOM     47  C   UNL A   1      41.846  25.235  27.262  1.00  0.00     0.031 C 
ATOM     48  C   UNL A   1      43.846  31.767  28.272  1.00  0.00     0.029 A 
ATOM     49  C   UNL A   1      44.892  30.838  27.856  1.00  0.00     0.049 A 
ATOM     50  H   UNL A   1      44.681  28.819  27.384  1.00  0.00     0.167 HD
ATOM     51  C   UNL A   1      44.153  24.528  26.698  1.00  0.00     0.031 A 
ATOM     52  C   UNL A   1      46.193  31.150  27.711  1.00  0.00     0.031 A 
ATOM     53  C   UNL A   1      45.553  24.777  26.478  1.00  0.00     0.049 A 
ATOM     54  C   UNL A   1      47.164  30.078  27.309  1.00  0.00     0.074 A 
ATOM     55  C   UNL A   1      46.534  23.886  26.078  1.00  0.00     0.029 A 
ATOM     56  N   UNL A   1      46.172  26.008  26.636  1.00  0.00    -0.354 N 
ATOM     57  N   UNL A   1      46.933  28.810  27.065  1.00  0.00    -0.248 NA
ATOM     58  C   UNL A   1      48.570  30.477  27.165  1.00  0.00     0.031 C 
ATOM     59  C   UNL A   1      47.752  24.571  26.023  1.00  0.00     0.029 A 
ATOM     60  C   UNL A   1      47.523  25.896  26.354  1.00  0.00     0.049 A 
ATOM     61  H   UNL A   1      45.718  26.838  26.907  1.00  0.00     0.167 HD
ATOM     62  C   UNL A   1      48.164  28.261  26.732  1.00  0.00     0.074 A 
ATOM     63  C   UNL A   1      49.134  29.338  26.785  1.00  0.00     0.031 C 
ATOM     64  C   UNL A   1      48.468  26.979  26.416  1.00  0.00     0.031 A 
BRANCH  51  65
ATOM     65  C   UNL A   1      43.656  23.118  26.538  1.00  0.00    -0.014 A 
ATOM     66  C   UNL A   1      43.735  22.454  25.301  1.00  0.00     0.010 A 
ATOM     67  C   UNL A   1      43.171  22.423  27.660  1.00  0.00     0.010 A 
ATOM     68  C   UNL A   1      43.320  21.124  25.186  1.00  0.00     0.020 A 
ATOM     69  C   UNL A   1      42.770  21.088  27.553  1.00  0.00     0.020 A 
ATOM     70  C   UNL A   1      42.838  20.450  26.313  1.00  0.00     0.054 A 
BRANCH  70  71
ATOM     71  S   UNL A   1      42.350  18.709  26.152  1.00  0.00     0.124 S 
ATOM     72  O   UNL A   1      43.294  18.225  25.149  1.00  0.00    -0.237 OA
ATOM     73  O   UNL A   1      42.549  18.191  27.503  1.00  0.00    -0.237 OA
ATOM     74  O   UNL A   1      40.958  18.779  25.716  1.00  0.00    -0.744 OA
ENDBRANCH  70  71
ENDBRANCH  51  65
BRANCH  52  75
ATOM     75  C   UNL A   1      46.655  32.535  27.989  1.00  0.00    -0.014 A 
ATOM     76  C   UNL A   1      46.560  33.533  27.007  1.00  0.00     0.010 A 
ATOM     77  C   UNL A   1      47.177  32.861  29.254  1.00  0.00     0.010 A 
ATOM     78  C   UNL A   1      46.993  34.835  27.280  1.00  0.00     0.020 A 
ATOM     79  C   UNL A   1      47.589  34.165  29.538  1.00  0.00     0.020 A 
ATOM     80  C   UNL A   1      47.507  35.142  28.543  1.00  0.00     0.054 A 
BRANCH  80  81
ATOM     81  S   UNL A   1      48.013  36.846  28.905  1.00  0.00     0.124 S 
ATOM     82  O   UNL A   1      47.186  37.610  27.977  1.00  0.00    -0.237 OA
ATOM     83  O   UNL A   1      47.676  36.989  30.320  1.00  0.00    -0.237 OA
ATOM     84  O   UNL A   1      49.445  36.841  28.613  1.00  0.00    -0.744 OA
ENDBRANCH  80  81
ENDBRANCH  52  75
BRANCH  64  85
ATOM     85  C   UNL A   1      49.903  26.679  26.084  1.00  0.00    -0.014 A 
ATOM     86  C   UNL A   1      50.380  26.810  24.769  1.00  0.00     0.010 A 
ATOM     87  C   UNL A   1      50.789  26.298  27.108  1.00  0.00     0.010 A 
ATOM     88  C   UNL A   1      51.719  26.537  24.476  1.00  0.00     0.020 A 
ATOM     89  C   UNL A   1      52.132  26.042  26.821  1.00  0.00     0.020 A 
ATOM     90  C   UNL A   1      52.584  26.149  25.504  1.00  0.00     0.054 A 
BRANCH  90  91
ATOM     91  S   UNL A   1      54.327  25.832  25.112  1.00  0.00     0.124 S 
ATOM     92  O   UNL A   1      55.010  26.456  26.243  1.00  0.00    -0.237 OA
ATOM     93  O   UNL A   1      54.392  24.373  25.068  1.00  0.00    -0.237 OA
ATOM     94  O   UNL A   1      54.516  26.496  23.824  1.00  0.00    -0.744 OA
ENDBRANCH  90  91
ENDBRANCH  64  85
ENDBRANCH  38  39
ENDBRANCH  31  33
ENDBRANCH  30  31
ENDBRANCH  29  30
ENDBRANCH   1  29
TORSDOF 17
ENDMDL
