MODEL 1
REMARK VINA RESULT:     -16.0      0.000      0.000
REMARK SMILES Cc1cc(/C=C2/C(=O)NC(=S)N=C2OCCOC(=O)c2ccc(-c3c4nc(c(-c5ccc(S(=O)(=O)[O-])cc5)c5ccc([nH]5)c(-c5ccc(S(=O)(=O)[O-])cc5)c5nc(c(-c6ccc(S(=O)(=O)[O-])cc6)c6ccc3[nH]6)C=C5)C=C4)cc2)c(C)n1-c1cccc(C(=O)[O-])c1
REMARK SMILES IDX 16 1 15 2 14 3 13 4 5 5 6 6 7 7 8 8 9 9 12 10 10 11 11 13
REMARK SMILES IDX 4 14 1 15 2 16 3 17 82 18 80 19 81 20 83 21 84 22 91 23
REMARK SMILES IDX 85 24 87 25 86 26 88 27 89 28 90 29 17 30 18 31 19 32 20 33
REMARK SMILES IDX 21 34 79 35 22 36 78 37 23 38 24 39 25 40 72 41 26 42 77 43
REMARK SMILES IDX 71 44 73 45 27 46 76 47 70 48 69 49 28 51 58 52 39 53 57 54
REMARK SMILES IDX 40 55 43 56 56 57 74 58 41 59 42 60 55 62 75 63 44 64 29 65
REMARK SMILES IDX 30 66 38 67 31 68 37 69 32 70 33 71 34 72 35 73 36 74 59 75
REMARK SMILES IDX 60 76 68 77 61 78 67 79 62 80 63 81 64 82 65 83 66 84 45 85
REMARK SMILES IDX 46 86 54 87 47 88 53 89 48 90 49 91 50 92 51 93 52 94
REMARK H PARENT 9 12 73 50 43 61
REMARK Flexibility Score: inf
ROOT
ATOM      1  C   UNL A   1      42.709  24.413  25.966  1.00  0.00     0.274 C 
ENDROOT
BRANCH   1   2
ATOM      2  C   UNL A   1      43.434  23.565  24.963  1.00  0.00     0.273 C 
BRANCH   2   3
ATOM      3  O   UNL A   1      43.070  22.261  25.529  1.00  0.00    -0.473 OA
BRANCH   3   4
ATOM      4  C   UNL A   1      43.251  21.015  25.172  1.00  0.00     0.229 C 
ATOM      5  C   UNL A   1      41.083  20.029  26.340  1.00  0.00     0.029 C 
ATOM      6  C   UNL A   1      42.383  20.023  25.896  1.00  0.00     0.103 C 
ATOM      7  C   UNL A   1      43.173  18.777  26.141  1.00  0.00     0.262 C 
ATOM      8  O   UNL A   1      42.688  17.731  26.564  1.00  0.00    -0.269 OA
ATOM      9  N   UNL A   1      44.509  18.866  25.772  1.00  0.00    -0.297 N 
ATOM     10  N   UNL A   1      44.324  20.846  24.518  1.00  0.00    -0.184 NA
ATOM     11  C   UNL A   1      45.088  19.829  24.957  1.00  0.00     0.203 C 
ATOM     12  H   UNL A   1      45.109  18.171  26.126  1.00  0.00     0.172 HD
ATOM     13  S   UNL A   1      46.719  19.900  24.566  1.00  0.00    -0.038 S 
BRANCH   5  14
ATOM     14  C   UNL A   1      40.024  21.033  26.279  1.00  0.00    -0.003 A 
ATOM     15  C   UNL A   1      38.167  24.239  26.529  1.00  0.00     0.065 C 
ATOM     16  C   UNL A   1      38.762  22.940  26.292  1.00  0.00     0.020 A 
ATOM     17  C   UNL A   1      39.956  22.362  26.749  1.00  0.00     0.031 A 
ATOM     18  N   UNL A   1      38.028  22.016  25.639  1.00  0.00    -0.318 N 
ATOM     19  C   UNL A   1      38.787  20.920  25.726  1.00  0.00     0.027 A 
ATOM     20  C   UNL A   1      38.261  19.904  24.960  1.00  0.00     0.065 C 
BRANCH  18  21
ATOM     21  C   UNL A   1      36.751  22.063  24.953  1.00  0.00     0.046 A 
ATOM     22  C   UNL A   1      36.651  22.725  23.692  1.00  0.00     0.026 A 
ATOM     23  C   UNL A   1      35.583  21.742  25.641  1.00  0.00     0.036 A 
ATOM     24  C   UNL A   1      35.416  23.075  23.155  1.00  0.00     0.003 A 
ATOM     25  C   UNL A   1      34.343  21.940  25.012  1.00  0.00    -0.001 A 
ATOM     26  C   UNL A   1      34.269  22.578  23.759  1.00  0.00     0.010 A 
BRANCH  25  27
ATOM     27  C   UNL A   1      33.079  21.485  25.640  1.00  0.00     0.072 C 
ATOM     28  O   UNL A   1      32.315  20.667  25.164  1.00  0.00    -0.545 OA
ATOM     29  O   UNL A   1      32.863  22.065  26.836  1.00  0.00    -0.545 OA
ENDBRANCH  25  27
ENDBRANCH  18  21
ENDBRANCH   5  14
ENDBRANCH   3   4
ENDBRANCH   2   3
ENDBRANCH   1   2
BRANCH   1  30
ATOM     30  O   UNL A   1      41.946  25.707  25.353  1.00  0.00    -0.458 OA
BRANCH  30  31
ATOM     31  C   UNL A   1      42.332  27.157  25.308  1.00  0.00     0.338 C 
ATOM     32  O   UNL A   1      42.924  27.463  24.259  1.00  0.00    -0.246 OA
BRANCH  31  33
ATOM     33  C   UNL A   1      42.082  28.250  26.845  1.00  0.00     0.060 A 
ATOM     34  C   UNL A   1      42.465  29.331  27.766  1.00  0.00     0.016 A 
ATOM     35  C   UNL A   1      40.817  28.277  27.495  1.00  0.00     0.016 A 
ATOM     36  C   UNL A   1      41.468  30.060  29.220  1.00  0.00     0.010 A 
ATOM     37  C   UNL A   1      39.865  29.180  28.832  1.00  0.00     0.010 A 
ATOM     38  C   UNL A   1      39.800  30.238  30.217  1.00  0.00    -0.014 A 
BRANCH  38  39
ATOM     39  C   UNL A   1      39.162  31.279  32.114  1.00  0.00     0.031 A 
ATOM     40  C   UNL A   1      38.364  29.271  32.738  1.00  0.00     0.074 A 
ATOM     41  C   UNL A   1      39.367  32.933  33.162  1.00  0.00     0.049 A 
ATOM     42  N   UNL A   1      38.749  28.143  31.780  1.00  0.00    -0.248 NA
ATOM     43  C   UNL A   1      39.380  27.577  33.195  1.00  0.00     0.031 C 
ATOM     44  C   UNL A   1      39.561  34.614  34.257  1.00  0.00     0.029 A 
ATOM     45  N   UNL A   1      38.968  33.643  34.962  1.00  0.00    -0.354 N 
ATOM     46  C   UNL A   1      40.141  28.398  31.839  1.00  0.00     0.074 A 
ATOM     47  C   UNL A   1      40.667  27.866  32.983  1.00  0.00     0.031 C 
ATOM     48  C   UNL A   1      39.505  35.688  35.469  1.00  0.00     0.029 A 
ATOM     49  C   UNL A   1      39.054  34.836  36.411  1.00  0.00     0.049 A 
ATOM     50  H   UNL A   1      38.353  32.957  35.309  1.00  0.00     0.167 HD
ATOM     51  C   UNL A   1      39.912  29.643  31.952  1.00  0.00     0.031 A 
ATOM     52  C   UNL A   1      39.236  35.165  38.052  1.00  0.00     0.031 A 
ATOM     53  C   UNL A   1      40.016  30.122  33.656  1.00  0.00     0.049 A 
ATOM     54  C   UNL A   1      39.436  33.784  38.260  1.00  0.00     0.074 A 
ATOM     55  C   UNL A   1      40.497  29.534  34.781  1.00  0.00     0.029 A 
ATOM     56  N   UNL A   1      38.690  30.566  34.220  1.00  0.00    -0.354 N 
ATOM     57  N   UNL A   1      38.466  33.013  37.904  1.00  0.00    -0.248 NA
ATOM     58  C   UNL A   1      40.839  33.480  38.141  1.00  0.00     0.031 C 
ATOM     59  C   UNL A   1      40.173  30.463  35.683  1.00  0.00     0.029 A 
ATOM     60  C   UNL A   1      38.999  31.087  35.323  1.00  0.00     0.049 A 
ATOM     61  H   UNL A   1      37.796  30.471  33.820  1.00  0.00     0.167 HD
ATOM     62  C   UNL A   1      38.949  32.426  36.793  1.00  0.00     0.074 A 
ATOM     63  C   UNL A   1      40.613  32.624  37.138  1.00  0.00     0.031 C 
ATOM     64  C   UNL A   1      38.018  32.090  35.576  1.00  0.00     0.031 A 
BRANCH  51  65
ATOM     65  C   UNL A   1      38.038  30.044  30.984  1.00  0.00    -0.014 A 
ATOM     66  C   UNL A   1      37.016  29.226  30.273  1.00  0.00     0.010 A 
ATOM     67  C   UNL A   1      37.664  31.524  30.640  1.00  0.00     0.010 A 
ATOM     68  C   UNL A   1      36.094  29.769  29.271  1.00  0.00     0.020 A 
ATOM     69  C   UNL A   1      36.804  32.020  29.679  1.00  0.00     0.020 A 
ATOM     70  C   UNL A   1      35.999  31.148  29.004  1.00  0.00     0.054 A 
BRANCH  70  71
ATOM     71  S   UNL A   1      34.738  31.893  27.915  1.00  0.00     0.124 S 
ATOM     72  O   UNL A   1      33.653  32.229  28.834  1.00  0.00    -0.237 OA
ATOM     73  O   UNL A   1      35.457  33.030  27.352  1.00  0.00    -0.237 OA
ATOM     74  O   UNL A   1      34.417  30.821  26.973  1.00  0.00    -0.744 OA
ENDBRANCH  70  71
ENDBRANCH  51  65
BRANCH  52  75
ATOM     75  C   UNL A   1      40.065  35.995  39.542  1.00  0.00    -0.014 A 
ATOM     76  C   UNL A   1      41.505  36.195  40.056  1.00  0.00     0.010 A 
ATOM     77  C   UNL A   1      39.374  37.060  40.239  1.00  0.00     0.010 A 
ATOM     78  C   UNL A   1      42.042  37.262  41.080  1.00  0.00     0.020 A 
ATOM     79  C   UNL A   1      39.897  38.158  41.170  1.00  0.00     0.020 A 
ATOM     80  C   UNL A   1      41.228  38.280  41.561  1.00  0.00     0.054 A 
BRANCH  80  81
ATOM     81  S   UNL A   1      41.873  39.774  42.527  1.00  0.00     0.124 S 
ATOM     82  O   UNL A   1      43.305  39.513  42.657  1.00  0.00    -0.237 OA
ATOM     83  O   UNL A   1      41.531  40.906  41.666  1.00  0.00    -0.237 OA
ATOM     84  O   UNL A   1      41.129  39.732  43.786  1.00  0.00    -0.744 OA
ENDBRANCH  80  81
ENDBRANCH  52  75
BRANCH  64  85
ATOM     85  C   UNL A   1      37.139  33.115  34.058  1.00  0.00    -0.014 A 
ATOM     86  C   UNL A   1      36.625  34.815  33.762  1.00  0.00     0.010 A 
ATOM     87  C   UNL A   1      36.154  32.421  33.521  1.00  0.00     0.010 A 
ATOM     88  C   UNL A   1      35.328  35.400  33.658  1.00  0.00     0.020 A 
ATOM     89  C   UNL A   1      35.020  33.115  32.932  1.00  0.00     0.020 A 
ATOM     90  C   UNL A   1      34.586  34.507  33.016  1.00  0.00     0.054 A 
BRANCH  90  91
ATOM     91  S   UNL A   1      33.287  35.195  31.976  1.00  0.00     0.124 S 
ATOM     92  O   UNL A   1      33.473  34.483  30.713  1.00  0.00    -0.237 OA
ATOM     93  O   UNL A   1      32.064  34.846  32.698  1.00  0.00    -0.237 OA
ATOM     94  O   UNL A   1      33.654  36.603  31.972  1.00  0.00    -0.744 OA
ENDBRANCH  90  91
ENDBRANCH  64  85
ENDBRANCH  38  39
ENDBRANCH  31  33
ENDBRANCH  30  31
ENDBRANCH   1  30
TORSDOF 16
ENDMDL
MODEL 2
REMARK VINA RESULT:     -15.5      5.840     14.956
REMARK SMILES Cc1cc(/C=C2/C(=O)NC(=S)N=C2OCCOC(=O)c2ccc(-c3c4nc(c(-c5ccc(S(=O)(=O)[O-])cc5)c5ccc([nH]5)c(-c5ccc(S(=O)(=O)[O-])cc5)c5nc(c(-c6ccc(S(=O)(=O)[O-])cc6)c6ccc3[nH]6)C=C5)C=C4)cc2)c(C)n1-c1cccc(C(=O)[O-])c1
REMARK SMILES IDX 16 1 15 2 14 3 13 4 5 5 6 6 7 7 8 8 9 9 12 10 10 11 11 13
REMARK SMILES IDX 4 14 1 15 2 16 3 17 82 18 80 19 81 20 83 21 84 22 91 23
REMARK SMILES IDX 85 24 87 25 86 26 88 27 89 28 90 29 17 30 18 31 19 32 20 33
REMARK SMILES IDX 21 34 79 35 22 36 78 37 23 38 24 39 25 40 72 41 26 42 77 43
REMARK SMILES IDX 71 44 73 45 27 46 76 47 70 48 69 49 28 51 58 52 39 53 57 54
REMARK SMILES IDX 40 55 43 56 56 57 74 58 41 59 42 60 55 62 75 63 44 64 29 65
REMARK SMILES IDX 30 66 38 67 31 68 37 69 32 70 33 71 34 72 35 73 36 74 59 75
REMARK SMILES IDX 60 76 68 77 61 78 67 79 62 80 63 81 64 82 65 83 66 84 45 85
REMARK SMILES IDX 46 86 54 87 47 88 53 89 48 90 49 91 50 92 51 93 52 94
REMARK H PARENT 9 12 73 50 43 61
REMARK Flexibility Score: inf
ROOT
ATOM      1  C   UNL A   1      36.260  31.313  31.104  1.00  0.00     0.274 C 
ENDROOT
BRANCH   1   2
ATOM      2  C   UNL A   1      35.478  32.219  32.010  1.00  0.00     0.273 C 
BRANCH   2   3
ATOM      3  O   UNL A   1      34.927  33.090  30.965  1.00  0.00    -0.473 OA
BRANCH   3   4
ATOM      4  C   UNL A   1      33.985  33.998  30.920  1.00  0.00     0.229 C 
ATOM      5  C   UNL A   1      33.574  33.903  28.301  1.00  0.00     0.029 C 
ATOM      6  C   UNL A   1      33.659  34.494  29.538  1.00  0.00     0.103 C 
ATOM      7  C   UNL A   1      33.359  35.957  29.608  1.00  0.00     0.262 C 
ATOM      8  O   UNL A   1      32.900  36.608  28.673  1.00  0.00    -0.269 OA
ATOM      9  N   UNL A   1      33.566  36.525  30.859  1.00  0.00    -0.297 N 
ATOM     10  N   UNL A   1      33.745  34.509  32.055  1.00  0.00    -0.184 NA
ATOM     11  C   UNL A   1      33.716  35.854  32.065  1.00  0.00     0.203 C 
ATOM     12  H   UNL A   1      33.611  37.507  30.894  1.00  0.00     0.172 HD
ATOM     13  S   UNL A   1      33.991  36.593  33.546  1.00  0.00    -0.038 S 
BRANCH   5  14
ATOM     14  C   UNL A   1      33.782  32.531  27.847  1.00  0.00    -0.003 A 
ATOM     15  C   UNL A   1      35.261  29.170  27.295  1.00  0.00     0.065 C 
ATOM     16  C   UNL A   1      34.511  30.395  27.477  1.00  0.00     0.020 A 
ATOM     17  C   UNL A   1      34.892  31.664  27.940  1.00  0.00     0.031 A 
ATOM     18  N   UNL A   1      33.247  30.441  27.008  1.00  0.00    -0.318 N 
ATOM     19  C   UNL A   1      32.909  31.720  27.191  1.00  0.00     0.027 A 
ATOM     20  C   UNL A   1      31.574  31.913  26.916  1.00  0.00     0.065 C 
BRANCH  18  21
ATOM     21  C   UNL A   1      32.357  29.441  26.448  1.00  0.00     0.046 A 
ATOM     22  C   UNL A   1      31.808  28.431  27.295  1.00  0.00     0.026 A 
ATOM     23  C   UNL A   1      32.278  29.279  25.067  1.00  0.00     0.036 A 
ATOM     24  C   UNL A   1      31.223  27.284  26.768  1.00  0.00     0.003 A 
ATOM     25  C   UNL A   1      31.533  28.209  24.546  1.00  0.00    -0.001 A 
ATOM     26  C   UNL A   1      30.984  27.234  25.401  1.00  0.00     0.010 A 
BRANCH  25  27
ATOM     27  C   UNL A   1      31.297  28.072  23.088  1.00  0.00     0.072 C 
ATOM     28  O   UNL A   1      31.394  27.036  22.457  1.00  0.00    -0.545 OA
ATOM     29  O   UNL A   1      30.933  29.234  22.516  1.00  0.00    -0.545 OA
ENDBRANCH  25  27
ENDBRANCH  18  21
ENDBRANCH   5  14
ENDBRANCH   3   4
ENDBRANCH   2   3
ENDBRANCH   1   2
BRANCH   1  30
ATOM     30  O   UNL A   1      36.312  29.758  31.561  1.00  0.00    -0.458 OA
BRANCH  30  31
ATOM     31  C   UNL A   1      37.305  29.001  32.394  1.00  0.00     0.338 C 
ATOM     32  O   UNL A   1      36.905  28.802  33.554  1.00  0.00    -0.246 OA
BRANCH  31  33
ATOM     33  C   UNL A   1      39.039  28.639  31.701  1.00  0.00     0.060 A 
ATOM     34  C   UNL A   1      40.495  28.468  31.823  1.00  0.00     0.016 A 
ATOM     35  C   UNL A   1      39.177  28.047  30.415  1.00  0.00     0.016 A 
ATOM     36  C   UNL A   1      41.732  27.851  30.509  1.00  0.00     0.010 A 
ATOM     37  C   UNL A   1      40.451  27.298  29.264  1.00  0.00     0.010 A 
ATOM     38  C   UNL A   1      42.105  27.024  28.781  1.00  0.00    -0.014 A 
BRANCH  38  39
ATOM     39  C   UNL A   1      43.959  26.578  27.576  1.00  0.00     0.031 A 
ATOM     40  C   UNL A   1      42.995  27.816  25.965  1.00  0.00     0.074 A 
ATOM     41  C   UNL A   1      45.789  25.862  27.689  1.00  0.00     0.049 A 
ATOM     42  N   UNL A   1      41.718  28.519  26.426  1.00  0.00    -0.248 NA
ATOM     43  C   UNL A   1      42.621  29.809  25.935  1.00  0.00     0.031 C 
ATOM     44  C   UNL A   1      47.668  25.137  27.774  1.00  0.00     0.029 A 
ATOM     45  N   UNL A   1      47.443  25.762  26.612  1.00  0.00    -0.354 N 
ATOM     46  C   UNL A   1      42.318  29.155  27.539  1.00  0.00     0.074 A 
ATOM     47  C   UNL A   1      43.009  30.261  27.131  1.00  0.00     0.031 C 
ATOM     48  C   UNL A   1      49.200  24.756  27.406  1.00  0.00     0.029 A 
ATOM     49  C   UNL A   1      49.265  25.461  26.259  1.00  0.00     0.049 A 
ATOM     50  H   UNL A   1      47.115  26.036  25.726  1.00  0.00     0.167 HD
ATOM     51  C   UNL A   1      43.080  28.151  27.706  1.00  0.00     0.031 A 
ATOM     52  C   UNL A   1      50.740  25.917  25.591  1.00  0.00     0.031 A 
ATOM     53  C   UNL A   1      44.670  28.476  26.993  1.00  0.00     0.049 A 
ATOM     54  C   UNL A   1      50.130  27.121  25.179  1.00  0.00     0.074 A 
ATOM     55  C   UNL A   1      45.300  29.590  26.543  1.00  0.00     0.029 A 
ATOM     56  N   UNL A   1      44.971  27.590  25.811  1.00  0.00    -0.354 N 
ATOM     57  N   UNL A   1      49.121  26.998  24.385  1.00  0.00    -0.248 NA
ATOM     58  C   UNL A   1      50.267  28.108  26.218  1.00  0.00     0.031 C 
ATOM     59  C   UNL A   1      46.434  29.049  26.095  1.00  0.00     0.029 A 
ATOM     60  C   UNL A   1      46.197  27.785  25.602  1.00  0.00     0.049 A 
ATOM     61  H   UNL A   1      44.356  27.000  25.319  1.00  0.00     0.167 HD
ATOM     62  C   UNL A   1      48.081  27.305  25.181  1.00  0.00     0.074 A 
ATOM     63  C   UNL A   1      48.941  28.243  26.325  1.00  0.00     0.031 C 
ATOM     64  C   UNL A   1      46.699  26.576  25.038  1.00  0.00     0.031 A 
BRANCH  51  65
ATOM     65  C   UNL A   1      42.050  26.428  26.946  1.00  0.00    -0.014 A 
ATOM     66  C   UNL A   1      40.714  26.175  26.337  1.00  0.00     0.010 A 
ATOM     67  C   UNL A   1      42.604  25.004  27.281  1.00  0.00     0.010 A 
ATOM     68  C   UNL A   1      40.043  24.872  26.364  1.00  0.00     0.020 A 
ATOM     69  C   UNL A   1      41.952  23.786  27.319  1.00  0.00     0.020 A 
ATOM     70  C   UNL A   1      40.675  23.708  26.841  1.00  0.00     0.054 A 
BRANCH  70  71
ATOM     71  S   UNL A   1      39.962  22.032  26.717  1.00  0.00     0.124 S 
ATOM     72  O   UNL A   1      40.646  21.459  25.560  1.00  0.00    -0.237 OA
ATOM     73  O   UNL A   1      40.320  21.454  28.007  1.00  0.00    -0.237 OA
ATOM     74  O   UNL A   1      38.535  22.279  26.510  1.00  0.00    -0.744 OA
ENDBRANCH  70  71
ENDBRANCH  51  65
BRANCH  52  75
ATOM     75  C   UNL A   1      52.591  26.325  25.666  1.00  0.00    -0.014 A 
ATOM     76  C   UNL A   1      53.731  26.177  26.693  1.00  0.00     0.010 A 
ATOM     77  C   UNL A   1      53.344  26.440  24.434  1.00  0.00     0.010 A 
ATOM     78  C   UNL A   1      55.284  26.179  26.443  1.00  0.00     0.020 A 
ATOM     79  C   UNL A   1      54.850  26.357  24.164  1.00  0.00     0.020 A 
ATOM     80  C   UNL A   1      55.811  26.193  25.157  1.00  0.00     0.054 A 
BRANCH  80  81
ATOM     81  S   UNL A   1      57.635  25.870  24.766  1.00  0.00     0.124 S 
ATOM     82  O   UNL A   1      57.870  24.525  25.284  1.00  0.00    -0.237 OA
ATOM     83  O   UNL A   1      57.694  25.988  23.310  1.00  0.00    -0.237 OA
ATOM     84  O   UNL A   1      58.345  26.931  25.482  1.00  0.00    -0.744 OA
ENDBRANCH  80  81
ENDBRANCH  52  75
BRANCH  64  85
ATOM     85  C   UNL A   1      45.920  24.769  25.546  1.00  0.00    -0.014 A 
ATOM     86  C   UNL A   1      46.567  23.128  25.904  1.00  0.00     0.010 A 
ATOM     87  C   UNL A   1      44.837  24.502  24.843  1.00  0.00     0.010 A 
ATOM     88  C   UNL A   1      46.487  21.906  25.172  1.00  0.00     0.020 A 
ATOM     89  C   UNL A   1      44.497  23.122  24.536  1.00  0.00     0.020 A 
ATOM     90  C   UNL A   1      45.272  21.887  24.643  1.00  0.00     0.054 A 
BRANCH  90  91
ATOM     91  S   UNL A   1      44.542  20.252  24.453  1.00  0.00     0.124 S 
ATOM     92  O   UNL A   1      44.522  20.074  23.002  1.00  0.00    -0.237 OA
ATOM     93  O   UNL A   1      45.484  19.384  25.160  1.00  0.00    -0.237 OA
ATOM     94  O   UNL A   1      43.248  20.453  25.087  1.00  0.00    -0.744 OA
ENDBRANCH  90  91
ENDBRANCH  64  85
ENDBRANCH  38  39
ENDBRANCH  31  33
ENDBRANCH  30  31
ENDBRANCH   1  30
TORSDOF 16
ENDMDL
MODEL 3
REMARK VINA RESULT:     -14.1      6.142     14.669
REMARK SMILES Cc1cc(/C=C2/C(=O)NC(=S)N=C2OCCOC(=O)c2ccc(-c3c4nc(c(-c5ccc(S(=O)(=O)[O-])cc5)c5ccc([nH]5)c(-c5ccc(S(=O)(=O)[O-])cc5)c5nc(c(-c6ccc(S(=O)(=O)[O-])cc6)c6ccc3[nH]6)C=C5)C=C4)cc2)c(C)n1-c1cccc(C(=O)[O-])c1
REMARK SMILES IDX 16 1 15 2 14 3 13 4 5 5 6 6 7 7 8 8 9 9 12 10 10 11 11 13
REMARK SMILES IDX 4 14 1 15 2 16 3 17 82 18 80 19 81 20 83 21 84 22 91 23
REMARK SMILES IDX 85 24 87 25 86 26 88 27 89 28 90 29 17 30 18 31 19 32 20 33
REMARK SMILES IDX 21 34 79 35 22 36 78 37 23 38 24 39 25 40 72 41 26 42 77 43
REMARK SMILES IDX 71 44 73 45 27 46 76 47 70 48 69 49 28 51 58 52 39 53 57 54
REMARK SMILES IDX 40 55 43 56 56 57 74 58 41 59 42 60 55 62 75 63 44 64 29 65
REMARK SMILES IDX 30 66 38 67 31 68 37 69 32 70 33 71 34 72 35 73 36 74 59 75
REMARK SMILES IDX 60 76 68 77 61 78 67 79 62 80 63 81 64 82 65 83 66 84 45 85
REMARK SMILES IDX 46 86 54 87 47 88 53 89 48 90 49 91 50 92 51 93 52 94
REMARK H PARENT 9 12 73 50 43 61
REMARK Flexibility Score: inf
ROOT
ATOM      1  C   UNL A   1      36.454  31.806  31.523  1.00  0.00     0.274 C 
ENDROOT
BRANCH   1   2
ATOM      2  C   UNL A   1      35.173  32.274  32.148  1.00  0.00     0.273 C 
BRANCH   2   3
ATOM      3  O   UNL A   1      34.846  33.298  31.149  1.00  0.00    -0.473 OA
BRANCH   3   4
ATOM      4  C   UNL A   1      33.917  34.213  31.033  1.00  0.00     0.229 C 
ATOM      5  C   UNL A   1      33.681  34.095  28.394  1.00  0.00     0.029 C 
ATOM      6  C   UNL A   1      33.688  34.697  29.628  1.00  0.00     0.103 C 
ATOM      7  C   UNL A   1      33.396  36.164  29.663  1.00  0.00     0.262 C 
ATOM      8  O   UNL A   1      33.006  36.808  28.693  1.00  0.00    -0.269 OA
ATOM      9  N   UNL A   1      33.524  36.742  30.919  1.00  0.00    -0.297 N 
ATOM     10  N   UNL A   1      33.606  34.737  32.145  1.00  0.00    -0.184 NA
ATOM     11  C   UNL A   1      33.588  36.082  32.139  1.00  0.00     0.203 C 
ATOM     12  H   UNL A   1      33.574  37.724  30.948  1.00  0.00     0.172 HD
ATOM     13  S   UNL A   1      33.769  36.835  33.628  1.00  0.00    -0.038 S 
BRANCH   5  14
ATOM     14  C   UNL A   1      33.907  32.717  27.967  1.00  0.00    -0.003 A 
ATOM     15  C   UNL A   1      35.400  29.344  27.535  1.00  0.00     0.065 C 
ATOM     16  C   UNL A   1      34.646  30.574  27.662  1.00  0.00     0.020 A 
ATOM     17  C   UNL A   1      35.007  31.847  28.130  1.00  0.00     0.031 A 
ATOM     18  N   UNL A   1      33.410  30.618  27.126  1.00  0.00    -0.318 N 
ATOM     19  C   UNL A   1      33.067  31.900  27.275  1.00  0.00     0.027 A 
ATOM     20  C   UNL A   1      31.750  32.094  26.926  1.00  0.00     0.065 C 
BRANCH  18  21
ATOM     21  C   UNL A   1      32.547  29.614  26.531  1.00  0.00     0.046 A 
ATOM     22  C   UNL A   1      31.846  28.697  27.372  1.00  0.00     0.026 A 
ATOM     23  C   UNL A   1      32.633  29.348  25.167  1.00  0.00     0.036 A 
ATOM     24  C   UNL A   1      31.274  27.538  26.860  1.00  0.00     0.003 A 
ATOM     25  C   UNL A   1      31.905  28.271  24.634  1.00  0.00    -0.001 A 
ATOM     26  C   UNL A   1      31.205  27.390  25.481  1.00  0.00     0.010 A 
BRANCH  25  27
ATOM     27  C   UNL A   1      31.846  28.029  23.172  1.00  0.00     0.072 C 
ATOM     28  O   UNL A   1      32.808  27.813  22.458  1.00  0.00    -0.545 OA
ATOM     29  O   UNL A   1      30.586  28.047  22.699  1.00  0.00    -0.545 OA
ENDBRANCH  25  27
ENDBRANCH  18  21
ENDBRANCH   5  14
ENDBRANCH   3   4
ENDBRANCH   2   3
ENDBRANCH   1   2
BRANCH   1  30
ATOM     30  O   UNL A   1      37.792  32.088  32.396  1.00  0.00    -0.458 OA
BRANCH  30  31
ATOM     31  C   UNL A   1      38.982  32.964  32.132  1.00  0.00     0.338 C 
ATOM     32  O   UNL A   1      38.713  34.175  32.205  1.00  0.00    -0.246 OA
BRANCH  31  33
ATOM     33  C   UNL A   1      40.616  32.185  31.544  1.00  0.00     0.060 A 
ATOM     34  C   UNL A   1      42.051  31.890  31.667  1.00  0.00     0.016 A 
ATOM     35  C   UNL A   1      40.599  31.186  30.531  1.00  0.00     0.016 A 
ATOM     36  C   UNL A   1      43.120  30.726  30.599  1.00  0.00     0.010 A 
ATOM     37  C   UNL A   1      41.702  29.948  29.661  1.00  0.00     0.010 A 
ATOM     38  C   UNL A   1      43.280  29.331  29.243  1.00  0.00    -0.014 A 
BRANCH  38  39
ATOM     39  C   UNL A   1      44.986  28.289  28.199  1.00  0.00     0.031 A 
ATOM     40  C   UNL A   1      44.425  29.538  26.415  1.00  0.00     0.074 A 
ATOM     41  C   UNL A   1      46.562  27.146  28.489  1.00  0.00     0.049 A 
ATOM     42  N   UNL A   1      43.363  30.594  26.727  1.00  0.00    -0.248 NA
ATOM     43  C   UNL A   1      44.585  31.544  26.157  1.00  0.00     0.031 C 
ATOM     44  C   UNL A   1      48.183  25.977  28.756  1.00  0.00     0.029 A 
ATOM     45  N   UNL A   1      48.162  26.502  27.525  1.00  0.00    -0.354 N 
ATOM     46  C   UNL A   1      44.077  31.179  27.800  1.00  0.00     0.074 A 
ATOM     47  C   UNL A   1      45.044  32.016  27.319  1.00  0.00     0.031 C 
ATOM     48  C   UNL A   1      49.571  25.177  28.517  1.00  0.00     0.029 A 
ATOM     49  C   UNL A   1      49.850  25.704  27.309  1.00  0.00     0.049 A 
ATOM     50  H   UNL A   1      47.941  26.746  26.597  1.00  0.00     0.167 HD
ATOM     51  C   UNL A   1      44.545  30.039  28.114  1.00  0.00     0.031 A 
ATOM     52  C   UNL A   1      51.412  25.687  26.682  1.00  0.00     0.031 A 
ATOM     53  C   UNL A   1      46.184  29.861  27.463  1.00  0.00     0.049 A 
ATOM     54  C   UNL A   1      51.149  26.951  26.113  1.00  0.00     0.074 A 
ATOM     55  C   UNL A   1      47.096  30.717  26.935  1.00  0.00     0.029 A 
ATOM     56  N   UNL A   1      46.276  28.797  26.398  1.00  0.00    -0.354 N 
ATOM     57  N   UNL A   1      50.166  27.001  25.280  1.00  0.00    -0.248 NA
ATOM     58  C   UNL A   1      51.510  27.983  27.049  1.00  0.00     0.031 C 
ATOM     59  C   UNL A   1      48.061  29.855  26.612  1.00  0.00     0.029 A 
ATOM     60  C   UNL A   1      47.515  28.645  26.240  1.00  0.00     0.049 A 
ATOM     61  H   UNL A   1      45.542  28.332  25.936  1.00  0.00     0.167 HD
ATOM     62  C   UNL A   1      49.220  27.654  25.979  1.00  0.00     0.074 A 
ATOM     63  C   UNL A   1      50.262  28.465  27.066  1.00  0.00     0.031 C 
ATOM     64  C   UNL A   1      47.700  27.291  25.835  1.00  0.00     0.031 A 
BRANCH  51  65
ATOM     65  C   UNL A   1      43.123  28.562  27.479  1.00  0.00    -0.014 A 
ATOM     66  C   UNL A   1      41.837  28.583  26.727  1.00  0.00     0.010 A 
ATOM     67  C   UNL A   1      43.187  27.129  28.104  1.00  0.00     0.010 A 
ATOM     68  C   UNL A   1      40.806  27.549  26.851  1.00  0.00     0.020 A 
ATOM     69  C   UNL A   1      42.199  26.171  28.229  1.00  0.00     0.020 A 
ATOM     70  C   UNL A   1      41.010  26.365  27.586  1.00  0.00     0.054 A 
BRANCH  70  71
ATOM     71  S   UNL A   1      39.841  24.964  27.613  1.00  0.00     0.124 S 
ATOM     72  O   UNL A   1      38.884  25.341  28.650  1.00  0.00    -0.237 OA
ATOM     73  O   UNL A   1      39.324  24.973  26.249  1.00  0.00    -0.237 OA
ATOM     74  O   UNL A   1      40.683  23.819  27.960  1.00  0.00    -0.744 OA
ENDBRANCH  70  71
ENDBRANCH  51  65
BRANCH  52  75
ATOM     75  C   UNL A   1      53.302  25.612  26.819  1.00  0.00    -0.014 A 
ATOM     76  C   UNL A   1      54.371  26.058  27.836  1.00  0.00     0.010 A 
ATOM     77  C   UNL A   1      54.029  24.598  26.083  1.00  0.00     0.010 A 
ATOM     78  C   UNL A   1      55.851  25.547  27.992  1.00  0.00     0.020 A 
ATOM     79  C   UNL A   1      55.438  24.030  26.279  1.00  0.00     0.020 A 
ATOM     80  C   UNL A   1      56.331  24.477  27.249  1.00  0.00     0.054 A 
BRANCH  80  81
ATOM     81  S   UNL A   1      57.972  23.602  27.604  1.00  0.00     0.124 S 
ATOM     82  O   UNL A   1      57.658  22.187  27.422  1.00  0.00    -0.237 OA
ATOM     83  O   UNL A   1      58.877  24.164  26.603  1.00  0.00    -0.237 OA
ATOM     84  O   UNL A   1      58.288  23.984  28.980  1.00  0.00    -0.744 OA
ENDBRANCH  80  81
ENDBRANCH  52  75
BRANCH  64  85
ATOM     85  C   UNL A   1      46.463  25.816  26.482  1.00  0.00    -0.014 A 
ATOM     86  C   UNL A   1      46.611  24.058  26.842  1.00  0.00     0.010 A 
ATOM     87  C   UNL A   1      45.284  25.889  25.895  1.00  0.00     0.010 A 
ATOM     88  C   UNL A   1      46.088  22.914  26.169  1.00  0.00     0.020 A 
ATOM     89  C   UNL A   1      44.511  24.678  25.674  1.00  0.00     0.020 A 
ATOM     90  C   UNL A   1      44.878  23.266  25.756  1.00  0.00     0.054 A 
BRANCH  90  91
ATOM     91  S   UNL A   1      43.670  21.933  25.699  1.00  0.00     0.124 S 
ATOM     92  O   UNL A   1      43.171  21.889  27.072  1.00  0.00    -0.237 OA
ATOM     93  O   UNL A   1      42.699  22.407  24.713  1.00  0.00    -0.237 OA
ATOM     94  O   UNL A   1      44.510  20.816  25.291  1.00  0.00    -0.744 OA
ENDBRANCH  90  91
ENDBRANCH  64  85
ENDBRANCH  38  39
ENDBRANCH  31  33
ENDBRANCH  30  31
ENDBRANCH   1  30
TORSDOF 16
ENDMDL
