MODEL 1
REMARK VINA RESULT:     -10.1      0.000      0.000
REMARK SMILES COc1ccc2c(C)cc(SCC(=O)OCCOC(=O)c3ccc(-c4c5nc(c(-c6ccc(S(=O)(=O)[O-])cc6)c6ccc([nH]6)c(-c6ccc(S(=O)(=O)[O-])cc6)c6nc(c(-c7ccc(S(=O)(=O)[O-])cc7)c7ccc4[nH]7)C=C6)C=C5)cc3)nc2c1
REMARK SMILES IDX 16 1 15 2 13 3 14 4 12 5 11 6 10 7 3 8 4 9 83 10 5 11 82 12
REMARK SMILES IDX 6 13 81 14 7 15 8 16 9 17 2 18 1 19 17 20 18 21 19 22 20 23
REMARK SMILES IDX 21 24 22 25 80 26 23 27 79 28 24 29 25 30 26 31 73 32 27 33
REMARK SMILES IDX 78 34 72 35 74 36 28 37 77 38 71 39 70 40 29 42 59 43 40 44
REMARK SMILES IDX 58 45 41 46 44 47 57 48 75 49 42 50 43 51 56 53 76 54 45 55
REMARK SMILES IDX 30 56 31 57 39 58 32 59 38 60 33 61 34 62 35 63 36 64 37 65
REMARK SMILES IDX 60 66 61 67 69 68 62 69 68 70 63 71 64 72 65 73 66 74 67 75
REMARK SMILES IDX 46 76 47 77 55 78 48 79 54 80 49 81 50 82 51 83 52 84 53 85
REMARK H PARENT 74 41 44 52
REMARK Flexibility Score: inf
ROOT
ATOM      1  C   UNL A   1      31.616  28.104  27.157  1.00  0.00     0.274 C 
ENDROOT
BRANCH   1   2
ATOM      2  O   UNL A   1      31.389  27.690  25.794  1.00  0.00    -0.461 OA
BRANCH   2   3
ATOM      3  C   UNL A   1      30.724  26.516  25.633  1.00  0.00     0.316 C 
ATOM      4  O   UNL A   1      30.433  25.760  26.556  1.00  0.00    -0.251 OA
BRANCH   3   5
ATOM      5  C   UNL A   1      30.345  26.182  24.207  1.00  0.00     0.199 C 
BRANCH   5   6
ATOM      6  S   UNL A   1      31.725  25.969  23.047  1.00  0.00    -0.095 SA
BRANCH   6   7
ATOM      7  C   UNL A   1      32.561  24.492  23.589  1.00  0.00     0.098 A 
ATOM      8  C   UNL A   1      36.570  23.031  25.715  1.00  0.00     0.121 A 
ATOM      9  C   UNL A   1      36.250  21.698  25.491  1.00  0.00     0.047 A 
ATOM     10  C   UNL A   1      35.675  24.026  25.313  1.00  0.00     0.075 A 
ATOM     11  C   UNL A   1      35.045  21.377  24.868  1.00  0.00     0.014 A 
ATOM     12  C   UNL A   1      34.483  23.734  24.665  1.00  0.00     0.075 A 
ATOM     13  C   UNL A   1      34.146  22.384  24.453  1.00  0.00     0.003 A 
ATOM     14  N   UNL A   1      33.708  24.752  24.253  1.00  0.00    -0.241 NA
ATOM     15  C   UNL A   1      32.915  22.119  23.823  1.00  0.00    -0.039 A 
ATOM     16  C   UNL A   1      32.439  20.716  23.579  1.00  0.00     0.045 C 
ATOM     17  C   UNL A   1      32.135  23.193  23.368  1.00  0.00     0.039 A 
BRANCH   8  18
ATOM     18  O   UNL A   1      37.712  23.484  26.316  1.00  0.00    -0.497 OA
ATOM     19  C   UNL A   1      38.851  22.638  26.216  1.00  0.00     0.278 C 
ENDBRANCH   8  18
ENDBRANCH   6   7
ENDBRANCH   5   6
ENDBRANCH   3   5
ENDBRANCH   2   3
ENDBRANCH   1   2
BRANCH   1  20
ATOM     20  C   UNL A   1      32.189  29.516  27.211  1.00  0.00     0.275 C 
BRANCH  20  21
ATOM     21  O   UNL A   1      33.623  29.466  27.115  1.00  0.00    -0.458 OA
BRANCH  21  22
ATOM     22  C   UNL A   1      34.278  30.369  27.876  1.00  0.00     0.338 C 
ATOM     23  O   UNL A   1      33.858  31.446  28.267  1.00  0.00    -0.246 OA
BRANCH  22  24
ATOM     24  C   UNL A   1      35.638  29.898  28.201  1.00  0.00     0.060 A 
ATOM     25  C   UNL A   1      36.001  29.552  29.508  1.00  0.00     0.016 A 
ATOM     26  C   UNL A   1      36.604  29.964  27.193  1.00  0.00     0.016 A 
ATOM     27  C   UNL A   1      37.349  29.338  29.816  1.00  0.00     0.010 A 
ATOM     28  C   UNL A   1      37.939  29.695  27.493  1.00  0.00     0.010 A 
ATOM     29  C   UNL A   1      38.326  29.406  28.810  1.00  0.00    -0.014 A 
BRANCH  29  30
ATOM     30  C   UNL A   1      39.751  29.104  29.093  1.00  0.00     0.031 A 
ATOM     31  C   UNL A   1      40.693  30.168  29.583  1.00  0.00     0.074 A 
ATOM     32  C   UNL A   1      40.208  27.869  28.824  1.00  0.00     0.049 A 
ATOM     33  N   UNL A   1      41.992  30.116  29.730  1.00  0.00    -0.248 NA
ATOM     34  C   UNL A   1      40.100  31.460  29.957  1.00  0.00     0.031 C 
ATOM     35  C   UNL A   1      39.388  26.747  28.363  1.00  0.00     0.029 A 
ATOM     36  N   UNL A   1      41.479  27.360  28.872  1.00  0.00    -0.354 N 
ATOM     37  C   UNL A   1      42.374  31.367  30.203  1.00  0.00     0.074 A 
ATOM     38  C   UNL A   1      41.169  32.163  30.309  1.00  0.00     0.031 C 
ATOM     39  C   UNL A   1      40.178  25.684  28.161  1.00  0.00     0.029 A 
ATOM     40  C   UNL A   1      41.562  26.067  28.422  1.00  0.00     0.049 A 
ATOM     41  H   UNL A   1      42.255  27.872  29.197  1.00  0.00     0.167 HD
ATOM     42  C   UNL A   1      43.616  31.812  30.513  1.00  0.00     0.031 A 
ATOM     43  C   UNL A   1      42.634  25.286  28.196  1.00  0.00     0.031 A 
ATOM     44  C   UNL A   1      44.812  31.019  30.392  1.00  0.00     0.049 A 
ATOM     45  C   UNL A   1      44.006  25.828  28.453  1.00  0.00     0.074 A 
ATOM     46  C   UNL A   1      46.111  31.362  30.724  1.00  0.00     0.029 A 
ATOM     47  N   UNL A   1      44.856  29.729  29.886  1.00  0.00    -0.354 N 
ATOM     48  N   UNL A   1      44.348  27.009  28.910  1.00  0.00    -0.248 NA
ATOM     49  C   UNL A   1      45.135  24.939  28.155  1.00  0.00     0.031 C 
ATOM     50  C   UNL A   1      46.948  30.295  30.374  1.00  0.00     0.029 A 
ATOM     51  C   UNL A   1      46.164  29.274  29.861  1.00  0.00     0.049 A 
ATOM     52  H   UNL A   1      44.073  29.213  29.587  1.00  0.00     0.167 HD
ATOM     53  C   UNL A   1      45.735  27.001  28.965  1.00  0.00     0.074 A 
ATOM     54  C   UNL A   1      46.167  25.697  28.501  1.00  0.00     0.031 C 
ATOM     55  C   UNL A   1      46.576  27.985  29.372  1.00  0.00     0.031 A 
BRANCH  42  56
ATOM     56  C   UNL A   1      43.753  33.236  30.979  1.00  0.00    -0.014 A 
ATOM     57  C   UNL A   1      43.701  33.563  32.346  1.00  0.00     0.010 A 
ATOM     58  C   UNL A   1      43.991  34.255  30.038  1.00  0.00     0.010 A 
ATOM     59  C   UNL A   1      43.853  34.890  32.761  1.00  0.00     0.020 A 
ATOM     60  C   UNL A   1      44.160  35.580  30.451  1.00  0.00     0.020 A 
ATOM     61  C   UNL A   1      44.073  35.892  31.810  1.00  0.00     0.054 A 
BRANCH  61  62
ATOM     62  S   UNL A   1      44.284  37.605  32.370  1.00  0.00     0.124 S 
ATOM     63  O   UNL A   1      43.334  37.677  33.477  1.00  0.00    -0.237 OA
ATOM     64  O   UNL A   1      45.694  37.653  32.748  1.00  0.00    -0.237 OA
ATOM     65  O   UNL A   1      43.931  38.398  31.194  1.00  0.00    -0.744 OA
ENDBRANCH  61  62
ENDBRANCH  42  56
BRANCH  43  66
ATOM     66  C   UNL A   1      42.424  23.916  27.664  1.00  0.00    -0.014 A 
ATOM     67  C   UNL A   1      42.502  23.675  26.284  1.00  0.00     0.010 A 
ATOM     68  C   UNL A   1      42.239  22.837  28.547  1.00  0.00     0.010 A 
ATOM     69  C   UNL A   1      42.415  22.370  25.793  1.00  0.00     0.020 A 
ATOM     70  C   UNL A   1      42.171  21.529  28.061  1.00  0.00     0.020 A 
ATOM     71  C   UNL A   1      42.258  21.304  26.685  1.00  0.00     0.054 A 
BRANCH  71  72
ATOM     72  S   UNL A   1      42.263  19.609  26.042  1.00  0.00     0.124 S 
ATOM     73  O   UNL A   1      43.256  19.692  24.976  1.00  0.00    -0.237 OA
ATOM     74  O   UNL A   1      42.653  18.823  27.211  1.00  0.00    -0.237 OA
ATOM     75  O   UNL A   1      40.884  19.409  25.604  1.00  0.00    -0.744 OA
ENDBRANCH  71  72
ENDBRANCH  43  66
BRANCH  55  76
ATOM     76  C   UNL A   1      48.044  27.675  29.341  1.00  0.00    -0.014 A 
ATOM     77  C   UNL A   1      48.861  28.161  28.304  1.00  0.00     0.010 A 
ATOM     78  C   UNL A   1      48.616  26.902  30.367  1.00  0.00     0.010 A 
ATOM     79  C   UNL A   1      50.222  27.851  28.278  1.00  0.00     0.020 A 
ATOM     80  C   UNL A   1      49.981  26.604  30.352  1.00  0.00     0.020 A 
ATOM     81  C   UNL A   1      50.772  27.068  29.298  1.00  0.00     0.054 A 
BRANCH  81  82
ATOM     82  S   UNL A   1      52.545  26.691  29.259  1.00  0.00     0.124 S 
ATOM     83  O   UNL A   1      52.776  26.187  30.610  1.00  0.00    -0.237 OA
ATOM     84  O   UNL A   1      52.646  25.698  28.192  1.00  0.00    -0.237 OA
ATOM     85  O   UNL A   1      53.163  27.981  28.960  1.00  0.00    -0.744 OA
ENDBRANCH  81  82
ENDBRANCH  55  76
ENDBRANCH  29  30
ENDBRANCH  22  24
ENDBRANCH  21  22
ENDBRANCH  20  21
ENDBRANCH   1  20
TORSDOF 17
ENDMDL
MODEL 2
REMARK VINA RESULT:     -10.1      4.867     10.783
REMARK SMILES COc1ccc2c(C)cc(SCC(=O)OCCOC(=O)c3ccc(-c4c5nc(c(-c6ccc(S(=O)(=O)[O-])cc6)c6ccc([nH]6)c(-c6ccc(S(=O)(=O)[O-])cc6)c6nc(c(-c7ccc(S(=O)(=O)[O-])cc7)c7ccc4[nH]7)C=C6)C=C5)cc3)nc2c1
REMARK SMILES IDX 16 1 15 2 13 3 14 4 12 5 11 6 10 7 3 8 4 9 83 10 5 11 82 12
REMARK SMILES IDX 6 13 81 14 7 15 8 16 9 17 2 18 1 19 17 20 18 21 19 22 20 23
REMARK SMILES IDX 21 24 22 25 80 26 23 27 79 28 24 29 25 30 26 31 73 32 27 33
REMARK SMILES IDX 78 34 72 35 74 36 28 37 77 38 71 39 70 40 29 42 59 43 40 44
REMARK SMILES IDX 58 45 41 46 44 47 57 48 75 49 42 50 43 51 56 53 76 54 45 55
REMARK SMILES IDX 30 56 31 57 39 58 32 59 38 60 33 61 34 62 35 63 36 64 37 65
REMARK SMILES IDX 60 66 61 67 69 68 62 69 68 70 63 71 64 72 65 73 66 74 67 75
REMARK SMILES IDX 46 76 47 77 55 78 48 79 54 80 49 81 50 82 51 83 52 84 53 85
REMARK H PARENT 74 41 44 52
REMARK Flexibility Score: inf
ROOT
ATOM      1  C   UNL A   1      37.040  22.820  25.839  1.00  0.00     0.274 C 
ENDROOT
BRANCH   1   2
ATOM      2  O   UNL A   1      37.104  22.268  24.508  1.00  0.00    -0.461 OA
BRANCH   2   3
ATOM      3  C   UNL A   1      36.173  22.723  23.630  1.00  0.00     0.316 C 
ATOM      4  O   UNL A   1      36.392  22.917  22.437  1.00  0.00    -0.251 OA
BRANCH   3   5
ATOM      5  C   UNL A   1      34.803  22.982  24.220  1.00  0.00     0.199 C 
BRANCH   5   6
ATOM      6  S   UNL A   1      33.529  23.538  23.053  1.00  0.00    -0.095 SA
BRANCH   6   7
ATOM      7  C   UNL A   1      32.949  25.091  23.706  1.00  0.00     0.098 A 
ATOM      8  C   UNL A   1      30.126  28.778  22.633  1.00  0.00     0.121 A 
ATOM      9  C   UNL A   1      30.534  29.471  23.766  1.00  0.00     0.047 A 
ATOM     10  C   UNL A   1      30.627  27.495  22.399  1.00  0.00     0.075 A 
ATOM     11  C   UNL A   1      31.434  28.876  24.647  1.00  0.00     0.014 A 
ATOM     12  C   UNL A   1      31.545  26.892  23.246  1.00  0.00     0.075 A 
ATOM     13  C   UNL A   1      31.946  27.583  24.405  1.00  0.00     0.003 A 
ATOM     14  N   UNL A   1      32.027  25.681  22.916  1.00  0.00    -0.241 NA
ATOM     15  C   UNL A   1      32.855  26.931  25.261  1.00  0.00    -0.039 A 
ATOM     16  C   UNL A   1      33.322  27.560  26.542  1.00  0.00     0.045 C 
ATOM     17  C   UNL A   1      33.374  25.683  24.884  1.00  0.00     0.039 A 
BRANCH   8  18
ATOM     18  O   UNL A   1      29.248  29.241  21.691  1.00  0.00    -0.497 OA
ATOM     19  C   UNL A   1      28.099  29.920  22.184  1.00  0.00     0.278 C 
ENDBRANCH   8  18
ENDBRANCH   6   7
ENDBRANCH   5   6
ENDBRANCH   3   5
ENDBRANCH   2   3
ENDBRANCH   1   2
BRANCH   1  20
ATOM     20  C   UNL A   1      38.052  23.947  26.013  1.00  0.00     0.275 C 
BRANCH  20  21
ATOM     21  O   UNL A   1      38.996  23.601  27.042  1.00  0.00    -0.458 OA
BRANCH  21  22
ATOM     22  C   UNL A   1      40.196  24.212  26.945  1.00  0.00     0.338 C 
ATOM     23  O   UNL A   1      41.157  23.848  26.287  1.00  0.00    -0.246 OA
BRANCH  22  24
ATOM     24  C   UNL A   1      40.234  25.436  27.769  1.00  0.00     0.060 A 
ATOM     25  C   UNL A   1      41.271  26.369  27.649  1.00  0.00     0.016 A 
ATOM     26  C   UNL A   1      39.289  25.558  28.791  1.00  0.00     0.016 A 
ATOM     27  C   UNL A   1      41.396  27.387  28.600  1.00  0.00     0.010 A 
ATOM     28  C   UNL A   1      39.386  26.606  29.705  1.00  0.00     0.010 A 
ATOM     29  C   UNL A   1      40.453  27.512  29.633  1.00  0.00    -0.014 A 
BRANCH  29  30
ATOM     30  C   UNL A   1      40.517  28.630  30.607  1.00  0.00     0.031 A 
ATOM     31  C   UNL A   1      41.468  28.599  31.771  1.00  0.00     0.074 A 
ATOM     32  C   UNL A   1      39.644  29.643  30.475  1.00  0.00     0.049 A 
ATOM     33  N   UNL A   1      41.545  29.410  32.795  1.00  0.00    -0.248 NA
ATOM     34  C   UNL A   1      42.462  27.518  31.789  1.00  0.00     0.031 C 
ATOM     35  C   UNL A   1      38.686  29.795  29.378  1.00  0.00     0.029 A 
ATOM     36  N   UNL A   1      39.402  30.721  31.285  1.00  0.00    -0.354 N 
ATOM     37  C   UNL A   1      42.587  28.932  33.584  1.00  0.00     0.074 A 
ATOM     38  C   UNL A   1      43.107  27.753  32.924  1.00  0.00     0.031 C 
ATOM     39  C   UNL A   1      37.953  30.897  29.589  1.00  0.00     0.029 A 
ATOM     40  C   UNL A   1      38.350  31.493  30.861  1.00  0.00     0.049 A 
ATOM     41  H   UNL A   1      39.930  30.922  32.092  1.00  0.00     0.167 HD
ATOM     42  C   UNL A   1      43.060  29.429  34.752  1.00  0.00     0.031 A 
ATOM     43  C   UNL A   1      37.737  32.537  31.447  1.00  0.00     0.031 A 
ATOM     44  C   UNL A   1      42.529  30.594  35.409  1.00  0.00     0.049 A 
ATOM     45  C   UNL A   1      38.213  33.010  32.786  1.00  0.00     0.074 A 
ATOM     46  C   UNL A   1      42.968  31.204  36.572  1.00  0.00     0.029 A 
ATOM     47  N   UNL A   1      41.431  31.317  34.969  1.00  0.00    -0.354 N 
ATOM     48  N   UNL A   1      39.205  32.555  33.512  1.00  0.00    -0.248 NA
ATOM     49  C   UNL A   1      37.481  34.131  33.389  1.00  0.00     0.031 C 
ATOM     50  C   UNL A   1      42.106  32.269  36.860  1.00  0.00     0.029 A 
ATOM     51  C   UNL A   1      41.154  32.346  35.855  1.00  0.00     0.049 A 
ATOM     52  H   UNL A   1      40.923  31.127  34.148  1.00  0.00     0.167 HD
ATOM     53  C   UNL A   1      39.225  33.341  34.655  1.00  0.00     0.074 A 
ATOM     54  C   UNL A   1      38.150  34.305  34.522  1.00  0.00     0.031 C 
ATOM     55  C   UNL A   1      40.065  33.277  35.718  1.00  0.00     0.031 A 
BRANCH  42  56
ATOM     56  C   UNL A   1      44.189  28.691  35.419  1.00  0.00    -0.014 A 
ATOM     57  C   UNL A   1      43.941  27.654  36.337  1.00  0.00     0.010 A 
ATOM     58  C   UNL A   1      45.519  29.004  35.083  1.00  0.00     0.010 A 
ATOM     59  C   UNL A   1      45.004  26.965  36.929  1.00  0.00     0.020 A 
ATOM     60  C   UNL A   1      46.584  28.306  35.661  1.00  0.00     0.020 A 
ATOM     61  C   UNL A   1      46.320  27.302  36.594  1.00  0.00     0.054 A 
BRANCH  61  62
ATOM     62  S   UNL A   1      47.685  26.384  37.362  1.00  0.00     0.124 S 
ATOM     63  O   UNL A   1      48.821  27.262  37.096  1.00  0.00    -0.237 OA
ATOM     64  O   UNL A   1      47.273  26.296  38.761  1.00  0.00    -0.237 OA
ATOM     65  O   UNL A   1      47.696  25.115  36.639  1.00  0.00    -0.744 OA
ENDBRANCH  61  62
ENDBRANCH  42  56
BRANCH  43  66
ATOM     66  C   UNL A   1      36.580  33.167  30.764  1.00  0.00    -0.014 A 
ATOM     67  C   UNL A   1      35.288  33.036  31.295  1.00  0.00     0.010 A 
ATOM     68  C   UNL A   1      36.785  33.976  29.631  1.00  0.00     0.010 A 
ATOM     69  C   UNL A   1      34.218  33.720  30.713  1.00  0.00     0.020 A 
ATOM     70  C   UNL A   1      35.720  34.676  29.060  1.00  0.00     0.020 A 
ATOM     71  C   UNL A   1      34.441  34.542  29.605  1.00  0.00     0.054 A 
BRANCH  71  72
ATOM     72  S   UNL A   1      33.064  35.512  28.934  1.00  0.00     0.124 S 
ATOM     73  O   UNL A   1      33.761  36.597  28.253  1.00  0.00    -0.237 OA
ATOM     74  O   UNL A   1      32.386  34.551  28.067  1.00  0.00    -0.237 OA
ATOM     75  O   UNL A   1      32.311  35.898  30.126  1.00  0.00    -0.744 OA
ENDBRANCH  71  72
ENDBRANCH  43  66
BRANCH  55  76
ATOM     76  C   UNL A   1      39.854  34.285  36.809  1.00  0.00    -0.014 A 
ATOM     77  C   UNL A   1      40.401  35.577  36.711  1.00  0.00     0.010 A 
ATOM     78  C   UNL A   1      39.087  33.942  37.937  1.00  0.00     0.010 A 
ATOM     79  C   UNL A   1      40.210  36.500  37.742  1.00  0.00     0.020 A 
ATOM     80  C   UNL A   1      38.881  34.870  38.961  1.00  0.00     0.020 A 
ATOM     81  C   UNL A   1      39.459  36.138  38.864  1.00  0.00     0.054 A 
BRANCH  81  82
ATOM     82  S   UNL A   1      39.204  37.356  40.183  1.00  0.00     0.124 S 
ATOM     83  O   UNL A   1      40.565  37.828  40.424  1.00  0.00    -0.237 OA
ATOM     84  O   UNL A   1      38.303  38.325  39.564  1.00  0.00    -0.237 OA
ATOM     85  O   UNL A   1      38.615  36.571  41.266  1.00  0.00    -0.744 OA
ENDBRANCH  81  82
ENDBRANCH  55  76
ENDBRANCH  29  30
ENDBRANCH  22  24
ENDBRANCH  21  22
ENDBRANCH  20  21
ENDBRANCH   1  20
TORSDOF 17
ENDMDL
MODEL 3
REMARK VINA RESULT:     -10.0      3.233      9.646
REMARK SMILES COc1ccc2c(C)cc(SCC(=O)OCCOC(=O)c3ccc(-c4c5nc(c(-c6ccc(S(=O)(=O)[O-])cc6)c6ccc([nH]6)c(-c6ccc(S(=O)(=O)[O-])cc6)c6nc(c(-c7ccc(S(=O)(=O)[O-])cc7)c7ccc4[nH]7)C=C6)C=C5)cc3)nc2c1
REMARK SMILES IDX 16 1 15 2 13 3 14 4 12 5 11 6 10 7 3 8 4 9 83 10 5 11 82 12
REMARK SMILES IDX 6 13 81 14 7 15 8 16 9 17 2 18 1 19 17 20 18 21 19 22 20 23
REMARK SMILES IDX 21 24 22 25 80 26 23 27 79 28 24 29 25 30 26 31 73 32 27 33
REMARK SMILES IDX 78 34 72 35 74 36 28 37 77 38 71 39 70 40 29 42 59 43 40 44
REMARK SMILES IDX 58 45 41 46 44 47 57 48 75 49 42 50 43 51 56 53 76 54 45 55
REMARK SMILES IDX 30 56 31 57 39 58 32 59 38 60 33 61 34 62 35 63 36 64 37 65
REMARK SMILES IDX 60 66 61 67 69 68 62 69 68 70 63 71 64 72 65 73 66 74 67 75
REMARK SMILES IDX 46 76 47 77 55 78 48 79 54 80 49 81 50 82 51 83 52 84 53 85
REMARK H PARENT 74 41 44 52
REMARK Flexibility Score: inf
ROOT
ATOM      1  C   UNL A   1      36.432  22.524  23.486  1.00  0.00     0.274 C 
ENDROOT
BRANCH   1   2
ATOM      2  O   UNL A   1      35.051  22.248  23.796  1.00  0.00    -0.461 OA
BRANCH   2   3
ATOM      3  C   UNL A   1      34.139  23.098  23.256  1.00  0.00     0.316 C 
ATOM      4  O   UNL A   1      34.431  24.151  22.694  1.00  0.00    -0.251 OA
BRANCH   3   5
ATOM      5  C   UNL A   1      32.697  22.660  23.384  1.00  0.00     0.199 C 
BRANCH   5   6
ATOM      6  S   UNL A   1      31.864  23.113  24.932  1.00  0.00    -0.095 SA
BRANCH   6   7
ATOM      7  C   UNL A   1      31.659  24.881  24.848  1.00  0.00     0.098 A 
ATOM      8  C   UNL A   1      33.359  28.934  26.693  1.00  0.00     0.121 A 
ATOM      9  C   UNL A   1      32.388  29.684  26.043  1.00  0.00     0.047 A 
ATOM     10  C   UNL A   1      33.403  27.552  26.493  1.00  0.00     0.075 A 
ATOM     11  C   UNL A   1      31.475  29.046  25.205  1.00  0.00     0.014 A 
ATOM     12  C   UNL A   1      32.489  26.889  25.687  1.00  0.00     0.075 A 
ATOM     13  C   UNL A   1      31.515  27.648  25.011  1.00  0.00     0.003 A 
ATOM     14  N   UNL A   1      32.561  25.550  25.598  1.00  0.00    -0.241 NA
ATOM     15  C   UNL A   1      30.622  26.951  24.174  1.00  0.00    -0.039 A 
ATOM     16  C   UNL A   1      29.567  27.663  23.378  1.00  0.00     0.045 C 
ATOM     17  C   UNL A   1      30.689  25.550  24.121  1.00  0.00     0.039 A 
BRANCH   8  18
ATOM     18  O   UNL A   1      34.315  29.430  27.537  1.00  0.00    -0.497 OA
ATOM     19  C   UNL A   1      34.520  30.838  27.492  1.00  0.00     0.278 C 
ENDBRANCH   8  18
ENDBRANCH   6   7
ENDBRANCH   5   6
ENDBRANCH   3   5
ENDBRANCH   2   3
ENDBRANCH   1   2
BRANCH   1  20
ATOM     20  C   UNL A   1      37.348  22.068  24.617  1.00  0.00     0.275 C 
BRANCH  20  21
ATOM     21  O   UNL A   1      37.712  23.193  25.436  1.00  0.00    -0.458 OA
BRANCH  21  22
ATOM     22  C   UNL A   1      38.951  23.135  25.970  1.00  0.00     0.338 C 
ATOM     23  O   UNL A   1      39.733  22.200  25.914  1.00  0.00    -0.246 OA
BRANCH  22  24
ATOM     24  C   UNL A   1      39.282  24.388  26.675  1.00  0.00     0.060 A 
ATOM     25  C   UNL A   1      40.153  25.333  26.122  1.00  0.00     0.016 A 
ATOM     26  C   UNL A   1      38.828  24.530  27.990  1.00  0.00     0.016 A 
ATOM     27  C   UNL A   1      40.622  26.386  26.913  1.00  0.00     0.010 A 
ATOM     28  C   UNL A   1      39.255  25.612  28.758  1.00  0.00     0.010 A 
ATOM     29  C   UNL A   1      40.174  26.533  28.236  1.00  0.00    -0.014 A 
BRANCH  29  30
ATOM     30  C   UNL A   1      40.594  27.686  29.071  1.00  0.00     0.031 A 
ATOM     31  C   UNL A   1      41.848  27.638  29.897  1.00  0.00     0.074 A 
ATOM     32  C   UNL A   1      39.780  28.754  29.139  1.00  0.00     0.049 A 
ATOM     33  N   UNL A   1      42.278  28.486  30.796  1.00  0.00    -0.248 NA
ATOM     34  C   UNL A   1      42.738  26.487  29.688  1.00  0.00     0.031 C 
ATOM     35  C   UNL A   1      38.546  28.926  28.371  1.00  0.00     0.029 A 
ATOM     36  N   UNL A   1      39.856  29.883  29.912  1.00  0.00    -0.354 N 
ATOM     37  C   UNL A   1      43.480  27.968  31.267  1.00  0.00     0.074 A 
ATOM     38  C   UNL A   1      43.709  26.726  30.561  1.00  0.00     0.031 C 
ATOM     39  C   UNL A   1      37.975  30.089  28.718  1.00  0.00     0.029 A 
ATOM     40  C   UNL A   1      38.771  30.710  29.771  1.00  0.00     0.049 A 
ATOM     41  H   UNL A   1      40.615  30.081  30.509  1.00  0.00     0.167 HD
ATOM     42  C   UNL A   1      44.312  28.481  32.206  1.00  0.00     0.031 A 
ATOM     43  C   UNL A   1      38.425  31.822  30.445  1.00  0.00     0.031 A 
ATOM     44  C   UNL A   1      44.072  29.712  32.913  1.00  0.00     0.049 A 
ATOM     45  C   UNL A   1      39.310  32.320  31.546  1.00  0.00     0.074 A 
ATOM     46  C   UNL A   1      44.876  30.340  33.849  1.00  0.00     0.029 A 
ATOM     47  N   UNL A   1      42.935  30.494  32.775  1.00  0.00    -0.354 N 
ATOM     48  N   UNL A   1      40.447  31.825  31.971  1.00  0.00    -0.248 NA
ATOM     49  C   UNL A   1      38.859  33.518  32.265  1.00  0.00     0.031 C 
ATOM     50  C   UNL A   1      44.203  31.478  34.311  1.00  0.00     0.029 A 
ATOM     51  C   UNL A   1      42.998  31.579  33.633  1.00  0.00     0.049 A 
ATOM     52  H   UNL A   1      42.193  30.305  32.157  1.00  0.00     0.167 HD
ATOM     53  C   UNL A   1      40.857  32.659  33.002  1.00  0.00     0.074 A 
ATOM     54  C   UNL A   1      39.848  33.693  33.132  1.00  0.00     0.031 C 
ATOM     55  C   UNL A   1      41.974  32.581  33.767  1.00  0.00     0.031 A 
BRANCH  42  56
ATOM     56  C   UNL A   1      45.546  27.693  32.552  1.00  0.00    -0.014 A 
ATOM     57  C   UNL A   1      45.512  26.675  33.523  1.00  0.00     0.010 A 
ATOM     58  C   UNL A   1      46.745  27.938  31.858  1.00  0.00     0.010 A 
ATOM     59  C   UNL A   1      46.664  25.938  33.814  1.00  0.00     0.020 A 
ATOM     60  C   UNL A   1      47.894  27.192  32.136  1.00  0.00     0.020 A 
ATOM     61  C   UNL A   1      47.851  26.207  33.125  1.00  0.00     0.054 A 
BRANCH  61  62
ATOM     62  S   UNL A   1      49.331  25.229  33.507  1.00  0.00     0.124 S 
ATOM     63  O   UNL A   1      50.097  25.351  32.270  1.00  0.00    -0.237 OA
ATOM     64  O   UNL A   1      49.891  25.922  34.665  1.00  0.00    -0.237 OA
ATOM     65  O   UNL A   1      48.801  23.896  33.782  1.00  0.00    -0.744 OA
ENDBRANCH  61  62
ENDBRANCH  42  56
BRANCH  43  66
ATOM     66  C   UNL A   1      37.154  32.505  30.097  1.00  0.00    -0.014 A 
ATOM     67  C   UNL A   1      35.995  32.266  30.852  1.00  0.00     0.010 A 
ATOM     68  C   UNL A   1      37.126  33.464  29.069  1.00  0.00     0.010 A 
ATOM     69  C   UNL A   1      34.828  32.991  30.594  1.00  0.00     0.020 A 
ATOM     70  C   UNL A   1      35.967  34.203  28.822  1.00  0.00     0.020 A 
ATOM     71  C   UNL A   1      34.824  33.960  29.587  1.00  0.00     0.054 A 
BRANCH  71  72
ATOM     72  S   UNL A   1      33.338  34.972  29.343  1.00  0.00     0.124 S 
ATOM     73  O   UNL A   1      33.902  36.226  28.855  1.00  0.00    -0.237 OA
ATOM     74  O   UNL A   1      32.578  34.195  28.366  1.00  0.00    -0.237 OA
ATOM     75  O   UNL A   1      32.744  35.026  30.677  1.00  0.00    -0.744 OA
ENDBRANCH  71  72
ENDBRANCH  43  66
BRANCH  55  76
ATOM     76  C   UNL A   1      42.160  33.651  34.803  1.00  0.00    -0.014 A 
ATOM     77  C   UNL A   1      42.749  34.883  34.467  1.00  0.00     0.010 A 
ATOM     78  C   UNL A   1      41.728  33.427  36.122  1.00  0.00     0.010 A 
ATOM     79  C   UNL A   1      42.931  35.864  35.444  1.00  0.00     0.020 A 
ATOM     80  C   UNL A   1      41.894  34.413  37.097  1.00  0.00     0.020 A 
ATOM     81  C   UNL A   1      42.510  35.619  36.755  1.00  0.00     0.054 A 
BRANCH  81  82
ATOM     82  S   UNL A   1      42.737  36.911  38.008  1.00  0.00     0.124 S 
ATOM     83  O   UNL A   1      43.493  36.205  39.037  1.00  0.00    -0.237 OA
ATOM     84  O   UNL A   1      43.475  37.944  37.282  1.00  0.00    -0.237 OA
ATOM     85  O   UNL A   1      41.370  37.275  38.376  1.00  0.00    -0.744 OA
ENDBRANCH  81  82
ENDBRANCH  55  76
ENDBRANCH  29  30
ENDBRANCH  22  24
ENDBRANCH  21  22
ENDBRANCH  20  21
ENDBRANCH   1  20
TORSDOF 17
ENDMDL
