MODEL 1
REMARK VINA RESULT:     -10.5      0.000      0.000
REMARK SMILES CC1(C)[C@H](C(=O)Nc2cccc3[nH]ccc23)[C@H]1C(=O)OCCOC(=O)c1ccc(-c2c3nc(c(-c4ccc(S(=O)(=O)[O-])cc4)c4ccc([nH]4)c(-c4ccc(S(=O)(=O)[O-])cc4)c4nc(c(-c5ccc(S(=O)(=O)[O-])cc5)c5ccc2[nH]5)C=C4)C=C3)cc1
REMARK SMILES IDX 22 1 21 2 20 3 18 4 19 5 17 6 1 7 2 8 3 9 4 10 5 11 6 12
REMARK SMILES IDX 7 13 8 15 9 16 16 17 10 18 12 19 15 20 11 21 13 22 14 23
REMARK SMILES IDX 23 25 24 26 25 27 26 28 27 29 85 30 28 31 84 32 29 33 30 34
REMARK SMILES IDX 31 35 78 36 32 37 83 38 77 39 79 40 33 41 82 42 76 43 75 44
REMARK SMILES IDX 34 46 64 47 45 48 63 49 46 50 49 51 62 52 80 53 47 54 48 55
REMARK SMILES IDX 61 57 81 58 50 59 35 60 36 61 44 62 37 63 43 64 38 65 39 66
REMARK SMILES IDX 40 67 41 68 42 69 65 70 66 71 74 72 67 73 73 74 68 75 69 76
REMARK SMILES IDX 70 77 71 78 72 79 51 80 52 81 60 82 53 83 59 84 54 85 55 86
REMARK SMILES IDX 56 87 57 88 58 89
REMARK H PARENT 7 14 13 24 79 45 49 56
REMARK Flexibility Score: inf
ROOT
ATOM      1  C   UNL A   1      34.525  33.007  28.015  1.00  0.00     0.275 C 
ENDROOT
BRANCH   1   2
ATOM      2  C   UNL A   1      33.347  33.925  28.338  1.00  0.00     0.274 C 
BRANCH   2   3
ATOM      3  O   UNL A   1      33.850  35.221  28.704  1.00  0.00    -0.462 OA
BRANCH   3   4
ATOM      4  C   UNL A   1      33.240  35.851  29.738  1.00  0.00     0.310 C 
ATOM      5  O   UNL A   1      32.177  36.451  29.695  1.00  0.00    -0.252 OA
BRANCH   4   6
ATOM      6  C   UNL A   1      33.952  35.646  31.018  1.00  0.00     0.118 C 
ATOM      7  C   UNL A   1      31.825  35.997  32.551  1.00  0.00     0.013 C 
ATOM      8  C   UNL A   1      33.308  35.765  32.391  1.00  0.00    -0.009 C 
ATOM      9  C   UNL A   1      34.112  36.538  33.406  1.00  0.00     0.013 C 
ATOM     10  C   UNL A   1      33.716  34.399  31.821  1.00  0.00     0.100 C 
BRANCH  10  11
ATOM     11  C   UNL A   1      34.801  33.513  32.342  1.00  0.00     0.228 C 
ATOM     12  O   UNL A   1      34.670  33.034  33.463  1.00  0.00    -0.274 OA
ATOM     13  N   UNL A   1      35.718  33.025  31.438  1.00  0.00    -0.325 N 
ATOM     14  H   UNL A   1      35.502  32.173  30.994  1.00  0.00     0.169 HD
BRANCH  13  15
ATOM     15  C   UNL A   1      36.941  33.642  31.094  1.00  0.00     0.050 A 
ATOM     16  C   UNL A   1      37.260  33.943  29.765  1.00  0.00     0.027 A 
ATOM     17  C   UNL A   1      37.874  33.997  32.098  1.00  0.00     0.023 A 
ATOM     18  C   UNL A   1      38.516  34.425  29.405  1.00  0.00     0.004 A 
ATOM     19  C   UNL A   1      39.123  34.498  31.710  1.00  0.00     0.047 A 
ATOM     20  C   UNL A   1      37.883  33.954  33.524  1.00  0.00     0.030 A 
ATOM     21  C   UNL A   1      39.485  34.682  30.371  1.00  0.00     0.027 A 
ATOM     22  N   UNL A   1      39.857  34.724  32.854  1.00  0.00    -0.361 N 
ATOM     23  C   UNL A   1      39.102  34.427  33.957  1.00  0.00     0.083 A 
ATOM     24  H   UNL A   1      40.786  35.051  32.876  1.00  0.00     0.166 HD
ENDBRANCH  13  15
ENDBRANCH  10  11
ENDBRANCH   4   6
ENDBRANCH   3   4
ENDBRANCH   2   3
ENDBRANCH   1   2
BRANCH   1  25
ATOM     25  O   UNL A   1      34.465  31.817  28.825  1.00  0.00    -0.458 OA
BRANCH  25  26
ATOM     26  C   UNL A   1      34.478  30.654  28.133  1.00  0.00     0.338 C 
ATOM     27  O   UNL A   1      33.595  30.197  27.426  1.00  0.00    -0.246 OA
BRANCH  26  28
ATOM     28  C   UNL A   1      35.792  30.018  28.269  1.00  0.00     0.060 A 
ATOM     29  C   UNL A   1      36.140  29.489  29.507  1.00  0.00     0.016 A 
ATOM     30  C   UNL A   1      36.729  30.073  27.238  1.00  0.00     0.016 A 
ATOM     31  C   UNL A   1      37.454  29.111  29.754  1.00  0.00     0.010 A 
ATOM     32  C   UNL A   1      38.034  29.615  27.469  1.00  0.00     0.010 A 
ATOM     33  C   UNL A   1      38.426  29.175  28.746  1.00  0.00    -0.014 A 
BRANCH  33  34
ATOM     34  C   UNL A   1      39.845  28.840  29.070  1.00  0.00     0.031 A 
ATOM     35  C   UNL A   1      40.702  29.814  29.842  1.00  0.00     0.074 A 
ATOM     36  C   UNL A   1      40.356  27.637  28.738  1.00  0.00     0.049 A 
ATOM     37  N   UNL A   1      41.971  29.722  30.159  1.00  0.00    -0.248 NA
ATOM     38  C   UNL A   1      40.058  31.049  30.313  1.00  0.00     0.031 C 
ATOM     39  C   UNL A   1      39.636  26.576  28.031  1.00  0.00     0.029 A 
ATOM     40  N   UNL A   1      41.596  27.092  28.974  1.00  0.00    -0.354 N 
ATOM     41  C   UNL A   1      42.289  30.912  30.807  1.00  0.00     0.074 A 
ATOM     42  C   UNL A   1      41.080  31.706  30.842  1.00  0.00     0.031 C 
ATOM     43  C   UNL A   1      40.425  25.494  27.936  1.00  0.00     0.029 A 
ATOM     44  C   UNL A   1      41.733  25.807  28.500  1.00  0.00     0.049 A 
ATOM     45  H   UNL A   1      42.319  27.575  29.437  1.00  0.00     0.167 HD
ATOM     46  C   UNL A   1      43.479  31.312  31.322  1.00  0.00     0.031 A 
ATOM     47  C   UNL A   1      42.795  24.977  28.488  1.00  0.00     0.031 A 
ATOM     48  C   UNL A   1      44.676  30.513  31.323  1.00  0.00     0.049 A 
ATOM     49  C   UNL A   1      44.106  25.446  29.053  1.00  0.00     0.074 A 
ATOM     50  C   UNL A   1      45.924  30.835  31.831  1.00  0.00     0.029 A 
ATOM     51  N   UNL A   1      44.778  29.234  30.801  1.00  0.00    -0.354 N 
ATOM     52  N   UNL A   1      44.390  26.591  29.628  1.00  0.00    -0.248 NA
ATOM     53  C   UNL A   1      45.241  24.517  28.958  1.00  0.00     0.031 C 
ATOM     54  C   UNL A   1      46.789  29.764  31.583  1.00  0.00     0.029 A 
ATOM     55  C   UNL A   1      46.067  28.756  30.968  1.00  0.00     0.049 A 
ATOM     56  H   UNL A   1      44.041  28.738  30.375  1.00  0.00     0.167 HD
ATOM     57  C   UNL A   1      45.736  26.514  29.969  1.00  0.00     0.074 A 
ATOM     58  C   UNL A   1      46.200  25.203  29.562  1.00  0.00     0.031 C 
ATOM     59  C   UNL A   1      46.519  27.451  30.559  1.00  0.00     0.031 A 
BRANCH  46  60
ATOM     60  C   UNL A   1      43.557  32.703  31.897  1.00  0.00    -0.014 A 
ATOM     61  C   UNL A   1      43.316  32.953  33.259  1.00  0.00     0.010 A 
ATOM     62  C   UNL A   1      43.922  33.774  31.058  1.00  0.00     0.010 A 
ATOM     63  C   UNL A   1      43.401  34.254  33.764  1.00  0.00     0.020 A 
ATOM     64  C   UNL A   1      44.033  35.071  31.564  1.00  0.00     0.020 A 
ATOM     65  C   UNL A   1      43.754  35.306  32.912  1.00  0.00     0.054 A 
BRANCH  65  66
ATOM     66  S   UNL A   1      43.873  36.983  33.595  1.00  0.00     0.124 S 
ATOM     67  O   UNL A   1      42.656  37.065  34.399  1.00  0.00    -0.237 OA
ATOM     68  O   UNL A   1      45.122  36.935  34.348  1.00  0.00    -0.237 OA
ATOM     69  O   UNL A   1      43.895  37.838  32.410  1.00  0.00    -0.744 OA
ENDBRANCH  65  66
ENDBRANCH  46  60
BRANCH  47  70
ATOM     70  C   UNL A   1      42.667  23.619  27.891  1.00  0.00    -0.014 A 
ATOM     71  C   UNL A   1      42.192  22.541  28.659  1.00  0.00     0.010 A 
ATOM     72  C   UNL A   1      43.007  23.402  26.543  1.00  0.00     0.010 A 
ATOM     73  C   UNL A   1      42.068  21.270  28.091  1.00  0.00     0.020 A 
ATOM     74  C   UNL A   1      42.854  22.140  25.964  1.00  0.00     0.020 A 
ATOM     75  C   UNL A   1      42.396  21.079  26.746  1.00  0.00     0.054 A 
BRANCH  75  76
ATOM     76  S   UNL A   1      42.168  19.437  26.008  1.00  0.00     0.124 S 
ATOM     77  O   UNL A   1      40.731  19.418  25.755  1.00  0.00    -0.237 OA
ATOM     78  O   UNL A   1      43.019  19.501  24.823  1.00  0.00    -0.237 OA
ATOM     79  O   UNL A   1      42.634  18.528  27.053  1.00  0.00    -0.744 OA
ENDBRANCH  75  76
ENDBRANCH  47  70
BRANCH  59  80
ATOM     80  C   UNL A   1      47.952  27.081  30.832  1.00  0.00    -0.014 A 
ATOM     81  C   UNL A   1      48.293  26.201  31.874  1.00  0.00     0.010 A 
ATOM     82  C   UNL A   1      48.970  27.594  30.007  1.00  0.00     0.010 A 
ATOM     83  C   UNL A   1      49.631  25.868  32.109  1.00  0.00     0.020 A 
ATOM     84  C   UNL A   1      50.306  27.244  30.223  1.00  0.00     0.020 A 
ATOM     85  C   UNL A   1      50.629  26.396  31.284  1.00  0.00     0.054 A 
BRANCH  85  86
ATOM     86  S   UNL A   1      52.355  25.927  31.590  1.00  0.00     0.124 S 
ATOM     87  O   UNL A   1      52.765  26.915  32.584  1.00  0.00    -0.237 OA
ATOM     88  O   UNL A   1      52.235  24.556  32.079  1.00  0.00    -0.237 OA
ATOM     89  O   UNL A   1      52.986  26.061  30.279  1.00  0.00    -0.744 OA
ENDBRANCH  85  86
ENDBRANCH  59  80
ENDBRANCH  33  34
ENDBRANCH  26  28
ENDBRANCH  25  26
ENDBRANCH   1  25
TORSDOF 16
ENDMDL
MODEL 2
REMARK VINA RESULT:     -10.4      4.682     10.703
REMARK SMILES CC1(C)[C@H](C(=O)Nc2cccc3[nH]ccc23)[C@H]1C(=O)OCCOC(=O)c1ccc(-c2c3nc(c(-c4ccc(S(=O)(=O)[O-])cc4)c4ccc([nH]4)c(-c4ccc(S(=O)(=O)[O-])cc4)c4nc(c(-c5ccc(S(=O)(=O)[O-])cc5)c5ccc2[nH]5)C=C4)C=C3)cc1
REMARK SMILES IDX 22 1 21 2 20 3 18 4 19 5 17 6 1 7 2 8 3 9 4 10 5 11 6 12
REMARK SMILES IDX 7 13 8 15 9 16 16 17 10 18 12 19 15 20 11 21 13 22 14 23
REMARK SMILES IDX 23 25 24 26 25 27 26 28 27 29 85 30 28 31 84 32 29 33 30 34
REMARK SMILES IDX 31 35 78 36 32 37 83 38 77 39 79 40 33 41 82 42 76 43 75 44
REMARK SMILES IDX 34 46 64 47 45 48 63 49 46 50 49 51 62 52 80 53 47 54 48 55
REMARK SMILES IDX 61 57 81 58 50 59 35 60 36 61 44 62 37 63 43 64 38 65 39 66
REMARK SMILES IDX 40 67 41 68 42 69 65 70 66 71 74 72 67 73 73 74 68 75 69 76
REMARK SMILES IDX 70 77 71 78 72 79 51 80 52 81 60 82 53 83 59 84 54 85 55 86
REMARK SMILES IDX 56 87 57 88 58 89
REMARK H PARENT 7 14 13 24 79 45 49 56
REMARK Flexibility Score: inf
ROOT
ATOM      1  C   UNL A   1      32.147  30.537  26.713  1.00  0.00     0.275 C 
ENDROOT
BRANCH   1   2
ATOM      2  C   UNL A   1      31.864  29.632  25.516  1.00  0.00     0.274 C 
BRANCH   2   3
ATOM      3  O   UNL A   1      32.547  28.381  25.702  1.00  0.00    -0.462 OA
BRANCH   3   4
ATOM      4  C   UNL A   1      31.794  27.313  26.061  1.00  0.00     0.310 C 
ATOM      5  O   UNL A   1      31.077  27.230  27.046  1.00  0.00    -0.252 OA
BRANCH   4   6
ATOM      6  C   UNL A   1      31.826  26.238  25.045  1.00  0.00     0.118 C 
ATOM      7  C   UNL A   1      30.036  27.347  23.444  1.00  0.00     0.013 C 
ATOM      8  C   UNL A   1      30.951  26.200  23.802  1.00  0.00    -0.009 C 
ATOM      9  C   UNL A   1      30.317  24.863  23.510  1.00  0.00     0.013 C 
ATOM     10  C   UNL A   1      32.455  26.486  23.704  1.00  0.00     0.100 C 
BRANCH  10  11
ATOM     11  C   UNL A   1      33.484  25.600  23.078  1.00  0.00     0.228 C 
ATOM     12  O   UNL A   1      33.961  25.937  22.000  1.00  0.00    -0.274 OA
ATOM     13  N   UNL A   1      34.072  24.642  23.873  1.00  0.00    -0.325 N 
ATOM     14  H   UNL A   1      34.881  24.903  24.369  1.00  0.00     0.169 HD
BRANCH  13  15
ATOM     15  C   UNL A   1      33.615  23.316  24.037  1.00  0.00     0.050 A 
ATOM     16  C   UNL A   1      33.102  22.580  22.962  1.00  0.00     0.027 A 
ATOM     17  C   UNL A   1      33.689  22.682  25.300  1.00  0.00     0.023 A 
ATOM     18  C   UNL A   1      32.527  21.325  23.143  1.00  0.00     0.004 A 
ATOM     19  C   UNL A   1      33.120  21.411  25.451  1.00  0.00     0.047 A 
ATOM     20  C   UNL A   1      34.218  23.039  26.577  1.00  0.00     0.030 A 
ATOM     21  C   UNL A   1      32.496  20.729  24.401  1.00  0.00     0.027 A 
ATOM     22  N   UNL A   1      33.281  21.033  26.767  1.00  0.00    -0.361 N 
ATOM     23  C   UNL A   1      33.973  22.000  27.446  1.00  0.00     0.083 A 
ATOM     24  H   UNL A   1      32.949  20.194  27.159  1.00  0.00     0.166 HD
ENDBRANCH  13  15
ENDBRANCH  10  11
ENDBRANCH   4   6
ENDBRANCH   3   4
ENDBRANCH   2   3
ENDBRANCH   1   2
BRANCH   1  25
ATOM     25  O   UNL A   1      33.456  30.260  27.248  1.00  0.00    -0.458 OA
BRANCH  25  26
ATOM     26  C   UNL A   1      34.166  31.352  27.615  1.00  0.00     0.338 C 
ATOM     27  O   UNL A   1      33.786  32.510  27.653  1.00  0.00    -0.246 OA
BRANCH  26  28
ATOM     28  C   UNL A   1      35.495  30.939  28.078  1.00  0.00     0.060 A 
ATOM     29  C   UNL A   1      35.638  29.660  28.606  1.00  0.00     0.016 A 
ATOM     30  C   UNL A   1      36.553  31.846  28.133  1.00  0.00     0.016 A 
ATOM     31  C   UNL A   1      36.801  29.317  29.284  1.00  0.00     0.010 A 
ATOM     32  C   UNL A   1      37.754  31.466  28.749  1.00  0.00     0.010 A 
ATOM     33  C   UNL A   1      37.875  30.214  29.378  1.00  0.00    -0.014 A 
BRANCH  33  34
ATOM     34  C   UNL A   1      39.074  29.842  30.185  1.00  0.00     0.031 A 
ATOM     35  C   UNL A   1      40.031  28.785  29.690  1.00  0.00     0.074 A 
ATOM     36  C   UNL A   1      39.353  30.492  31.333  1.00  0.00     0.049 A 
ATOM     37  N   UNL A   1      41.088  28.287  30.284  1.00  0.00    -0.248 NA
ATOM     38  C   UNL A   1      39.767  28.208  28.363  1.00  0.00     0.031 C 
ATOM     39  C   UNL A   1      38.547  31.567  31.917  1.00  0.00     0.029 A 
ATOM     40  N   UNL A   1      40.409  30.364  32.205  1.00  0.00    -0.354 N 
ATOM     41  C   UNL A   1      41.574  27.298  29.434  1.00  0.00     0.074 A 
ATOM     42  C   UNL A   1      40.700  27.270  28.281  1.00  0.00     0.031 C 
ATOM     43  C   UNL A   1      39.160  32.032  33.017  1.00  0.00     0.029 A 
ATOM     44  C   UNL A   1      40.359  31.239  33.265  1.00  0.00     0.049 A 
ATOM     45  H   UNL A   1      41.132  29.707  32.083  1.00  0.00     0.167 HD
ATOM     46  C   UNL A   1      42.646  26.483  29.597  1.00  0.00     0.031 A 
ATOM     47  C   UNL A   1      41.164  31.378  34.337  1.00  0.00     0.031 A 
ATOM     48  C   UNL A   1      43.540  26.529  30.723  1.00  0.00     0.049 A 
ATOM     49  C   UNL A   1      42.339  30.455  34.503  1.00  0.00     0.074 A 
ATOM     50  C   UNL A   1      44.658  25.747  30.966  1.00  0.00     0.029 A 
ATOM     51  N   UNL A   1      43.431  27.407  31.789  1.00  0.00    -0.354 N 
ATOM     52  N   UNL A   1      42.755  29.504  33.702  1.00  0.00    -0.248 NA
ATOM     53  C   UNL A   1      43.143  30.618  35.722  1.00  0.00     0.031 C 
ATOM     54  C   UNL A   1      45.201  26.128  32.198  1.00  0.00     0.029 A 
ATOM     55  C   UNL A   1      44.454  27.181  32.696  1.00  0.00     0.049 A 
ATOM     56  H   UNL A   1      42.729  28.091  31.888  1.00  0.00     0.167 HD
ATOM     57  C   UNL A   1      43.877  28.960  34.319  1.00  0.00     0.074 A 
ATOM     58  C   UNL A   1      44.088  29.706  35.543  1.00  0.00     0.031 C 
ATOM     59  C   UNL A   1      44.656  27.928  33.911  1.00  0.00     0.031 A 
BRANCH  46  60
ATOM     60  C   UNL A   1      42.890  25.433  28.544  1.00  0.00    -0.014 A 
ATOM     61  C   UNL A   1      43.702  25.686  27.425  1.00  0.00     0.010 A 
ATOM     62  C   UNL A   1      42.325  24.153  28.704  1.00  0.00     0.010 A 
ATOM     63  C   UNL A   1      43.913  24.691  26.466  1.00  0.00     0.020 A 
ATOM     64  C   UNL A   1      42.555  23.148  27.762  1.00  0.00     0.020 A 
ATOM     65  C   UNL A   1      43.334  23.429  26.638  1.00  0.00     0.054 A 
BRANCH  65  66
ATOM     66  S   UNL A   1      43.637  22.150  25.388  1.00  0.00     0.124 S 
ATOM     67  O   UNL A   1      42.561  21.201  25.664  1.00  0.00    -0.237 OA
ATOM     68  O   UNL A   1      43.517  22.889  24.135  1.00  0.00    -0.237 OA
ATOM     69  O   UNL A   1      44.983  21.672  25.700  1.00  0.00    -0.744 OA
ENDBRANCH  65  66
ENDBRANCH  46  60
BRANCH  47  70
ATOM     70  C   UNL A   1      40.866  32.420  35.358  1.00  0.00    -0.014 A 
ATOM     71  C   UNL A   1      40.056  32.122  36.469  1.00  0.00     0.010 A 
ATOM     72  C   UNL A   1      41.404  33.713  35.231  1.00  0.00     0.010 A 
ATOM     73  C   UNL A   1      39.785  33.101  37.429  1.00  0.00     0.020 A 
ATOM     74  C   UNL A   1      41.161  34.685  36.205  1.00  0.00     0.020 A 
ATOM     75  C   UNL A   1      40.342  34.376  37.292  1.00  0.00     0.054 A 
BRANCH  75  76
ATOM     76  S   UNL A   1      40.032  35.615  38.580  1.00  0.00     0.124 S 
ATOM     77  O   UNL A   1      38.907  35.027  39.300  1.00  0.00    -0.237 OA
ATOM     78  O   UNL A   1      41.301  35.645  39.303  1.00  0.00    -0.237 OA
ATOM     79  O   UNL A   1      39.728  36.825  37.820  1.00  0.00    -0.744 OA
ENDBRANCH  75  76
ENDBRANCH  47  70
BRANCH  59  80
ATOM     80  C   UNL A   1      45.831  27.565  34.777  1.00  0.00    -0.014 A 
ATOM     81  C   UNL A   1      47.111  28.091  34.529  1.00  0.00     0.010 A 
ATOM     82  C   UNL A   1      45.643  26.713  35.881  1.00  0.00     0.010 A 
ATOM     83  C   UNL A   1      48.190  27.743  35.348  1.00  0.00     0.020 A 
ATOM     84  C   UNL A   1      46.712  26.383  36.717  1.00  0.00     0.020 A 
ATOM     85  C   UNL A   1      47.983  26.887  36.435  1.00  0.00     0.054 A 
BRANCH  85  86
ATOM     86  S   UNL A   1      49.391  26.473  37.501  1.00  0.00     0.124 S 
ATOM     87  O   UNL A   1      49.831  25.198  36.940  1.00  0.00    -0.237 OA
ATOM     88  O   UNL A   1      50.299  27.598  37.289  1.00  0.00    -0.237 OA
ATOM     89  O   UNL A   1      48.802  26.398  38.836  1.00  0.00    -0.744 OA
ENDBRANCH  85  86
ENDBRANCH  59  80
ENDBRANCH  33  34
ENDBRANCH  26  28
ENDBRANCH  25  26
ENDBRANCH   1  25
TORSDOF 16
ENDMDL
MODEL 3
REMARK VINA RESULT:     -10.4      4.473     10.969
REMARK SMILES CC1(C)[C@H](C(=O)Nc2cccc3[nH]ccc23)[C@H]1C(=O)OCCOC(=O)c1ccc(-c2c3nc(c(-c4ccc(S(=O)(=O)[O-])cc4)c4ccc([nH]4)c(-c4ccc(S(=O)(=O)[O-])cc4)c4nc(c(-c5ccc(S(=O)(=O)[O-])cc5)c5ccc2[nH]5)C=C4)C=C3)cc1
REMARK SMILES IDX 22 1 21 2 20 3 18 4 19 5 17 6 1 7 2 8 3 9 4 10 5 11 6 12
REMARK SMILES IDX 7 13 8 15 9 16 16 17 10 18 12 19 15 20 11 21 13 22 14 23
REMARK SMILES IDX 23 25 24 26 25 27 26 28 27 29 85 30 28 31 84 32 29 33 30 34
REMARK SMILES IDX 31 35 78 36 32 37 83 38 77 39 79 40 33 41 82 42 76 43 75 44
REMARK SMILES IDX 34 46 64 47 45 48 63 49 46 50 49 51 62 52 80 53 47 54 48 55
REMARK SMILES IDX 61 57 81 58 50 59 35 60 36 61 44 62 37 63 43 64 38 65 39 66
REMARK SMILES IDX 40 67 41 68 42 69 65 70 66 71 74 72 67 73 73 74 68 75 69 76
REMARK SMILES IDX 70 77 71 78 72 79 51 80 52 81 60 82 53 83 59 84 54 85 55 86
REMARK SMILES IDX 56 87 57 88 58 89
REMARK H PARENT 7 14 13 24 79 45 49 56
REMARK Flexibility Score: inf
ROOT
ATOM      1  C   UNL A   1      37.451  21.202  25.041  1.00  0.00     0.275 C 
ENDROOT
BRANCH   1   2
ATOM      2  C   UNL A   1      35.924  21.219  25.041  1.00  0.00     0.274 C 
BRANCH   2   3
ATOM      3  O   UNL A   1      35.470  22.582  25.101  1.00  0.00    -0.462 OA
BRANCH   3   4
ATOM      4  C   UNL A   1      34.987  23.123  23.955  1.00  0.00     0.310 C 
ATOM      5  O   UNL A   1      35.538  23.122  22.866  1.00  0.00    -0.252 OA
BRANCH   4   6
ATOM      6  C   UNL A   1      33.612  23.644  24.118  1.00  0.00     0.118 C 
ATOM      7  C   UNL A   1      32.426  21.285  23.967  1.00  0.00     0.013 C 
ATOM      8  C   UNL A   1      32.356  22.790  24.072  1.00  0.00    -0.009 C 
ATOM      9  C   UNL A   1      31.228  23.359  23.248  1.00  0.00     0.013 C 
ATOM     10  C   UNL A   1      32.856  23.394  25.391  1.00  0.00     0.100 C 
BRANCH  10  11
ATOM     11  C   UNL A   1      32.175  24.458  26.190  1.00  0.00     0.228 C 
ATOM     12  O   UNL A   1      31.658  24.140  27.255  1.00  0.00    -0.274 OA
ATOM     13  N   UNL A   1      32.436  25.770  25.864  1.00  0.00    -0.325 N 
ATOM     14  H   UNL A   1      33.203  26.200  26.307  1.00  0.00     0.169 HD
BRANCH  13  15
ATOM     15  C   UNL A   1      31.699  26.552  24.948  1.00  0.00     0.050 A 
ATOM     16  C   UNL A   1      30.307  26.449  24.853  1.00  0.00     0.027 A 
ATOM     17  C   UNL A   1      32.354  27.488  24.113  1.00  0.00     0.023 A 
ATOM     18  C   UNL A   1      29.590  27.115  23.862  1.00  0.00     0.004 A 
ATOM     19  C   UNL A   1      31.607  28.160  23.137  1.00  0.00     0.047 A 
ATOM     20  C   UNL A   1      33.698  27.950  23.978  1.00  0.00     0.030 A 
ATOM     21  C   UNL A   1      30.233  27.961  22.962  1.00  0.00     0.027 A 
ATOM     22  N   UNL A   1      32.470  28.972  22.434  1.00  0.00    -0.361 N 
ATOM     23  C   UNL A   1      33.731  28.874  22.958  1.00  0.00     0.083 A 
ATOM     24  H   UNL A   1      32.218  29.539  21.669  1.00  0.00     0.166 HD
ENDBRANCH  13  15
ENDBRANCH  10  11
ENDBRANCH   4   6
ENDBRANCH   3   4
ENDBRANCH   2   3
ENDBRANCH   1   2
BRANCH   1  25
ATOM     25  O   UNL A   1      37.960  22.306  25.814  1.00  0.00    -0.458 OA
BRANCH  25  26
ATOM     26  C   UNL A   1      39.222  22.146  26.275  1.00  0.00     0.338 C 
ATOM     27  O   UNL A   1      39.956  21.183  26.121  1.00  0.00    -0.246 OA
BRANCH  26  28
ATOM     28  C   UNL A   1      39.661  23.377  26.941  1.00  0.00     0.060 A 
ATOM     29  C   UNL A   1      39.152  24.587  26.482  1.00  0.00     0.016 A 
ATOM     30  C   UNL A   1      40.671  23.357  27.902  1.00  0.00     0.016 A 
ATOM     31  C   UNL A   1      39.723  25.782  26.903  1.00  0.00     0.010 A 
ATOM     32  C   UNL A   1      41.189  24.568  28.382  1.00  0.00     0.010 A 
ATOM     33  C   UNL A   1      40.756  25.796  27.850  1.00  0.00    -0.014 A 
BRANCH  33  34
ATOM     34  C   UNL A   1      41.401  27.092  28.215  1.00  0.00     0.031 A 
ATOM     35  C   UNL A   1      42.874  27.309  27.966  1.00  0.00     0.074 A 
ATOM     36  C   UNL A   1      40.664  28.108  28.708  1.00  0.00     0.049 A 
ATOM     37  N   UNL A   1      43.619  28.342  28.276  1.00  0.00    -0.248 NA
ATOM     38  C   UNL A   1      43.608  26.228  27.290  1.00  0.00     0.031 C 
ATOM     39  C   UNL A   1      39.222  28.064  28.962  1.00  0.00     0.029 A 
ATOM     40  N   UNL A   1      41.020  29.388  29.061  1.00  0.00    -0.354 N 
ATOM     41  C   UNL A   1      44.914  28.009  27.891  1.00  0.00     0.074 A 
ATOM     42  C   UNL A   1      44.853  26.680  27.321  1.00  0.00     0.031 C 
ATOM     43  C   UNL A   1      38.810  29.271  29.379  1.00  0.00     0.029 A 
ATOM     44  C   UNL A   1      39.965  30.153  29.502  1.00  0.00     0.049 A 
ATOM     45  H   UNL A   1      41.943  29.726  29.005  1.00  0.00     0.167 HD
ATOM     46  C   UNL A   1      46.053  28.738  28.004  1.00  0.00     0.031 A 
ATOM     47  C   UNL A   1      39.923  31.412  29.980  1.00  0.00     0.031 A 
ATOM     48  C   UNL A   1      46.116  30.073  28.537  1.00  0.00     0.049 A 
ATOM     49  C   UNL A   1      41.199  32.196  30.110  1.00  0.00     0.074 A 
ATOM     50  C   UNL A   1      47.225  30.890  28.682  1.00  0.00     0.029 A 
ATOM     51  N   UNL A   1      45.029  30.794  29.004  1.00  0.00    -0.354 N 
ATOM     52  N   UNL A   1      42.417  31.844  29.772  1.00  0.00    -0.248 NA
ATOM     53  C   UNL A   1      41.097  33.540  30.693  1.00  0.00     0.031 C 
ATOM     54  C   UNL A   1      46.814  32.090  29.270  1.00  0.00     0.029 A 
ATOM     55  C   UNL A   1      45.442  32.042  29.443  1.00  0.00     0.049 A 
ATOM     56  H   UNL A   1      44.100  30.468  29.020  1.00  0.00     0.167 HD
ATOM     57  C   UNL A   1      43.224  32.928  30.097  1.00  0.00     0.074 A 
ATOM     58  C   UNL A   1      42.353  33.957  30.630  1.00  0.00     0.031 C 
ATOM     59  C   UNL A   1      44.568  33.057  29.973  1.00  0.00     0.031 A 
BRANCH  46  60
ATOM     60  C   UNL A   1      47.343  28.085  27.580  1.00  0.00    -0.014 A 
ATOM     61  C   UNL A   1      47.843  28.221  26.273  1.00  0.00     0.010 A 
ATOM     62  C   UNL A   1      48.089  27.355  28.526  1.00  0.00     0.010 A 
ATOM     63  C   UNL A   1      49.045  27.607  25.909  1.00  0.00     0.020 A 
ATOM     64  C   UNL A   1      49.304  26.763  28.173  1.00  0.00     0.020 A 
ATOM     65  C   UNL A   1      49.766  26.877  26.860  1.00  0.00     0.054 A 
BRANCH  65  66
ATOM     66  S   UNL A   1      51.332  26.104  26.368  1.00  0.00     0.124 S 
ATOM     67  O   UNL A   1      52.311  26.979  27.009  1.00  0.00    -0.237 OA
ATOM     68  O   UNL A   1      51.221  24.764  26.934  1.00  0.00    -0.237 OA
ATOM     69  O   UNL A   1      51.303  26.166  24.908  1.00  0.00    -0.744 OA
ENDBRANCH  65  66
ENDBRANCH  46  60
BRANCH  47  70
ATOM     70  C   UNL A   1      38.623  32.002  30.404  1.00  0.00    -0.014 A 
ATOM     71  C   UNL A   1      37.840  32.734  29.495  1.00  0.00     0.010 A 
ATOM     72  C   UNL A   1      38.156  31.819  31.719  1.00  0.00     0.010 A 
ATOM     73  C   UNL A   1      36.616  33.279  29.895  1.00  0.00     0.020 A 
ATOM     74  C   UNL A   1      36.920  32.337  32.114  1.00  0.00     0.020 A 
ATOM     75  C   UNL A   1      36.163  33.074  31.202  1.00  0.00     0.054 A 
BRANCH  75  76
ATOM     76  S   UNL A   1      34.545  33.734  31.686  1.00  0.00     0.124 S 
ATOM     77  O   UNL A   1      33.992  32.633  32.469  1.00  0.00    -0.237 OA
ATOM     78  O   UNL A   1      34.903  34.932  32.443  1.00  0.00    -0.237 OA
ATOM     79  O   UNL A   1      33.885  33.989  30.408  1.00  0.00    -0.744 OA
ENDBRANCH  75  76
ENDBRANCH  47  70
BRANCH  59  80
ATOM     80  C   UNL A   1      45.178  34.368  30.389  1.00  0.00    -0.014 A 
ATOM     81  C   UNL A   1      45.297  35.437  29.484  1.00  0.00     0.010 A 
ATOM     82  C   UNL A   1      45.604  34.544  31.718  1.00  0.00     0.010 A 
ATOM     83  C   UNL A   1      45.865  36.649  29.891  1.00  0.00     0.020 A 
ATOM     84  C   UNL A   1      46.149  35.761  32.136  1.00  0.00     0.020 A 
ATOM     85  C   UNL A   1      46.291  36.801  31.215  1.00  0.00     0.054 A 
BRANCH  85  86
ATOM     86  S   UNL A   1      46.998  38.390  31.729  1.00  0.00     0.124 S 
ATOM     87  O   UNL A   1      48.349  38.006  32.129  1.00  0.00    -0.237 OA
ATOM     88  O   UNL A   1      46.907  39.192  30.512  1.00  0.00    -0.237 OA
ATOM     89  O   UNL A   1      46.123  38.820  32.818  1.00  0.00    -0.744 OA
ENDBRANCH  85  86
ENDBRANCH  59  80
ENDBRANCH  33  34
ENDBRANCH  26  28
ENDBRANCH  25  26
ENDBRANCH   1  25
TORSDOF 16
ENDMDL
