MODEL 1
REMARK VINA RESULT:     -11.0      0.000      0.000
REMARK SMILES C[C@H]1CCC[C@]1(C(=O)OCCOC(=O)c1ccc(-c2c3nc(c(-c4ccc(S(=O)(=O)[O-])cc4)c4ccc([nH]4)c(-c4ccc(S(=O)(=O)[O-])cc4)c4nc(c(-c5ccc(S(=O)(=O)[O-])cc5)c5ccc2[nH]5)C=C4)C=C3)cc1)c1ccc2c(c1)OCO2
REMARK SMILES IDX 11 1 10 2 9 3 7 4 8 5 6 6 1 7 2 8 3 9 4 10 5 11 75 12 76 13
REMARK SMILES IDX 80 14 77 15 79 16 78 17 81 18 83 19 82 20 12 21 13 22 14 23
REMARK SMILES IDX 15 24 16 25 74 26 17 27 73 28 18 29 19 30 20 31 67 32 21 33
REMARK SMILES IDX 72 34 66 35 68 36 22 37 71 38 65 39 64 40 23 42 53 43 34 44
REMARK SMILES IDX 52 45 35 46 38 47 51 48 69 49 36 50 37 51 50 53 70 54 39 55
REMARK SMILES IDX 24 56 25 57 33 58 26 59 32 60 27 61 28 62 29 63 30 64 31 65
REMARK SMILES IDX 54 66 55 67 63 68 56 69 62 70 57 71 58 72 59 73 60 74 61 75
REMARK SMILES IDX 40 76 41 77 49 78 42 79 48 80 43 81 44 82 45 83 46 84 47 85
REMARK H PARENT 68 41 38 52
REMARK Flexibility Score: inf
ROOT
ATOM      1  C   UNL A   1      32.515  30.135  26.879  1.00  0.00     0.275 C 
ENDROOT
BRANCH   1   2
ATOM      2  C   UNL A   1      32.762  29.707  25.436  1.00  0.00     0.274 C 
BRANCH   2   3
ATOM      3  O   UNL A   1      32.840  28.267  25.358  1.00  0.00    -0.461 OA
BRANCH   3   4
ATOM      4  C   UNL A   1      33.309  27.714  24.203  1.00  0.00     0.316 C 
ATOM      5  O   UNL A   1      34.036  28.328  23.432  1.00  0.00    -0.251 OA
BRANCH   4   6
ATOM      6  C   UNL A   1      32.667  26.319  23.909  1.00  0.00     0.096 C 
ATOM      7  C   UNL A   1      30.238  27.365  23.786  1.00  0.00     0.009 C 
ATOM      8  C   UNL A   1      31.263  26.401  23.201  1.00  0.00     0.008 C 
ATOM      9  C   UNL A   1      31.577  26.613  21.722  1.00  0.00     0.005 C 
ATOM     10  C   UNL A   1      32.782  25.711  21.495  1.00  0.00     0.002 C 
ATOM     11  C   UNL A   1      33.583  25.712  22.800  1.00  0.00     0.024 C 
BRANCH   6  12
ATOM     12  C   UNL A   1      32.590  25.347  25.125  1.00  0.00    -0.027 A 
ATOM     13  C   UNL A   1      31.396  25.065  25.835  1.00  0.00     0.009 A 
ATOM     14  C   UNL A   1      33.758  24.671  25.562  1.00  0.00     0.055 A 
ATOM     15  C   UNL A   1      31.336  24.101  26.855  1.00  0.00     0.051 A 
ATOM     16  C   UNL A   1      33.665  23.700  26.541  1.00  0.00     0.166 A 
ATOM     17  C   UNL A   1      32.480  23.411  27.161  1.00  0.00     0.165 A 
ATOM     18  O   UNL A   1      34.687  22.918  26.985  1.00  0.00    -0.454 OA
ATOM     19  O   UNL A   1      32.597  22.409  28.069  1.00  0.00    -0.454 OA
ATOM     20  C   UNL A   1      33.969  22.023  27.865  1.00  0.00     0.468 C 
ENDBRANCH   6  12
ENDBRANCH   4   6
ENDBRANCH   3   4
ENDBRANCH   2   3
ENDBRANCH   1   2
BRANCH   1  21
ATOM     21  O   UNL A   1      33.623  29.693  27.675  1.00  0.00    -0.458 OA
BRANCH  21  22
ATOM     22  C   UNL A   1      34.427  30.657  28.172  1.00  0.00     0.338 C 
ATOM     23  O   UNL A   1      34.101  31.803  28.459  1.00  0.00    -0.246 OA
BRANCH  22  24
ATOM     24  C   UNL A   1      35.796  30.119  28.326  1.00  0.00     0.060 A 
ATOM     25  C   UNL A   1      36.235  29.642  29.562  1.00  0.00     0.016 A 
ATOM     26  C   UNL A   1      36.678  30.140  27.245  1.00  0.00     0.016 A 
ATOM     27  C   UNL A   1      37.559  29.235  29.733  1.00  0.00     0.010 A 
ATOM     28  C   UNL A   1      37.984  29.661  27.401  1.00  0.00     0.010 A 
ATOM     29  C   UNL A   1      38.453  29.226  28.655  1.00  0.00    -0.014 A 
BRANCH  29  30
ATOM     30  C   UNL A   1      39.885  28.846  28.843  1.00  0.00     0.031 A 
ATOM     31  C   UNL A   1      40.851  29.854  29.412  1.00  0.00     0.074 A 
ATOM     32  C   UNL A   1      40.344  27.614  28.536  1.00  0.00     0.049 A 
ATOM     33  N   UNL A   1      42.159  29.847  29.402  1.00  0.00    -0.248 NA
ATOM     34  C   UNL A   1      40.262  31.034  30.066  1.00  0.00     0.031 C 
ATOM     35  C   UNL A   1      39.533  26.488  28.070  1.00  0.00     0.029 A 
ATOM     36  N   UNL A   1      41.620  27.101  28.584  1.00  0.00    -0.354 N 
ATOM     37  C   UNL A   1      42.547  31.057  29.968  1.00  0.00     0.074 A 
ATOM     38  C   UNL A   1      41.338  31.762  30.330  1.00  0.00     0.031 C 
ATOM     39  C   UNL A   1      40.320  25.408  27.923  1.00  0.00     0.029 A 
ATOM     40  C   UNL A   1      41.706  25.789  28.176  1.00  0.00     0.049 A 
ATOM     41  H   UNL A   1      42.399  27.623  28.882  1.00  0.00     0.167 HD
ATOM     42  C   UNL A   1      43.799  31.543  30.150  1.00  0.00     0.031 A 
ATOM     43  C   UNL A   1      42.776  24.995  27.973  1.00  0.00     0.031 A 
ATOM     44  C   UNL A   1      45.002  30.816  29.843  1.00  0.00     0.049 A 
ATOM     45  C   UNL A   1      44.159  25.561  28.150  1.00  0.00     0.074 A 
ATOM     46  C   UNL A   1      46.316  31.236  29.954  1.00  0.00     0.029 A 
ATOM     47  N   UNL A   1      45.038  29.506  29.395  1.00  0.00    -0.354 N 
ATOM     48  N   UNL A   1      44.516  26.757  28.548  1.00  0.00    -0.248 NA
ATOM     49  C   UNL A   1      45.286  24.677  27.813  1.00  0.00     0.031 C 
ATOM     50  C   UNL A   1      47.147  30.186  29.549  1.00  0.00     0.029 A 
ATOM     51  C   UNL A   1      46.351  29.100  29.227  1.00  0.00     0.049 A 
ATOM     52  H   UNL A   1      44.247  28.945  29.223  1.00  0.00     0.167 HD
ATOM     53  C   UNL A   1      45.905  26.771  28.510  1.00  0.00     0.074 A 
ATOM     54  C   UNL A   1      46.328  25.456  28.074  1.00  0.00     0.031 C 
ATOM     55  C   UNL A   1      46.756  27.786  28.798  1.00  0.00     0.031 A 
BRANCH  42  56
ATOM     56  C   UNL A   1      43.925  32.959  30.643  1.00  0.00    -0.014 A 
ATOM     57  C   UNL A   1      43.948  33.266  32.015  1.00  0.00     0.010 A 
ATOM     58  C   UNL A   1      44.043  34.000  29.705  1.00  0.00     0.010 A 
ATOM     59  C   UNL A   1      44.043  34.596  32.437  1.00  0.00     0.020 A 
ATOM     60  C   UNL A   1      44.164  35.327  30.122  1.00  0.00     0.020 A 
ATOM     61  C   UNL A   1      44.141  35.619  31.487  1.00  0.00     0.054 A 
BRANCH  61  62
ATOM     62  S   UNL A   1      44.268  37.336  32.056  1.00  0.00     0.124 S 
ATOM     63  O   UNL A   1      43.417  37.322  33.243  1.00  0.00    -0.237 OA
ATOM     64  O   UNL A   1      45.699  37.488  32.312  1.00  0.00    -0.237 OA
ATOM     65  O   UNL A   1      43.755  38.113  30.931  1.00  0.00    -0.744 OA
ENDBRANCH  61  62
ENDBRANCH  42  56
BRANCH  43  66
ATOM     66  C   UNL A   1      42.585  23.595  27.499  1.00  0.00    -0.014 A 
ATOM     67  C   UNL A   1      42.616  23.293  26.128  1.00  0.00     0.010 A 
ATOM     68  C   UNL A   1      42.379  22.554  28.425  1.00  0.00     0.010 A 
ATOM     69  C   UNL A   1      42.442  21.975  25.688  1.00  0.00     0.020 A 
ATOM     70  C   UNL A   1      42.237  21.233  27.992  1.00  0.00     0.020 A 
ATOM     71  C   UNL A   1      42.258  20.954  26.625  1.00  0.00     0.054 A 
BRANCH  71  72
ATOM     72  S   UNL A   1      42.107  19.240  26.046  1.00  0.00     0.124 S 
ATOM     73  O   UNL A   1      42.964  19.242  24.866  1.00  0.00    -0.237 OA
ATOM     74  O   UNL A   1      42.602  18.472  27.187  1.00  0.00    -0.237 OA
ATOM     75  O   UNL A   1      40.677  19.096  25.784  1.00  0.00    -0.744 OA
ENDBRANCH  71  72
ENDBRANCH  43  66
BRANCH  55  76
ATOM     76  C   UNL A   1      48.229  27.511  28.682  1.00  0.00    -0.014 A 
ATOM     77  C   UNL A   1      48.908  27.695  27.464  1.00  0.00     0.010 A 
ATOM     78  C   UNL A   1      48.955  27.120  29.822  1.00  0.00     0.010 A 
ATOM     79  C   UNL A   1      50.284  27.470  27.384  1.00  0.00     0.020 A 
ATOM     80  C   UNL A   1      50.335  26.913  29.750  1.00  0.00     0.020 A 
ATOM     81  C   UNL A   1      50.990  27.079  28.526  1.00  0.00     0.054 A 
BRANCH  81  82
ATOM     82  S   UNL A   1      52.784  26.842  28.411  1.00  0.00     0.124 S 
ATOM     83  O   UNL A   1      52.915  26.118  27.149  1.00  0.00    -0.237 OA
ATOM     84  O   UNL A   1      53.292  28.212  28.406  1.00  0.00    -0.237 OA
ATOM     85  O   UNL A   1      53.109  26.070  29.609  1.00  0.00    -0.744 OA
ENDBRANCH  81  82
ENDBRANCH  55  76
ENDBRANCH  29  30
ENDBRANCH  22  24
ENDBRANCH  21  22
ENDBRANCH   1  21
TORSDOF 15
ENDMDL
MODEL 2
REMARK VINA RESULT:     -10.9      3.816      9.770
REMARK SMILES C[C@H]1CCC[C@]1(C(=O)OCCOC(=O)c1ccc(-c2c3nc(c(-c4ccc(S(=O)(=O)[O-])cc4)c4ccc([nH]4)c(-c4ccc(S(=O)(=O)[O-])cc4)c4nc(c(-c5ccc(S(=O)(=O)[O-])cc5)c5ccc2[nH]5)C=C4)C=C3)cc1)c1ccc2c(c1)OCO2
REMARK SMILES IDX 11 1 10 2 9 3 7 4 8 5 6 6 1 7 2 8 3 9 4 10 5 11 75 12 76 13
REMARK SMILES IDX 80 14 77 15 79 16 78 17 81 18 83 19 82 20 12 21 13 22 14 23
REMARK SMILES IDX 15 24 16 25 74 26 17 27 73 28 18 29 19 30 20 31 67 32 21 33
REMARK SMILES IDX 72 34 66 35 68 36 22 37 71 38 65 39 64 40 23 42 53 43 34 44
REMARK SMILES IDX 52 45 35 46 38 47 51 48 69 49 36 50 37 51 50 53 70 54 39 55
REMARK SMILES IDX 24 56 25 57 33 58 26 59 32 60 27 61 28 62 29 63 30 64 31 65
REMARK SMILES IDX 54 66 55 67 63 68 56 69 62 70 57 71 58 72 59 73 60 74 61 75
REMARK SMILES IDX 40 76 41 77 49 78 42 79 48 80 43 81 44 82 45 83 46 84 47 85
REMARK H PARENT 68 41 38 52
REMARK Flexibility Score: inf
ROOT
ATOM      1  C   UNL A   1      37.403  21.843  24.684  1.00  0.00     0.275 C 
ENDROOT
BRANCH   1   2
ATOM      2  C   UNL A   1      36.630  22.617  23.621  1.00  0.00     0.274 C 
BRANCH   2   3
ATOM      3  O   UNL A   1      35.233  22.254  23.668  1.00  0.00    -0.461 OA
BRANCH   3   4
ATOM      4  C   UNL A   1      34.397  23.025  24.421  1.00  0.00     0.316 C 
ATOM      5  O   UNL A   1      34.703  24.152  24.791  1.00  0.00    -0.251 OA
BRANCH   4   6
ATOM      6  C   UNL A   1      33.130  22.240  24.895  1.00  0.00     0.096 C 
ATOM      7  C   UNL A   1      34.169  21.842  27.298  1.00  0.00     0.009 C 
ATOM      8  C   UNL A   1      32.950  22.207  26.459  1.00  0.00     0.008 C 
ATOM      9  C   UNL A   1      32.303  23.545  26.811  1.00  0.00     0.005 C 
ATOM     10  C   UNL A   1      31.312  23.755  25.675  1.00  0.00     0.002 C 
ATOM     11  C   UNL A   1      31.939  23.133  24.424  1.00  0.00     0.024 C 
BRANCH   6  12
ATOM     12  C   UNL A   1      32.978  20.801  24.315  1.00  0.00    -0.027 A 
ATOM     13  C   UNL A   1      32.186  20.487  23.182  1.00  0.00     0.009 A 
ATOM     14  C   UNL A   1      33.673  19.722  24.917  1.00  0.00     0.055 A 
ATOM     15  C   UNL A   1      32.157  19.202  22.617  1.00  0.00     0.051 A 
ATOM     16  C   UNL A   1      33.659  18.476  24.319  1.00  0.00     0.166 A 
ATOM     17  C   UNL A   1      32.931  18.226  23.188  1.00  0.00     0.165 A 
ATOM     18  O   UNL A   1      34.352  17.383  24.741  1.00  0.00    -0.454 OA
ATOM     19  O   UNL A   1      33.075  16.951  22.745  1.00  0.00    -0.454 OA
ATOM     20  C   UNL A   1      34.069  16.461  23.665  1.00  0.00     0.468 C 
ENDBRANCH   6  12
ENDBRANCH   4   6
ENDBRANCH   3   4
ENDBRANCH   2   3
ENDBRANCH   1   2
BRANCH   1  21
ATOM     21  O   UNL A   1      37.734  22.748  25.746  1.00  0.00    -0.458 OA
BRANCH  21  22
ATOM     22  C   UNL A   1      39.035  22.799  26.106  1.00  0.00     0.338 C 
ATOM     23  O   UNL A   1      39.886  21.945  25.892  1.00  0.00    -0.246 OA
BRANCH  22  24
ATOM     24  C   UNL A   1      39.293  24.070  26.817  1.00  0.00     0.060 A 
ATOM     25  C   UNL A   1      40.034  25.084  26.208  1.00  0.00     0.016 A 
ATOM     26  C   UNL A   1      38.845  24.238  28.128  1.00  0.00     0.016 A 
ATOM     27  C   UNL A   1      40.369  26.238  26.918  1.00  0.00     0.010 A 
ATOM     28  C   UNL A   1      39.121  25.429  28.811  1.00  0.00     0.010 A 
ATOM     29  C   UNL A   1      39.910  26.437  28.226  1.00  0.00    -0.014 A 
BRANCH  29  30
ATOM     30  C   UNL A   1      40.311  27.642  29.011  1.00  0.00     0.031 A 
ATOM     31  C   UNL A   1      41.662  27.675  29.680  1.00  0.00     0.074 A 
ATOM     32  C   UNL A   1      39.507  28.720  29.127  1.00  0.00     0.049 A 
ATOM     33  N   UNL A   1      42.103  28.470  30.621  1.00  0.00    -0.248 NA
ATOM     34  C   UNL A   1      42.639  26.665  29.240  1.00  0.00     0.031 C 
ATOM     35  C   UNL A   1      38.213  28.900  28.466  1.00  0.00     0.029 A 
ATOM     36  N   UNL A   1      39.674  29.883  29.843  1.00  0.00    -0.354 N 
ATOM     37  C   UNL A   1      43.373  28.004  30.945  1.00  0.00     0.074 A 
ATOM     38  C   UNL A   1      43.640  26.872  30.085  1.00  0.00     0.031 C 
ATOM     39  C   UNL A   1      37.730  30.118  28.767  1.00  0.00     0.029 A 
ATOM     40  C   UNL A   1      38.621  30.761  29.728  1.00  0.00     0.049 A 
ATOM     41  H   UNL A   1      40.473  30.070  30.387  1.00  0.00     0.167 HD
ATOM     42  C   UNL A   1      44.229  28.467  31.887  1.00  0.00     0.031 A 
ATOM     43  C   UNL A   1      38.366  31.924  30.360  1.00  0.00     0.031 A 
ATOM     44  C   UNL A   1      43.987  29.629  32.700  1.00  0.00     0.049 A 
ATOM     45  C   UNL A   1      39.312  32.408  31.426  1.00  0.00     0.074 A 
ATOM     46  C   UNL A   1      44.775  30.156  33.709  1.00  0.00     0.029 A 
ATOM     47  N   UNL A   1      42.888  30.463  32.574  1.00  0.00    -0.354 N 
ATOM     48  N   UNL A   1      40.443  31.879  31.826  1.00  0.00    -0.248 NA
ATOM     49  C   UNL A   1      38.927  33.628  32.151  1.00  0.00     0.031 C 
ATOM     50  C   UNL A   1      44.138  31.296  34.211  1.00  0.00     0.029 A 
ATOM     51  C   UNL A   1      42.977  31.502  33.485  1.00  0.00     0.049 A 
ATOM     52  H   UNL A   1      42.153  30.337  31.932  1.00  0.00     0.167 HD
ATOM     53  C   UNL A   1      40.904  32.700  32.848  1.00  0.00     0.074 A 
ATOM     54  C   UNL A   1      39.944  33.776  32.990  1.00  0.00     0.031 C 
ATOM     55  C   UNL A   1      42.017  32.568  33.611  1.00  0.00     0.031 A 
BRANCH  42  56
ATOM     56  C   UNL A   1      45.481  27.670  32.135  1.00  0.00    -0.014 A 
ATOM     57  C   UNL A   1      45.515  26.613  33.062  1.00  0.00     0.010 A 
ATOM     58  C   UNL A   1      46.643  27.979  31.404  1.00  0.00     0.010 A 
ATOM     59  C   UNL A   1      46.702  25.909  33.284  1.00  0.00     0.020 A 
ATOM     60  C   UNL A   1      47.824  27.261  31.604  1.00  0.00     0.020 A 
ATOM     61  C   UNL A   1      47.852  26.244  32.559  1.00  0.00     0.054 A 
BRANCH  61  62
ATOM     62  S   UNL A   1      49.380  25.314  32.860  1.00  0.00     0.124 S 
ATOM     63  O   UNL A   1      50.182  26.288  33.597  1.00  0.00    -0.237 OA
ATOM     64  O   UNL A   1      48.915  24.168  33.636  1.00  0.00    -0.237 OA
ATOM     65  O   UNL A   1      49.863  24.999  31.518  1.00  0.00    -0.744 OA
ENDBRANCH  61  62
ENDBRANCH  42  56
BRANCH  43  66
ATOM     66  C   UNL A   1      37.116  32.678  30.058  1.00  0.00    -0.014 A 
ATOM     67  C   UNL A   1      35.919  32.376  30.728  1.00  0.00     0.010 A 
ATOM     68  C   UNL A   1      37.123  33.711  29.102  1.00  0.00     0.010 A 
ATOM     69  C   UNL A   1      34.749  33.091  30.446  1.00  0.00     0.020 A 
ATOM     70  C   UNL A   1      35.965  34.447  28.840  1.00  0.00     0.020 A 
ATOM     71  C   UNL A   1      34.782  34.125  29.506  1.00  0.00     0.054 A 
BRANCH  71  72
ATOM     72  S   UNL A   1      33.277  35.092  29.202  1.00  0.00     0.124 S 
ATOM     73  O   UNL A   1      33.818  36.329  28.648  1.00  0.00    -0.237 OA
ATOM     74  O   UNL A   1      32.537  34.249  28.266  1.00  0.00    -0.237 OA
ATOM     75  O   UNL A   1      32.676  35.209  30.529  1.00  0.00    -0.744 OA
ENDBRANCH  71  72
ENDBRANCH  43  66
BRANCH  55  76
ATOM     76  C   UNL A   1      42.277  33.626  34.647  1.00  0.00    -0.014 A 
ATOM     77  C   UNL A   1      41.710  33.538  35.931  1.00  0.00     0.010 A 
ATOM     78  C   UNL A   1      43.148  34.690  34.350  1.00  0.00     0.010 A 
ATOM     79  C   UNL A   1      41.993  34.510  36.894  1.00  0.00     0.020 A 
ATOM     80  C   UNL A   1      43.448  35.653  35.317  1.00  0.00     0.020 A 
ATOM     81  C   UNL A   1      42.858  35.563  36.581  1.00  0.00     0.054 A 
BRANCH  81  82
ATOM     82  S   UNL A   1      43.252  36.786  37.862  1.00  0.00     0.124 S 
ATOM     83  O   UNL A   1      43.675  37.935  37.064  1.00  0.00    -0.237 OA
ATOM     84  O   UNL A   1      41.980  36.942  38.563  1.00  0.00    -0.237 OA
ATOM     85  O   UNL A   1      44.310  36.144  38.640  1.00  0.00    -0.744 OA
ENDBRANCH  81  82
ENDBRANCH  55  76
ENDBRANCH  29  30
ENDBRANCH  22  24
ENDBRANCH  21  22
ENDBRANCH   1  21
TORSDOF 15
ENDMDL
MODEL 3
REMARK VINA RESULT:     -10.8      1.361      3.108
REMARK SMILES C[C@H]1CCC[C@]1(C(=O)OCCOC(=O)c1ccc(-c2c3nc(c(-c4ccc(S(=O)(=O)[O-])cc4)c4ccc([nH]4)c(-c4ccc(S(=O)(=O)[O-])cc4)c4nc(c(-c5ccc(S(=O)(=O)[O-])cc5)c5ccc2[nH]5)C=C4)C=C3)cc1)c1ccc2c(c1)OCO2
REMARK SMILES IDX 11 1 10 2 9 3 7 4 8 5 6 6 1 7 2 8 3 9 4 10 5 11 75 12 76 13
REMARK SMILES IDX 80 14 77 15 79 16 78 17 81 18 83 19 82 20 12 21 13 22 14 23
REMARK SMILES IDX 15 24 16 25 74 26 17 27 73 28 18 29 19 30 20 31 67 32 21 33
REMARK SMILES IDX 72 34 66 35 68 36 22 37 71 38 65 39 64 40 23 42 53 43 34 44
REMARK SMILES IDX 52 45 35 46 38 47 51 48 69 49 36 50 37 51 50 53 70 54 39 55
REMARK SMILES IDX 24 56 25 57 33 58 26 59 32 60 27 61 28 62 29 63 30 64 31 65
REMARK SMILES IDX 54 66 55 67 63 68 56 69 62 70 57 71 58 72 59 73 60 74 61 75
REMARK SMILES IDX 40 76 41 77 49 78 42 79 48 80 43 81 44 82 45 83 46 84 47 85
REMARK H PARENT 68 41 38 52
REMARK Flexibility Score: inf
ROOT
ATOM      1  C   UNL A   1      33.091  29.489  27.103  1.00  0.00     0.275 C 
ENDROOT
BRANCH   1   2
ATOM      2  C   UNL A   1      33.669  28.217  26.491  1.00  0.00     0.274 C 
BRANCH   2   3
ATOM      3  O   UNL A   1      32.599  27.363  26.032  1.00  0.00    -0.461 OA
BRANCH   3   4
ATOM      4  C   UNL A   1      32.376  27.282  24.689  1.00  0.00     0.316 C 
ATOM      5  O   UNL A   1      33.144  27.771  23.869  1.00  0.00    -0.251 OA
BRANCH   4   6
ATOM      6  C   UNL A   1      30.973  26.679  24.354  1.00  0.00     0.096 C 
ATOM      7  C   UNL A   1      31.884  25.570  22.129  1.00  0.00     0.009 C 
ATOM      8  C   UNL A   1      31.028  25.441  23.383  1.00  0.00     0.008 C 
ATOM      9  C   UNL A   1      31.370  24.252  24.277  1.00  0.00     0.005 C 
ATOM     10  C   UNL A   1      30.559  24.525  25.536  1.00  0.00     0.002 C 
ATOM     11  C   UNL A   1      30.506  26.047  25.702  1.00  0.00     0.024 C 
BRANCH   6  12
ATOM     12  C   UNL A   1      29.909  27.700  23.849  1.00  0.00    -0.027 A 
ATOM     13  C   UNL A   1      28.596  27.341  23.455  1.00  0.00     0.009 A 
ATOM     14  C   UNL A   1      30.230  29.080  23.787  1.00  0.00     0.055 A 
ATOM     15  C   UNL A   1      27.625  28.296  23.111  1.00  0.00     0.051 A 
ATOM     16  C   UNL A   1      29.247  30.003  23.484  1.00  0.00     0.166 A 
ATOM     17  C   UNL A   1      27.971  29.621  23.168  1.00  0.00     0.165 A 
ATOM     18  O   UNL A   1      29.399  31.355  23.478  1.00  0.00    -0.454 OA
ATOM     19  O   UNL A   1      27.153  30.677  22.931  1.00  0.00    -0.454 OA
ATOM     20  C   UNL A   1      28.034  31.772  23.247  1.00  0.00     0.468 C 
ENDBRANCH   6  12
ENDBRANCH   4   6
ENDBRANCH   3   4
ENDBRANCH   2   3
ENDBRANCH   1   2
BRANCH   1  21
ATOM     21  O   UNL A   1      34.102  30.506  27.062  1.00  0.00    -0.458 OA
BRANCH  21  22
ATOM     22  C   UNL A   1      34.616  30.888  28.250  1.00  0.00     0.338 C 
ATOM     23  O   UNL A   1      34.064  31.583  29.095  1.00  0.00    -0.246 OA
BRANCH  22  24
ATOM     24  C   UNL A   1      35.981  30.335  28.391  1.00  0.00     0.060 A 
ATOM     25  C   UNL A   1      36.466  29.959  29.645  1.00  0.00     0.016 A 
ATOM     26  C   UNL A   1      36.813  30.241  27.275  1.00  0.00     0.016 A 
ATOM     27  C   UNL A   1      37.789  29.539  29.794  1.00  0.00     0.010 A 
ATOM     28  C   UNL A   1      38.116  29.748  27.418  1.00  0.00     0.010 A 
ATOM     29  C   UNL A   1      38.633  29.415  28.684  1.00  0.00    -0.014 A 
BRANCH  29  30
ATOM     30  C   UNL A   1      40.064  29.021  28.842  1.00  0.00     0.031 A 
ATOM     31  C   UNL A   1      41.054  30.024  29.379  1.00  0.00     0.074 A 
ATOM     32  C   UNL A   1      40.503  27.781  28.537  1.00  0.00     0.049 A 
ATOM     33  N   UNL A   1      42.362  30.002  29.339  1.00  0.00    -0.248 NA
ATOM     34  C   UNL A   1      40.493  31.216  30.034  1.00  0.00     0.031 C 
ATOM     35  C   UNL A   1      39.669  26.660  28.101  1.00  0.00     0.029 A 
ATOM     36  N   UNL A   1      41.774  27.254  28.561  1.00  0.00    -0.354 N 
ATOM     37  C   UNL A   1      42.776  31.213  29.884  1.00  0.00     0.074 A 
ATOM     38  C   UNL A   1      41.583  31.935  30.267  1.00  0.00     0.031 C 
ATOM     39  C   UNL A   1      40.441  25.570  27.947  1.00  0.00     0.029 A 
ATOM     40  C   UNL A   1      41.836  25.938  28.165  1.00  0.00     0.049 A 
ATOM     41  H   UNL A   1      42.565  27.771  28.836  1.00  0.00     0.167 HD
ATOM     42  C   UNL A   1      44.037  31.687  30.032  1.00  0.00     0.031 A 
ATOM     43  C   UNL A   1      42.892  25.130  27.945  1.00  0.00     0.031 A 
ATOM     44  C   UNL A   1      45.224  30.944  29.705  1.00  0.00     0.049 A 
ATOM     45  C   UNL A   1      44.286  25.682  28.084  1.00  0.00     0.074 A 
ATOM     46  C   UNL A   1      46.546  31.350  29.782  1.00  0.00     0.029 A 
ATOM     47  N   UNL A   1      45.236  29.628  29.269  1.00  0.00    -0.354 N 
ATOM     48  N   UNL A   1      44.665  26.878  28.462  1.00  0.00    -0.248 NA
ATOM     49  C   UNL A   1      45.394  24.782  27.730  1.00  0.00     0.031 C 
ATOM     50  C   UNL A   1      47.356  30.287  29.368  1.00  0.00     0.029 A 
ATOM     51  C   UNL A   1      46.540  29.206  29.076  1.00  0.00     0.049 A 
ATOM     52  H   UNL A   1      44.435  29.076  29.121  1.00  0.00     0.167 HD
ATOM     53  C   UNL A   1      46.052  26.876  28.391  1.00  0.00     0.074 A 
ATOM     54  C   UNL A   1      46.450  25.552  27.959  1.00  0.00     0.031 C 
ATOM     55  C   UNL A   1      46.921  27.884  28.650  1.00  0.00     0.031 A 
BRANCH  42  56
ATOM     56  C   UNL A   1      44.190  33.106  30.508  1.00  0.00    -0.014 A 
ATOM     57  C   UNL A   1      44.291  33.422  31.874  1.00  0.00     0.010 A 
ATOM     58  C   UNL A   1      44.254  34.141  29.558  1.00  0.00     0.010 A 
ATOM     59  C   UNL A   1      44.408  34.754  32.282  1.00  0.00     0.020 A 
ATOM     60  C   UNL A   1      44.397  35.471  29.959  1.00  0.00     0.020 A 
ATOM     61  C   UNL A   1      44.452  35.771  31.321  1.00  0.00     0.054 A 
BRANCH  61  62
ATOM     62  S   UNL A   1      44.610  37.493  31.871  1.00  0.00     0.124 S 
ATOM     63  O   UNL A   1      46.060  37.672  31.881  1.00  0.00    -0.237 OA
ATOM     64  O   UNL A   1      43.894  38.231  30.833  1.00  0.00    -0.237 OA
ATOM     65  O   UNL A   1      43.972  37.497  33.185  1.00  0.00    -0.744 OA
ENDBRANCH  61  62
ENDBRANCH  42  56
BRANCH  43  66
ATOM     66  C   UNL A   1      42.675  23.727  27.490  1.00  0.00    -0.014 A 
ATOM     67  C   UNL A   1      42.704  23.406  26.122  1.00  0.00     0.010 A 
ATOM     68  C   UNL A   1      42.447  22.704  28.428  1.00  0.00     0.010 A 
ATOM     69  C   UNL A   1      42.505  22.086  25.700  1.00  0.00     0.020 A 
ATOM     70  C   UNL A   1      42.280  21.380  28.013  1.00  0.00     0.020 A 
ATOM     71  C   UNL A   1      42.299  21.081  26.650  1.00  0.00     0.054 A 
BRANCH  71  72
ATOM     72  S   UNL A   1      42.116  19.363  26.094  1.00  0.00     0.124 S 
ATOM     73  O   UNL A   1      42.532  18.617  27.277  1.00  0.00    -0.237 OA
ATOM     74  O   UNL A   1      40.696  19.283  25.761  1.00  0.00    -0.237 OA
ATOM     75  O   UNL A   1      43.020  19.280  24.949  1.00  0.00    -0.744 OA
ENDBRANCH  71  72
ENDBRANCH  43  66
BRANCH  55  76
ATOM     76  C   UNL A   1      48.388  27.592  28.503  1.00  0.00    -0.014 A 
ATOM     77  C   UNL A   1      49.126  27.033  29.561  1.00  0.00     0.010 A 
ATOM     78  C   UNL A   1      49.022  27.825  27.269  1.00  0.00     0.010 A 
ATOM     79  C   UNL A   1      50.480  26.733  29.395  1.00  0.00     0.020 A 
ATOM     80  C   UNL A   1      50.372  27.509  27.094  1.00  0.00     0.020 A 
ATOM     81  C   UNL A   1      51.096  26.975  28.163  1.00  0.00     0.054 A 
BRANCH  81  82
ATOM     82  S   UNL A   1      52.843  26.532  27.952  1.00  0.00     0.124 S 
ATOM     83  O   UNL A   1      53.382  27.724  27.304  1.00  0.00    -0.237 OA
ATOM     84  O   UNL A   1      53.288  26.308  29.326  1.00  0.00    -0.237 OA
ATOM     85  O   UNL A   1      52.797  25.334  27.116  1.00  0.00    -0.744 OA
ENDBRANCH  81  82
ENDBRANCH  55  76
ENDBRANCH  29  30
ENDBRANCH  22  24
ENDBRANCH  21  22
ENDBRANCH   1  21
TORSDOF 15
ENDMDL
