MODEL 1
REMARK VINA RESULT:     -11.0      0.000      0.000
REMARK SMILES Cc1ccn2c([C@@H]3CCCC[C@@H]3C(=O)OCCOC(=O)c3ccc(-c4c5nc(c(-c6ccc(S(=O)(=O)[O-])cc6)c6ccc([nH]6)c(-c6ccc(S(=O)(=O)[O-])cc6)c6nc(c(-c7ccc(S(=O)(=O)[O-])cc7)c7ccc4[nH]7)C=C6)C=C5)cc3)nnc2c1
REMARK SMILES IDX 17 1 16 2 15 3 13 4 14 5 12 6 7 7 8 8 9 9 11 10 10 11 6 12
REMARK SMILES IDX 1 13 2 14 3 15 84 16 4 17 83 18 5 19 82 20 81 21 18 22 19 23
REMARK SMILES IDX 20 24 21 25 22 26 80 27 23 28 79 29 24 30 25 31 26 32 73 33
REMARK SMILES IDX 27 34 78 35 72 36 74 37 28 38 77 39 71 40 70 41 29 43 59 44
REMARK SMILES IDX 40 45 58 46 41 47 44 48 57 49 75 50 42 51 43 52 56 54 76 55
REMARK SMILES IDX 45 56 30 57 31 58 39 59 32 60 38 61 33 62 34 63 35 64 36 65
REMARK SMILES IDX 37 66 60 67 61 68 69 69 62 70 68 71 63 72 64 73 65 74 66 75
REMARK SMILES IDX 67 76 46 77 47 78 55 79 48 80 54 81 49 82 50 83 51 84 52 85
REMARK SMILES IDX 53 86
REMARK H PARENT 74 42 44 53
REMARK Flexibility Score: inf
ROOT
ATOM      1  C   UNL A   1      33.941  29.505  26.724  1.00  0.00     0.275 C 
ENDROOT
BRANCH   1   2
ATOM      2  C   UNL A   1      33.100  28.370  27.346  1.00  0.00     0.274 C 
BRANCH   2   3
ATOM      3  O   UNL A   1      33.028  27.231  26.449  1.00  0.00    -0.462 OA
BRANCH   3   4
ATOM      4  C   UNL A   1      31.762  26.769  26.220  1.00  0.00     0.309 C 
ATOM      5  O   UNL A   1      30.923  26.681  27.109  1.00  0.00    -0.252 OA
BRANCH   4   6
ATOM      6  C   UNL A   1      31.544  26.390  24.746  1.00  0.00     0.110 C 
ATOM      7  C   UNL A   1      32.754  26.409  23.748  1.00  0.00     0.072 C 
ATOM      8  C   UNL A   1      33.287  27.835  23.520  1.00  0.00     0.012 C 
ATOM      9  C   UNL A   1      32.216  28.903  23.209  1.00  0.00     0.001 C 
ATOM     10  C   UNL A   1      30.457  27.411  24.256  1.00  0.00     0.016 C 
ATOM     11  C   UNL A   1      30.974  28.843  24.088  1.00  0.00     0.001 C 
BRANCH   7  12
ATOM     12  C   UNL A   1      33.750  25.160  23.494  1.00  0.00     0.141 A 
ATOM     13  C   UNL A   1      37.652  21.616  25.746  1.00  0.00     0.044 C 
ATOM     14  C   UNL A   1      36.718  22.557  25.040  1.00  0.00    -0.046 A 
ATOM     15  C   UNL A   1      36.537  23.798  25.736  1.00  0.00     0.022 A 
ATOM     16  C   UNL A   1      36.073  22.379  23.864  1.00  0.00     0.053 A 
ATOM     17  C   UNL A   1      35.616  24.656  25.291  1.00  0.00     0.095 A 
ATOM     18  C   UNL A   1      35.119  23.357  23.379  1.00  0.00     0.161 A 
ATOM     19  N   UNL A   1      34.814  24.475  24.172  1.00  0.00    -0.286 N 
ATOM     20  N   UNL A   1      34.455  23.434  22.256  1.00  0.00    -0.130 NA
ATOM     21  N   UNL A   1      33.636  24.532  22.319  1.00  0.00    -0.134 NA
ENDBRANCH   7  12
ENDBRANCH   4   6
ENDBRANCH   3   4
ENDBRANCH   2   3
ENDBRANCH   1   2
BRANCH   1  22
ATOM     22  O   UNL A   1      34.730  30.321  27.643  1.00  0.00    -0.458 OA
BRANCH  22  23
ATOM     23  C   UNL A   1      34.128  31.474  27.970  1.00  0.00     0.338 C 
ATOM     24  O   UNL A   1      33.128  31.889  27.383  1.00  0.00    -0.246 OA
BRANCH  23  25
ATOM     25  C   UNL A   1      34.748  32.414  28.932  1.00  0.00     0.060 A 
ATOM     26  C   UNL A   1      35.529  33.422  28.404  1.00  0.00     0.016 A 
ATOM     27  C   UNL A   1      35.113  31.823  30.159  1.00  0.00     0.016 A 
ATOM     28  C   UNL A   1      36.868  33.426  28.763  1.00  0.00     0.010 A 
ATOM     29  C   UNL A   1      36.431  31.827  30.508  1.00  0.00     0.010 A 
ATOM     30  C   UNL A   1      37.320  32.446  29.642  1.00  0.00    -0.014 A 
BRANCH  30  31
ATOM     31  C   UNL A   1      38.680  31.935  29.681  1.00  0.00     0.031 A 
ATOM     32  C   UNL A   1      38.762  30.558  29.169  1.00  0.00     0.074 A 
ATOM     33  C   UNL A   1      39.797  32.641  29.944  1.00  0.00     0.049 A 
ATOM     34  N   UNL A   1      38.149  29.581  29.753  1.00  0.00    -0.248 NA
ATOM     35  C   UNL A   1      39.202  30.256  27.796  1.00  0.00     0.031 C 
ATOM     36  C   UNL A   1      39.992  34.067  30.216  1.00  0.00     0.029 A 
ATOM     37  N   UNL A   1      41.064  32.143  30.004  1.00  0.00    -0.354 N 
ATOM     38  C   UNL A   1      38.474  28.483  28.999  1.00  0.00     0.074 A 
ATOM     39  C   UNL A   1      38.730  29.007  27.681  1.00  0.00     0.031 C 
ATOM     40  C   UNL A   1      41.321  34.331  30.339  1.00  0.00     0.029 A 
ATOM     41  C   UNL A   1      42.056  33.077  30.261  1.00  0.00     0.049 A 
ATOM     42  H   UNL A   1      41.260  31.188  29.874  1.00  0.00     0.167 HD
ATOM     43  C   UNL A   1      38.925  27.351  29.606  1.00  0.00     0.031 A 
ATOM     44  C   UNL A   1      43.334  32.834  30.666  1.00  0.00     0.031 A 
ATOM     45  C   UNL A   1      38.886  27.494  31.055  1.00  0.00     0.049 A 
ATOM     46  C   UNL A   1      43.281  31.506  31.344  1.00  0.00     0.074 A 
ATOM     47  C   UNL A   1      37.890  27.801  31.964  1.00  0.00     0.029 A 
ATOM     48  N   UNL A   1      40.077  27.839  31.672  1.00  0.00    -0.354 N 
ATOM     49  N   UNL A   1      42.659  31.325  32.478  1.00  0.00    -0.248 NA
ATOM     50  C   UNL A   1      43.489  30.297  30.556  1.00  0.00     0.031 C 
ATOM     51  C   UNL A   1      38.483  28.726  32.875  1.00  0.00     0.029 A 
ATOM     52  C   UNL A   1      39.840  28.857  32.569  1.00  0.00     0.049 A 
ATOM     53  H   UNL A   1      40.953  27.423  31.498  1.00  0.00     0.167 HD
ATOM     54  C   UNL A   1      41.994  30.115  32.326  1.00  0.00     0.074 A 
ATOM     55  C   UNL A   1      42.633  29.476  31.176  1.00  0.00     0.031 C 
ATOM     56  C   UNL A   1      40.810  29.872  32.964  1.00  0.00     0.031 A 
BRANCH  43  57
ATOM     57  C   UNL A   1      39.757  26.307  28.920  1.00  0.00    -0.014 A 
ATOM     58  C   UNL A   1      39.226  25.208  28.215  1.00  0.00     0.010 A 
ATOM     59  C   UNL A   1      41.148  26.497  28.850  1.00  0.00     0.010 A 
ATOM     60  C   UNL A   1      40.029  24.322  27.504  1.00  0.00     0.020 A 
ATOM     61  C   UNL A   1      41.963  25.636  28.105  1.00  0.00     0.020 A 
ATOM     62  C   UNL A   1      41.395  24.547  27.448  1.00  0.00     0.054 A 
BRANCH  62  63
ATOM     63  S   UNL A   1      42.390  23.406  26.468  1.00  0.00     0.124 S 
ATOM     64  O   UNL A   1      42.770  24.242  25.331  1.00  0.00    -0.237 OA
ATOM     65  O   UNL A   1      43.470  23.065  27.389  1.00  0.00    -0.237 OA
ATOM     66  O   UNL A   1      41.462  22.320  26.165  1.00  0.00    -0.744 OA
ENDBRANCH  62  63
ENDBRANCH  43  57
BRANCH  44  67
ATOM     67  C   UNL A   1      44.562  33.256  29.925  1.00  0.00    -0.014 A 
ATOM     68  C   UNL A   1      44.556  33.393  28.524  1.00  0.00     0.010 A 
ATOM     69  C   UNL A   1      45.813  33.273  30.580  1.00  0.00     0.010 A 
ATOM     70  C   UNL A   1      45.754  33.448  27.795  1.00  0.00     0.020 A 
ATOM     71  C   UNL A   1      47.017  33.331  29.854  1.00  0.00     0.020 A 
ATOM     72  C   UNL A   1      46.978  33.379  28.461  1.00  0.00     0.054 A 
BRANCH  72  73
ATOM     73  S   UNL A   1      48.503  33.270  27.473  1.00  0.00     0.124 S 
ATOM     74  O   UNL A   1      48.953  34.658  27.455  1.00  0.00    -0.237 OA
ATOM     75  O   UNL A   1      49.325  32.353  28.257  1.00  0.00    -0.237 OA
ATOM     76  O   UNL A   1      48.047  32.746  26.187  1.00  0.00    -0.744 OA
ENDBRANCH  72  73
ENDBRANCH  44  67
BRANCH  56  77
ATOM     77  C   UNL A   1      40.342  30.866  34.025  1.00  0.00    -0.014 A 
ATOM     78  C   UNL A   1      40.435  30.484  35.375  1.00  0.00     0.010 A 
ATOM     79  C   UNL A   1      39.645  32.056  33.727  1.00  0.00     0.010 A 
ATOM     80  C   UNL A   1      39.811  31.226  36.384  1.00  0.00     0.020 A 
ATOM     81  C   UNL A   1      39.033  32.820  34.736  1.00  0.00     0.020 A 
ATOM     82  C   UNL A   1      39.097  32.381  36.059  1.00  0.00     0.054 A 
BRANCH  82  83
ATOM     83  S   UNL A   1      38.242  33.269  37.391  1.00  0.00     0.124 S 
ATOM     84  O   UNL A   1      38.587  32.471  38.567  1.00  0.00    -0.237 OA
ATOM     85  O   UNL A   1      38.852  34.596  37.338  1.00  0.00    -0.237 OA
ATOM     86  O   UNL A   1      36.833  33.220  37.006  1.00  0.00    -0.744 OA
ENDBRANCH  82  83
ENDBRANCH  56  77
ENDBRANCH  30  31
ENDBRANCH  23  25
ENDBRANCH  22  23
ENDBRANCH   1  22
TORSDOF 15
ENDMDL
MODEL 2
REMARK VINA RESULT:     -10.8      4.029      9.086
REMARK SMILES Cc1ccn2c([C@@H]3CCCC[C@@H]3C(=O)OCCOC(=O)c3ccc(-c4c5nc(c(-c6ccc(S(=O)(=O)[O-])cc6)c6ccc([nH]6)c(-c6ccc(S(=O)(=O)[O-])cc6)c6nc(c(-c7ccc(S(=O)(=O)[O-])cc7)c7ccc4[nH]7)C=C6)C=C5)cc3)nnc2c1
REMARK SMILES IDX 17 1 16 2 15 3 13 4 14 5 12 6 7 7 8 8 9 9 11 10 10 11 6 12
REMARK SMILES IDX 1 13 2 14 3 15 84 16 4 17 83 18 5 19 82 20 81 21 18 22 19 23
REMARK SMILES IDX 20 24 21 25 22 26 80 27 23 28 79 29 24 30 25 31 26 32 73 33
REMARK SMILES IDX 27 34 78 35 72 36 74 37 28 38 77 39 71 40 70 41 29 43 59 44
REMARK SMILES IDX 40 45 58 46 41 47 44 48 57 49 75 50 42 51 43 52 56 54 76 55
REMARK SMILES IDX 45 56 30 57 31 58 39 59 32 60 38 61 33 62 34 63 35 64 36 65
REMARK SMILES IDX 37 66 60 67 61 68 69 69 62 70 68 71 63 72 64 73 65 74 66 75
REMARK SMILES IDX 67 76 46 77 47 78 55 79 48 80 54 81 49 82 50 83 51 84 52 85
REMARK SMILES IDX 53 86
REMARK H PARENT 74 42 44 53
REMARK Flexibility Score: inf
ROOT
ATOM      1  C   UNL A   1      37.437  23.059  26.092  1.00  0.00     0.275 C 
ENDROOT
BRANCH   1   2
ATOM      2  C   UNL A   1      37.004  23.691  24.752  1.00  0.00     0.274 C 
BRANCH   2   3
ATOM      3  O   UNL A   1      35.588  24.015  24.769  1.00  0.00    -0.462 OA
BRANCH   3   4
ATOM      4  C   UNL A   1      34.871  23.477  23.737  1.00  0.00     0.309 C 
ATOM      5  O   UNL A   1      35.355  23.285  22.628  1.00  0.00    -0.252 OA
BRANCH   4   6
ATOM      6  C   UNL A   1      33.425  23.153  24.147  1.00  0.00     0.110 C 
ATOM      7  C   UNL A   1      32.939  23.466  25.606  1.00  0.00     0.072 C 
ATOM      8  C   UNL A   1      33.653  22.587  26.649  1.00  0.00     0.012 C 
ATOM      9  C   UNL A   1      33.700  21.078  26.326  1.00  0.00     0.001 C 
ATOM     10  C   UNL A   1      33.298  21.611  23.881  1.00  0.00     0.016 C 
ATOM     11  C   UNL A   1      34.059  20.739  24.886  1.00  0.00     0.001 C 
BRANCH   7  12
ATOM     12  C   UNL A   1      32.321  24.883  26.079  1.00  0.00     0.141 A 
ATOM     13  C   UNL A   1      33.121  30.541  26.535  1.00  0.00     0.044 C 
ATOM     14  C   UNL A   1      32.859  29.062  26.551  1.00  0.00    -0.046 A 
ATOM     15  C   UNL A   1      34.053  28.277  26.434  1.00  0.00     0.022 A 
ATOM     16  C   UNL A   1      31.676  28.418  26.680  1.00  0.00     0.053 A 
ATOM     17  C   UNL A   1      33.942  26.956  26.284  1.00  0.00     0.095 A 
ATOM     18  C   UNL A   1      31.595  26.975  26.569  1.00  0.00     0.161 A 
ATOM     19  N   UNL A   1      32.752  26.240  26.261  1.00  0.00    -0.286 N 
ATOM     20  N   UNL A   1      30.596  26.149  26.738  1.00  0.00    -0.130 NA
ATOM     21  N   UNL A   1      31.037  24.882  26.455  1.00  0.00    -0.134 NA
ENDBRANCH   7  12
ENDBRANCH   4   6
ENDBRANCH   3   4
ENDBRANCH   2   3
ENDBRANCH   1   2
BRANCH   1  22
ATOM     22  O   UNL A   1      38.831  23.241  26.486  1.00  0.00    -0.458 OA
BRANCH  22  23
ATOM     23  C   UNL A   1      39.600  22.179  26.201  1.00  0.00     0.338 C 
ATOM     24  O   UNL A   1      39.131  21.103  25.828  1.00  0.00    -0.246 OA
BRANCH  23  25
ATOM     25  C   UNL A   1      41.049  22.181  26.506  1.00  0.00     0.060 A 
ATOM     26  C   UNL A   1      41.421  21.767  27.770  1.00  0.00     0.016 A 
ATOM     27  C   UNL A   1      41.769  23.215  25.874  1.00  0.00     0.016 A 
ATOM     28  C   UNL A   1      42.066  22.701  28.566  1.00  0.00     0.010 A 
ATOM     29  C   UNL A   1      42.401  24.132  26.660  1.00  0.00     0.010 A 
ATOM     30  C   UNL A   1      42.318  23.962  28.034  1.00  0.00    -0.014 A 
BRANCH  30  31
ATOM     31  C   UNL A   1      42.428  25.182  28.816  1.00  0.00     0.031 A 
ATOM     32  C   UNL A   1      41.232  26.028  28.682  1.00  0.00     0.074 A 
ATOM     33  C   UNL A   1      43.379  25.469  29.727  1.00  0.00     0.049 A 
ATOM     34  N   UNL A   1      40.884  26.534  27.545  1.00  0.00    -0.248 NA
ATOM     35  C   UNL A   1      40.166  26.046  29.699  1.00  0.00     0.031 C 
ATOM     36  C   UNL A   1      44.510  24.679  30.220  1.00  0.00     0.029 A 
ATOM     37  N   UNL A   1      43.486  26.629  30.434  1.00  0.00    -0.354 N 
ATOM     38  C   UNL A   1      39.752  27.251  27.830  1.00  0.00     0.074 A 
ATOM     39  C   UNL A   1      39.179  26.592  28.976  1.00  0.00     0.031 C 
ATOM     40  C   UNL A   1      45.148  25.363  31.208  1.00  0.00     0.029 A 
ATOM     41  C   UNL A   1      44.536  26.677  31.339  1.00  0.00     0.049 A 
ATOM     42  H   UNL A   1      42.862  27.380  30.310  1.00  0.00     0.167 HD
ATOM     43  C   UNL A   1      39.635  28.538  27.396  1.00  0.00     0.031 A 
ATOM     44  C   UNL A   1      45.055  27.782  31.944  1.00  0.00     0.031 A 
ATOM     45  C   UNL A   1      40.777  28.907  26.570  1.00  0.00     0.049 A 
ATOM     46  C   UNL A   1      44.724  28.916  31.032  1.00  0.00     0.074 A 
ATOM     47  C   UNL A   1      41.343  28.381  25.423  1.00  0.00     0.029 A 
ATOM     48  N   UNL A   1      41.787  29.616  27.198  1.00  0.00    -0.354 N 
ATOM     49  N   UNL A   1      45.266  29.043  29.850  1.00  0.00    -0.248 NA
ATOM     50  C   UNL A   1      43.464  29.627  31.212  1.00  0.00     0.031 C 
ATOM     51  C   UNL A   1      42.752  28.410  25.652  1.00  0.00     0.029 A 
ATOM     52  C   UNL A   1      43.001  29.057  26.865  1.00  0.00     0.049 A 
ATOM     53  H   UNL A   1      41.658  30.395  27.787  1.00  0.00     0.167 HD
ATOM     54  C   UNL A   1      44.220  29.430  29.023  1.00  0.00     0.074 A 
ATOM     55  C   UNL A   1      43.168  29.884  29.933  1.00  0.00     0.031 C 
ATOM     56  C   UNL A   1      44.195  29.081  27.701  1.00  0.00     0.031 A 
BRANCH  43  57
ATOM     57  C   UNL A   1      38.733  29.556  28.029  1.00  0.00    -0.014 A 
ATOM     58  C   UNL A   1      39.128  30.435  29.057  1.00  0.00     0.010 A 
ATOM     59  C   UNL A   1      37.454  29.752  27.481  1.00  0.00     0.010 A 
ATOM     60  C   UNL A   1      38.293  31.436  29.543  1.00  0.00     0.020 A 
ATOM     61  C   UNL A   1      36.618  30.781  27.932  1.00  0.00     0.020 A 
ATOM     62  C   UNL A   1      37.042  31.606  28.971  1.00  0.00     0.054 A 
BRANCH  62  63
ATOM     63  S   UNL A   1      36.015  32.952  29.592  1.00  0.00     0.124 S 
ATOM     64  O   UNL A   1      35.347  33.405  28.375  1.00  0.00    -0.237 OA
ATOM     65  O   UNL A   1      35.164  32.270  30.563  1.00  0.00    -0.237 OA
ATOM     66  O   UNL A   1      36.985  33.886  30.160  1.00  0.00    -0.744 OA
ENDBRANCH  62  63
ENDBRANCH  43  57
BRANCH  44  67
ATOM     67  C   UNL A   1      45.126  27.995  33.421  1.00  0.00    -0.014 A 
ATOM     68  C   UNL A   1      45.961  28.985  33.975  1.00  0.00     0.010 A 
ATOM     69  C   UNL A   1      44.564  27.045  34.301  1.00  0.00     0.010 A 
ATOM     70  C   UNL A   1      46.299  28.970  35.338  1.00  0.00     0.020 A 
ATOM     71  C   UNL A   1      44.896  27.028  35.669  1.00  0.00     0.020 A 
ATOM     72  C   UNL A   1      45.794  27.970  36.169  1.00  0.00     0.054 A 
BRANCH  72  73
ATOM     73  S   UNL A   1      46.397  27.878  37.884  1.00  0.00     0.124 S 
ATOM     74  O   UNL A   1      45.463  28.757  38.582  1.00  0.00    -0.237 OA
ATOM     75  O   UNL A   1      46.268  26.455  38.190  1.00  0.00    -0.237 OA
ATOM     76  O   UNL A   1      47.770  28.370  37.798  1.00  0.00    -0.744 OA
ENDBRANCH  72  73
ENDBRANCH  44  67
BRANCH  56  77
ATOM     77  C   UNL A   1      45.448  28.453  27.096  1.00  0.00    -0.014 A 
ATOM     78  C   UNL A   1      46.233  29.240  26.235  1.00  0.00     0.010 A 
ATOM     79  C   UNL A   1      45.757  27.079  27.191  1.00  0.00     0.010 A 
ATOM     80  C   UNL A   1      47.247  28.673  25.455  1.00  0.00     0.020 A 
ATOM     81  C   UNL A   1      46.789  26.504  26.428  1.00  0.00     0.020 A 
ATOM     82  C   UNL A   1      47.510  27.305  25.541  1.00  0.00     0.054 A 
BRANCH  82  83
ATOM     83  S   UNL A   1      48.784  26.602  24.457  1.00  0.00     0.124 S 
ATOM     84  O   UNL A   1      49.690  25.968  25.414  1.00  0.00    -0.237 OA
ATOM     85  O   UNL A   1      48.022  25.680  23.617  1.00  0.00    -0.237 OA
ATOM     86  O   UNL A   1      49.338  27.760  23.759  1.00  0.00    -0.744 OA
ENDBRANCH  82  83
ENDBRANCH  56  77
ENDBRANCH  30  31
ENDBRANCH  23  25
ENDBRANCH  22  23
ENDBRANCH   1  22
TORSDOF 15
ENDMDL
MODEL 3
REMARK VINA RESULT:     -10.8      3.425      7.670
REMARK SMILES Cc1ccn2c([C@@H]3CCCC[C@@H]3C(=O)OCCOC(=O)c3ccc(-c4c5nc(c(-c6ccc(S(=O)(=O)[O-])cc6)c6ccc([nH]6)c(-c6ccc(S(=O)(=O)[O-])cc6)c6nc(c(-c7ccc(S(=O)(=O)[O-])cc7)c7ccc4[nH]7)C=C6)C=C5)cc3)nnc2c1
REMARK SMILES IDX 17 1 16 2 15 3 13 4 14 5 12 6 7 7 8 8 9 9 11 10 10 11 6 12
REMARK SMILES IDX 1 13 2 14 3 15 84 16 4 17 83 18 5 19 82 20 81 21 18 22 19 23
REMARK SMILES IDX 20 24 21 25 22 26 80 27 23 28 79 29 24 30 25 31 26 32 73 33
REMARK SMILES IDX 27 34 78 35 72 36 74 37 28 38 77 39 71 40 70 41 29 43 59 44
REMARK SMILES IDX 40 45 58 46 41 47 44 48 57 49 75 50 42 51 43 52 56 54 76 55
REMARK SMILES IDX 45 56 30 57 31 58 39 59 32 60 38 61 33 62 34 63 35 64 36 65
REMARK SMILES IDX 37 66 60 67 61 68 69 69 62 70 68 71 63 72 64 73 65 74 66 75
REMARK SMILES IDX 67 76 46 77 47 78 55 79 48 80 54 81 49 82 50 83 51 84 52 85
REMARK SMILES IDX 53 86
REMARK H PARENT 74 42 44 53
REMARK Flexibility Score: inf
ROOT
ATOM      1  C   UNL A   1      34.934  30.217  27.217  1.00  0.00     0.275 C 
ENDROOT
BRANCH   1   2
ATOM      2  C   UNL A   1      33.785  29.186  27.220  1.00  0.00     0.274 C 
BRANCH   2   3
ATOM      3  O   UNL A   1      34.173  27.978  26.513  1.00  0.00    -0.462 OA
BRANCH   3   4
ATOM      4  C   UNL A   1      33.590  27.827  25.287  1.00  0.00     0.309 C 
ATOM      5  O   UNL A   1      34.032  28.362  24.277  1.00  0.00    -0.252 OA
BRANCH   4   6
ATOM      6  C   UNL A   1      32.348  26.924  25.346  1.00  0.00     0.110 C 
ATOM      7  C   UNL A   1      32.182  25.756  24.311  1.00  0.00     0.072 C 
ATOM      8  C   UNL A   1      31.988  26.284  22.878  1.00  0.00     0.012 C 
ATOM      9  C   UNL A   1      30.935  27.402  22.719  1.00  0.00     0.001 C 
ATOM     10  C   UNL A   1      31.150  27.925  25.188  1.00  0.00     0.016 C 
ATOM     11  C   UNL A   1      30.994  28.497  23.775  1.00  0.00     0.001 C 
BRANCH   7  12
ATOM     12  C   UNL A   1      32.771  24.263  24.514  1.00  0.00     0.141 A 
ATOM     13  C   UNL A   1      37.442  20.946  24.697  1.00  0.00     0.044 C 
ATOM     14  C   UNL A   1      36.156  21.712  24.567  1.00  0.00    -0.046 A 
ATOM     15  C   UNL A   1      36.308  22.954  23.869  1.00  0.00     0.022 A 
ATOM     16  C   UNL A   1      34.922  21.364  25.001  1.00  0.00     0.053 A 
ATOM     17  C   UNL A   1      35.274  23.795  23.819  1.00  0.00     0.095 A 
ATOM     18  C   UNL A   1      33.804  22.279  24.882  1.00  0.00     0.161 A 
ATOM     19  N   UNL A   1      34.018  23.568  24.367  1.00  0.00    -0.286 N 
ATOM     20  N   UNL A   1      32.532  22.130  25.148  1.00  0.00    -0.130 NA
ATOM     21  N   UNL A   1      31.905  23.326  24.913  1.00  0.00    -0.134 NA
ENDBRANCH   7  12
ENDBRANCH   4   6
ENDBRANCH   3   4
ENDBRANCH   2   3
ENDBRANCH   1   2
BRANCH   1  22
ATOM     22  O   UNL A   1      35.794  30.249  28.396  1.00  0.00    -0.458 OA
BRANCH  22  23
ATOM     23  C   UNL A   1      36.225  31.482  28.698  1.00  0.00     0.338 C 
ATOM     24  O   UNL A   1      35.981  32.461  27.992  1.00  0.00    -0.246 OA
BRANCH  23  25
ATOM     25  C   UNL A   1      37.188  31.706  29.801  1.00  0.00     0.060 A 
ATOM     26  C   UNL A   1      38.425  32.213  29.456  1.00  0.00     0.016 A 
ATOM     27  C   UNL A   1      37.089  30.770  30.850  1.00  0.00     0.016 A 
ATOM     28  C   UNL A   1      39.524  31.414  29.729  1.00  0.00     0.010 A 
ATOM     29  C   UNL A   1      38.171  29.984  31.115  1.00  0.00     0.010 A 
ATOM     30  C   UNL A   1      39.311  30.187  30.350  1.00  0.00    -0.014 A 
BRANCH  30  31
ATOM     31  C   UNL A   1      40.170  29.024  30.200  1.00  0.00     0.031 A 
ATOM     32  C   UNL A   1      40.701  28.565  31.493  1.00  0.00     0.074 A 
ATOM     33  C   UNL A   1      40.339  28.288  29.084  1.00  0.00     0.049 A 
ATOM     34  N   UNL A   1      41.474  29.311  32.211  1.00  0.00    -0.248 NA
ATOM     35  C   UNL A   1      40.110  27.431  32.225  1.00  0.00     0.031 C 
ATOM     36  C   UNL A   1      39.718  28.391  27.761  1.00  0.00     0.029 A 
ATOM     37  N   UNL A   1      41.169  27.216  28.948  1.00  0.00    -0.354 N 
ATOM     38  C   UNL A   1      41.757  28.541  33.309  1.00  0.00     0.074 A 
ATOM     39  C   UNL A   1      40.624  27.661  33.441  1.00  0.00     0.031 C 
ATOM     40  C   UNL A   1      40.145  27.364  26.976  1.00  0.00     0.029 A 
ATOM     41  C   UNL A   1      41.146  26.601  27.706  1.00  0.00     0.049 A 
ATOM     42  H   UNL A   1      41.745  26.902  29.682  1.00  0.00     0.167 HD
ATOM     43  C   UNL A   1      43.047  28.394  33.722  1.00  0.00     0.031 A 
ATOM     44  C   UNL A   1      42.060  25.726  27.201  1.00  0.00     0.031 A 
ATOM     45  C   UNL A   1      43.940  29.219  32.920  1.00  0.00     0.049 A 
ATOM     46  C   UNL A   1      43.328  26.025  27.929  1.00  0.00     0.074 A 
ATOM     47  C   UNL A   1      43.998  30.569  32.627  1.00  0.00     0.029 A 
ATOM     48  N   UNL A   1      44.604  28.580  31.885  1.00  0.00    -0.354 N 
ATOM     49  N   UNL A   1      43.983  27.141  27.762  1.00  0.00    -0.248 NA
ATOM     50  C   UNL A   1      43.611  25.325  29.176  1.00  0.00     0.031 C 
ATOM     51  C   UNL A   1      44.277  30.639  31.229  1.00  0.00     0.029 A 
ATOM     52  C   UNL A   1      44.501  29.347  30.746  1.00  0.00     0.049 A 
ATOM     53  H   UNL A   1      45.073  27.718  31.954  1.00  0.00     0.167 HD
ATOM     54  C   UNL A   1      44.375  27.516  29.040  1.00  0.00     0.074 A 
ATOM     55  C   UNL A   1      44.220  26.307  29.850  1.00  0.00     0.031 C 
ATOM     56  C   UNL A   1      44.514  28.832  29.382  1.00  0.00     0.031 A 
BRANCH  43  57
ATOM     57  C   UNL A   1      43.536  27.240  34.547  1.00  0.00    -0.014 A 
ATOM     58  C   UNL A   1      43.504  25.895  34.126  1.00  0.00     0.010 A 
ATOM     59  C   UNL A   1      44.194  27.513  35.759  1.00  0.00     0.010 A 
ATOM     60  C   UNL A   1      44.064  24.868  34.878  1.00  0.00     0.020 A 
ATOM     61  C   UNL A   1      44.798  26.494  36.505  1.00  0.00     0.020 A 
ATOM     62  C   UNL A   1      44.715  25.175  36.062  1.00  0.00     0.054 A 
BRANCH  62  63
ATOM     63  S   UNL A   1      45.477  23.819  36.974  1.00  0.00     0.124 S 
ATOM     64  O   UNL A   1      44.942  24.025  38.318  1.00  0.00    -0.237 OA
ATOM     65  O   UNL A   1      44.971  22.647  36.266  1.00  0.00    -0.237 OA
ATOM     66  O   UNL A   1      46.908  24.070  36.824  1.00  0.00    -0.744 OA
ENDBRANCH  62  63
ENDBRANCH  43  57
BRANCH  44  67
ATOM     67  C   UNL A   1      41.755  24.334  26.752  1.00  0.00    -0.014 A 
ATOM     68  C   UNL A   1      40.796  23.546  27.419  1.00  0.00     0.010 A 
ATOM     69  C   UNL A   1      42.600  23.689  25.822  1.00  0.00     0.010 A 
ATOM     70  C   UNL A   1      40.746  22.155  27.237  1.00  0.00     0.020 A 
ATOM     71  C   UNL A   1      42.551  22.295  25.634  1.00  0.00     0.020 A 
ATOM     72  C   UNL A   1      41.648  21.533  26.374  1.00  0.00     0.054 A 
BRANCH  72  73
ATOM     73  S   UNL A   1      41.672  19.714  26.303  1.00  0.00     0.124 S 
ATOM     74  O   UNL A   1      40.279  19.404  25.993  1.00  0.00    -0.237 OA
ATOM     75  O   UNL A   1      42.628  19.450  25.231  1.00  0.00    -0.237 OA
ATOM     76  O   UNL A   1      42.116  19.320  27.638  1.00  0.00    -0.744 OA
ENDBRANCH  72  73
ENDBRANCH  44  67
BRANCH  56  77
ATOM     77  C   UNL A   1      44.452  29.878  28.272  1.00  0.00    -0.014 A 
ATOM     78  C   UNL A   1      45.650  30.226  27.623  1.00  0.00     0.010 A 
ATOM     79  C   UNL A   1      43.307  30.654  27.993  1.00  0.00     0.010 A 
ATOM     80  C   UNL A   1      45.721  31.337  26.775  1.00  0.00     0.020 A 
ATOM     81  C   UNL A   1      43.362  31.760  27.125  1.00  0.00     0.020 A 
ATOM     82  C   UNL A   1      44.582  32.110  26.543  1.00  0.00     0.054 A 
BRANCH  82  83
ATOM     83  S   UNL A   1      44.739  33.584  25.496  1.00  0.00     0.124 S 
ATOM     84  O   UNL A   1      46.146  33.938  25.668  1.00  0.00    -0.237 OA
ATOM     85  O   UNL A   1      44.381  33.079  24.172  1.00  0.00    -0.237 OA
ATOM     86  O   UNL A   1      43.790  34.534  26.073  1.00  0.00    -0.744 OA
ENDBRANCH  82  83
ENDBRANCH  56  77
ENDBRANCH  30  31
ENDBRANCH  23  25
ENDBRANCH  22  23
ENDBRANCH   1  22
TORSDOF 15
ENDMDL
