MODEL 1
REMARK VINA RESULT:     -11.0      0.000      0.000
REMARK SMILES COC(=O)[C@@H]1C[C@@H](C(=O)OCCOC(=O)c2ccc(-c3c4nc(c(-c5ccc(S(=O)(=O)[O-])cc5)c5ccc([nH]5)c(-c5ccc(S(=O)(=O)[O-])cc5)c5nc(c(-c6ccc(S(=O)(=O)[O-])cc6)c6ccc3[nH]6)C=C5)C=C4)cc2)[C@@H](c2cccc(F)c2F)[N@H+]1C
REMARK SMILES IDX 12 1 11 2 10 3 8 4 9 5 7 6 5 7 6 8 85 9 76 10 86 11 3 13
REMARK SMILES IDX 4 14 2 15 1 16 77 17 78 18 83 19 79 20 81 21 84 22 80 23
REMARK SMILES IDX 82 24 13 25 14 26 15 27 16 28 17 29 75 30 18 31 74 32 19 33
REMARK SMILES IDX 20 34 21 35 68 36 22 37 73 38 67 39 69 40 23 41 72 42 66 43
REMARK SMILES IDX 65 44 24 46 54 47 35 48 53 49 36 50 39 51 52 52 70 53 37 54
REMARK SMILES IDX 38 55 51 57 71 58 40 59 25 60 26 61 34 62 27 63 33 64 28 65
REMARK SMILES IDX 29 66 30 67 31 68 32 69 55 70 56 71 64 72 57 73 63 74 58 75
REMARK SMILES IDX 59 76 60 77 61 78 62 79 41 80 42 81 50 82 43 83 49 84 44 85
REMARK SMILES IDX 45 86 46 87 47 88 48 89
REMARK H PARENT 85 12 69 45 39 56
REMARK Flexibility Score: inf
ROOT
ATOM      1  C   UNL A   1      34.300  30.478  27.975  1.00  0.00     0.275 C 
ENDROOT
BRANCH   1   2
ATOM      2  C   UNL A   1      33.595  29.757  26.823  1.00  0.00     0.274 C 
BRANCH   2   3
ATOM      3  O   UNL A   1      33.649  28.327  26.999  1.00  0.00    -0.462 OA
BRANCH   3   4
ATOM      4  C   UNL A   1      32.489  27.639  26.921  1.00  0.00     0.315 C 
ATOM      5  O   UNL A   1      31.495  27.907  27.588  1.00  0.00    -0.252 OA
BRANCH   4   6
ATOM      6  C   UNL A   1      32.529  26.445  25.990  1.00  0.00     0.169 C 
ATOM      7  C   UNL A   1      33.447  25.538  23.943  1.00  0.00     0.296 C 
ATOM      8  C   UNL A   1      33.836  26.321  25.202  1.00  0.00     0.099 C 
ATOM      9  N   UNL A   1      32.085  25.057  24.243  1.00  0.00    -0.319 N 
ATOM     10  C   UNL A   1      31.400  26.147  24.985  1.00  0.00     0.233 C 
ATOM     11  C   UNL A   1      31.371  24.471  23.125  1.00  0.00     0.334 C 
ATOM     12  H   UNL A   1      32.124  24.232  24.841  1.00  0.00     0.349 HD
BRANCH   7  13
ATOM     13  C   UNL A   1      34.417  24.405  23.616  1.00  0.00     0.364 C 
ATOM     14  O   UNL A   1      34.404  23.806  22.543  1.00  0.00    -0.245 OA
BRANCH  13  15
ATOM     15  O   UNL A   1      35.282  24.147  24.635  1.00  0.00    -0.465 OA
ATOM     16  C   UNL A   1      36.381  23.311  24.268  1.00  0.00     0.282 C 
ENDBRANCH  13  15
ENDBRANCH   7  13
BRANCH  10  17
ATOM     17  C   UNL A   1      30.826  27.241  24.094  1.00  0.00     0.049 A 
ATOM     18  C   UNL A   1      31.592  28.226  23.448  1.00  0.00     0.013 A 
ATOM     19  C   UNL A   1      29.435  27.281  23.894  1.00  0.00     0.167 A 
ATOM     20  C   UNL A   1      30.991  29.251  22.706  1.00  0.00     0.004 A 
ATOM     21  C   UNL A   1      28.840  28.280  23.127  1.00  0.00     0.159 A 
ATOM     22  F   UNL A   1      28.654  26.328  24.426  1.00  0.00    -0.203 F 
ATOM     23  C   UNL A   1      29.609  29.279  22.547  1.00  0.00     0.042 A 
ATOM     24  F   UNL A   1      27.513  28.284  22.934  1.00  0.00    -0.204 F 
ENDBRANCH  10  17
ENDBRANCH   4   6
ENDBRANCH   3   4
ENDBRANCH   2   3
ENDBRANCH   1   2
BRANCH   1  25
ATOM     25  O   UNL A   1      35.729  30.356  27.868  1.00  0.00    -0.458 OA
BRANCH  25  26
ATOM     26  C   UNL A   1      36.375  30.187  29.046  1.00  0.00     0.338 C 
ATOM     27  O   UNL A   1      35.866  30.131  30.157  1.00  0.00    -0.246 OA
BRANCH  26  28
ATOM     28  C   UNL A   1      37.791  29.877  28.801  1.00  0.00     0.060 A 
ATOM     29  C   UNL A   1      38.181  29.667  27.477  1.00  0.00     0.016 A 
ATOM     30  C   UNL A   1      38.717  29.763  29.840  1.00  0.00     0.016 A 
ATOM     31  C   UNL A   1      39.499  29.343  27.180  1.00  0.00     0.010 A 
ATOM     32  C   UNL A   1      40.043  29.434  29.542  1.00  0.00     0.010 A 
ATOM     33  C   UNL A   1      40.437  29.215  28.210  1.00  0.00    -0.014 A 
BRANCH  33  34
ATOM     34  C   UNL A   1      41.817  28.805  27.864  1.00  0.00     0.031 A 
ATOM     35  C   UNL A   1      42.925  29.817  27.886  1.00  0.00     0.074 A 
ATOM     36  C   UNL A   1      42.076  27.509  27.611  1.00  0.00     0.049 A 
ATOM     37  N   UNL A   1      44.202  29.646  27.663  1.00  0.00    -0.248 NA
ATOM     38  C   UNL A   1      42.548  31.204  28.203  1.00  0.00     0.031 C 
ATOM     39  C   UNL A   1      41.081  26.434  27.607  1.00  0.00     0.029 A 
ATOM     40  N   UNL A   1      43.257  26.871  27.329  1.00  0.00    -0.354 N 
ATOM     41  C   UNL A   1      44.782  30.900  27.805  1.00  0.00     0.074 A 
ATOM     42  C   UNL A   1      43.713  31.828  28.108  1.00  0.00     0.031 C 
ATOM     43  C   UNL A   1      41.698  25.267  27.360  1.00  0.00     0.029 A 
ATOM     44  C   UNL A   1      43.121  25.515  27.150  1.00  0.00     0.049 A 
ATOM     45  H   UNL A   1      44.120  27.340  27.263  1.00  0.00     0.167 HD
ATOM     46  C   UNL A   1      46.088  31.244  27.697  1.00  0.00     0.031 A 
ATOM     47  C   UNL A   1      44.040  24.580  26.843  1.00  0.00     0.031 A 
ATOM     48  C   UNL A   1      47.142  30.315  27.386  1.00  0.00     0.049 A 
ATOM     49  C   UNL A   1      45.475  24.999  26.680  1.00  0.00     0.074 A 
ATOM     50  C   UNL A   1      48.497  30.561  27.253  1.00  0.00     0.029 A 
ATOM     51  N   UNL A   1      46.960  28.958  27.158  1.00  0.00    -0.354 N 
ATOM     52  N   UNL A   1      46.008  26.190  26.820  1.00  0.00    -0.248 NA
ATOM     53  C   UNL A   1      46.434  23.945  26.324  1.00  0.00     0.031 C 
ATOM     54  C   UNL A   1      49.127  29.364  26.893  1.00  0.00     0.029 A 
ATOM     55  C   UNL A   1      48.173  28.358  26.860  1.00  0.00     0.049 A 
ATOM     56  H   UNL A   1      46.095  28.490  27.201  1.00  0.00     0.167 HD
ATOM     57  C   UNL A   1      47.368  26.026  26.583  1.00  0.00     0.074 A 
ATOM     58  C   UNL A   1      47.577  24.616  26.319  1.00  0.00     0.031 C 
ATOM     59  C   UNL A   1      48.356  26.957  26.581  1.00  0.00     0.031 A 
BRANCH  46  60
ATOM     60  C   UNL A   1      46.439  32.698  27.879  1.00  0.00    -0.014 A 
ATOM     61  C   UNL A   1      46.678  33.241  29.154  1.00  0.00     0.010 A 
ATOM     62  C   UNL A   1      46.560  33.528  26.749  1.00  0.00     0.010 A 
ATOM     63  C   UNL A   1      46.993  34.596  29.299  1.00  0.00     0.020 A 
ATOM     64  C   UNL A   1      46.900  34.877  26.888  1.00  0.00     0.020 A 
ATOM     65  C   UNL A   1      47.099  35.405  28.163  1.00  0.00     0.054 A 
BRANCH  65  66
ATOM     66  S   UNL A   1      47.528  37.156  28.377  1.00  0.00     0.124 S 
ATOM     67  O   UNL A   1      47.574  37.279  29.832  1.00  0.00    -0.237 OA
ATOM     68  O   UNL A   1      48.817  37.255  27.698  1.00  0.00    -0.237 OA
ATOM     69  O   UNL A   1      46.429  37.865  27.727  1.00  0.00    -0.744 OA
ENDBRANCH  65  66
ENDBRANCH  46  60
BRANCH  47  70
ATOM     70  C   UNL A   1      43.625  23.163  26.654  1.00  0.00    -0.014 A 
ATOM     71  C   UNL A   1      43.844  22.502  25.432  1.00  0.00     0.010 A 
ATOM     72  C   UNL A   1      43.007  22.463  27.707  1.00  0.00     0.010 A 
ATOM     73  C   UNL A   1      43.437  21.175  25.262  1.00  0.00     0.020 A 
ATOM     74  C   UNL A   1      42.626  21.128  27.550  1.00  0.00     0.020 A 
ATOM     75  C   UNL A   1      42.832  20.496  26.323  1.00  0.00     0.054 A 
BRANCH  75  76
ATOM     76  S   UNL A   1      42.356  18.758  26.098  1.00  0.00     0.124 S 
ATOM     77  O   UNL A   1      43.234  18.343  25.009  1.00  0.00    -0.237 OA
ATOM     78  O   UNL A   1      42.650  18.178  27.406  1.00  0.00    -0.237 OA
ATOM     79  O   UNL A   1      40.936  18.835  25.764  1.00  0.00    -0.744 OA
ENDBRANCH  75  76
ENDBRANCH  47  70
BRANCH  59  80
ATOM     80  C   UNL A   1      49.752  26.466  26.299  1.00  0.00    -0.014 A 
ATOM     81  C   UNL A   1      50.295  26.521  25.002  1.00  0.00     0.010 A 
ATOM     82  C   UNL A   1      50.532  25.946  27.347  1.00  0.00     0.010 A 
ATOM     83  C   UNL A   1      51.572  26.014  24.750  1.00  0.00     0.020 A 
ATOM     84  C   UNL A   1      51.821  25.466  27.104  1.00  0.00     0.020 A 
ATOM     85  C   UNL A   1      52.323  25.482  25.801  1.00  0.00     0.054 A 
BRANCH  85  86
ATOM     86  S   UNL A   1      53.979  24.828  25.451  1.00  0.00     0.124 S 
ATOM     87  O   UNL A   1      53.703  23.413  25.221  1.00  0.00    -0.237 OA
ATOM     88  O   UNL A   1      54.384  25.590  24.272  1.00  0.00    -0.237 OA
ATOM     89  O   UNL A   1      54.733  25.127  26.667  1.00  0.00    -0.744 OA
ENDBRANCH  85  86
ENDBRANCH  59  80
ENDBRANCH  33  34
ENDBRANCH  26  28
ENDBRANCH  25  26
ENDBRANCH   1  25
TORSDOF 17
ENDMDL
MODEL 2
REMARK VINA RESULT:     -11.0      2.167      3.266
REMARK SMILES COC(=O)[C@@H]1C[C@@H](C(=O)OCCOC(=O)c2ccc(-c3c4nc(c(-c5ccc(S(=O)(=O)[O-])cc5)c5ccc([nH]5)c(-c5ccc(S(=O)(=O)[O-])cc5)c5nc(c(-c6ccc(S(=O)(=O)[O-])cc6)c6ccc3[nH]6)C=C5)C=C4)cc2)[C@@H](c2cccc(F)c2F)[N@H+]1C
REMARK SMILES IDX 12 1 11 2 10 3 8 4 9 5 7 6 5 7 6 8 85 9 76 10 86 11 3 13
REMARK SMILES IDX 4 14 2 15 1 16 77 17 78 18 83 19 79 20 81 21 84 22 80 23
REMARK SMILES IDX 82 24 13 25 14 26 15 27 16 28 17 29 75 30 18 31 74 32 19 33
REMARK SMILES IDX 20 34 21 35 68 36 22 37 73 38 67 39 69 40 23 41 72 42 66 43
REMARK SMILES IDX 65 44 24 46 54 47 35 48 53 49 36 50 39 51 52 52 70 53 37 54
REMARK SMILES IDX 38 55 51 57 71 58 40 59 25 60 26 61 34 62 27 63 33 64 28 65
REMARK SMILES IDX 29 66 30 67 31 68 32 69 55 70 56 71 64 72 57 73 63 74 58 75
REMARK SMILES IDX 59 76 60 77 61 78 62 79 41 80 42 81 50 82 43 83 49 84 44 85
REMARK SMILES IDX 45 86 46 87 47 88 48 89
REMARK H PARENT 85 12 69 45 39 56
REMARK Flexibility Score: inf
ROOT
ATOM      1  C   UNL A   1      35.679  30.650  27.764  1.00  0.00     0.275 C 
ENDROOT
BRANCH   1   2
ATOM      2  C   UNL A   1      34.150  30.630  27.683  1.00  0.00     0.274 C 
BRANCH   2   3
ATOM      3  O   UNL A   1      33.706  30.220  26.374  1.00  0.00    -0.462 OA
BRANCH   3   4
ATOM      4  C   UNL A   1      32.487  29.649  26.273  1.00  0.00     0.315 C 
ATOM      5  O   UNL A   1      31.786  29.367  27.240  1.00  0.00    -0.252 OA
BRANCH   4   6
ATOM      6  C   UNL A   1      32.071  29.305  24.858  1.00  0.00     0.169 C 
ATOM      7  C   UNL A   1      30.225  28.737  23.400  1.00  0.00     0.296 C 
ATOM      8  C   UNL A   1      30.628  29.695  24.527  1.00  0.00     0.099 C 
ATOM      9  N   UNL A   1      31.500  28.108  23.009  1.00  0.00    -0.319 N 
ATOM     10  C   UNL A   1      32.277  27.900  24.258  1.00  0.00     0.233 C 
ATOM     11  C   UNL A   1      31.388  26.978  22.107  1.00  0.00     0.334 C 
ATOM     12  H   UNL A   1      32.029  28.731  22.398  1.00  0.00     0.349 HD
BRANCH   7  13
ATOM     13  C   UNL A   1      29.526  29.436  22.237  1.00  0.00     0.364 C 
ATOM     14  O   UNL A   1      30.138  30.035  21.355  1.00  0.00    -0.245 OA
BRANCH  13  15
ATOM     15  O   UNL A   1      28.171  29.314  22.292  1.00  0.00    -0.465 OA
ATOM     16  C   UNL A   1      27.716  28.274  23.158  1.00  0.00     0.282 C 
ENDBRANCH  13  15
ENDBRANCH   7  13
BRANCH  10  17
ATOM     17  C   UNL A   1      31.888  26.647  25.031  1.00  0.00     0.049 A 
ATOM     18  C   UNL A   1      30.572  26.308  25.390  1.00  0.00     0.013 A 
ATOM     19  C   UNL A   1      32.905  25.757  25.419  1.00  0.00     0.167 A 
ATOM     20  C   UNL A   1      30.295  25.179  26.170  1.00  0.00     0.004 A 
ATOM     21  C   UNL A   1      32.625  24.615  26.165  1.00  0.00     0.159 A 
ATOM     22  F   UNL A   1      34.174  25.986  25.047  1.00  0.00    -0.203 F 
ATOM     23  C   UNL A   1      31.325  24.330  26.561  1.00  0.00     0.042 A 
ATOM     24  F   UNL A   1      33.609  23.770  26.504  1.00  0.00    -0.204 F 
ENDBRANCH  10  17
ENDBRANCH   4   6
ENDBRANCH   3   4
ENDBRANCH   2   3
ENDBRANCH   1   2
BRANCH   1  25
ATOM     25  O   UNL A   1      36.200  29.343  28.067  1.00  0.00    -0.458 OA
BRANCH  25  26
ATOM     26  C   UNL A   1      37.033  29.297  29.133  1.00  0.00     0.338 C 
ATOM     27  O   UNL A   1      36.710  29.255  30.312  1.00  0.00    -0.246 OA
BRANCH  26  28
ATOM     28  C   UNL A   1      38.418  29.104  28.678  1.00  0.00     0.060 A 
ATOM     29  C   UNL A   1      39.369  28.769  29.645  1.00  0.00     0.016 A 
ATOM     30  C   UNL A   1      38.792  29.273  27.343  1.00  0.00     0.016 A 
ATOM     31  C   UNL A   1      40.700  28.599  29.285  1.00  0.00     0.010 A 
ATOM     32  C   UNL A   1      40.133  29.105  26.982  1.00  0.00     0.010 A 
ATOM     33  C   UNL A   1      41.093  28.775  27.954  1.00  0.00    -0.014 A 
BRANCH  33  34
ATOM     34  C   UNL A   1      42.530  28.650  27.618  1.00  0.00     0.031 A 
ATOM     35  C   UNL A   1      43.461  29.796  27.886  1.00  0.00     0.074 A 
ATOM     36  C   UNL A   1      42.999  27.479  27.151  1.00  0.00     0.049 A 
ATOM     37  N   UNL A   1      44.755  29.865  27.709  1.00  0.00    -0.248 NA
ATOM     38  C   UNL A   1      42.859  31.026  28.426  1.00  0.00     0.031 C 
ATOM     39  C   UNL A   1      42.189  26.285  26.897  1.00  0.00     0.029 A 
ATOM     40  N   UNL A   1      44.275  27.091  26.827  1.00  0.00    -0.354 N 
ATOM     41  C   UNL A   1      45.124  31.145  28.108  1.00  0.00     0.074 A 
ATOM     42  C   UNL A   1      43.912  31.826  28.512  1.00  0.00     0.031 C 
ATOM     43  C   UNL A   1      42.991  25.292  26.479  1.00  0.00     0.029 A 
ATOM     44  C   UNL A   1      44.362  25.788  26.399  1.00  0.00     0.049 A 
ATOM     45  H   UNL A   1      45.053  27.690  26.896  1.00  0.00     0.167 HD
ATOM     46  C   UNL A   1      46.360  31.696  28.139  1.00  0.00     0.031 A 
ATOM     47  C   UNL A   1      45.426  25.078  25.981  1.00  0.00     0.031 A 
ATOM     48  C   UNL A   1      47.558  31.012  27.726  1.00  0.00     0.049 A 
ATOM     49  C   UNL A   1      46.780  25.732  25.978  1.00  0.00     0.074 A 
ATOM     50  C   UNL A   1      48.859  31.481  27.716  1.00  0.00     0.029 A 
ATOM     51  N   UNL A   1      47.600  29.711  27.246  1.00  0.00    -0.354 N 
ATOM     52  N   UNL A   1      47.112  26.943  26.361  1.00  0.00    -0.248 NA
ATOM     53  C   UNL A   1      47.905  24.921  25.493  1.00  0.00     0.031 C 
ATOM     54  C   UNL A   1      49.681  30.482  27.183  1.00  0.00     0.029 A 
ATOM     55  C   UNL A   1      48.901  29.368  26.915  1.00  0.00     0.049 A 
ATOM     56  H   UNL A   1      46.820  29.117  27.155  1.00  0.00     0.167 HD
ATOM     57  C   UNL A   1      48.487  27.034  26.177  1.00  0.00     0.074 A 
ATOM     58  C   UNL A   1      48.926  25.747  25.675  1.00  0.00     0.031 C 
ATOM     59  C   UNL A   1      49.313  28.088  26.398  1.00  0.00     0.031 A 
BRANCH  46  60
ATOM     60  C   UNL A   1      46.470  33.126  28.599  1.00  0.00    -0.014 A 
ATOM     61  C   UNL A   1      46.429  34.196  27.687  1.00  0.00     0.010 A 
ATOM     62  C   UNL A   1      46.589  33.405  29.973  1.00  0.00     0.010 A 
ATOM     63  C   UNL A   1      46.542  35.515  28.137  1.00  0.00     0.020 A 
ATOM     64  C   UNL A   1      46.676  34.723  30.429  1.00  0.00     0.020 A 
ATOM     65  C   UNL A   1      46.668  35.769  29.506  1.00  0.00     0.054 A 
BRANCH  65  66
ATOM     66  S   UNL A   1      46.794  37.491  30.066  1.00  0.00     0.124 S 
ATOM     67  O   UNL A   1      45.638  37.604  30.953  1.00  0.00    -0.237 OA
ATOM     68  O   UNL A   1      48.096  37.519  30.726  1.00  0.00    -0.237 OA
ATOM     69  O   UNL A   1      46.708  38.266  28.831  1.00  0.00    -0.744 OA
ENDBRANCH  65  66
ENDBRANCH  46  60
BRANCH  47  70
ATOM     70  C   UNL A   1      45.249  23.674  25.516  1.00  0.00    -0.014 A 
ATOM     71  C   UNL A   1      45.436  22.592  26.394  1.00  0.00     0.010 A 
ATOM     72  C   UNL A   1      44.886  23.415  24.181  1.00  0.00     0.010 A 
ATOM     73  C   UNL A   1      45.280  21.278  25.942  1.00  0.00     0.020 A 
ATOM     74  C   UNL A   1      44.701  22.105  23.733  1.00  0.00     0.020 A 
ATOM     75  C   UNL A   1      44.912  21.043  24.614  1.00  0.00     0.054 A 
BRANCH  75  76
ATOM     76  S   UNL A   1      44.666  19.332  24.059  1.00  0.00     0.124 S 
ATOM     77  O   UNL A   1      43.441  18.960  24.760  1.00  0.00    -0.237 OA
ATOM     78  O   UNL A   1      44.547  19.483  22.611  1.00  0.00    -0.237 OA
ATOM     79  O   UNL A   1      45.878  18.651  24.509  1.00  0.00    -0.744 OA
ENDBRANCH  75  76
ENDBRANCH  47  70
BRANCH  59  80
ATOM     80  C   UNL A   1      50.777  27.876  26.112  1.00  0.00    -0.014 A 
ATOM     81  C   UNL A   1      51.310  28.108  24.831  1.00  0.00     0.010 A 
ATOM     82  C   UNL A   1      51.631  27.442  27.142  1.00  0.00     0.010 A 
ATOM     83  C   UNL A   1      52.659  27.856  24.572  1.00  0.00     0.020 A 
ATOM     84  C   UNL A   1      52.988  27.219  26.894  1.00  0.00     0.020 A 
ATOM     85  C   UNL A   1      53.488  27.406  25.603  1.00  0.00     0.054 A 
BRANCH  85  86
ATOM     86  S   UNL A   1      55.237  27.085  25.244  1.00  0.00     0.124 S 
ATOM     87  O   UNL A   1      55.149  26.135  24.139  1.00  0.00    -0.237 OA
ATOM     88  O   UNL A   1      55.743  28.410  24.896  1.00  0.00    -0.237 OA
ATOM     89  O   UNL A   1      55.752  26.538  26.497  1.00  0.00    -0.744 OA
ENDBRANCH  85  86
ENDBRANCH  59  80
ENDBRANCH  33  34
ENDBRANCH  26  28
ENDBRANCH  25  26
ENDBRANCH   1  25
TORSDOF 17
ENDMDL
MODEL 3
REMARK VINA RESULT:     -10.9      5.456      7.065
REMARK SMILES COC(=O)[C@@H]1C[C@@H](C(=O)OCCOC(=O)c2ccc(-c3c4nc(c(-c5ccc(S(=O)(=O)[O-])cc5)c5ccc([nH]5)c(-c5ccc(S(=O)(=O)[O-])cc5)c5nc(c(-c6ccc(S(=O)(=O)[O-])cc6)c6ccc3[nH]6)C=C5)C=C4)cc2)[C@@H](c2cccc(F)c2F)[N@H+]1C
REMARK SMILES IDX 12 1 11 2 10 3 8 4 9 5 7 6 5 7 6 8 85 9 76 10 86 11 3 13
REMARK SMILES IDX 4 14 2 15 1 16 77 17 78 18 83 19 79 20 81 21 84 22 80 23
REMARK SMILES IDX 82 24 13 25 14 26 15 27 16 28 17 29 75 30 18 31 74 32 19 33
REMARK SMILES IDX 20 34 21 35 68 36 22 37 73 38 67 39 69 40 23 41 72 42 66 43
REMARK SMILES IDX 65 44 24 46 54 47 35 48 53 49 36 50 39 51 52 52 70 53 37 54
REMARK SMILES IDX 38 55 51 57 71 58 40 59 25 60 26 61 34 62 27 63 33 64 28 65
REMARK SMILES IDX 29 66 30 67 31 68 32 69 55 70 56 71 64 72 57 73 63 74 58 75
REMARK SMILES IDX 59 76 60 77 61 78 62 79 41 80 42 81 50 82 43 83 49 84 44 85
REMARK SMILES IDX 45 86 46 87 47 88 48 89
REMARK H PARENT 85 12 69 45 39 56
REMARK Flexibility Score: inf
ROOT
ATOM      1  C   UNL A   1      32.509  30.557  26.430  1.00  0.00     0.275 C 
ENDROOT
BRANCH   1   2
ATOM      2  C   UNL A   1      32.422  29.608  25.232  1.00  0.00     0.274 C 
BRANCH   2   3
ATOM      3  O   UNL A   1      33.285  28.468  25.412  1.00  0.00    -0.462 OA
BRANCH   3   4
ATOM      4  C   UNL A   1      33.359  27.570  24.406  1.00  0.00     0.315 C 
ATOM      5  O   UNL A   1      34.044  27.730  23.401  1.00  0.00    -0.252 OA
BRANCH   4   6
ATOM      6  C   UNL A   1      32.460  26.363  24.576  1.00  0.00     0.169 C 
ATOM      7  C   UNL A   1      31.662  24.665  26.104  1.00  0.00     0.296 C 
ATOM      8  C   UNL A   1      31.955  26.166  26.008  1.00  0.00     0.099 C 
ATOM      9  N   UNL A   1      31.747  24.206  24.705  1.00  0.00    -0.319 N 
ATOM     10  C   UNL A   1      32.858  24.962  24.072  1.00  0.00     0.233 C 
ATOM     11  C   UNL A   1      31.738  22.768  24.518  1.00  0.00     0.334 C 
ATOM     12  H   UNL A   1      30.883  24.424  24.208  1.00  0.00     0.349 HD
BRANCH   7  13
ATOM     13  C   UNL A   1      30.314  24.354  26.750  1.00  0.00     0.364 C 
ATOM     14  O   UNL A   1      29.328  25.076  26.613  1.00  0.00    -0.245 OA
BRANCH  13  15
ATOM     15  O   UNL A   1      30.335  23.204  27.477  1.00  0.00    -0.465 OA
ATOM     16  C   UNL A   1      29.171  22.392  27.316  1.00  0.00     0.282 C 
ENDBRANCH  13  15
ENDBRANCH   7  13
BRANCH  10  17
ATOM     17  C   UNL A   1      34.241  24.386  24.353  1.00  0.00     0.049 A 
ATOM     18  C   UNL A   1      34.931  24.526  25.569  1.00  0.00     0.013 A 
ATOM     19  C   UNL A   1      34.883  23.661  23.333  1.00  0.00     0.167 A 
ATOM     20  C   UNL A   1      36.233  24.037  25.730  1.00  0.00     0.004 A 
ATOM     21  C   UNL A   1      36.165  23.145  23.507  1.00  0.00     0.159 A 
ATOM     22  F   UNL A   1      34.249  23.431  22.173  1.00  0.00    -0.203 F 
ATOM     23  C   UNL A   1      36.853  23.346  24.695  1.00  0.00     0.042 A 
ATOM     24  F   UNL A   1      36.747  22.438  22.527  1.00  0.00    -0.204 F 
ENDBRANCH  10  17
ENDBRANCH   4   6
ENDBRANCH   3   4
ENDBRANCH   2   3
ENDBRANCH   1   2
BRANCH   1  25
ATOM     25  O   UNL A   1      33.679  30.286  27.223  1.00  0.00    -0.458 OA
BRANCH  25  26
ATOM     26  C   UNL A   1      34.265  31.380  27.764  1.00  0.00     0.338 C 
ATOM     27  O   UNL A   1      33.748  32.475  27.937  1.00  0.00    -0.246 OA
BRANCH  26  28
ATOM     28  C   UNL A   1      35.582  31.023  28.311  1.00  0.00     0.060 A 
ATOM     29  C   UNL A   1      35.695  29.787  28.952  1.00  0.00     0.016 A 
ATOM     30  C   UNL A   1      36.678  31.885  28.232  1.00  0.00     0.016 A 
ATOM     31  C   UNL A   1      36.905  29.402  29.515  1.00  0.00     0.010 A 
ATOM     32  C   UNL A   1      37.895  31.498  28.803  1.00  0.00     0.010 A 
ATOM     33  C   UNL A   1      38.011  30.258  29.453  1.00  0.00    -0.014 A 
BRANCH  33  34
ATOM     34  C   UNL A   1      39.265  29.843  30.122  1.00  0.00     0.031 A 
ATOM     35  C   UNL A   1      39.685  30.507  31.400  1.00  0.00     0.074 A 
ATOM     36  C   UNL A   1      39.975  28.817  29.616  1.00  0.00     0.049 A 
ATOM     37  N   UNL A   1      40.718  30.253  32.160  1.00  0.00    -0.248 NA
ATOM     38  C   UNL A   1      38.828  31.600  31.891  1.00  0.00     0.031 C 
ATOM     39  C   UNL A   1      39.632  28.071  28.403  1.00  0.00     0.029 A 
ATOM     40  N   UNL A   1      41.118  28.210  30.070  1.00  0.00    -0.354 N 
ATOM     41  C   UNL A   1      40.643  31.155  33.215  1.00  0.00     0.074 A 
ATOM     42  C   UNL A   1      39.476  31.980  32.982  1.00  0.00     0.031 C 
ATOM     43  C   UNL A   1      40.533  27.091  28.222  1.00  0.00     0.029 A 
ATOM     44  C   UNL A   1      41.535  27.164  29.282  1.00  0.00     0.049 A 
ATOM     45  H   UNL A   1      41.593  28.496  30.883  1.00  0.00     0.167 HD
ATOM     46  C   UNL A   1      41.470  31.279  34.280  1.00  0.00     0.031 A 
ATOM     47  C   UNL A   1      42.609  26.361  29.398  1.00  0.00     0.031 A 
ATOM     48  C   UNL A   1      42.633  30.460  34.497  1.00  0.00     0.049 A 
ATOM     49  C   UNL A   1      43.538  26.555  30.564  1.00  0.00     0.074 A 
ATOM     50  C   UNL A   1      43.537  30.505  35.543  1.00  0.00     0.029 A 
ATOM     51  N   UNL A   1      43.056  29.446  33.649  1.00  0.00    -0.354 N 
ATOM     52  N   UNL A   1      43.452  27.412  31.555  1.00  0.00    -0.248 NA
ATOM     53  C   UNL A   1      44.707  25.667  30.633  1.00  0.00     0.031 C 
ATOM     54  C   UNL A   1      44.535  29.554  35.302  1.00  0.00     0.029 A 
ATOM     55  C   UNL A   1      44.221  28.874  34.135  1.00  0.00     0.049 A 
ATOM     56  H   UNL A   1      42.595  29.172  32.823  1.00  0.00     0.167 HD
ATOM     57  C   UNL A   1      44.547  27.157  32.373  1.00  0.00     0.074 A 
ATOM     58  C   UNL A   1      45.263  26.047  31.774  1.00  0.00     0.031 C 
ATOM     59  C   UNL A   1      44.929  27.784  33.514  1.00  0.00     0.031 A 
BRANCH  46  60
ATOM     60  C   UNL A   1      41.163  32.371  35.272  1.00  0.00    -0.014 A 
ATOM     61  C   UNL A   1      41.732  33.651  35.154  1.00  0.00     0.010 A 
ATOM     62  C   UNL A   1      40.266  32.117  36.327  1.00  0.00     0.010 A 
ATOM     63  C   UNL A   1      41.440  34.646  36.092  1.00  0.00     0.020 A 
ATOM     64  C   UNL A   1      39.951  33.117  37.252  1.00  0.00     0.020 A 
ATOM     65  C   UNL A   1      40.553  34.370  37.137  1.00  0.00     0.054 A 
BRANCH  65  66
ATOM     66  S   UNL A   1      40.175  35.684  38.331  1.00  0.00     0.124 S 
ATOM     67  O   UNL A   1      39.785  36.785  37.452  1.00  0.00    -0.237 OA
ATOM     68  O   UNL A   1      39.095  35.099  39.121  1.00  0.00    -0.237 OA
ATOM     69  O   UNL A   1      41.433  35.876  39.047  1.00  0.00    -0.744 OA
ENDBRANCH  65  66
ENDBRANCH  46  60
BRANCH  47  70
ATOM     70  C   UNL A   1      42.871  25.315  28.371  1.00  0.00    -0.014 A 
ATOM     71  C   UNL A   1      43.506  25.635  27.158  1.00  0.00     0.010 A 
ATOM     72  C   UNL A   1      42.483  23.983  28.608  1.00  0.00     0.010 A 
ATOM     73  C   UNL A   1      43.733  24.646  26.195  1.00  0.00     0.020 A 
ATOM     74  C   UNL A   1      42.735  22.987  27.661  1.00  0.00     0.020 A 
ATOM     75  C   UNL A   1      43.347  23.328  26.454  1.00  0.00     0.054 A 
BRANCH  75  76
ATOM     76  S   UNL A   1      43.696  22.050  25.213  1.00  0.00     0.124 S 
ATOM     77  O   UNL A   1      42.643  21.075  25.477  1.00  0.00    -0.237 OA
ATOM     78  O   UNL A   1      43.577  22.787  23.957  1.00  0.00    -0.237 OA
ATOM     79  O   UNL A   1      45.051  21.615  25.544  1.00  0.00    -0.744 OA
ENDBRANCH  75  76
ENDBRANCH  47  70
BRANCH  59  80
ATOM     80  C   UNL A   1      46.170  27.266  34.191  1.00  0.00    -0.014 A 
ATOM     81  C   UNL A   1      46.119  26.165  35.064  1.00  0.00     0.010 A 
ATOM     82  C   UNL A   1      47.408  27.889  33.946  1.00  0.00     0.010 A 
ATOM     83  C   UNL A   1      47.271  25.731  35.723  1.00  0.00     0.020 A 
ATOM     84  C   UNL A   1      48.568  27.439  34.580  1.00  0.00     0.020 A 
ATOM     85  C   UNL A   1      48.487  26.376  35.483  1.00  0.00     0.054 A 
BRANCH  85  86
ATOM     86  S   UNL A   1      49.972  25.797  36.350  1.00  0.00     0.124 S 
ATOM     87  O   UNL A   1      50.130  26.810  37.389  1.00  0.00    -0.237 OA
ATOM     88  O   UNL A   1      49.575  24.471  36.818  1.00  0.00    -0.237 OA
ATOM     89  O   UNL A   1      51.001  25.802  35.313  1.00  0.00    -0.744 OA
ENDBRANCH  85  86
ENDBRANCH  59  80
ENDBRANCH  33  34
ENDBRANCH  26  28
ENDBRANCH  25  26
ENDBRANCH   1  25
TORSDOF 17
ENDMDL
