MODEL 1
REMARK VINA RESULT:     -10.9      0.000      0.000
REMARK SMILES COc1cc(/C=C2/SC(=O)N(c3ccc(C)c(C)c3)C2=O)ccc1OCCC(=O)OCCOC(=O)c1ccc(-c2c3nc(c(-c4ccc(S(=O)(=O)[O-])cc4)c4ccc([nH]4)c(-c4ccc(S(=O)(=O)[O-])cc4)c4nc(c(-c5ccc(S(=O)(=O)[O-])cc5)c5ccc2[nH]5)C=C4)C=C3)cc1
REMARK SMILES IDX 31 1 30 2 28 3 29 4 27 5 26 6 25 7 24 8 3 9 4 10 5 11 23 12
REMARK SMILES IDX 22 13 2 14 1 15 6 16 7 17 8 18 20 19 9 20 11 21 21 22 10 23
REMARK SMILES IDX 12 24 13 25 19 26 14 27 17 28 15 29 18 30 16 31 32 32 33 33
REMARK SMILES IDX 34 34 35 35 36 36 37 37 95 38 38 39 94 40 39 41 40 42 41 43
REMARK SMILES IDX 88 44 42 45 93 46 87 47 89 48 43 49 92 50 86 51 85 52 44 54
REMARK SMILES IDX 74 55 55 56 73 57 56 58 59 59 72 60 90 61 57 62 58 63 71 65
REMARK SMILES IDX 91 66 60 67 45 68 46 69 54 70 47 71 53 72 48 73 49 74 50 75
REMARK SMILES IDX 51 76 52 77 75 78 76 79 84 80 77 81 83 82 78 83 79 84 80 85
REMARK SMILES IDX 81 86 82 87 61 88 62 89 70 90 63 91 69 92 64 93 65 94 66 95
REMARK SMILES IDX 67 96 68 97
REMARK H PARENT 89 53 59 64
REMARK Flexibility Score: inf
ROOT
ATOM      1  C   UNL A   1      40.942  19.487  26.432  1.00  0.00     0.274 C 
ENDROOT
BRANCH   1   2
ATOM      2  O   UNL A   1      40.870  20.712  27.196  1.00  0.00    -0.462 OA
BRANCH   2   3
ATOM      3  C   UNL A   1      40.730  21.875  26.509  1.00  0.00     0.309 C 
ATOM      4  O   UNL A   1      41.657  22.530  26.051  1.00  0.00    -0.252 OA
BRANCH   3   5
ATOM      5  C   UNL A   1      39.293  22.353  26.474  1.00  0.00     0.164 C 
BRANCH   5   6
ATOM      6  C   UNL A   1      38.385  21.639  25.479  1.00  0.00     0.241 C 
BRANCH   6   7
ATOM      7  O   UNL A   1      37.020  21.529  25.916  1.00  0.00    -0.489 OA
BRANCH   7   8
ATOM      8  C   UNL A   1      36.103  21.922  24.979  1.00  0.00     0.161 A 
ATOM      9  C   UNL A   1      34.729  21.693  25.084  1.00  0.00     0.161 A 
ATOM     10  C   UNL A   1      33.862  22.263  24.148  1.00  0.00     0.058 A 
ATOM     11  C   UNL A   1      34.373  23.033  23.090  1.00  0.00    -0.020 A 
ATOM     12  C   UNL A   1      36.620  22.606  23.878  1.00  0.00     0.051 A 
ATOM     13  C   UNL A   1      35.758  23.170  22.939  1.00  0.00     0.012 A 
BRANCH   9  14
ATOM     14  O   UNL A   1      34.273  20.831  26.046  1.00  0.00    -0.493 OA
ATOM     15  C   UNL A   1      33.739  21.502  27.182  1.00  0.00     0.278 C 
ENDBRANCH   9  14
BRANCH  11  16
ATOM     16  C   UNL A   1      33.495  23.637  22.080  1.00  0.00     0.029 C 
ATOM     17  C   UNL A   1      32.952  24.855  22.203  1.00  0.00     0.083 C 
ATOM     18  S   UNL A   1      31.788  25.509  21.117  1.00  0.00    -0.022 SA
ATOM     19  C   UNL A   1      33.178  25.793  23.333  1.00  0.00     0.272 C 
ATOM     20  C   UNL A   1      31.482  26.903  22.154  1.00  0.00     0.298 C 
ATOM     21  N   UNL A   1      32.381  26.912  23.191  1.00  0.00    -0.236 N 
ATOM     22  O   UNL A   1      33.895  25.540  24.292  1.00  0.00    -0.268 OA
ATOM     23  O   UNL A   1      30.583  27.694  21.907  1.00  0.00    -0.260 OA
BRANCH  21  24
ATOM     24  C   UNL A   1      32.399  27.888  24.218  1.00  0.00     0.053 A 
ATOM     25  C   UNL A   1      33.246  28.994  24.099  1.00  0.00     0.027 A 
ATOM     26  C   UNL A   1      31.719  27.673  25.418  1.00  0.00     0.030 A 
ATOM     27  C   UNL A   1      33.434  29.859  25.171  1.00  0.00     0.006 A 
ATOM     28  C   UNL A   1      31.958  28.498  26.532  1.00  0.00    -0.046 A 
ATOM     29  C   UNL A   1      32.810  29.614  26.401  1.00  0.00    -0.048 A 
ATOM     30  C   UNL A   1      31.346  28.120  27.852  1.00  0.00     0.044 C 
ATOM     31  C   UNL A   1      33.142  30.544  27.535  1.00  0.00     0.044 C 
ENDBRANCH  21  24
ENDBRANCH  11  16
ENDBRANCH   7   8
ENDBRANCH   6   7
ENDBRANCH   5   6
ENDBRANCH   3   5
ENDBRANCH   2   3
ENDBRANCH   1   2
BRANCH   1  32
ATOM     32  C   UNL A   1      42.368  19.007  26.163  1.00  0.00     0.275 C 
BRANCH  32  33
ATOM     33  O   UNL A   1      42.813  19.508  24.900  1.00  0.00    -0.458 OA
BRANCH  33  34
ATOM     34  C   UNL A   1      44.157  19.603  24.753  1.00  0.00     0.338 C 
ATOM     35  O   UNL A   1      44.922  18.699  24.489  1.00  0.00    -0.246 OA
BRANCH  34  36
ATOM     36  C   UNL A   1      44.556  21.017  24.961  1.00  0.00     0.060 A 
ATOM     37  C   UNL A   1      44.354  21.982  23.966  1.00  0.00     0.016 A 
ATOM     38  C   UNL A   1      45.146  21.377  26.173  1.00  0.00     0.016 A 
ATOM     39  C   UNL A   1      44.712  23.309  24.190  1.00  0.00     0.010 A 
ATOM     40  C   UNL A   1      45.449  22.718  26.419  1.00  0.00     0.010 A 
ATOM     41  C   UNL A   1      45.219  23.694  25.436  1.00  0.00    -0.014 A 
BRANCH  41  42
ATOM     42  C   UNL A   1      45.447  25.125  25.753  1.00  0.00     0.031 A 
ATOM     43  C   UNL A   1      46.828  25.703  25.671  1.00  0.00     0.074 A 
ATOM     44  C   UNL A   1      44.412  25.872  26.183  1.00  0.00     0.049 A 
ATOM     45  N   UNL A   1      47.265  26.863  26.087  1.00  0.00    -0.248 NA
ATOM     46  C   UNL A   1      47.861  24.854  25.055  1.00  0.00     0.031 C 
ATOM     47  C   UNL A   1      43.020  25.420  26.281  1.00  0.00     0.029 A 
ATOM     48  N   UNL A   1      44.368  27.167  26.632  1.00  0.00    -0.354 N 
ATOM     49  C   UNL A   1      48.630  26.870  25.824  1.00  0.00     0.074 A 
ATOM     50  C   UNL A   1      48.950  25.592  25.224  1.00  0.00     0.031 C 
ATOM     51  C   UNL A   1      42.260  26.425  26.740  1.00  0.00     0.029 A 
ATOM     52  C   UNL A   1      43.116  27.566  27.037  1.00  0.00     0.049 A 
ATOM     53  H   UNL A   1      45.158  27.755  26.661  1.00  0.00     0.167 HD
ATOM     54  C   UNL A   1      49.531  27.853  26.067  1.00  0.00     0.031 A 
ATOM     55  C   UNL A   1      42.708  28.712  27.615  1.00  0.00     0.031 A 
ATOM     56  C   UNL A   1      49.189  29.118  26.669  1.00  0.00     0.049 A 
ATOM     57  C   UNL A   1      43.730  29.772  27.905  1.00  0.00     0.074 A 
ATOM     58  C   UNL A   1      50.016  30.188  26.961  1.00  0.00     0.029 A 
ATOM     59  N   UNL A   1      47.910  29.481  27.067  1.00  0.00    -0.354 N 
ATOM     60  N   UNL A   1      45.022  29.756  27.674  1.00  0.00    -0.248 NA
ATOM     61  C   UNL A   1      43.241  31.004  28.536  1.00  0.00     0.031 C 
ATOM     62  C   UNL A   1      49.243  31.183  27.572  1.00  0.00     0.029 A 
ATOM     63  C   UNL A   1      47.925  30.755  27.609  1.00  0.00     0.049 A 
ATOM     64  H   UNL A   1      47.109  28.916  26.977  1.00  0.00     0.167 HD
ATOM     65  C   UNL A   1      45.498  30.986  28.109  1.00  0.00     0.074 A 
ATOM     66  C   UNL A   1      44.352  31.725  28.601  1.00  0.00     0.031 C 
ATOM     67  C   UNL A   1      46.768  31.463  28.100  1.00  0.00     0.031 A 
BRANCH  54  68
ATOM     68  C   UNL A   1      50.971  27.574  25.717  1.00  0.00    -0.014 A 
ATOM     69  C   UNL A   1      51.451  27.728  24.403  1.00  0.00     0.010 A 
ATOM     70  C   UNL A   1      51.862  27.147  26.720  1.00  0.00     0.010 A 
ATOM     71  C   UNL A   1      52.774  27.403  24.086  1.00  0.00     0.020 A 
ATOM     72  C   UNL A   1      53.194  26.850  26.414  1.00  0.00     0.020 A 
ATOM     73  C   UNL A   1      53.635  26.956  25.093  1.00  0.00     0.054 A 
BRANCH  73  74
ATOM     74  S   UNL A   1      55.342  26.526  24.655  1.00  0.00     0.124 S 
ATOM     75  O   UNL A   1      55.418  26.976  23.267  1.00  0.00    -0.237 OA
ATOM     76  O   UNL A   1      56.126  27.305  25.611  1.00  0.00    -0.237 OA
ATOM     77  O   UNL A   1      55.395  25.079  24.844  1.00  0.00    -0.744 OA
ENDBRANCH  73  74
ENDBRANCH  54  68
BRANCH  55  78
ATOM     78  C   UNL A   1      41.271  28.903  27.953  1.00  0.00    -0.014 A 
ATOM     79  C   UNL A   1      40.839  28.808  29.288  1.00  0.00     0.010 A 
ATOM     80  C   UNL A   1      40.332  29.222  26.954  1.00  0.00     0.010 A 
ATOM     81  C   UNL A   1      39.497  29.020  29.616  1.00  0.00     0.020 A 
ATOM     82  C   UNL A   1      38.994  29.463  27.283  1.00  0.00     0.020 A 
ATOM     83  C   UNL A   1      38.583  29.353  28.612  1.00  0.00     0.054 A 
BRANCH  83  84
ATOM     84  S   UNL A   1      36.862  29.694  29.074  1.00  0.00     0.124 S 
ATOM     85  O   UNL A   1      36.825  31.153  29.050  1.00  0.00    -0.237 OA
ATOM     86  O   UNL A   1      36.112  29.025  28.014  1.00  0.00    -0.237 OA
ATOM     87  O   UNL A   1      36.735  29.084  30.396  1.00  0.00    -0.744 OA
ENDBRANCH  83  84
ENDBRANCH  55  78
BRANCH  67  88
ATOM     88  C   UNL A   1      46.964  32.868  28.604  1.00  0.00    -0.014 A 
ATOM     89  C   UNL A   1      46.872  33.974  27.741  1.00  0.00     0.010 A 
ATOM     90  C   UNL A   1      47.232  33.078  29.968  1.00  0.00     0.010 A 
ATOM     91  C   UNL A   1      47.090  35.266  28.228  1.00  0.00     0.020 A 
ATOM     92  C   UNL A   1      47.423  34.370  30.462  1.00  0.00     0.020 A 
ATOM     93  C   UNL A   1      47.370  35.454  29.585  1.00  0.00     0.054 A 
BRANCH  93  94
ATOM     94  S   UNL A   1      47.635  37.140  30.197  1.00  0.00     0.124 S 
ATOM     95  O   UNL A   1      46.731  37.914  29.353  1.00  0.00    -0.237 OA
ATOM     96  O   UNL A   1      47.251  37.038  31.602  1.00  0.00    -0.237 OA
ATOM     97  O   UNL A   1      49.059  37.372  29.963  1.00  0.00    -0.744 OA
ENDBRANCH  93  94
ENDBRANCH  67  88
ENDBRANCH  41  42
ENDBRANCH  34  36
ENDBRANCH  33  34
ENDBRANCH  32  33
ENDBRANCH   1  32
TORSDOF 20
ENDMDL
MODEL 2
REMARK VINA RESULT:     -10.2      0.779      7.885
REMARK SMILES COc1cc(/C=C2/SC(=O)N(c3ccc(C)c(C)c3)C2=O)ccc1OCCC(=O)OCCOC(=O)c1ccc(-c2c3nc(c(-c4ccc(S(=O)(=O)[O-])cc4)c4ccc([nH]4)c(-c4ccc(S(=O)(=O)[O-])cc4)c4nc(c(-c5ccc(S(=O)(=O)[O-])cc5)c5ccc2[nH]5)C=C4)C=C3)cc1
REMARK SMILES IDX 31 1 30 2 28 3 29 4 27 5 26 6 25 7 24 8 3 9 4 10 5 11 23 12
REMARK SMILES IDX 22 13 2 14 1 15 6 16 7 17 8 18 20 19 9 20 11 21 21 22 10 23
REMARK SMILES IDX 12 24 13 25 19 26 14 27 17 28 15 29 18 30 16 31 32 32 33 33
REMARK SMILES IDX 34 34 35 35 36 36 37 37 95 38 38 39 94 40 39 41 40 42 41 43
REMARK SMILES IDX 88 44 42 45 93 46 87 47 89 48 43 49 92 50 86 51 85 52 44 54
REMARK SMILES IDX 74 55 55 56 73 57 56 58 59 59 72 60 90 61 57 62 58 63 71 65
REMARK SMILES IDX 91 66 60 67 45 68 46 69 54 70 47 71 53 72 48 73 49 74 50 75
REMARK SMILES IDX 51 76 52 77 75 78 76 79 84 80 77 81 83 82 78 83 79 84 80 85
REMARK SMILES IDX 81 86 82 87 61 88 62 89 70 90 63 91 69 92 64 93 65 94 66 95
REMARK SMILES IDX 67 96 68 97
REMARK H PARENT 89 53 59 64
REMARK Flexibility Score: inf
ROOT
ATOM      1  C   UNL A   1      40.879  19.657  26.481  1.00  0.00     0.274 C 
ENDROOT
BRANCH   1   2
ATOM      2  O   UNL A   1      40.615  20.807  27.316  1.00  0.00    -0.462 OA
BRANCH   2   3
ATOM      3  C   UNL A   1      40.517  22.017  26.708  1.00  0.00     0.309 C 
ATOM      4  O   UNL A   1      41.466  22.744  26.446  1.00  0.00    -0.252 OA
BRANCH   3   5
ATOM      5  C   UNL A   1      39.078  22.440  26.497  1.00  0.00     0.164 C 
BRANCH   5   6
ATOM      6  C   UNL A   1      38.302  21.638  25.458  1.00  0.00     0.241 C 
BRANCH   6   7
ATOM      7  O   UNL A   1      36.937  21.380  25.827  1.00  0.00    -0.489 OA
BRANCH   7   8
ATOM      8  C   UNL A   1      36.021  21.811  24.906  1.00  0.00     0.161 A 
ATOM      9  C   UNL A   1      34.644  21.595  25.010  1.00  0.00     0.161 A 
ATOM     10  C   UNL A   1      33.780  22.202  24.095  1.00  0.00     0.058 A 
ATOM     11  C   UNL A   1      34.296  22.997  23.058  1.00  0.00    -0.020 A 
ATOM     12  C   UNL A   1      36.541  22.522  23.824  1.00  0.00     0.051 A 
ATOM     13  C   UNL A   1      35.682  23.123  22.906  1.00  0.00     0.012 A 
BRANCH   9  14
ATOM     14  O   UNL A   1      34.182  20.710  25.948  1.00  0.00    -0.493 OA
ATOM     15  C   UNL A   1      33.806  21.342  27.167  1.00  0.00     0.278 C 
ENDBRANCH   9  14
BRANCH  11  16
ATOM     16  C   UNL A   1      33.421  23.640  22.070  1.00  0.00     0.029 C 
ATOM     17  C   UNL A   1      32.921  24.875  22.215  1.00  0.00     0.083 C 
ATOM     18  S   UNL A   1      31.761  25.578  21.157  1.00  0.00    -0.022 SA
ATOM     19  C   UNL A   1      33.198  25.792  23.350  1.00  0.00     0.272 C 
ATOM     20  C   UNL A   1      31.519  26.971  22.214  1.00  0.00     0.298 C 
ATOM     21  N   UNL A   1      32.436  26.939  23.235  1.00  0.00    -0.236 N 
ATOM     22  O   UNL A   1      33.923  25.505  24.294  1.00  0.00    -0.268 OA
ATOM     23  O   UNL A   1      30.643  27.793  21.991  1.00  0.00    -0.260 OA
BRANCH  21  24
ATOM     24  C   UNL A   1      32.505  27.902  24.271  1.00  0.00     0.053 A 
ATOM     25  C   UNL A   1      33.432  28.946  24.178  1.00  0.00     0.027 A 
ATOM     26  C   UNL A   1      31.789  27.727  25.456  1.00  0.00     0.030 A 
ATOM     27  C   UNL A   1      33.661  29.786  25.261  1.00  0.00     0.006 A 
ATOM     28  C   UNL A   1      32.066  28.524  26.582  1.00  0.00    -0.046 A 
ATOM     29  C   UNL A   1      32.998  29.577  26.477  1.00  0.00    -0.048 A 
ATOM     30  C   UNL A   1      31.403  28.180  27.886  1.00  0.00     0.044 C 
ATOM     31  C   UNL A   1      33.374  30.471  27.625  1.00  0.00     0.044 C 
ENDBRANCH  21  24
ENDBRANCH  11  16
ENDBRANCH   7   8
ENDBRANCH   6   7
ENDBRANCH   5   6
ENDBRANCH   3   5
ENDBRANCH   2   3
ENDBRANCH   1   2
BRANCH   1  32
ATOM     32  C   UNL A   1      42.367  19.379  26.261  1.00  0.00     0.275 C 
BRANCH  32  33
ATOM     33  O   UNL A   1      42.806  20.035  25.070  1.00  0.00    -0.458 OA
BRANCH  33  34
ATOM     34  C   UNL A   1      44.147  20.049  24.874  1.00  0.00     0.338 C 
ATOM     35  O   UNL A   1      44.834  19.120  24.498  1.00  0.00    -0.246 OA
BRANCH  34  36
ATOM     36  C   UNL A   1      44.657  21.405  25.191  1.00  0.00     0.060 A 
ATOM     37  C   UNL A   1      44.554  22.453  24.268  1.00  0.00     0.016 A 
ATOM     38  C   UNL A   1      45.252  21.626  26.434  1.00  0.00     0.016 A 
ATOM     39  C   UNL A   1      45.015  23.726  24.593  1.00  0.00     0.010 A 
ATOM     40  C   UNL A   1      45.659  22.916  26.782  1.00  0.00     0.010 A 
ATOM     41  C   UNL A   1      45.528  23.977  25.870  1.00  0.00    -0.014 A 
BRANCH  41  42
ATOM     42  C   UNL A   1      45.867  25.356  26.295  1.00  0.00     0.031 A 
ATOM     43  C   UNL A   1      44.786  26.292  26.749  1.00  0.00     0.074 A 
ATOM     44  C   UNL A   1      47.145  25.775  26.197  1.00  0.00     0.049 A 
ATOM     45  N   UNL A   1      44.847  27.578  26.973  1.00  0.00    -0.248 NA
ATOM     46  C   UNL A   1      43.454  25.703  26.960  1.00  0.00     0.031 C 
ATOM     47  C   UNL A   1      48.282  24.945  25.790  1.00  0.00     0.029 A 
ATOM     48  N   UNL A   1      47.702  27.008  26.421  1.00  0.00    -0.354 N 
ATOM     49  C   UNL A   1      43.555  27.965  27.311  1.00  0.00     0.074 A 
ATOM     50  C   UNL A   1      42.730  26.777  27.248  1.00  0.00     0.031 C 
ATOM     51  C   UNL A   1      49.400  25.685  25.810  1.00  0.00     0.029 A 
ATOM     52  C   UNL A   1      49.051  27.055  26.161  1.00  0.00     0.049 A 
ATOM     53  H   UNL A   1      47.185  27.785  26.737  1.00  0.00     0.167 HD
ATOM     54  C   UNL A   1      43.101  29.200  27.638  1.00  0.00     0.031 A 
ATOM     55  C   UNL A   1      49.908  28.094  26.173  1.00  0.00     0.031 A 
ATOM     56  C   UNL A   1      43.942  30.370  27.689  1.00  0.00     0.049 A 
ATOM     57  C   UNL A   1      49.376  29.458  26.504  1.00  0.00     0.074 A 
ATOM     58  C   UNL A   1      43.595  31.670  28.009  1.00  0.00     0.029 A 
ATOM     59  N   UNL A   1      45.303  30.376  27.417  1.00  0.00    -0.354 N 
ATOM     60  N   UNL A   1      48.147  29.814  26.798  1.00  0.00    -0.248 NA
ATOM     61  C   UNL A   1      50.345  30.562  26.505  1.00  0.00     0.031 C 
ATOM     62  C   UNL A   1      44.739  32.469  27.891  1.00  0.00     0.029 A 
ATOM     63  C   UNL A   1      45.810  31.657  27.553  1.00  0.00     0.049 A 
ATOM     64  H   UNL A   1      45.832  29.584  27.164  1.00  0.00     0.167 HD
ATOM     65  C   UNL A   1      48.198  31.180  27.041  1.00  0.00     0.074 A 
ATOM     66  C   UNL A   1      49.582  31.581  26.877  1.00  0.00     0.031 C 
ATOM     67  C   UNL A   1      47.192  32.028  27.375  1.00  0.00     0.031 A 
BRANCH  54  68
ATOM     68  C   UNL A   1      41.628  29.344  27.920  1.00  0.00    -0.014 A 
ATOM     69  C   UNL A   1      41.149  29.584  29.221  1.00  0.00     0.010 A 
ATOM     70  C   UNL A   1      40.702  29.235  26.865  1.00  0.00     0.010 A 
ATOM     71  C   UNL A   1      39.775  29.651  29.473  1.00  0.00     0.020 A 
ATOM     72  C   UNL A   1      39.327  29.332  27.107  1.00  0.00     0.020 A 
ATOM     73  C   UNL A   1      38.872  29.515  28.414  1.00  0.00     0.054 A 
BRANCH  73  74
ATOM     74  S   UNL A   1      37.094  29.590  28.768  1.00  0.00     0.124 S 
ATOM     75  O   UNL A   1      37.024  28.972  30.090  1.00  0.00    -0.237 OA
ATOM     76  O   UNL A   1      36.819  31.025  28.731  1.00  0.00    -0.237 OA
ATOM     77  O   UNL A   1      36.492  28.817  27.686  1.00  0.00    -0.744 OA
ENDBRANCH  73  74
ENDBRANCH  54  68
BRANCH  55  78
ATOM     78  C   UNL A   1      51.347  27.876  25.859  1.00  0.00    -0.014 A 
ATOM     79  C   UNL A   1      51.800  27.949  24.530  1.00  0.00     0.010 A 
ATOM     80  C   UNL A   1      52.279  27.634  26.886  1.00  0.00     0.010 A 
ATOM     81  C   UNL A   1      53.155  27.778  24.232  1.00  0.00     0.020 A 
ATOM     82  C   UNL A   1      53.640  27.492  26.594  1.00  0.00     0.020 A 
ATOM     83  C   UNL A   1      54.068  27.556  25.267  1.00  0.00     0.054 A 
BRANCH  83  84
ATOM     84  S   UNL A   1      55.831  27.410  24.862  1.00  0.00     0.124 S 
ATOM     85  O   UNL A   1      56.141  28.748  24.367  1.00  0.00    -0.237 OA
ATOM     86  O   UNL A   1      56.423  27.059  26.151  1.00  0.00    -0.237 OA
ATOM     87  O   UNL A   1      55.864  26.347  23.861  1.00  0.00    -0.744 OA
ENDBRANCH  83  84
ENDBRANCH  55  78
BRANCH  67  88
ATOM     88  C   UNL A   1      47.574  33.463  27.621  1.00  0.00    -0.014 A 
ATOM     89  C   UNL A   1      47.866  33.931  28.914  1.00  0.00     0.010 A 
ATOM     90  C   UNL A   1      47.652  34.350  26.533  1.00  0.00     0.010 A 
ATOM     91  C   UNL A   1      48.186  35.275  29.120  1.00  0.00     0.020 A 
ATOM     92  C   UNL A   1      47.999  35.688  26.732  1.00  0.00     0.020 A 
ATOM     93  C   UNL A   1      48.244  36.147  28.027  1.00  0.00     0.054 A 
BRANCH  93  94
ATOM     94  S   UNL A   1      48.676  37.884  28.317  1.00  0.00     0.124 S 
ATOM     95  O   UNL A   1      49.962  37.767  28.997  1.00  0.00    -0.237 OA
ATOM     96  O   UNL A   1      48.726  38.433  26.965  1.00  0.00    -0.237 OA
ATOM     97  O   UNL A   1      47.576  38.380  29.142  1.00  0.00    -0.744 OA
ENDBRANCH  93  94
ENDBRANCH  67  88
ENDBRANCH  41  42
ENDBRANCH  34  36
ENDBRANCH  33  34
ENDBRANCH  32  33
ENDBRANCH   1  32
TORSDOF 20
ENDMDL
MODEL 3
REMARK VINA RESULT:     -10.0      6.825     11.415
REMARK SMILES COc1cc(/C=C2/SC(=O)N(c3ccc(C)c(C)c3)C2=O)ccc1OCCC(=O)OCCOC(=O)c1ccc(-c2c3nc(c(-c4ccc(S(=O)(=O)[O-])cc4)c4ccc([nH]4)c(-c4ccc(S(=O)(=O)[O-])cc4)c4nc(c(-c5ccc(S(=O)(=O)[O-])cc5)c5ccc2[nH]5)C=C4)C=C3)cc1
REMARK SMILES IDX 31 1 30 2 28 3 29 4 27 5 26 6 25 7 24 8 3 9 4 10 5 11 23 12
REMARK SMILES IDX 22 13 2 14 1 15 6 16 7 17 8 18 20 19 9 20 11 21 21 22 10 23
REMARK SMILES IDX 12 24 13 25 19 26 14 27 17 28 15 29 18 30 16 31 32 32 33 33
REMARK SMILES IDX 34 34 35 35 36 36 37 37 95 38 38 39 94 40 39 41 40 42 41 43
REMARK SMILES IDX 88 44 42 45 93 46 87 47 89 48 43 49 92 50 86 51 85 52 44 54
REMARK SMILES IDX 74 55 55 56 73 57 56 58 59 59 72 60 90 61 57 62 58 63 71 65
REMARK SMILES IDX 91 66 60 67 45 68 46 69 54 70 47 71 53 72 48 73 49 74 50 75
REMARK SMILES IDX 51 76 52 77 75 78 76 79 84 80 77 81 83 82 78 83 79 84 80 85
REMARK SMILES IDX 81 86 82 87 61 88 62 89 70 90 63 91 69 92 64 93 65 94 66 95
REMARK SMILES IDX 67 96 68 97
REMARK H PARENT 89 53 59 64
REMARK Flexibility Score: inf
ROOT
ATOM      1  C   UNL A   1      41.174  22.906  26.877  1.00  0.00     0.274 C 
ENDROOT
BRANCH   1   2
ATOM      2  O   UNL A   1      39.962  22.133  27.022  1.00  0.00    -0.462 OA
BRANCH   2   3
ATOM      3  C   UNL A   1      38.926  22.426  26.195  1.00  0.00     0.309 C 
ATOM      4  O   UNL A   1      38.367  23.513  26.137  1.00  0.00    -0.252 OA
BRANCH   3   5
ATOM      5  C   UNL A   1      38.441  21.214  25.427  1.00  0.00     0.164 C 
BRANCH   5   6
ATOM      6  C   UNL A   1      37.043  21.328  24.829  1.00  0.00     0.241 C 
BRANCH   6   7
ATOM      7  O   UNL A   1      36.041  21.740  25.775  1.00  0.00    -0.489 OA
BRANCH   7   8
ATOM      8  C   UNL A   1      35.057  22.524  25.236  1.00  0.00     0.161 A 
ATOM      9  C   UNL A   1      33.768  22.634  25.763  1.00  0.00     0.161 A 
ATOM     10  C   UNL A   1      32.883  23.573  25.227  1.00  0.00     0.058 A 
ATOM     11  C   UNL A   1      33.276  24.375  24.143  1.00  0.00    -0.020 A 
ATOM     12  C   UNL A   1      35.418  23.252  24.102  1.00  0.00     0.051 A 
ATOM     13  C   UNL A   1      34.535  24.184  23.561  1.00  0.00     0.012 A 
BRANCH   9  14
ATOM     14  O   UNL A   1      33.369  21.749  26.729  1.00  0.00    -0.493 OA
ATOM     15  C   UNL A   1      33.172  22.365  27.998  1.00  0.00     0.278 C 
ENDBRANCH   9  14
BRANCH  11  16
ATOM     16  C   UNL A   1      32.370  25.363  23.545  1.00  0.00     0.029 C 
ATOM     17  C   UNL A   1      32.289  26.637  23.951  1.00  0.00     0.083 C 
ATOM     18  S   UNL A   1      31.117  27.761  23.382  1.00  0.00    -0.022 SA
ATOM     19  C   UNL A   1      33.115  27.259  25.018  1.00  0.00     0.272 C 
ATOM     20  C   UNL A   1      31.575  28.972  24.581  1.00  0.00     0.298 C 
ATOM     21  N   UNL A   1      32.696  28.554  25.253  1.00  0.00    -0.236 N 
ATOM     22  O   UNL A   1      33.969  26.655  25.654  1.00  0.00    -0.268 OA
ATOM     23  O   UNL A   1      30.931  30.002  24.722  1.00  0.00    -0.260 OA
BRANCH  21  24
ATOM     24  C   UNL A   1      33.315  29.285  26.296  1.00  0.00     0.053 A 
ATOM     25  C   UNL A   1      32.706  30.451  26.773  1.00  0.00     0.027 A 
ATOM     26  C   UNL A   1      34.601  28.958  26.731  1.00  0.00     0.030 A 
ATOM     27  C   UNL A   1      33.381  31.292  27.651  1.00  0.00     0.006 A 
ATOM     28  C   UNL A   1      35.320  29.839  27.559  1.00  0.00    -0.046 A 
ATOM     29  C   UNL A   1      34.697  31.009  28.039  1.00  0.00    -0.048 A 
ATOM     30  C   UNL A   1      36.763  29.535  27.850  1.00  0.00     0.044 C 
ATOM     31  C   UNL A   1      35.385  32.020  28.912  1.00  0.00     0.044 C 
ENDBRANCH  21  24
ENDBRANCH  11  16
ENDBRANCH   7   8
ENDBRANCH   6   7
ENDBRANCH   5   6
ENDBRANCH   3   5
ENDBRANCH   2   3
ENDBRANCH   1   2
BRANCH   1  32
ATOM     32  C   UNL A   1      41.399  23.924  27.995  1.00  0.00     0.275 C 
BRANCH  32  33
ATOM     33  O   UNL A   1      41.850  25.159  27.436  1.00  0.00    -0.458 OA
BRANCH  33  34
ATOM     34  C   UNL A   1      40.882  26.074  27.187  1.00  0.00     0.338 C 
ATOM     35  O   UNL A   1      40.261  26.208  26.152  1.00  0.00    -0.246 OA
BRANCH  34  36
ATOM     36  C   UNL A   1      40.690  26.901  28.403  1.00  0.00     0.060 A 
ATOM     37  C   UNL A   1      39.636  26.650  29.291  1.00  0.00     0.016 A 
ATOM     38  C   UNL A   1      41.579  27.947  28.653  1.00  0.00     0.016 A 
ATOM     39  C   UNL A   1      39.486  27.421  30.441  1.00  0.00     0.010 A 
ATOM     40  C   UNL A   1      41.464  28.680  29.835  1.00  0.00     0.010 A 
ATOM     41  C   UNL A   1      40.428  28.411  30.745  1.00  0.00    -0.014 A 
BRANCH  41  42
ATOM     42  C   UNL A   1      40.384  29.127  32.042  1.00  0.00     0.031 A 
ATOM     43  C   UNL A   1      39.323  30.154  32.301  1.00  0.00     0.074 A 
ATOM     44  C   UNL A   1      41.352  28.893  32.951  1.00  0.00     0.049 A 
ATOM     45  N   UNL A   1      39.227  31.017  33.279  1.00  0.00    -0.248 NA
ATOM     46  C   UNL A   1      38.232  30.235  31.316  1.00  0.00     0.031 C 
ATOM     47  C   UNL A   1      42.422  27.900  32.815  1.00  0.00     0.029 A 
ATOM     48  N   UNL A   1      41.602  29.481  34.164  1.00  0.00    -0.354 N 
ATOM     49  C   UNL A   1      38.091  31.772  33.009  1.00  0.00     0.074 A 
ATOM     50  C   UNL A   1      37.540  31.273  31.766  1.00  0.00     0.031 C 
ATOM     51  C   UNL A   1      43.199  27.936  33.907  1.00  0.00     0.029 A 
ATOM     52  C   UNL A   1      42.729  28.999  34.786  1.00  0.00     0.049 A 
ATOM     53  H   UNL A   1      41.030  30.183  34.552  1.00  0.00     0.167 HD
ATOM     54  C   UNL A   1      37.563  32.790  33.731  1.00  0.00     0.031 A 
ATOM     55  C   UNL A   1      43.337  29.390  35.922  1.00  0.00     0.031 A 
ATOM     56  C   UNL A   1      38.133  33.273  34.964  1.00  0.00     0.049 A 
ATOM     57  C   UNL A   1      42.753  30.543  36.686  1.00  0.00     0.074 A 
ATOM     58  C   UNL A   1      37.686  34.295  35.781  1.00  0.00     0.029 A 
ATOM     59  N   UNL A   1      39.277  32.758  35.558  1.00  0.00    -0.354 N 
ATOM     60  N   UNL A   1      41.693  31.264  36.406  1.00  0.00    -0.248 NA
ATOM     61  C   UNL A   1      43.447  30.936  37.919  1.00  0.00     0.031 C 
ATOM     62  C   UNL A   1      38.581  34.424  36.850  1.00  0.00     0.029 A 
ATOM     63  C   UNL A   1      39.556  33.445  36.728  1.00  0.00     0.049 A 
ATOM     64  H   UNL A   1      39.812  32.013  35.202  1.00  0.00     0.167 HD
ATOM     65  C   UNL A   1      41.578  32.184  37.441  1.00  0.00     0.074 A 
ATOM     66  C   UNL A   1      42.667  31.914  38.359  1.00  0.00     0.031 C 
ATOM     67  C   UNL A   1      40.654  33.161  37.618  1.00  0.00     0.031 A 
BRANCH  54  68
ATOM     68  C   UNL A   1      36.337  33.469  33.176  1.00  0.00    -0.014 A 
ATOM     69  C   UNL A   1      36.437  34.511  32.235  1.00  0.00     0.010 A 
ATOM     70  C   UNL A   1      35.060  33.060  33.604  1.00  0.00     0.010 A 
ATOM     71  C   UNL A   1      35.290  35.170  31.780  1.00  0.00     0.020 A 
ATOM     72  C   UNL A   1      33.908  33.697  33.129  1.00  0.00     0.020 A 
ATOM     73  C   UNL A   1      34.033  34.765  32.238  1.00  0.00     0.054 A 
BRANCH  73  74
ATOM     74  S   UNL A   1      32.561  35.646  31.645  1.00  0.00     0.124 S 
ATOM     75  O   UNL A   1      32.932  37.040  31.877  1.00  0.00    -0.237 OA
ATOM     76  O   UNL A   1      32.487  35.241  30.243  1.00  0.00    -0.237 OA
ATOM     77  O   UNL A   1      31.487  35.138  32.494  1.00  0.00    -0.744 OA
ENDBRANCH  73  74
ENDBRANCH  54  68
BRANCH  55  78
ATOM     78  C   UNL A   1      44.560  28.685  36.393  1.00  0.00    -0.014 A 
ATOM     79  C   UNL A   1      44.451  27.555  37.222  1.00  0.00     0.010 A 
ATOM     80  C   UNL A   1      45.839  29.110  35.986  1.00  0.00     0.010 A 
ATOM     81  C   UNL A   1      45.594  26.867  37.640  1.00  0.00     0.020 A 
ATOM     82  C   UNL A   1      46.983  28.408  36.378  1.00  0.00     0.020 A 
ATOM     83  C   UNL A   1      46.853  27.295  37.211  1.00  0.00     0.054 A 
BRANCH  83  84
ATOM     84  S   UNL A   1      48.316  26.343  37.708  1.00  0.00     0.124 S 
ATOM     85  O   UNL A   1      48.534  25.490  36.544  1.00  0.00    -0.237 OA
ATOM     86  O   UNL A   1      49.314  27.388  37.922  1.00  0.00    -0.237 OA
ATOM     87  O   UNL A   1      47.879  25.653  38.919  1.00  0.00    -0.744 OA
ENDBRANCH  83  84
ENDBRANCH  55  78
BRANCH  67  88
ATOM     88  C   UNL A   1      40.768  33.977  38.878  1.00  0.00    -0.014 A 
ATOM     89  C   UNL A   1      40.174  33.555  40.080  1.00  0.00     0.010 A 
ATOM     90  C   UNL A   1      41.496  35.180  38.853  1.00  0.00     0.010 A 
ATOM     91  C   UNL A   1      40.269  34.347  41.227  1.00  0.00     0.020 A 
ATOM     92  C   UNL A   1      41.615  35.960  40.005  1.00  0.00     0.020 A 
ATOM     93  C   UNL A   1      40.984  35.548  41.180  1.00  0.00     0.054 A 
BRANCH  93  94
ATOM     94  S   UNL A   1      41.105  36.553  42.685  1.00  0.00     0.124 S 
ATOM     95  O   UNL A   1      39.927  37.407  42.575  1.00  0.00    -0.237 OA
ATOM     96  O   UNL A   1      41.059  35.551  43.746  1.00  0.00    -0.237 OA
ATOM     97  O   UNL A   1      42.388  37.238  42.540  1.00  0.00    -0.744 OA
ENDBRANCH  93  94
ENDBRANCH  67  88
ENDBRANCH  41  42
ENDBRANCH  34  36
ENDBRANCH  33  34
ENDBRANCH  32  33
ENDBRANCH   1  32
TORSDOF 20
ENDMDL
