MODEL 1
REMARK VINA RESULT:     -11.9      0.000      0.000
REMARK SMILES COc1ccccc1[C@@H]1Nc2ccc(C(=O)OCCOC(=O)c3ccc(-c4c5nc(c(-c6ccc(S(=O)(=O)[O-])cc6)c6ccc([nH]6)c(-c6ccc(S(=O)(=O)[O-])cc6)c6nc(c(-c7ccc(S(=O)(=O)[O-])cc7)c7ccc4[nH]7)C=C6)C=C5)cc3)cc2[C@H]2C=CC[C@@H]21
REMARK SMILES IDX 19 1 18 2 17 3 15 4 16 5 14 6 9 7 10 8 89 9 11 10 85 12
REMARK SMILES IDX 88 13 12 14 84 15 86 16 87 17 13 18 83 19 8 20 3 21 4 22
REMARK SMILES IDX 5 23 7 24 6 25 2 26 1 27 20 28 21 29 22 30 23 31 24 32 82 33
REMARK SMILES IDX 25 34 81 35 26 36 27 37 28 38 75 39 29 40 80 41 74 42 76 43
REMARK SMILES IDX 30 44 79 45 73 46 72 47 31 49 61 50 42 51 60 52 43 53 46 54
REMARK SMILES IDX 59 55 77 56 44 57 45 58 58 60 78 61 47 62 32 63 33 64 41 65
REMARK SMILES IDX 34 66 40 67 35 68 36 69 37 70 38 71 39 72 62 73 63 74 71 75
REMARK SMILES IDX 64 76 70 77 65 78 66 79 67 80 68 81 69 82 48 83 49 84 57 85
REMARK SMILES IDX 50 86 56 87 51 88 52 89 53 90 54 91 55 92
REMARK H PARENT 10 11 76 48 46 59
REMARK Flexibility Score: inf
ROOT
ATOM      1  C   UNL A   1      32.335  30.421  26.865  1.00  0.00     0.275 C 
ENDROOT
BRANCH   1   2
ATOM      2  C   UNL A   1      31.735  29.938  25.542  1.00  0.00     0.275 C 
BRANCH   2   3
ATOM      3  O   UNL A   1      32.648  29.090  24.822  1.00  0.00    -0.458 OA
BRANCH   3   4
ATOM      4  C   UNL A   1      32.163  28.606  23.659  1.00  0.00     0.338 C 
ATOM      5  O   UNL A   1      31.268  29.082  22.978  1.00  0.00    -0.246 OA
BRANCH   4   6
ATOM      6  C   UNL A   1      32.762  27.300  23.364  1.00  0.00     0.060 A 
ATOM      7  C   UNL A   1      32.254  22.326  23.466  1.00  0.00     0.117 C 
ATOM      8  N   UNL A   1      33.120  23.201  22.624  1.00  0.00    -0.378 N 
ATOM      9  C   UNL A   1      31.608  23.169  24.576  1.00  0.00     0.031 C 
ATOM     10  C   UNL A   1      33.178  24.576  22.867  1.00  0.00     0.038 A 
ATOM     11  H   UNL A   1      33.653  22.809  21.895  1.00  0.00     0.161 HD
ATOM     12  C   UNL A   1      32.699  24.023  25.234  1.00  0.00     0.049 C 
ATOM     13  C   UNL A   1      30.769  22.607  25.716  1.00  0.00     0.034 C 
ATOM     14  C   UNL A   1      33.236  25.495  21.816  1.00  0.00     0.027 A 
ATOM     15  C   UNL A   1      32.973  25.061  24.183  1.00  0.00    -0.017 A 
ATOM     16  C   UNL A   1      32.037  24.422  26.515  1.00  0.00    -0.023 C 
ATOM     17  C   UNL A   1      30.975  23.651  26.777  1.00  0.00    -0.030 C 
ATOM     18  C   UNL A   1      33.003  26.857  22.058  1.00  0.00     0.018 A 
ATOM     19  C   UNL A   1      32.803  26.419  24.433  1.00  0.00     0.022 A 
BRANCH   7  20
ATOM     20  C   UNL A   1      32.987  21.086  23.954  1.00  0.00     0.017 A 
ATOM     21  C   UNL A   1      34.292  21.142  24.485  1.00  0.00     0.124 A 
ATOM     22  C   UNL A   1      34.980  19.970  24.825  1.00  0.00     0.047 A 
ATOM     23  C   UNL A   1      34.385  18.722  24.661  1.00  0.00     0.004 A 
ATOM     24  C   UNL A   1      32.409  19.807  23.799  1.00  0.00     0.010 A 
ATOM     25  C   UNL A   1      33.099  18.640  24.144  1.00  0.00     0.001 A 
BRANCH  21  26
ATOM     26  O   UNL A   1      35.065  22.275  24.532  1.00  0.00    -0.496 OA
ATOM     27  C   UNL A   1      36.406  22.122  24.079  1.00  0.00     0.278 C 
ENDBRANCH  21  26
ENDBRANCH   7  20
ENDBRANCH   4   6
ENDBRANCH   3   4
ENDBRANCH   2   3
ENDBRANCH   1   2
BRANCH   1  28
ATOM     28  O   UNL A   1      33.727  30.078  26.983  1.00  0.00    -0.458 OA
BRANCH  28  29
ATOM     29  C   UNL A   1      34.429  30.828  27.866  1.00  0.00     0.338 C 
ATOM     30  O   UNL A   1      34.057  31.833  28.443  1.00  0.00    -0.246 OA
BRANCH  29  31
ATOM     31  C   UNL A   1      35.732  30.203  28.129  1.00  0.00     0.060 A 
ATOM     32  C   UNL A   1      35.984  29.696  29.407  1.00  0.00     0.016 A 
ATOM     33  C   UNL A   1      36.741  30.238  27.169  1.00  0.00     0.016 A 
ATOM     34  C   UNL A   1      37.257  29.265  29.750  1.00  0.00     0.010 A 
ATOM     35  C   UNL A   1      38.013  29.767  27.503  1.00  0.00     0.010 A 
ATOM     36  C   UNL A   1      38.283  29.300  28.802  1.00  0.00    -0.014 A 
BRANCH  36  37
ATOM     37  C   UNL A   1      39.649  28.888  29.196  1.00  0.00     0.031 A 
ATOM     38  C   UNL A   1      40.522  29.843  29.959  1.00  0.00     0.074 A 
ATOM     39  C   UNL A   1      40.080  27.646  28.901  1.00  0.00     0.049 A 
ATOM     40  N   UNL A   1      41.776  29.715  30.306  1.00  0.00    -0.248 NA
ATOM     41  C   UNL A   1      39.904  31.110  30.390  1.00  0.00     0.031 C 
ATOM     42  C   UNL A   1      39.290  26.613  28.225  1.00  0.00     0.029 A 
ATOM     43  N   UNL A   1      41.287  27.040  29.135  1.00  0.00    -0.354 N 
ATOM     44  C   UNL A   1      42.103  30.885  30.981  1.00  0.00     0.074 A 
ATOM     45  C   UNL A   1      40.926  31.726  30.970  1.00  0.00     0.031 C 
ATOM     46  C   UNL A   1      40.031  25.500  28.106  1.00  0.00     0.029 A 
ATOM     47  C   UNL A   1      41.365  25.761  28.635  1.00  0.00     0.049 A 
ATOM     48  H   UNL A   1      42.027  27.478  29.615  1.00  0.00     0.167 HD
ATOM     49  C   UNL A   1      43.278  31.220  31.564  1.00  0.00     0.031 A 
ATOM     50  C   UNL A   1      42.409  24.912  28.575  1.00  0.00     0.031 A 
ATOM     51  C   UNL A   1      44.441  30.372  31.567  1.00  0.00     0.049 A 
ATOM     52  C   UNL A   1      43.733  25.356  29.138  1.00  0.00     0.074 A 
ATOM     53  C   UNL A   1      45.689  30.624  32.108  1.00  0.00     0.029 A 
ATOM     54  N   UNL A   1      44.495  29.103  31.008  1.00  0.00    -0.354 N 
ATOM     55  N   UNL A   1      44.035  26.476  29.751  1.00  0.00    -0.248 NA
ATOM     56  C   UNL A   1      44.857  24.420  29.002  1.00  0.00     0.031 C 
ATOM     57  C   UNL A   1      46.513  29.528  31.833  1.00  0.00     0.029 A 
ATOM     58  C   UNL A   1      45.759  28.567  31.180  1.00  0.00     0.049 A 
ATOM     59  H   UNL A   1      43.747  28.652  30.557  1.00  0.00     0.167 HD
ATOM     60  C   UNL A   1      45.375  26.363  30.105  1.00  0.00     0.074 A 
ATOM     61  C   UNL A   1      45.817  25.059  29.655  1.00  0.00     0.031 C 
ATOM     62  C   UNL A   1      46.171  27.258  30.741  1.00  0.00     0.031 A 
BRANCH  49  63
ATOM     63  C   UNL A   1      43.373  32.564  32.237  1.00  0.00    -0.014 A 
ATOM     64  C   UNL A   1      43.736  33.713  31.511  1.00  0.00     0.010 A 
ATOM     65  C   UNL A   1      43.024  32.694  33.594  1.00  0.00     0.010 A 
ATOM     66  C   UNL A   1      43.763  34.964  32.134  1.00  0.00     0.020 A 
ATOM     67  C   UNL A   1      43.023  33.947  34.213  1.00  0.00     0.020 A 
ATOM     68  C   UNL A   1      43.399  35.074  33.481  1.00  0.00     0.054 A 
BRANCH  68  69
ATOM     69  S   UNL A   1      43.384  36.720  34.242  1.00  0.00     0.124 S 
ATOM     70  O   UNL A   1      42.038  36.779  34.807  1.00  0.00    -0.237 OA
ATOM     71  O   UNL A   1      44.469  36.631  35.215  1.00  0.00    -0.237 OA
ATOM     72  O   UNL A   1      43.627  37.625  33.121  1.00  0.00    -0.744 OA
ENDBRANCH  68  69
ENDBRANCH  49  63
BRANCH  50  73
ATOM     73  C   UNL A   1      42.269  23.584  27.913  1.00  0.00    -0.014 A 
ATOM     74  C   UNL A   1      41.745  22.483  28.611  1.00  0.00     0.010 A 
ATOM     75  C   UNL A   1      42.711  23.404  26.588  1.00  0.00     0.010 A 
ATOM     76  C   UNL A   1      41.713  21.217  28.018  1.00  0.00     0.020 A 
ATOM     77  C   UNL A   1      42.645  22.149  25.978  1.00  0.00     0.020 A 
ATOM     78  C   UNL A   1      42.171  21.057  26.707  1.00  0.00     0.054 A 
BRANCH  78  79
ATOM     79  S   UNL A   1      42.138  19.403  25.962  1.00  0.00     0.124 S 
ATOM     80  O   UNL A   1      40.715  19.226  25.686  1.00  0.00    -0.237 OA
ATOM     81  O   UNL A   1      42.995  19.568  24.791  1.00  0.00    -0.237 OA
ATOM     82  O   UNL A   1      42.684  18.545  27.011  1.00  0.00    -0.744 OA
ENDBRANCH  78  79
ENDBRANCH  50  73
BRANCH  62  83
ATOM     83  C   UNL A   1      47.583  26.830  31.043  1.00  0.00    -0.014 A 
ATOM     84  C   UNL A   1      47.915  26.203  32.255  1.00  0.00     0.010 A 
ATOM     85  C   UNL A   1      48.582  27.019  30.070  1.00  0.00     0.010 A 
ATOM     86  C   UNL A   1      49.231  25.805  32.505  1.00  0.00     0.020 A 
ATOM     87  C   UNL A   1      49.891  26.591  30.302  1.00  0.00     0.020 A 
ATOM     88  C   UNL A   1      50.210  26.001  31.526  1.00  0.00     0.054 A 
BRANCH  88  89
ATOM     89  S   UNL A   1      51.901  25.435  31.858  1.00  0.00     0.124 S 
ATOM     90  O   UNL A   1      51.721  23.989  31.968  1.00  0.00    -0.237 OA
ATOM     91  O   UNL A   1      52.627  25.890  30.675  1.00  0.00    -0.237 OA
ATOM     92  O   UNL A   1      52.257  26.114  33.101  1.00  0.00    -0.744 OA
ENDBRANCH  88  89
ENDBRANCH  62  83
ENDBRANCH  36  37
ENDBRANCH  29  31
ENDBRANCH  28  29
ENDBRANCH   1  28
TORSDOF 16
ENDMDL
MODEL 2
REMARK VINA RESULT:     -11.9      1.164      2.217
REMARK SMILES COc1ccccc1[C@@H]1Nc2ccc(C(=O)OCCOC(=O)c3ccc(-c4c5nc(c(-c6ccc(S(=O)(=O)[O-])cc6)c6ccc([nH]6)c(-c6ccc(S(=O)(=O)[O-])cc6)c6nc(c(-c7ccc(S(=O)(=O)[O-])cc7)c7ccc4[nH]7)C=C6)C=C5)cc3)cc2[C@H]2C=CC[C@@H]21
REMARK SMILES IDX 19 1 18 2 17 3 15 4 16 5 14 6 9 7 10 8 89 9 11 10 85 12
REMARK SMILES IDX 88 13 12 14 84 15 86 16 87 17 13 18 83 19 8 20 3 21 4 22
REMARK SMILES IDX 5 23 7 24 6 25 2 26 1 27 20 28 21 29 22 30 23 31 24 32 82 33
REMARK SMILES IDX 25 34 81 35 26 36 27 37 28 38 75 39 29 40 80 41 74 42 76 43
REMARK SMILES IDX 30 44 79 45 73 46 72 47 31 49 61 50 42 51 60 52 43 53 46 54
REMARK SMILES IDX 59 55 77 56 44 57 45 58 58 60 78 61 47 62 32 63 33 64 41 65
REMARK SMILES IDX 34 66 40 67 35 68 36 69 37 70 38 71 39 72 62 73 63 74 71 75
REMARK SMILES IDX 64 76 70 77 65 78 66 79 67 80 68 81 69 82 48 83 49 84 57 85
REMARK SMILES IDX 50 86 56 87 51 88 52 89 53 90 54 91 55 92
REMARK H PARENT 10 11 76 48 46 59
REMARK Flexibility Score: inf
ROOT
ATOM      1  C   UNL A   1      33.284  29.372  25.643  1.00  0.00     0.275 C 
ENDROOT
BRANCH   1   2
ATOM      2  C   UNL A   1      32.833  28.146  24.845  1.00  0.00     0.275 C 
BRANCH   2   3
ATOM      3  O   UNL A   1      33.035  26.928  25.582  1.00  0.00    -0.458 OA
BRANCH   3   4
ATOM      4  C   UNL A   1      31.942  26.484  26.238  1.00  0.00     0.338 C 
ATOM      5  O   UNL A   1      31.300  27.078  27.091  1.00  0.00    -0.246 OA
BRANCH   4   6
ATOM      6  C   UNL A   1      31.683  25.080  25.900  1.00  0.00     0.060 A 
ATOM      7  C   UNL A   1      33.510  20.439  25.539  1.00  0.00     0.117 C 
ATOM      8  N   UNL A   1      32.110  20.926  25.702  1.00  0.00    -0.378 N 
ATOM      9  C   UNL A   1      34.432  21.633  25.245  1.00  0.00     0.031 C 
ATOM     10  C   UNL A   1      31.832  22.295  25.655  1.00  0.00     0.038 A 
ATOM     11  H   UNL A   1      31.380  20.281  25.843  1.00  0.00     0.161 HD
ATOM     12  C   UNL A   1      33.787  22.485  24.145  1.00  0.00     0.049 C 
ATOM     13  C   UNL A   1      35.906  21.523  24.882  1.00  0.00     0.034 C 
ATOM     14  C   UNL A   1      30.890  22.871  26.512  1.00  0.00     0.027 A 
ATOM     15  C   UNL A   1      32.652  23.147  24.874  1.00  0.00    -0.017 A 
ATOM     16  C   UNL A   1      34.948  23.305  23.681  1.00  0.00    -0.023 C 
ATOM     17  C   UNL A   1      36.110  22.782  24.089  1.00  0.00    -0.030 C 
ATOM     18  C   UNL A   1      30.830  24.266  26.655  1.00  0.00     0.018 A 
ATOM     19  C   UNL A   1      32.551  24.531  24.970  1.00  0.00     0.022 A 
BRANCH   7  20
ATOM     20  C   UNL A   1      33.611  19.297  24.539  1.00  0.00     0.017 A 
ATOM     21  C   UNL A   1      32.798  19.228  23.389  1.00  0.00     0.124 A 
ATOM     22  C   UNL A   1      32.840  18.109  22.546  1.00  0.00     0.047 A 
ATOM     23  C   UNL A   1      33.699  17.047  22.815  1.00  0.00     0.004 A 
ATOM     24  C   UNL A   1      34.472  18.205  24.787  1.00  0.00     0.010 A 
ATOM     25  C   UNL A   1      34.513  17.093  23.939  1.00  0.00     0.001 A 
BRANCH  21  26
ATOM     26  O   UNL A   1      31.784  20.105  23.099  1.00  0.00    -0.496 OA
ATOM     27  C   UNL A   1      31.879  20.757  21.838  1.00  0.00     0.278 C 
ENDBRANCH  21  26
ENDBRANCH   7  20
ENDBRANCH   4   6
ENDBRANCH   3   4
ENDBRANCH   2   3
ENDBRANCH   1   2
BRANCH   1  28
ATOM     28  O   UNL A   1      34.319  29.048  26.589  1.00  0.00    -0.458 OA
BRANCH  28  29
ATOM     29  C   UNL A   1      34.618  30.033  27.471  1.00  0.00     0.338 C 
ATOM     30  O   UNL A   1      33.882  30.917  27.870  1.00  0.00    -0.246 OA
BRANCH  29  31
ATOM     31  C   UNL A   1      35.980  29.846  27.988  1.00  0.00     0.060 A 
ATOM     32  C   UNL A   1      37.055  30.001  27.109  1.00  0.00     0.016 A 
ATOM     33  C   UNL A   1      36.187  29.390  29.288  1.00  0.00     0.016 A 
ATOM     34  C   UNL A   1      38.339  29.656  27.507  1.00  0.00     0.010 A 
ATOM     35  C   UNL A   1      37.485  29.082  29.701  1.00  0.00     0.010 A 
ATOM     36  C   UNL A   1      38.564  29.191  28.805  1.00  0.00    -0.014 A 
BRANCH  36  37
ATOM     37  C   UNL A   1      39.929  28.776  29.200  1.00  0.00     0.031 A 
ATOM     38  C   UNL A   1      40.792  29.717  29.992  1.00  0.00     0.074 A 
ATOM     39  C   UNL A   1      40.368  27.543  28.881  1.00  0.00     0.049 A 
ATOM     40  N   UNL A   1      42.043  29.586  30.346  1.00  0.00    -0.248 NA
ATOM     41  C   UNL A   1      40.165  30.971  30.446  1.00  0.00     0.031 C 
ATOM     42  C   UNL A   1      39.588  26.522  28.175  1.00  0.00     0.029 A 
ATOM     43  N   UNL A   1      41.575  26.936  29.111  1.00  0.00    -0.354 N 
ATOM     44  C   UNL A   1      42.359  30.742  31.050  1.00  0.00     0.074 A 
ATOM     45  C   UNL A   1      41.179  31.578  31.049  1.00  0.00     0.031 C 
ATOM     46  C   UNL A   1      40.335  25.415  28.037  1.00  0.00     0.029 A 
ATOM     47  C   UNL A   1      41.663  25.670  28.582  1.00  0.00     0.049 A 
ATOM     48  H   UNL A   1      42.309  27.366  29.606  1.00  0.00     0.167 HD
ATOM     49  C   UNL A   1      43.528  31.069  31.651  1.00  0.00     0.031 A 
ATOM     50  C   UNL A   1      42.711  24.827  28.511  1.00  0.00     0.031 A 
ATOM     51  C   UNL A   1      44.694  30.226  31.643  1.00  0.00     0.049 A 
ATOM     52  C   UNL A   1      44.028  25.264  29.095  1.00  0.00     0.074 A 
ATOM     53  C   UNL A   1      45.937  30.470  32.200  1.00  0.00     0.029 A 
ATOM     54  N   UNL A   1      44.759  28.970  31.057  1.00  0.00    -0.354 N 
ATOM     55  N   UNL A   1      44.320  26.370  29.736  1.00  0.00    -0.248 NA
ATOM     56  C   UNL A   1      45.157  24.336  28.947  1.00  0.00     0.031 C 
ATOM     57  C   UNL A   1      46.768  29.384  31.908  1.00  0.00     0.029 A 
ATOM     58  C   UNL A   1      46.024  28.435  31.227  1.00  0.00     0.049 A 
ATOM     59  H   UNL A   1      44.016  28.526  30.589  1.00  0.00     0.167 HD
ATOM     60  C   UNL A   1      45.658  26.255  30.098  1.00  0.00     0.074 A 
ATOM     61  C   UNL A   1      46.109  24.963  29.622  1.00  0.00     0.031 C 
ATOM     62  C   UNL A   1      46.445  27.138  30.761  1.00  0.00     0.031 A 
BRANCH  49  63
ATOM     63  C   UNL A   1      43.612  32.397  32.355  1.00  0.00    -0.014 A 
ATOM     64  C   UNL A   1      43.978  33.563  31.659  1.00  0.00     0.010 A 
ATOM     65  C   UNL A   1      43.250  32.494  33.711  1.00  0.00     0.010 A 
ATOM     66  C   UNL A   1      43.994  34.800  32.311  1.00  0.00     0.020 A 
ATOM     67  C   UNL A   1      43.238  33.734  34.359  1.00  0.00     0.020 A 
ATOM     68  C   UNL A   1      43.617  34.878  33.656  1.00  0.00     0.054 A 
BRANCH  68  69
ATOM     69  S   UNL A   1      43.589  36.506  34.454  1.00  0.00     0.124 S 
ATOM     70  O   UNL A   1      44.987  36.677  34.842  1.00  0.00    -0.237 OA
ATOM     71  O   UNL A   1      43.125  37.380  33.379  1.00  0.00    -0.237 OA
ATOM     72  O   UNL A   1      42.653  36.334  35.562  1.00  0.00    -0.744 OA
ENDBRANCH  68  69
ENDBRANCH  49  63
BRANCH  50  73
ATOM     73  C   UNL A   1      42.583  23.514  27.818  1.00  0.00    -0.014 A 
ATOM     74  C   UNL A   1      42.048  22.397  28.483  1.00  0.00     0.010 A 
ATOM     75  C   UNL A   1      43.044  23.363  26.497  1.00  0.00     0.010 A 
ATOM     76  C   UNL A   1      42.027  21.144  27.862  1.00  0.00     0.020 A 
ATOM     77  C   UNL A   1      42.989  22.121  25.858  1.00  0.00     0.020 A 
ATOM     78  C   UNL A   1      42.505  21.014  26.555  1.00  0.00     0.054 A 
BRANCH  78  79
ATOM     79  S   UNL A   1      42.484  19.377  25.774  1.00  0.00     0.124 S 
ATOM     80  O   UNL A   1      41.078  19.235  25.409  1.00  0.00    -0.237 OA
ATOM     81  O   UNL A   1      43.413  19.548  24.660  1.00  0.00    -0.237 OA
ATOM     82  O   UNL A   1      42.950  18.486  26.834  1.00  0.00    -0.744 OA
ENDBRANCH  78  79
ENDBRANCH  50  73
BRANCH  62  83
ATOM     83  C   UNL A   1      47.856  26.709  31.065  1.00  0.00    -0.014 A 
ATOM     84  C   UNL A   1      48.921  27.032  30.206  1.00  0.00     0.010 A 
ATOM     85  C   UNL A   1      48.122  26.013  32.258  1.00  0.00     0.010 A 
ATOM     86  C   UNL A   1      50.223  26.632  30.517  1.00  0.00     0.020 A 
ATOM     87  C   UNL A   1      49.428  25.641  32.589  1.00  0.00     0.020 A 
ATOM     88  C   UNL A   1      50.468  25.941  31.708  1.00  0.00     0.054 A 
BRANCH  88  89
ATOM     89  S   UNL A   1      52.173  25.472  32.109  1.00  0.00     0.124 S 
ATOM     90  O   UNL A   1      52.044  24.039  32.358  1.00  0.00    -0.237 OA
ATOM     91  O   UNL A   1      52.898  25.836  30.895  1.00  0.00    -0.237 OA
ATOM     92  O   UNL A   1      52.488  26.282  33.283  1.00  0.00    -0.744 OA
ENDBRANCH  88  89
ENDBRANCH  62  83
ENDBRANCH  36  37
ENDBRANCH  29  31
ENDBRANCH  28  29
ENDBRANCH   1  28
TORSDOF 16
ENDMDL
MODEL 3
REMARK VINA RESULT:     -11.9      4.260     10.353
REMARK SMILES COc1ccccc1[C@@H]1Nc2ccc(C(=O)OCCOC(=O)c3ccc(-c4c5nc(c(-c6ccc(S(=O)(=O)[O-])cc6)c6ccc([nH]6)c(-c6ccc(S(=O)(=O)[O-])cc6)c6nc(c(-c7ccc(S(=O)(=O)[O-])cc7)c7ccc4[nH]7)C=C6)C=C5)cc3)cc2[C@H]2C=CC[C@@H]21
REMARK SMILES IDX 19 1 18 2 17 3 15 4 16 5 14 6 9 7 10 8 89 9 11 10 85 12
REMARK SMILES IDX 88 13 12 14 84 15 86 16 87 17 13 18 83 19 8 20 3 21 4 22
REMARK SMILES IDX 5 23 7 24 6 25 2 26 1 27 20 28 21 29 22 30 23 31 24 32 82 33
REMARK SMILES IDX 25 34 81 35 26 36 27 37 28 38 75 39 29 40 80 41 74 42 76 43
REMARK SMILES IDX 30 44 79 45 73 46 72 47 31 49 61 50 42 51 60 52 43 53 46 54
REMARK SMILES IDX 59 55 77 56 44 57 45 58 58 60 78 61 47 62 32 63 33 64 41 65
REMARK SMILES IDX 34 66 40 67 35 68 36 69 37 70 38 71 39 72 62 73 63 74 71 75
REMARK SMILES IDX 64 76 70 77 65 78 66 79 67 80 68 81 69 82 48 83 49 84 57 85
REMARK SMILES IDX 50 86 56 87 51 88 52 89 53 90 54 91 55 92
REMARK H PARENT 10 11 76 48 46 59
REMARK Flexibility Score: inf
ROOT
ATOM      1  C   UNL A   1      38.516  23.174  26.127  1.00  0.00     0.275 C 
ENDROOT
BRANCH   1   2
ATOM      2  C   UNL A   1      37.278  23.116  25.228  1.00  0.00     0.275 C 
BRANCH   2   3
ATOM      3  O   UNL A   1      36.381  24.211  25.486  1.00  0.00    -0.458 OA
BRANCH   3   4
ATOM      4  C   UNL A   1      35.131  23.839  25.834  1.00  0.00     0.338 C 
ATOM      5  O   UNL A   1      34.814  22.979  26.641  1.00  0.00    -0.246 OA
BRANCH   4   6
ATOM      6  C   UNL A   1      34.145  24.516  24.984  1.00  0.00     0.060 A 
ATOM      7  C   UNL A   1      31.758  28.773  23.894  1.00  0.00     0.117 C 
ATOM      8  N   UNL A   1      32.024  27.564  23.063  1.00  0.00    -0.378 N 
ATOM      9  C   UNL A   1      32.143  28.482  25.353  1.00  0.00     0.031 C 
ATOM     10  C   UNL A   1      32.614  26.434  23.635  1.00  0.00     0.038 A 
ATOM     11  H   UNL A   1      31.783  27.562  22.108  1.00  0.00     0.161 HD
ATOM     12  C   UNL A   1      31.535  27.131  25.754  1.00  0.00     0.049 C 
ATOM     13  C   UNL A   1      31.887  29.422  26.522  1.00  0.00     0.034 C 
ATOM     14  C   UNL A   1      33.566  25.683  22.939  1.00  0.00     0.027 A 
ATOM     15  C   UNL A   1      32.401  26.155  25.009  1.00  0.00    -0.017 A 
ATOM     16  C   UNL A   1      31.611  27.199  27.246  1.00  0.00    -0.023 C 
ATOM     17  C   UNL A   1      31.810  28.453  27.668  1.00  0.00    -0.030 C 
ATOM     18  C   UNL A   1      34.352  24.740  23.618  1.00  0.00     0.018 A 
ATOM     19  C   UNL A   1      33.137  25.176  25.668  1.00  0.00     0.022 A 
BRANCH   7  20
ATOM     20  C   UNL A   1      30.346  29.306  23.703  1.00  0.00     0.017 A 
ATOM     21  C   UNL A   1      29.258  28.463  23.397  1.00  0.00     0.124 A 
ATOM     22  C   UNL A   1      27.991  28.996  23.121  1.00  0.00     0.047 A 
ATOM     23  C   UNL A   1      27.775  30.371  23.158  1.00  0.00     0.004 A 
ATOM     24  C   UNL A   1      30.097  30.695  23.733  1.00  0.00     0.010 A 
ATOM     25  C   UNL A   1      28.830  31.222  23.461  1.00  0.00     0.001 A 
BRANCH  21  26
ATOM     26  O   UNL A   1      29.361  27.118  23.148  1.00  0.00    -0.496 OA
ATOM     27  C   UNL A   1      28.614  26.273  24.017  1.00  0.00     0.278 C 
ENDBRANCH  21  26
ENDBRANCH   7  20
ENDBRANCH   4   6
ENDBRANCH   3   4
ENDBRANCH   2   3
ENDBRANCH   1   2
BRANCH   1  28
ATOM     28  O   UNL A   1      38.932  24.528  26.384  1.00  0.00    -0.458 OA
BRANCH  28  29
ATOM     29  C   UNL A   1      40.236  24.672  26.723  1.00  0.00     0.338 C 
ATOM     30  O   UNL A   1      41.204  24.202  26.155  1.00  0.00    -0.246 OA
BRANCH  29  31
ATOM     31  C   UNL A   1      40.358  25.587  27.866  1.00  0.00     0.060 A 
ATOM     32  C   UNL A   1      39.324  25.624  28.805  1.00  0.00     0.016 A 
ATOM     33  C   UNL A   1      41.414  26.492  27.937  1.00  0.00     0.016 A 
ATOM     34  C   UNL A   1      39.312  26.598  29.793  1.00  0.00     0.010 A 
ATOM     35  C   UNL A   1      41.422  27.447  28.958  1.00  0.00     0.010 A 
ATOM     36  C   UNL A   1      40.359  27.519  29.876  1.00  0.00    -0.014 A 
BRANCH  36  37
ATOM     37  C   UNL A   1      40.309  28.585  30.902  1.00  0.00     0.031 A 
ATOM     38  C   UNL A   1      41.248  28.536  32.072  1.00  0.00     0.074 A 
ATOM     39  C   UNL A   1      39.448  29.611  30.752  1.00  0.00     0.049 A 
ATOM     40  N   UNL A   1      41.295  29.310  33.124  1.00  0.00    -0.248 NA
ATOM     41  C   UNL A   1      42.271  27.475  32.060  1.00  0.00     0.031 C 
ATOM     42  C   UNL A   1      38.538  29.796  29.617  1.00  0.00     0.029 A 
ATOM     43  N   UNL A   1      39.199  30.693  31.556  1.00  0.00    -0.354 N 
ATOM     44  C   UNL A   1      42.338  28.825  33.905  1.00  0.00     0.074 A 
ATOM     45  C   UNL A   1      42.880  27.672  33.222  1.00  0.00     0.031 C 
ATOM     46  C   UNL A   1      37.838  30.927  29.795  1.00  0.00     0.029 A 
ATOM     47  C   UNL A   1      38.198  31.509  31.083  1.00  0.00     0.049 A 
ATOM     48  H   UNL A   1      39.689  30.869  32.391  1.00  0.00     0.167 HD
ATOM     49  C   UNL A   1      42.805  29.309  35.080  1.00  0.00     0.031 A 
ATOM     50  C   UNL A   1      37.611  32.583  31.646  1.00  0.00     0.031 A 
ATOM     51  C   UNL A   1      42.254  30.459  35.748  1.00  0.00     0.049 A 
ATOM     52  C   UNL A   1      38.081  33.032  33.004  1.00  0.00     0.074 A 
ATOM     53  C   UNL A   1      42.636  31.019  36.954  1.00  0.00     0.029 A 
ATOM     54  N   UNL A   1      41.210  31.231  35.260  1.00  0.00    -0.354 N 
ATOM     55  N   UNL A   1      39.052  32.549  33.743  1.00  0.00    -0.248 NA
ATOM     56  C   UNL A   1      37.377  34.173  33.604  1.00  0.00     0.031 C 
ATOM     57  C   UNL A   1      41.790  32.100  37.221  1.00  0.00     0.029 A 
ATOM     58  C   UNL A   1      40.926  32.254  36.149  1.00  0.00     0.049 A 
ATOM     59  H   UNL A   1      40.741  31.076  34.410  1.00  0.00     0.167 HD
ATOM     60  C   UNL A   1      39.097  33.350  34.878  1.00  0.00     0.074 A 
ATOM     61  C   UNL A   1      38.070  34.359  34.718  1.00  0.00     0.031 C 
ATOM     62  C   UNL A   1      39.911  33.259  35.959  1.00  0.00     0.031 A 
BRANCH  49  63
ATOM     63  C   UNL A   1      43.958  28.591  35.730  1.00  0.00    -0.014 A 
ATOM     64  C   UNL A   1      43.738  27.522  36.617  1.00  0.00     0.010 A 
ATOM     65  C   UNL A   1      45.279  28.940  35.393  1.00  0.00     0.010 A 
ATOM     66  C   UNL A   1      44.818  26.825  37.167  1.00  0.00     0.020 A 
ATOM     67  C   UNL A   1      46.361  28.227  35.919  1.00  0.00     0.020 A 
ATOM     68  C   UNL A   1      46.123  27.178  36.809  1.00  0.00     0.054 A 
BRANCH  68  69
ATOM     69  S   UNL A   1      47.499  26.214  37.490  1.00  0.00     0.124 S 
ATOM     70  O   UNL A   1      47.233  24.883  36.950  1.00  0.00    -0.237 OA
ATOM     71  O   UNL A   1      48.668  26.893  36.938  1.00  0.00    -0.237 OA
ATOM     72  O   UNL A   1      47.332  26.342  38.936  1.00  0.00    -0.744 OA
ENDBRANCH  68  69
ENDBRANCH  49  63
BRANCH  50  73
ATOM     73  C   UNL A   1      36.482  33.275  30.963  1.00  0.00    -0.014 A 
ATOM     74  C   UNL A   1      36.682  33.957  29.751  1.00  0.00     0.010 A 
ATOM     75  C   UNL A   1      35.204  33.297  31.554  1.00  0.00     0.010 A 
ATOM     76  C   UNL A   1      35.643  34.691  29.170  1.00  0.00     0.020 A 
ATOM     77  C   UNL A   1      34.153  33.997  30.957  1.00  0.00     0.020 A 
ATOM     78  C   UNL A   1      34.387  34.712  29.781  1.00  0.00     0.054 A 
BRANCH  78  79
ATOM     79  S   UNL A   1      33.057  35.684  29.021  1.00  0.00     0.124 S 
ATOM     80  O   UNL A   1      33.807  36.701  28.291  1.00  0.00    -0.237 OA
ATOM     81  O   UNL A   1      32.371  34.690  28.199  1.00  0.00    -0.237 OA
ATOM     82  O   UNL A   1      32.292  36.171  30.166  1.00  0.00    -0.744 OA
ENDBRANCH  78  79
ENDBRANCH  50  73
BRANCH  62  83
ATOM     83  C   UNL A   1      39.764  34.315  37.022  1.00  0.00    -0.014 A 
ATOM     84  C   UNL A   1      39.051  34.067  38.208  1.00  0.00     0.010 A 
ATOM     85  C   UNL A   1      40.394  35.560  36.847  1.00  0.00     0.010 A 
ATOM     86  C   UNL A   1      38.940  35.061  39.184  1.00  0.00     0.020 A 
ATOM     87  C   UNL A   1      40.314  36.544  37.835  1.00  0.00     0.020 A 
ATOM     88  C   UNL A   1      39.574  36.293  38.992  1.00  0.00     0.054 A 
BRANCH  88  89
ATOM     89  S   UNL A   1      39.451  37.549  40.293  1.00  0.00     0.124 S 
ATOM     90  O   UNL A   1      38.789  36.811  41.366  1.00  0.00    -0.237 OA
ATOM     91  O   UNL A   1      40.850  37.893  40.537  1.00  0.00    -0.237 OA
ATOM     92  O   UNL A   1      38.652  38.607  39.681  1.00  0.00    -0.744 OA
ENDBRANCH  88  89
ENDBRANCH  62  83
ENDBRANCH  36  37
ENDBRANCH  29  31
ENDBRANCH  28  29
ENDBRANCH   1  28
TORSDOF 16
ENDMDL
