MODEL 1
REMARK VINA RESULT:     -11.7      0.000      0.000
REMARK SMILES Cc1nn(CC(=O)OCCOC(=O)c2ccc(-c3c4nc(c(-c5ccc(S(=O)(=O)[O-])cc5)c5ccc([nH]5)c(-c5ccc(S(=O)(=O)[O-])cc5)c5nc(c(-c6ccc(S(=O)(=O)[O-])cc6)c6ccc3[nH]6)C=C5)C=C4)cc2)c(C)c1NS(=O)(=O)c1cccc2cccnc12
REMARK SMILES IDX 9 1 8 2 6 3 7 4 5 5 4 6 1 7 2 8 3 9 76 10 74 11 75 12 77 13
REMARK SMILES IDX 78 15 79 16 80 17 81 18 82 19 90 20 83 21 85 22 89 23 84 24
REMARK SMILES IDX 86 25 88 26 87 27 10 28 11 29 12 30 13 31 14 32 15 33 73 34
REMARK SMILES IDX 16 35 72 36 17 37 18 38 19 39 66 40 20 41 71 42 65 43 67 44
REMARK SMILES IDX 21 45 70 46 64 47 63 48 22 50 52 51 33 52 51 53 34 54 37 55
REMARK SMILES IDX 50 56 68 57 35 58 36 59 49 61 69 62 38 63 23 64 24 65 32 66
REMARK SMILES IDX 25 67 31 68 26 69 27 70 28 71 29 72 30 73 53 74 54 75 62 76
REMARK SMILES IDX 55 77 61 78 56 79 57 80 58 81 59 82 60 83 39 84 40 85 48 86
REMARK SMILES IDX 41 87 47 88 42 89 43 90 44 91 45 92 46 93
REMARK H PARENT 77 14 67 49 37 60
REMARK Flexibility Score: inf
ROOT
ATOM      1  C   UNL A   1      37.414  21.966  25.021  1.00  0.00     0.274 C 
ENDROOT
BRANCH   1   2
ATOM      2  O   UNL A   1      36.958  23.344  25.064  1.00  0.00    -0.461 OA
BRANCH   2   3
ATOM      3  C   UNL A   1      35.636  23.566  25.296  1.00  0.00     0.327 C 
ATOM      4  O   UNL A   1      35.179  24.672  25.589  1.00  0.00    -0.250 OA
BRANCH   3   5
ATOM      5  C   UNL A   1      34.721  22.380  25.110  1.00  0.00     0.267 C 
BRANCH   5   6
ATOM      6  N   UNL A   1      33.303  22.664  25.167  1.00  0.00    -0.256 N 
ATOM      7  C   UNL A   1      30.210  22.465  26.828  1.00  0.00     0.071 C 
ATOM      8  C   UNL A   1      31.367  22.821  25.961  1.00  0.00     0.084 A 
ATOM      9  N   UNL A   1      32.540  22.198  26.167  1.00  0.00    -0.175 NA
ATOM     10  C   UNL A   1      31.425  23.645  24.785  1.00  0.00     0.093 A 
ATOM     11  C   UNL A   1      32.501  23.082  24.136  1.00  0.00     0.060 A 
ATOM     12  C   UNL A   1      32.766  22.736  22.730  1.00  0.00     0.069 C 
BRANCH  10  13
ATOM     13  N   UNL A   1      30.440  24.520  24.301  1.00  0.00    -0.276 N 
ATOM     14  H   UNL A   1      29.998  24.283  23.453  1.00  0.00     0.180 HD
BRANCH  13  15
ATOM     15  S   UNL A   1      29.945  25.971  25.071  1.00  0.00     0.264 S 
ATOM     16  O   UNL A   1      29.054  26.599  24.107  1.00  0.00    -0.201 OA
ATOM     17  O   UNL A   1      29.402  25.619  26.366  1.00  0.00    -0.201 OA
BRANCH  15  18
ATOM     18  C   UNL A   1      31.322  27.082  25.260  1.00  0.00     0.114 A 
ATOM     19  C   UNL A   1      31.489  27.682  26.526  1.00  0.00     0.024 A 
ATOM     20  C   UNL A   1      32.215  27.351  24.218  1.00  0.00     0.091 A 
ATOM     21  C   UNL A   1      32.439  28.678  26.720  1.00  0.00     0.002 A 
ATOM     22  C   UNL A   1      33.107  28.442  24.410  1.00  0.00     0.002 A 
ATOM     23  N   UNL A   1      32.271  26.648  23.070  1.00  0.00    -0.255 NA
ATOM     24  C   UNL A   1      33.207  29.097  25.644  1.00  0.00     0.010 A 
ATOM     25  C   UNL A   1      33.902  28.879  23.345  1.00  0.00     0.012 A 
ATOM     26  C   UNL A   1      33.169  27.002  22.125  1.00  0.00     0.112 A 
ATOM     27  C   UNL A   1      33.949  28.137  22.182  1.00  0.00     0.021 A 
ENDBRANCH  15  18
ENDBRANCH  13  15
ENDBRANCH  10  13
ENDBRANCH   5   6
ENDBRANCH   3   5
ENDBRANCH   2   3
ENDBRANCH   1   2
BRANCH   1  28
ATOM     28  C   UNL A   1      38.662  21.733  25.860  1.00  0.00     0.275 C 
BRANCH  28  29
ATOM     29  O   UNL A   1      39.027  22.959  26.474  1.00  0.00    -0.458 OA
BRANCH  29  30
ATOM     30  C   UNL A   1      40.163  22.823  27.192  1.00  0.00     0.338 C 
ATOM     31  O   UNL A   1      40.374  22.009  28.070  1.00  0.00    -0.246 OA
BRANCH  30  32
ATOM     32  C   UNL A   1      41.133  23.849  26.814  1.00  0.00     0.060 A 
ATOM     33  C   UNL A   1      42.157  24.021  27.753  1.00  0.00     0.016 A 
ATOM     34  C   UNL A   1      40.616  24.893  26.046  1.00  0.00     0.016 A 
ATOM     35  C   UNL A   1      42.354  25.285  28.228  1.00  0.00     0.010 A 
ATOM     36  C   UNL A   1      40.803  26.155  26.533  1.00  0.00     0.010 A 
ATOM     37  C   UNL A   1      41.549  26.292  27.701  1.00  0.00    -0.014 A 
BRANCH  37  38
ATOM     38  C   UNL A   1      41.486  27.529  28.424  1.00  0.00     0.031 A 
ATOM     39  C   UNL A   1      42.626  28.393  28.105  1.00  0.00     0.074 A 
ATOM     40  C   UNL A   1      40.458  27.846  29.227  1.00  0.00     0.049 A 
ATOM     41  N   UNL A   1      43.687  28.552  28.816  1.00  0.00    -0.248 NA
ATOM     42  C   UNL A   1      42.718  28.907  26.733  1.00  0.00     0.031 C 
ATOM     43  C   UNL A   1      39.171  27.176  29.422  1.00  0.00     0.029 A 
ATOM     44  N   UNL A   1      40.332  28.964  29.972  1.00  0.00    -0.354 N 
ATOM     45  C   UNL A   1      44.507  29.365  28.054  1.00  0.00     0.074 A 
ATOM     46  C   UNL A   1      43.983  29.323  26.713  1.00  0.00     0.031 C 
ATOM     47  C   UNL A   1      38.313  28.046  30.010  1.00  0.00     0.029 A 
ATOM     48  C   UNL A   1      39.034  29.267  30.342  1.00  0.00     0.049 A 
ATOM     49  H   UNL A   1      41.102  29.519  30.232  1.00  0.00     0.167 HD
ATOM     50  C   UNL A   1      45.379  30.235  28.627  1.00  0.00     0.031 A 
ATOM     51  C   UNL A   1      38.611  30.483  30.777  1.00  0.00     0.031 A 
ATOM     52  C   UNL A   1      45.499  30.015  30.045  1.00  0.00     0.049 A 
ATOM     53  C   UNL A   1      39.824  31.217  31.246  1.00  0.00     0.074 A 
ATOM     54  C   UNL A   1      45.955  28.972  30.825  1.00  0.00     0.029 A 
ATOM     55  N   UNL A   1      44.699  30.787  30.861  1.00  0.00    -0.354 N 
ATOM     56  N   UNL A   1      40.523  30.832  32.280  1.00  0.00    -0.248 NA
ATOM     57  C   UNL A   1      40.555  32.040  30.288  1.00  0.00     0.031 C 
ATOM     58  C   UNL A   1      45.055  28.914  31.930  1.00  0.00     0.029 A 
ATOM     59  C   UNL A   1      44.137  29.960  31.803  1.00  0.00     0.049 A 
ATOM     60  H   UNL A   1      44.557  31.759  30.784  1.00  0.00     0.167 HD
ATOM     61  C   UNL A   1      41.853  30.981  31.899  1.00  0.00     0.074 A 
ATOM     62  C   UNL A   1      41.809  31.821  30.701  1.00  0.00     0.031 C 
ATOM     63  C   UNL A   1      42.832  30.168  32.403  1.00  0.00     0.031 A 
BRANCH  50  64
ATOM     64  C   UNL A   1      45.792  31.519  27.973  1.00  0.00    -0.014 A 
ATOM     65  C   UNL A   1      47.000  31.551  27.256  1.00  0.00     0.010 A 
ATOM     66  C   UNL A   1      45.164  32.753  28.243  1.00  0.00     0.010 A 
ATOM     67  C   UNL A   1      47.578  32.768  26.882  1.00  0.00     0.020 A 
ATOM     68  C   UNL A   1      45.705  33.967  27.831  1.00  0.00     0.020 A 
ATOM     69  C   UNL A   1      46.930  33.968  27.186  1.00  0.00     0.054 A 
BRANCH  69  70
ATOM     70  S   UNL A   1      47.744  35.536  26.810  1.00  0.00     0.124 S 
ATOM     71  O   UNL A   1      46.618  36.464  26.814  1.00  0.00    -0.237 OA
ATOM     72  O   UNL A   1      48.684  35.668  27.919  1.00  0.00    -0.237 OA
ATOM     73  O   UNL A   1      48.356  35.300  25.503  1.00  0.00    -0.744 OA
ENDBRANCH  69  70
ENDBRANCH  50  64
BRANCH  51  74
ATOM     74  C   UNL A   1      37.330  31.150  30.423  1.00  0.00    -0.014 A 
ATOM     75  C   UNL A   1      36.608  31.909  31.363  1.00  0.00     0.010 A 
ATOM     76  C   UNL A   1      36.942  31.252  29.071  1.00  0.00     0.010 A 
ATOM     77  C   UNL A   1      35.574  32.773  30.955  1.00  0.00     0.020 A 
ATOM     78  C   UNL A   1      35.912  32.106  28.657  1.00  0.00     0.020 A 
ATOM     79  C   UNL A   1      35.244  32.880  29.601  1.00  0.00     0.054 A 
BRANCH  79  80
ATOM     80  S   UNL A   1      34.030  34.121  29.059  1.00  0.00     0.124 S 
ATOM     81  O   UNL A   1      34.881  35.166  28.495  1.00  0.00    -0.237 OA
ATOM     82  O   UNL A   1      33.220  33.377  28.099  1.00  0.00    -0.237 OA
ATOM     83  O   UNL A   1      33.337  34.487  30.293  1.00  0.00    -0.744 OA
ENDBRANCH  79  80
ENDBRANCH  51  74
BRANCH  63  84
ATOM     84  C   UNL A   1      42.460  29.228  33.531  1.00  0.00    -0.014 A 
ATOM     85  C   UNL A   1      41.847  27.974  33.328  1.00  0.00     0.010 A 
ATOM     86  C   UNL A   1      42.894  29.553  34.827  1.00  0.00     0.010 A 
ATOM     87  C   UNL A   1      41.642  27.087  34.398  1.00  0.00     0.020 A 
ATOM     88  C   UNL A   1      42.709  28.669  35.893  1.00  0.00     0.020 A 
ATOM     89  C   UNL A   1      42.072  27.446  35.678  1.00  0.00     0.054 A 
BRANCH  89  90
ATOM     90  S   UNL A   1      41.831  26.290  37.057  1.00  0.00     0.124 S 
ATOM     91  O   UNL A   1      42.977  26.578  37.915  1.00  0.00    -0.237 OA
ATOM     92  O   UNL A   1      40.529  26.683  37.593  1.00  0.00    -0.237 OA
ATOM     93  O   UNL A   1      41.854  24.975  36.417  1.00  0.00    -0.744 OA
ENDBRANCH  89  90
ENDBRANCH  63  84
ENDBRANCH  37  38
ENDBRANCH  30  32
ENDBRANCH  29  30
ENDBRANCH  28  29
ENDBRANCH   1  28
TORSDOF 18
ENDMDL
MODEL 2
REMARK VINA RESULT:     -11.0      1.628      2.220
REMARK SMILES Cc1nn(CC(=O)OCCOC(=O)c2ccc(-c3c4nc(c(-c5ccc(S(=O)(=O)[O-])cc5)c5ccc([nH]5)c(-c5ccc(S(=O)(=O)[O-])cc5)c5nc(c(-c6ccc(S(=O)(=O)[O-])cc6)c6ccc3[nH]6)C=C5)C=C4)cc2)c(C)c1NS(=O)(=O)c1cccc2cccnc12
REMARK SMILES IDX 9 1 8 2 6 3 7 4 5 5 4 6 1 7 2 8 3 9 76 10 74 11 75 12 77 13
REMARK SMILES IDX 78 15 79 16 80 17 81 18 82 19 90 20 83 21 85 22 89 23 84 24
REMARK SMILES IDX 86 25 88 26 87 27 10 28 11 29 12 30 13 31 14 32 15 33 73 34
REMARK SMILES IDX 16 35 72 36 17 37 18 38 19 39 66 40 20 41 71 42 65 43 67 44
REMARK SMILES IDX 21 45 70 46 64 47 63 48 22 50 52 51 33 52 51 53 34 54 37 55
REMARK SMILES IDX 50 56 68 57 35 58 36 59 49 61 69 62 38 63 23 64 24 65 32 66
REMARK SMILES IDX 25 67 31 68 26 69 27 70 28 71 29 72 30 73 53 74 54 75 62 76
REMARK SMILES IDX 55 77 61 78 56 79 57 80 58 81 59 82 60 83 39 84 40 85 48 86
REMARK SMILES IDX 41 87 47 88 42 89 43 90 44 91 45 92 46 93
REMARK H PARENT 77 14 67 49 37 60
REMARK Flexibility Score: inf
ROOT
ATOM      1  C   UNL A   1      38.820  21.041  25.751  1.00  0.00     0.274 C 
ENDROOT
BRANCH   1   2
ATOM      2  O   UNL A   1      37.779  22.027  25.975  1.00  0.00    -0.461 OA
BRANCH   2   3
ATOM      3  C   UNL A   1      37.215  22.611  24.883  1.00  0.00     0.327 C 
ATOM      4  O   UNL A   1      37.320  22.154  23.744  1.00  0.00    -0.250 OA
BRANCH   3   5
ATOM      5  C   UNL A   1      36.380  23.841  25.145  1.00  0.00     0.267 C 
BRANCH   5   6
ATOM      6  N   UNL A   1      34.968  23.609  25.358  1.00  0.00    -0.256 N 
ATOM      7  C   UNL A   1      32.230  21.412  25.574  1.00  0.00     0.071 C 
ATOM      8  C   UNL A   1      33.182  22.552  25.674  1.00  0.00     0.084 A 
ATOM      9  N   UNL A   1      34.435  22.385  25.220  1.00  0.00    -0.175 NA
ATOM     10  C   UNL A   1      32.953  23.920  26.052  1.00  0.00     0.093 A 
ATOM     11  C   UNL A   1      33.966  24.545  25.359  1.00  0.00     0.060 A 
ATOM     12  C   UNL A   1      34.034  25.786  24.571  1.00  0.00     0.069 C 
BRANCH  10  13
ATOM     13  N   UNL A   1      31.810  24.463  26.659  1.00  0.00    -0.276 N 
ATOM     14  H   UNL A   1      31.835  24.600  27.634  1.00  0.00     0.180 HD
BRANCH  13  15
ATOM     15  S   UNL A   1      30.372  24.907  25.835  1.00  0.00     0.264 S 
ATOM     16  O   UNL A   1      30.341  24.028  24.676  1.00  0.00    -0.201 OA
ATOM     17  O   UNL A   1      29.279  24.820  26.780  1.00  0.00    -0.201 OA
BRANCH  15  18
ATOM     18  C   UNL A   1      30.502  26.561  25.192  1.00  0.00     0.114 A 
ATOM     19  C   UNL A   1      29.901  26.809  23.940  1.00  0.00     0.024 A 
ATOM     20  C   UNL A   1      31.155  27.584  25.887  1.00  0.00     0.091 A 
ATOM     21  C   UNL A   1      30.087  28.024  23.292  1.00  0.00     0.002 A 
ATOM     22  C   UNL A   1      31.417  28.779  25.161  1.00  0.00     0.002 A 
ATOM     23  N   UNL A   1      31.539  27.498  27.175  1.00  0.00    -0.255 NA
ATOM     24  C   UNL A   1      30.894  28.986  23.879  1.00  0.00     0.010 A 
ATOM     25  C   UNL A   1      32.220  29.771  25.734  1.00  0.00     0.012 A 
ATOM     26  C   UNL A   1      32.172  28.547  27.745  1.00  0.00     0.112 A 
ATOM     27  C   UNL A   1      32.593  29.665  27.058  1.00  0.00     0.021 A 
ENDBRANCH  15  18
ENDBRANCH  13  15
ENDBRANCH  10  13
ENDBRANCH   5   6
ENDBRANCH   3   5
ENDBRANCH   2   3
ENDBRANCH   1   2
BRANCH   1  28
ATOM     28  C   UNL A   1      40.188  21.510  26.227  1.00  0.00     0.275 C 
BRANCH  28  29
ATOM     29  O   UNL A   1      40.103  21.810  27.611  1.00  0.00    -0.458 OA
BRANCH  29  30
ATOM     30  C   UNL A   1      41.000  22.760  27.957  1.00  0.00     0.338 C 
ATOM     31  O   UNL A   1      41.962  22.619  28.685  1.00  0.00    -0.246 OA
BRANCH  30  32
ATOM     32  C   UNL A   1      40.630  24.048  27.372  1.00  0.00     0.060 A 
ATOM     33  C   UNL A   1      41.732  24.830  27.007  1.00  0.00     0.016 A 
ATOM     34  C   UNL A   1      39.432  24.586  27.844  1.00  0.00     0.016 A 
ATOM     35  C   UNL A   1      41.788  26.095  27.518  1.00  0.00     0.010 A 
ATOM     36  C   UNL A   1      39.497  25.845  28.368  1.00  0.00     0.010 A 
ATOM     37  C   UNL A   1      40.723  26.502  28.317  1.00  0.00    -0.014 A 
BRANCH  37  38
ATOM     38  C   UNL A   1      40.925  27.659  29.141  1.00  0.00     0.031 A 
ATOM     39  C   UNL A   1      42.053  28.465  28.664  1.00  0.00     0.074 A 
ATOM     40  C   UNL A   1      40.116  27.967  30.166  1.00  0.00     0.049 A 
ATOM     41  N   UNL A   1      43.247  28.471  29.146  1.00  0.00    -0.248 NA
ATOM     42  C   UNL A   1      41.912  29.110  27.352  1.00  0.00     0.031 C 
ATOM     43  C   UNL A   1      38.838  27.378  30.570  1.00  0.00     0.029 A 
ATOM     44  N   UNL A   1      40.250  29.009  31.015  1.00  0.00    -0.354 N 
ATOM     45  C   UNL A   1      43.967  29.295  28.301  1.00  0.00     0.074 A 
ATOM     46  C   UNL A   1      43.180  29.430  27.101  1.00  0.00     0.031 C 
ATOM     47  C   UNL A   1      38.203  28.244  31.399  1.00  0.00     0.029 A 
ATOM     48  C   UNL A   1      39.088  29.367  31.674  1.00  0.00     0.049 A 
ATOM     49  H   UNL A   1      41.105  29.476  31.152  1.00  0.00     0.167 HD
ATOM     50  C   UNL A   1      45.015  30.034  28.749  1.00  0.00     0.031 A 
ATOM     51  C   UNL A   1      38.878  30.560  32.290  1.00  0.00     0.031 A 
ATOM     52  C   UNL A   1      45.399  29.661  30.086  1.00  0.00     0.049 A 
ATOM     53  C   UNL A   1      40.224  31.150  32.555  1.00  0.00     0.074 A 
ATOM     54  C   UNL A   1      45.903  28.512  30.660  1.00  0.00     0.029 A 
ATOM     55  N   UNL A   1      44.858  30.402  31.115  1.00  0.00    -0.354 N 
ATOM     56  N   UNL A   1      41.080  30.609  33.381  1.00  0.00    -0.248 NA
ATOM     57  C   UNL A   1      40.820  32.011  31.538  1.00  0.00     0.031 C 
ATOM     58  C   UNL A   1      45.245  28.407  31.920  1.00  0.00     0.029 A 
ATOM     59  C   UNL A   1      44.423  29.526  32.080  1.00  0.00     0.049 A 
ATOM     60  H   UNL A   1      44.795  31.383  31.153  1.00  0.00     0.167 HD
ATOM     61  C   UNL A   1      42.312  30.697  32.742  1.00  0.00     0.074 A 
ATOM     62  C   UNL A   1      42.106  31.658  31.657  1.00  0.00     0.031 C 
ATOM     63  C   UNL A   1      43.292  29.767  32.957  1.00  0.00     0.031 A 
BRANCH  50  64
ATOM     64  C   UNL A   1      45.406  31.344  28.134  1.00  0.00    -0.014 A 
ATOM     65  C   UNL A   1      44.397  32.273  27.829  1.00  0.00     0.010 A 
ATOM     66  C   UNL A   1      46.696  31.594  27.620  1.00  0.00     0.010 A 
ATOM     67  C   UNL A   1      44.658  33.367  26.999  1.00  0.00     0.020 A 
ATOM     68  C   UNL A   1      46.979  32.707  26.834  1.00  0.00     0.020 A 
ATOM     69  C   UNL A   1      45.946  33.566  26.497  1.00  0.00     0.054 A 
BRANCH  69  70
ATOM     70  S   UNL A   1      46.245  34.909  25.326  1.00  0.00     0.124 S 
ATOM     71  O   UNL A   1      47.659  34.725  25.017  1.00  0.00    -0.237 OA
ATOM     72  O   UNL A   1      45.310  34.592  24.250  1.00  0.00    -0.237 OA
ATOM     73  O   UNL A   1      45.922  36.111  26.093  1.00  0.00    -0.744 OA
ENDBRANCH  69  70
ENDBRANCH  50  64
BRANCH  51  74
ATOM     74  C   UNL A   1      37.620  31.353  32.274  1.00  0.00    -0.014 A 
ATOM     75  C   UNL A   1      37.075  31.900  33.451  1.00  0.00     0.010 A 
ATOM     76  C   UNL A   1      37.085  31.793  31.045  1.00  0.00     0.010 A 
ATOM     77  C   UNL A   1      36.071  32.885  33.394  1.00  0.00     0.020 A 
ATOM     78  C   UNL A   1      36.083  32.770  30.980  1.00  0.00     0.020 A 
ATOM     79  C   UNL A   1      35.594  33.328  32.157  1.00  0.00     0.054 A 
BRANCH  79  80
ATOM     80  S   UNL A   1      34.425  34.720  32.082  1.00  0.00     0.124 S 
ATOM     81  O   UNL A   1      34.331  34.972  30.647  1.00  0.00    -0.237 OA
ATOM     82  O   UNL A   1      33.228  34.165  32.707  1.00  0.00    -0.237 OA
ATOM     83  O   UNL A   1      35.089  35.770  32.852  1.00  0.00    -0.744 OA
ENDBRANCH  79  80
ENDBRANCH  51  74
BRANCH  63  84
ATOM     84  C   UNL A   1      43.071  28.745  34.054  1.00  0.00    -0.014 A 
ATOM     85  C   UNL A   1      42.228  27.622  33.911  1.00  0.00     0.010 A 
ATOM     86  C   UNL A   1      43.866  28.836  35.207  1.00  0.00     0.010 A 
ATOM     87  C   UNL A   1      42.159  26.639  34.912  1.00  0.00     0.020 A 
ATOM     88  C   UNL A   1      43.816  27.853  36.199  1.00  0.00     0.020 A 
ATOM     89  C   UNL A   1      42.953  26.765  36.055  1.00  0.00     0.054 A 
BRANCH  89  90
ATOM     90  S   UNL A   1      42.885  25.482  37.337  1.00  0.00     0.124 S 
ATOM     91  O   UNL A   1      43.090  26.247  38.562  1.00  0.00    -0.237 OA
ATOM     92  O   UNL A   1      41.548  24.916  37.165  1.00  0.00    -0.237 OA
ATOM     93  O   UNL A   1      43.979  24.578  36.982  1.00  0.00    -0.744 OA
ENDBRANCH  89  90
ENDBRANCH  63  84
ENDBRANCH  37  38
ENDBRANCH  30  32
ENDBRANCH  29  30
ENDBRANCH  28  29
ENDBRANCH   1  28
TORSDOF 18
ENDMDL
MODEL 3
REMARK VINA RESULT:     -11.0      3.271      8.344
REMARK SMILES Cc1nn(CC(=O)OCCOC(=O)c2ccc(-c3c4nc(c(-c5ccc(S(=O)(=O)[O-])cc5)c5ccc([nH]5)c(-c5ccc(S(=O)(=O)[O-])cc5)c5nc(c(-c6ccc(S(=O)(=O)[O-])cc6)c6ccc3[nH]6)C=C5)C=C4)cc2)c(C)c1NS(=O)(=O)c1cccc2cccnc12
REMARK SMILES IDX 9 1 8 2 6 3 7 4 5 5 4 6 1 7 2 8 3 9 76 10 74 11 75 12 77 13
REMARK SMILES IDX 78 15 79 16 80 17 81 18 82 19 90 20 83 21 85 22 89 23 84 24
REMARK SMILES IDX 86 25 88 26 87 27 10 28 11 29 12 30 13 31 14 32 15 33 73 34
REMARK SMILES IDX 16 35 72 36 17 37 18 38 19 39 66 40 20 41 71 42 65 43 67 44
REMARK SMILES IDX 21 45 70 46 64 47 63 48 22 50 52 51 33 52 51 53 34 54 37 55
REMARK SMILES IDX 50 56 68 57 35 58 36 59 49 61 69 62 38 63 23 64 24 65 32 66
REMARK SMILES IDX 25 67 31 68 26 69 27 70 28 71 29 72 30 73 53 74 54 75 62 76
REMARK SMILES IDX 55 77 61 78 56 79 57 80 58 81 59 82 60 83 39 84 40 85 48 86
REMARK SMILES IDX 41 87 47 88 42 89 43 90 44 91 45 92 46 93
REMARK H PARENT 77 14 67 49 37 60
REMARK Flexibility Score: inf
ROOT
ATOM      1  C   UNL A   1      35.138  31.471  27.812  1.00  0.00     0.274 C 
ENDROOT
BRANCH   1   2
ATOM      2  O   UNL A   1      34.522  30.177  27.586  1.00  0.00    -0.461 OA
BRANCH   2   3
ATOM      3  C   UNL A   1      33.395  30.137  26.825  1.00  0.00     0.327 C 
ATOM      4  O   UNL A   1      32.287  30.483  27.240  1.00  0.00    -0.250 OA
BRANCH   3   5
ATOM      5  C   UNL A   1      33.576  29.698  25.392  1.00  0.00     0.267 C 
BRANCH   5   6
ATOM      6  N   UNL A   1      32.625  28.722  24.908  1.00  0.00    -0.256 N 
ATOM      7  C   UNL A   1      29.579  27.943  23.331  1.00  0.00     0.071 C 
ATOM      8  C   UNL A   1      30.955  27.946  23.900  1.00  0.00     0.084 A 
ATOM      9  N   UNL A   1      31.445  29.097  24.390  1.00  0.00    -0.175 NA
ATOM     10  C   UNL A   1      31.848  26.853  24.172  1.00  0.00     0.093 A 
ATOM     11  C   UNL A   1      32.588  27.384  25.205  1.00  0.00     0.060 A 
ATOM     12  C   UNL A   1      33.080  26.836  26.480  1.00  0.00     0.069 C 
BRANCH  10  13
ATOM     13  N   UNL A   1      31.734  25.523  23.737  1.00  0.00    -0.276 N 
ATOM     14  H   UNL A   1      30.854  25.091  23.826  1.00  0.00     0.180 HD
BRANCH  13  15
ATOM     15  S   UNL A   1      33.007  24.593  23.064  1.00  0.00     0.264 S 
ATOM     16  O   UNL A   1      32.350  23.392  22.572  1.00  0.00    -0.201 OA
ATOM     17  O   UNL A   1      33.702  25.425  22.105  1.00  0.00    -0.201 OA
BRANCH  15  18
ATOM     18  C   UNL A   1      34.129  24.050  24.336  1.00  0.00     0.114 A 
ATOM     19  C   UNL A   1      35.508  24.186  24.072  1.00  0.00     0.024 A 
ATOM     20  C   UNL A   1      33.681  23.525  25.552  1.00  0.00     0.091 A 
ATOM     21  C   UNL A   1      36.452  23.647  24.938  1.00  0.00     0.002 A 
ATOM     22  C   UNL A   1      34.659  22.892  26.369  1.00  0.00     0.002 A 
ATOM     23  N   UNL A   1      32.405  23.583  25.978  1.00  0.00    -0.255 NA
ATOM     24  C   UNL A   1      36.022  22.949  26.056  1.00  0.00     0.010 A 
ATOM     25  C   UNL A   1      34.254  22.189  27.510  1.00  0.00     0.012 A 
ATOM     26  C   UNL A   1      32.082  23.033  27.169  1.00  0.00     0.112 A 
ATOM     27  C   UNL A   1      32.943  22.273  27.931  1.00  0.00     0.021 A 
ENDBRANCH  15  18
ENDBRANCH  13  15
ENDBRANCH  10  13
ENDBRANCH   5   6
ENDBRANCH   3   5
ENDBRANCH   2   3
ENDBRANCH   1   2
BRANCH   1  28
ATOM     28  C   UNL A   1      35.647  31.641  29.236  1.00  0.00     0.275 C 
BRANCH  28  29
ATOM     29  O   UNL A   1      36.195  30.405  29.668  1.00  0.00    -0.458 OA
BRANCH  29  30
ATOM     30  C   UNL A   1      37.532  30.376  29.480  1.00  0.00     0.338 C 
ATOM     31  O   UNL A   1      38.322  31.261  29.742  1.00  0.00    -0.246 OA
BRANCH  30  32
ATOM     32  C   UNL A   1      37.931  29.122  28.843  1.00  0.00     0.060 A 
ATOM     33  C   UNL A   1      38.321  28.133  29.754  1.00  0.00     0.016 A 
ATOM     34  C   UNL A   1      38.497  29.259  27.574  1.00  0.00     0.016 A 
ATOM     35  C   UNL A   1      39.553  27.575  29.570  1.00  0.00     0.010 A 
ATOM     36  C   UNL A   1      39.735  28.712  27.400  1.00  0.00     0.010 A 
ATOM     37  C   UNL A   1      40.286  28.008  28.468  1.00  0.00    -0.014 A 
BRANCH  37  38
ATOM     38  C   UNL A   1      41.690  27.714  28.456  1.00  0.00     0.031 A 
ATOM     39  C   UNL A   1      41.949  26.364  27.948  1.00  0.00     0.074 A 
ATOM     40  C   UNL A   1      42.620  28.616  28.806  1.00  0.00     0.049 A 
ATOM     41  N   UNL A   1      42.195  25.316  28.654  1.00  0.00    -0.248 NA
ATOM     42  C   UNL A   1      41.625  26.101  26.540  1.00  0.00     0.031 C 
ATOM     43  C   UNL A   1      42.489  30.047  29.088  1.00  0.00     0.029 A 
ATOM     44  N   UNL A   1      43.954  28.418  28.863  1.00  0.00    -0.354 N 
ATOM     45  C   UNL A   1      42.258  24.279  27.740  1.00  0.00     0.074 A 
ATOM     46  C   UNL A   1      41.645  24.769  26.531  1.00  0.00     0.031 C 
ATOM     47  C   UNL A   1      43.716  30.619  29.009  1.00  0.00     0.029 A 
ATOM     48  C   UNL A   1      44.711  29.574  28.806  1.00  0.00     0.049 A 
ATOM     49  H   UNL A   1      44.356  27.523  28.937  1.00  0.00     0.167 HD
ATOM     50  C   UNL A   1      43.056  23.199  27.942  1.00  0.00     0.031 A 
ATOM     51  C   UNL A   1      46.033  29.626  28.498  1.00  0.00     0.031 A 
ATOM     52  C   UNL A   1      43.593  23.174  29.277  1.00  0.00     0.049 A 
ATOM     53  C   UNL A   1      46.584  28.259  28.737  1.00  0.00     0.074 A 
ATOM     54  C   UNL A   1      43.043  23.061  30.538  1.00  0.00     0.029 A 
ATOM     55  N   UNL A   1      44.846  23.723  29.451  1.00  0.00    -0.354 N 
ATOM     56  N   UNL A   1      46.644  27.722  29.927  1.00  0.00    -0.248 NA
ATOM     57  C   UNL A   1      46.573  27.300  27.636  1.00  0.00     0.031 C 
ATOM     58  C   UNL A   1      43.795  23.956  31.353  1.00  0.00     0.029 A 
ATOM     59  C   UNL A   1      44.804  24.521  30.568  1.00  0.00     0.049 A 
ATOM     60  H   UNL A   1      45.632  23.570  28.878  1.00  0.00     0.167 HD
ATOM     61  C   UNL A   1      46.241  26.402  29.754  1.00  0.00     0.074 A 
ATOM     62  C   UNL A   1      46.307  26.174  28.310  1.00  0.00     0.031 C 
ATOM     63  C   UNL A   1      45.606  25.716  30.754  1.00  0.00     0.031 A 
BRANCH  50  64
ATOM     64  C   UNL A   1      43.658  22.413  26.816  1.00  0.00    -0.014 A 
ATOM     65  C   UNL A   1      42.915  21.360  26.257  1.00  0.00     0.010 A 
ATOM     66  C   UNL A   1      45.019  22.511  26.455  1.00  0.00     0.010 A 
ATOM     67  C   UNL A   1      43.525  20.417  25.423  1.00  0.00     0.020 A 
ATOM     68  C   UNL A   1      45.623  21.607  25.587  1.00  0.00     0.020 A 
ATOM     69  C   UNL A   1      44.879  20.542  25.107  1.00  0.00     0.054 A 
BRANCH  69  70
ATOM     70  S   UNL A   1      45.686  19.253  24.133  1.00  0.00     0.124 S 
ATOM     71  O   UNL A   1      44.784  19.134  22.991  1.00  0.00    -0.237 OA
ATOM     72  O   UNL A   1      46.990  19.847  23.856  1.00  0.00    -0.237 OA
ATOM     73  O   UNL A   1      45.707  18.104  25.036  1.00  0.00    -0.744 OA
ENDBRANCH  69  70
ENDBRANCH  50  64
BRANCH  51  74
ATOM     74  C   UNL A   1      46.702  30.647  27.648  1.00  0.00    -0.014 A 
ATOM     75  C   UNL A   1      45.972  31.653  26.988  1.00  0.00     0.010 A 
ATOM     76  C   UNL A   1      48.105  30.786  27.693  1.00  0.00     0.010 A 
ATOM     77  C   UNL A   1      46.620  32.778  26.441  1.00  0.00     0.020 A 
ATOM     78  C   UNL A   1      48.758  31.899  27.149  1.00  0.00     0.020 A 
ATOM     79  C   UNL A   1      48.009  32.903  26.542  1.00  0.00     0.054 A 
BRANCH  79  80
ATOM     80  S   UNL A   1      48.823  34.433  25.990  1.00  0.00     0.124 S 
ATOM     81  O   UNL A   1      48.839  35.235  27.210  1.00  0.00    -0.237 OA
ATOM     82  O   UNL A   1      50.123  33.955  25.530  1.00  0.00    -0.237 OA
ATOM     83  O   UNL A   1      47.943  34.930  24.934  1.00  0.00    -0.744 OA
ENDBRANCH  79  80
ENDBRANCH  51  74
BRANCH  63  84
ATOM     84  C   UNL A   1      45.523  26.369  32.119  1.00  0.00    -0.014 A 
ATOM     85  C   UNL A   1      44.509  27.279  32.485  1.00  0.00     0.010 A 
ATOM     86  C   UNL A   1      46.406  25.922  33.115  1.00  0.00     0.010 A 
ATOM     87  C   UNL A   1      44.405  27.754  33.802  1.00  0.00     0.020 A 
ATOM     88  C   UNL A   1      46.299  26.378  34.432  1.00  0.00     0.020 A 
ATOM     89  C   UNL A   1      45.308  27.302  34.768  1.00  0.00     0.054 A 
BRANCH  89  90
ATOM     90  S   UNL A   1      45.159  27.895  36.478  1.00  0.00     0.124 S 
ATOM     91  O   UNL A   1      45.051  26.652  37.236  1.00  0.00    -0.237 OA
ATOM     92  O   UNL A   1      46.398  28.646  36.674  1.00  0.00    -0.237 OA
ATOM     93  O   UNL A   1      43.947  28.714  36.457  1.00  0.00    -0.744 OA
ENDBRANCH  89  90
ENDBRANCH  63  84
ENDBRANCH  37  38
ENDBRANCH  30  32
ENDBRANCH  29  30
ENDBRANCH  28  29
ENDBRANCH   1  28
TORSDOF 18
ENDMDL
