MODEL 1
REMARK VINA RESULT:      -9.3      0.000      0.000
REMARK SMILES C[C@@H]1C[N@@H+]([C@@H](C)CC(=O)OCCOC(=O)c2ccc(-c3c4nc(c(-c5ccc(S(=O)(=O)[O-])cc5)c5ccc([nH]5)c(-c5ccc(S(=O)(=O)[O-])cc5)c5nc(c(-c6ccc(S(=O)(=O)[O-])cc6)c6ccc3[nH]6)C=C5)C=C4)cc2)C[C@H](C)O1
REMARK SMILES IDX 12 1 11 2 10 3 8 4 9 5 7 6 5 7 6 8 4 9 1 10 2 11 3 12 79 13
REMARK SMILES IDX 77 14 76 15 78 17 13 18 14 19 15 20 16 21 17 22 75 23 18 24
REMARK SMILES IDX 74 25 19 26 20 27 21 28 68 29 22 30 73 31 67 32 69 33 23 34
REMARK SMILES IDX 72 35 66 36 65 37 24 39 54 40 35 41 53 42 36 43 39 44 52 45
REMARK SMILES IDX 70 46 37 47 38 48 51 50 71 51 40 52 25 53 26 54 34 55 27 56
REMARK SMILES IDX 33 57 28 58 29 59 30 60 31 61 32 62 55 63 56 64 64 65 57 66
REMARK SMILES IDX 63 67 58 68 59 69 60 70 61 71 62 72 41 73 42 74 50 75 43 76
REMARK SMILES IDX 49 77 44 78 45 79 46 80 47 81 48 82
REMARK H PARENT 4 16 69 38 39 49
REMARK Flexibility Score: inf
ROOT
ATOM      1  C   UNL A   1      40.627  20.468  26.325  1.00  0.00     0.275 C 
ENDROOT
BRANCH   1   2
ATOM      2  C   UNL A   1      41.864  19.860  26.984  1.00  0.00     0.274 C 
BRANCH   2   3
ATOM      3  O   UNL A   1      43.009  19.980  26.121  1.00  0.00    -0.462 OA
BRANCH   3   4
ATOM      4  C   UNL A   1      43.366  18.883  25.413  1.00  0.00     0.311 C 
ATOM      5  O   UNL A   1      43.040  17.736  25.698  1.00  0.00    -0.252 OA
BRANCH   4   6
ATOM      6  C   UNL A   1      44.254  19.179  24.223  1.00  0.00     0.187 C 
BRANCH   6   7
ATOM      7  C   UNL A   1      45.525  20.013  24.488  1.00  0.00     0.192 C 
ATOM      8  C   UNL A   1      46.462  19.222  25.416  1.00  0.00     0.076 C 
BRANCH   7   9
ATOM      9  N   UNL A   1      45.236  21.382  24.952  1.00  0.00    -0.328 N 
ATOM     10  C   UNL A   1      42.794  23.498  25.118  1.00  0.00     0.045 C 
ATOM     11  C   UNL A   1      44.177  23.604  24.482  1.00  0.00     0.170 C 
ATOM     12  C   UNL A   1      44.682  22.261  23.906  1.00  0.00     0.294 C 
ATOM     13  O   UNL A   1      45.120  24.242  25.362  1.00  0.00    -0.364 OA
ATOM     14  C   UNL A   1      45.786  23.375  26.294  1.00  0.00     0.170 C 
ATOM     15  C   UNL A   1      46.327  22.098  25.622  1.00  0.00     0.294 C 
ATOM     16  H   UNL A   1      44.529  21.188  25.661  1.00  0.00     0.348 HD
ATOM     17  C   UNL A   1      44.924  23.074  27.521  1.00  0.00     0.045 C 
ENDBRANCH   7   9
ENDBRANCH   6   7
ENDBRANCH   4   6
ENDBRANCH   3   4
ENDBRANCH   2   3
ENDBRANCH   1   2
BRANCH   1  18
ATOM     18  O   UNL A   1      40.002  21.424  27.199  1.00  0.00    -0.458 OA
BRANCH  18  19
ATOM     19  C   UNL A   1      39.350  22.435  26.582  1.00  0.00     0.338 C 
ATOM     20  O   UNL A   1      38.409  22.358  25.807  1.00  0.00    -0.246 OA
BRANCH  19  21
ATOM     21  C   UNL A   1      39.870  23.711  27.086  1.00  0.00     0.060 A 
ATOM     22  C   UNL A   1      39.581  24.871  26.364  1.00  0.00     0.016 A 
ATOM     23  C   UNL A   1      40.683  23.759  28.219  1.00  0.00     0.016 A 
ATOM     24  C   UNL A   1      40.105  26.093  26.770  1.00  0.00     0.010 A 
ATOM     25  C   UNL A   1      41.204  24.990  28.630  1.00  0.00     0.010 A 
ATOM     26  C   UNL A   1      40.925  26.161  27.905  1.00  0.00    -0.014 A 
BRANCH  26  27
ATOM     27  C   UNL A   1      41.518  27.458  28.307  1.00  0.00     0.031 A 
ATOM     28  C   UNL A   1      43.002  27.660  28.216  1.00  0.00     0.074 A 
ATOM     29  C   UNL A   1      40.721  28.454  28.736  1.00  0.00     0.049 A 
ATOM     30  N   UNL A   1      43.720  28.682  28.603  1.00  0.00    -0.248 NA
ATOM     31  C   UNL A   1      43.780  26.570  27.607  1.00  0.00     0.031 C 
ATOM     32  C   UNL A   1      39.260  28.395  28.812  1.00  0.00     0.029 A 
ATOM     33  N   UNL A   1      41.031  29.711  29.188  1.00  0.00    -0.354 N 
ATOM     34  C   UNL A   1      45.038  28.350  28.308  1.00  0.00     0.074 A 
ATOM     35  C   UNL A   1      45.019  27.029  27.719  1.00  0.00     0.031 C 
ATOM     36  C   UNL A   1      38.800  29.569  29.276  1.00  0.00     0.029 A 
ATOM     37  C   UNL A   1      39.932  30.439  29.579  1.00  0.00     0.049 A 
ATOM     38  H   UNL A   1      41.950  30.059  29.228  1.00  0.00     0.167 HD
ATOM     39  C   UNL A   1      46.159  29.081  28.516  1.00  0.00     0.031 A 
ATOM     40  C   UNL A   1      39.850  31.658  30.147  1.00  0.00     0.031 A 
ATOM     41  C   UNL A   1      46.172  30.393  29.108  1.00  0.00     0.049 A 
ATOM     42  C   UNL A   1      41.114  32.417  30.437  1.00  0.00     0.074 A 
ATOM     43  C   UNL A   1      47.255  31.214  29.362  1.00  0.00     0.029 A 
ATOM     44  N   UNL A   1      45.044  31.073  29.540  1.00  0.00    -0.354 N 
ATOM     45  N   UNL A   1      42.354  32.081  30.176  1.00  0.00    -0.248 NA
ATOM     46  C   UNL A   1      40.966  33.715  31.111  1.00  0.00     0.031 C 
ATOM     47  C   UNL A   1      46.786  32.375  29.988  1.00  0.00     0.029 A 
ATOM     48  C   UNL A   1      45.406  32.295  30.083  1.00  0.00     0.049 A 
ATOM     49  H   UNL A   1      44.120  30.737  29.472  1.00  0.00     0.167 HD
ATOM     50  C   UNL A   1      43.137  33.128  30.648  1.00  0.00     0.074 A 
ATOM     51  C   UNL A   1      42.229  34.117  31.194  1.00  0.00     0.031 C 
ATOM     52  C   UNL A   1      44.486  33.258  30.634  1.00  0.00     0.031 A 
BRANCH  39  53
ATOM     53  C   UNL A   1      47.471  28.446  28.140  1.00  0.00    -0.014 A 
ATOM     54  C   UNL A   1      47.972  28.528  26.829  1.00  0.00     0.010 A 
ATOM     55  C   UNL A   1      48.213  27.759  29.118  1.00  0.00     0.010 A 
ATOM     56  C   UNL A   1      49.171  27.893  26.490  1.00  0.00     0.020 A 
ATOM     57  C   UNL A   1      49.422  27.141  28.788  1.00  0.00     0.020 A 
ATOM     58  C   UNL A   1      49.883  27.194  27.471  1.00  0.00     0.054 A 
BRANCH  58  59
ATOM     59  S   UNL A   1      51.432  26.370  27.007  1.00  0.00     0.124 S 
ATOM     60  O   UNL A   1      50.992  24.989  26.822  1.00  0.00    -0.237 OA
ATOM     61  O   UNL A   1      51.820  27.073  25.787  1.00  0.00    -0.237 OA
ATOM     62  O   UNL A   1      52.302  26.598  28.158  1.00  0.00    -0.744 OA
ENDBRANCH  58  59
ENDBRANCH  39  53
BRANCH  40  63
ATOM     63  C   UNL A   1      38.519  32.212  30.511  1.00  0.00    -0.014 A 
ATOM     64  C   UNL A   1      37.927  31.900  31.746  1.00  0.00     0.010 A 
ATOM     65  C   UNL A   1      37.850  33.083  29.630  1.00  0.00     0.010 A 
ATOM     66  C   UNL A   1      36.691  32.449  32.096  1.00  0.00     0.020 A 
ATOM     67  C   UNL A   1      36.624  33.651  29.986  1.00  0.00     0.020 A 
ATOM     68  C   UNL A   1      36.048  33.324  31.214  1.00  0.00     0.054 A 
BRANCH  68  69
ATOM     69  S   UNL A   1      34.480  34.088  31.719  1.00  0.00     0.124 S 
ATOM     70  O   UNL A   1      34.933  35.331  32.334  1.00  0.00    -0.237 OA
ATOM     71  O   UNL A   1      33.772  34.231  30.449  1.00  0.00    -0.237 OA
ATOM     72  O   UNL A   1      33.904  33.106  32.635  1.00  0.00    -0.744 OA
ENDBRANCH  68  69
ENDBRANCH  40  63
BRANCH  52  73
ATOM     73  C   UNL A   1      45.059  34.519  31.221  1.00  0.00    -0.014 A 
ATOM     74  C   UNL A   1      45.267  35.656  30.421  1.00  0.00     0.010 A 
ATOM     75  C   UNL A   1      45.349  34.579  32.596  1.00  0.00     0.010 A 
ATOM     76  C   UNL A   1      45.780  36.828  30.983  1.00  0.00     0.020 A 
ATOM     77  C   UNL A   1      45.844  35.756  33.164  1.00  0.00     0.020 A 
ATOM     78  C   UNL A   1      46.069  36.869  32.350  1.00  0.00     0.054 A 
BRANCH  78  79
ATOM     79  S   UNL A   1      46.696  38.413  33.068  1.00  0.00     0.124 S 
ATOM     80  O   UNL A   1      47.036  39.185  31.877  1.00  0.00    -0.237 OA
ATOM     81  O   UNL A   1      45.550  38.904  33.829  1.00  0.00    -0.237 OA
ATOM     82  O   UNL A   1      47.833  37.980  33.877  1.00  0.00    -0.744 OA
ENDBRANCH  78  79
ENDBRANCH  52  73
ENDBRANCH  26  27
ENDBRANCH  19  21
ENDBRANCH  18  19
ENDBRANCH   1  18
TORSDOF 16
ENDMDL
MODEL 2
REMARK VINA RESULT:      -8.9      2.257      2.939
REMARK SMILES C[C@@H]1C[N@@H+]([C@@H](C)CC(=O)OCCOC(=O)c2ccc(-c3c4nc(c(-c5ccc(S(=O)(=O)[O-])cc5)c5ccc([nH]5)c(-c5ccc(S(=O)(=O)[O-])cc5)c5nc(c(-c6ccc(S(=O)(=O)[O-])cc6)c6ccc3[nH]6)C=C5)C=C4)cc2)C[C@H](C)O1
REMARK SMILES IDX 12 1 11 2 10 3 8 4 9 5 7 6 5 7 6 8 4 9 1 10 2 11 3 12 79 13
REMARK SMILES IDX 77 14 76 15 78 17 13 18 14 19 15 20 16 21 17 22 75 23 18 24
REMARK SMILES IDX 74 25 19 26 20 27 21 28 68 29 22 30 73 31 67 32 69 33 23 34
REMARK SMILES IDX 72 35 66 36 65 37 24 39 54 40 35 41 53 42 36 43 39 44 52 45
REMARK SMILES IDX 70 46 37 47 38 48 51 50 71 51 40 52 25 53 26 54 34 55 27 56
REMARK SMILES IDX 33 57 28 58 29 59 30 60 31 61 32 62 55 63 56 64 64 65 57 66
REMARK SMILES IDX 63 67 58 68 59 69 60 70 61 71 62 72 41 73 42 74 50 75 43 76
REMARK SMILES IDX 49 77 44 78 45 79 46 80 47 81 48 82
REMARK H PARENT 4 16 69 38 39 49
REMARK Flexibility Score: inf
ROOT
ATOM      1  C   UNL A   1      40.317  21.576  26.233  1.00  0.00     0.275 C 
ENDROOT
BRANCH   1   2
ATOM      2  C   UNL A   1      41.153  21.030  27.390  1.00  0.00     0.274 C 
BRANCH   2   3
ATOM      3  O   UNL A   1      42.466  21.618  27.387  1.00  0.00    -0.462 OA
BRANCH   3   4
ATOM      4  C   UNL A   1      42.562  22.917  27.753  1.00  0.00     0.311 C 
ATOM      5  O   UNL A   1      42.017  23.403  28.738  1.00  0.00    -0.252 OA
BRANCH   4   6
ATOM      6  C   UNL A   1      43.392  23.764  26.812  1.00  0.00     0.187 C 
BRANCH   6   7
ATOM      7  C   UNL A   1      44.926  23.668  26.951  1.00  0.00     0.192 C 
ATOM      8  C   UNL A   1      45.291  23.559  28.441  1.00  0.00     0.076 C 
BRANCH   7   9
ATOM      9  N   UNL A   1      45.643  24.738  26.234  1.00  0.00    -0.328 N 
ATOM     10  C   UNL A   1      45.859  27.964  26.130  1.00  0.00     0.045 C 
ATOM     11  C   UNL A   1      45.533  26.941  25.045  1.00  0.00     0.170 C 
ATOM     12  C   UNL A   1      44.755  25.717  25.582  1.00  0.00     0.294 C 
ATOM     13  O   UNL A   1      46.700  26.589  24.279  1.00  0.00    -0.364 OA
ATOM     14  C   UNL A   1      47.502  25.528  24.822  1.00  0.00     0.170 C 
ATOM     15  C   UNL A   1      46.656  24.317  25.259  1.00  0.00     0.294 C 
ATOM     16  H   UNL A   1      46.142  25.173  27.009  1.00  0.00     0.348 HD
ATOM     17  C   UNL A   1      48.440  26.019  25.925  1.00  0.00     0.045 C 
ENDBRANCH   7   9
ENDBRANCH   6   7
ENDBRANCH   4   6
ENDBRANCH   3   4
ENDBRANCH   2   3
ENDBRANCH   1   2
BRANCH   1  18
ATOM     18  O   UNL A   1      39.045  22.054  26.705  1.00  0.00    -0.458 OA
BRANCH  18  19
ATOM     19  C   UNL A   1      38.580  23.165  26.093  1.00  0.00     0.338 C 
ATOM     20  O   UNL A   1      37.723  23.241  25.225  1.00  0.00    -0.246 OA
BRANCH  19  21
ATOM     21  C   UNL A   1      39.183  24.343  26.727  1.00  0.00     0.060 A 
ATOM     22  C   UNL A   1      38.866  24.607  28.061  1.00  0.00     0.016 A 
ATOM     23  C   UNL A   1      39.999  25.212  26.002  1.00  0.00     0.016 A 
ATOM     24  C   UNL A   1      39.364  25.747  28.684  1.00  0.00     0.010 A 
ATOM     25  C   UNL A   1      40.506  26.353  26.631  1.00  0.00     0.010 A 
ATOM     26  C   UNL A   1      40.185  26.631  27.972  1.00  0.00    -0.014 A 
BRANCH  26  27
ATOM     27  C   UNL A   1      40.676  27.867  28.625  1.00  0.00     0.031 A 
ATOM     28  C   UNL A   1      42.105  27.954  29.076  1.00  0.00     0.074 A 
ATOM     29  C   UNL A   1      39.844  28.911  28.795  1.00  0.00     0.049 A 
ATOM     30  N   UNL A   1      42.701  28.907  29.745  1.00  0.00    -0.248 NA
ATOM     31  C   UNL A   1      42.979  26.824  28.726  1.00  0.00     0.031 C 
ATOM     32  C   UNL A   1      38.451  28.964  28.346  1.00  0.00     0.029 A 
ATOM     33  N   UNL A   1      40.051  30.127  29.392  1.00  0.00    -0.354 N 
ATOM     34  C   UNL A   1      44.013  28.481  29.919  1.00  0.00     0.074 A 
ATOM     35  C   UNL A   1      44.122  27.181  29.293  1.00  0.00     0.031 C 
ATOM     36  C   UNL A   1      37.932  30.157  28.677  1.00  0.00     0.029 A 
ATOM     37  C   UNL A   1      38.935  30.929  29.406  1.00  0.00     0.049 A 
ATOM     38  H   UNL A   1      40.916  30.402  29.774  1.00  0.00     0.167 HD
ATOM     39  C   UNL A   1      45.030  29.116  30.549  1.00  0.00     0.031 A 
ATOM     40  C   UNL A   1      38.732  32.135  29.970  1.00  0.00     0.031 A 
ATOM     41  C   UNL A   1      44.914  30.408  31.174  1.00  0.00     0.049 A 
ATOM     42  C   UNL A   1      39.855  32.786  30.728  1.00  0.00     0.074 A 
ATOM     43  C   UNL A   1      45.886  31.136  31.837  1.00  0.00     0.029 A 
ATOM     44  N   UNL A   1      43.752  31.163  31.213  1.00  0.00    -0.354 N 
ATOM     45  N   UNL A   1      41.083  32.361  30.907  1.00  0.00    -0.248 NA
ATOM     46  C   UNL A   1      39.559  34.073  31.373  1.00  0.00     0.031 C 
ATOM     47  C   UNL A   1      45.298  32.313  32.317  1.00  0.00     0.029 A 
ATOM     48  C   UNL A   1      43.974  32.338  31.912  1.00  0.00     0.049 A 
ATOM     49  H   UNL A   1      42.894  30.902  30.805  1.00  0.00     0.167 HD
ATOM     50  C   UNL A   1      41.710  33.331  31.679  1.00  0.00     0.074 A 
ATOM     51  C   UNL A   1      40.732  34.373  31.919  1.00  0.00     0.031 C 
ATOM     52  C   UNL A   1      42.981  33.355  32.151  1.00  0.00     0.031 A 
BRANCH  39  53
ATOM     53  C   UNL A   1      46.347  28.391  30.629  1.00  0.00    -0.014 A 
ATOM     54  C   UNL A   1      47.349  28.591  29.664  1.00  0.00     0.010 A 
ATOM     55  C   UNL A   1      46.582  27.499  31.690  1.00  0.00     0.010 A 
ATOM     56  C   UNL A   1      48.548  27.874  29.733  1.00  0.00     0.020 A 
ATOM     57  C   UNL A   1      47.786  26.795  31.774  1.00  0.00     0.020 A 
ATOM     58  C   UNL A   1      48.753  26.972  30.782  1.00  0.00     0.054 A 
BRANCH  58  59
ATOM     59  S   UNL A   1      50.312  26.044  30.847  1.00  0.00     0.124 S 
ATOM     60  O   UNL A   1      51.286  27.070  30.480  1.00  0.00    -0.237 OA
ATOM     61  O   UNL A   1      50.365  25.597  32.236  1.00  0.00    -0.237 OA
ATOM     62  O   UNL A   1      50.123  24.983  29.861  1.00  0.00    -0.744 OA
ENDBRANCH  58  59
ENDBRANCH  39  53
BRANCH  40  63
ATOM     63  C   UNL A   1      37.397  32.781  29.867  1.00  0.00    -0.014 A 
ATOM     64  C   UNL A   1      36.475  32.690  30.923  1.00  0.00     0.010 A 
ATOM     65  C   UNL A   1      37.055  33.520  28.719  1.00  0.00     0.010 A 
ATOM     66  C   UNL A   1      35.234  33.327  30.833  1.00  0.00     0.020 A 
ATOM     67  C   UNL A   1      35.825  34.176  28.635  1.00  0.00     0.020 A 
ATOM     68  C   UNL A   1      34.918  34.069  29.691  1.00  0.00     0.054 A 
BRANCH  68  69
ATOM     69  S   UNL A   1      33.333  34.951  29.626  1.00  0.00     0.124 S 
ATOM     70  O   UNL A   1      32.554  34.108  28.725  1.00  0.00    -0.237 OA
ATOM     71  O   UNL A   1      32.908  34.948  31.023  1.00  0.00    -0.237 OA
ATOM     72  O   UNL A   1      33.697  36.265  29.098  1.00  0.00    -0.744 OA
ENDBRANCH  68  69
ENDBRANCH  40  63
BRANCH  52  73
ATOM     73  C   UNL A   1      43.385  34.552  32.967  1.00  0.00    -0.014 A 
ATOM     74  C   UNL A   1      43.715  35.770  32.347  1.00  0.00     0.010 A 
ATOM     75  C   UNL A   1      43.391  34.469  34.371  1.00  0.00     0.010 A 
ATOM     76  C   UNL A   1      44.069  36.879  33.117  1.00  0.00     0.020 A 
ATOM     77  C   UNL A   1      43.726  35.583  35.145  1.00  0.00     0.020 A 
ATOM     78  C   UNL A   1      44.076  36.779  34.512  1.00  0.00     0.054 A 
BRANCH  78  79
ATOM     79  S   UNL A   1      44.498  38.243  35.495  1.00  0.00     0.124 S 
ATOM     80  O   UNL A   1      43.997  39.327  34.656  1.00  0.00    -0.237 OA
ATOM     81  O   UNL A   1      43.764  38.020  36.739  1.00  0.00    -0.237 OA
ATOM     82  O   UNL A   1      45.952  38.169  35.617  1.00  0.00    -0.744 OA
ENDBRANCH  78  79
ENDBRANCH  52  73
ENDBRANCH  26  27
ENDBRANCH  19  21
ENDBRANCH  18  19
ENDBRANCH   1  18
TORSDOF 16
ENDMDL
MODEL 3
REMARK VINA RESULT:      -8.8      4.285     10.599
REMARK SMILES C[C@@H]1C[N@@H+]([C@@H](C)CC(=O)OCCOC(=O)c2ccc(-c3c4nc(c(-c5ccc(S(=O)(=O)[O-])cc5)c5ccc([nH]5)c(-c5ccc(S(=O)(=O)[O-])cc5)c5nc(c(-c6ccc(S(=O)(=O)[O-])cc6)c6ccc3[nH]6)C=C5)C=C4)cc2)C[C@H](C)O1
REMARK SMILES IDX 12 1 11 2 10 3 8 4 9 5 7 6 5 7 6 8 4 9 1 10 2 11 3 12 79 13
REMARK SMILES IDX 77 14 76 15 78 17 13 18 14 19 15 20 16 21 17 22 75 23 18 24
REMARK SMILES IDX 74 25 19 26 20 27 21 28 68 29 22 30 73 31 67 32 69 33 23 34
REMARK SMILES IDX 72 35 66 36 65 37 24 39 54 40 35 41 53 42 36 43 39 44 52 45
REMARK SMILES IDX 70 46 37 47 38 48 51 50 71 51 40 52 25 53 26 54 34 55 27 56
REMARK SMILES IDX 33 57 28 58 29 59 30 60 31 61 32 62 55 63 56 64 64 65 57 66
REMARK SMILES IDX 63 67 58 68 59 69 60 70 61 71 62 72 41 73 42 74 50 75 43 76
REMARK SMILES IDX 49 77 44 78 45 79 46 80 47 81 48 82
REMARK H PARENT 4 16 69 38 39 49
REMARK Flexibility Score: inf
ROOT
ATOM      1  C   UNL A   1      32.277  28.944  26.901  1.00  0.00     0.275 C 
ENDROOT
BRANCH   1   2
ATOM      2  C   UNL A   1      32.051  28.151  25.615  1.00  0.00     0.274 C 
BRANCH   2   3
ATOM      3  O   UNL A   1      31.908  26.748  25.904  1.00  0.00    -0.462 OA
BRANCH   3   4
ATOM      4  C   UNL A   1      30.737  26.163  25.563  1.00  0.00     0.311 C 
ATOM      5  O   UNL A   1      29.859  26.702  24.897  1.00  0.00    -0.252 OA
BRANCH   4   6
ATOM      6  C   UNL A   1      30.566  24.761  26.107  1.00  0.00     0.187 C 
BRANCH   6   7
ATOM      7  C   UNL A   1      30.925  23.594  25.162  1.00  0.00     0.192 C 
ATOM      8  C   UNL A   1      30.918  22.280  25.959  1.00  0.00     0.076 C 
BRANCH   7   9
ATOM      9  N   UNL A   1      32.163  23.827  24.397  1.00  0.00    -0.328 N 
ATOM     10  C   UNL A   1      33.597  26.102  22.598  1.00  0.00     0.045 C 
ATOM     11  C   UNL A   1      33.233  24.653  22.287  1.00  0.00     0.170 C 
ATOM     12  C   UNL A   1      31.933  24.192  22.987  1.00  0.00     0.294 C 
ATOM     13  O   UNL A   1      34.346  23.767  22.501  1.00  0.00    -0.364 OA
ATOM     14  C   UNL A   1      34.501  23.277  23.842  1.00  0.00     0.170 C 
ATOM     15  C   UNL A   1      33.174  22.765  24.436  1.00  0.00     0.294 C 
ATOM     16  H   UNL A   1      32.547  24.621  24.909  1.00  0.00     0.348 HD
ATOM     17  C   UNL A   1      35.200  24.290  24.750  1.00  0.00     0.045 C 
ENDBRANCH   7   9
ENDBRANCH   6   7
ENDBRANCH   4   6
ENDBRANCH   3   4
ENDBRANCH   2   3
ENDBRANCH   1   2
BRANCH   1  18
ATOM     18  O   UNL A   1      33.658  28.885  27.299  1.00  0.00    -0.458 OA
BRANCH  18  19
ATOM     19  C   UNL A   1      34.183  30.047  27.747  1.00  0.00     0.338 C 
ATOM     20  O   UNL A   1      33.606  31.107  27.935  1.00  0.00    -0.246 OA
BRANCH  19  21
ATOM     21  C   UNL A   1      35.586  29.824  28.114  1.00  0.00     0.060 A 
ATOM     22  C   UNL A   1      36.556  29.962  27.120  1.00  0.00     0.016 A 
ATOM     23  C   UNL A   1      35.937  29.421  29.403  1.00  0.00     0.016 A 
ATOM     24  C   UNL A   1      37.891  29.698  27.407  1.00  0.00     0.010 A 
ATOM     25  C   UNL A   1      37.280  29.163  29.693  1.00  0.00     0.010 A 
ATOM     26  C   UNL A   1      38.263  29.292  28.696  1.00  0.00    -0.014 A 
BRANCH  26  27
ATOM     27  C   UNL A   1      39.679  28.968  28.985  1.00  0.00     0.031 A 
ATOM     28  C   UNL A   1      40.566  30.001  29.618  1.00  0.00     0.074 A 
ATOM     29  C   UNL A   1      40.159  27.744  28.696  1.00  0.00     0.049 A 
ATOM     30  N   UNL A   1      41.849  29.944  29.867  1.00  0.00    -0.248 NA
ATOM     31  C   UNL A   1      39.926  31.260  30.028  1.00  0.00     0.031 C 
ATOM     32  C   UNL A   1      39.378  26.641  28.134  1.00  0.00     0.029 A 
ATOM     33  N   UNL A   1      41.420  27.225  28.837  1.00  0.00    -0.354 N 
ATOM     34  C   UNL A   1      42.176  31.169  30.438  1.00  0.00     0.074 A 
ATOM     35  C   UNL A   1      40.959  31.949  30.491  1.00  0.00     0.031 C 
ATOM     36  C   UNL A   1      40.177  25.572  27.985  1.00  0.00     0.029 A 
ATOM     37  C   UNL A   1      41.533  25.931  28.389  1.00  0.00     0.049 A 
ATOM     38  H   UNL A   1      42.172  27.731  29.221  1.00  0.00     0.167 HD
ATOM     39  C   UNL A   1      43.383  31.601  30.873  1.00  0.00     0.031 A 
ATOM     40  C   UNL A   1      42.614  25.134  28.287  1.00  0.00     0.031 A 
ATOM     41  C   UNL A   1      44.592  30.821  30.814  1.00  0.00     0.049 A 
ATOM     42  C   UNL A   1      43.957  25.664  28.706  1.00  0.00     0.074 A 
ATOM     43  C   UNL A   1      45.865  31.170  31.228  1.00  0.00     0.029 A 
ATOM     44  N   UNL A   1      44.675  29.535  30.304  1.00  0.00    -0.354 N 
ATOM     45  N   UNL A   1      44.256  26.832  29.222  1.00  0.00    -0.248 NA
ATOM     46  C   UNL A   1      45.109  24.771  28.517  1.00  0.00     0.031 C 
ATOM     47  C   UNL A   1      46.728  30.109  30.929  1.00  0.00     0.029 A 
ATOM     48  C   UNL A   1      45.983  29.083  30.369  1.00  0.00     0.049 A 
ATOM     49  H   UNL A   1      43.917  29.018  29.947  1.00  0.00     0.167 HD
ATOM     50  C   UNL A   1      45.630  26.814  29.425  1.00  0.00     0.074 A 
ATOM     51  C   UNL A   1      46.101  25.513  28.994  1.00  0.00     0.031 C 
ATOM     52  C   UNL A   1      46.432  27.789  29.920  1.00  0.00     0.031 A 
BRANCH  39  53
ATOM     53  C   UNL A   1      43.456  33.006  31.410  1.00  0.00    -0.014 A 
ATOM     54  C   UNL A   1      43.651  34.104  30.555  1.00  0.00     0.010 A 
ATOM     55  C   UNL A   1      43.324  33.226  32.793  1.00  0.00     0.010 A 
ATOM     56  C   UNL A   1      43.759  35.396  31.079  1.00  0.00     0.020 A 
ATOM     57  C   UNL A   1      43.412  34.518  33.319  1.00  0.00     0.020 A 
ATOM     58  C   UNL A   1      43.650  35.592  32.459  1.00  0.00     0.054 A 
BRANCH  58  59
ATOM     59  S   UNL A   1      43.804  37.276  33.119  1.00  0.00     0.124 S 
ATOM     60  O   UNL A   1      43.721  38.082  31.903  1.00  0.00    -0.237 OA
ATOM     61  O   UNL A   1      42.659  37.378  34.019  1.00  0.00    -0.237 OA
ATOM     62  O   UNL A   1      45.110  37.272  33.775  1.00  0.00    -0.744 OA
ENDBRANCH  58  59
ENDBRANCH  39  53
BRANCH  40  63
ATOM     63  C   UNL A   1      42.469  23.764  27.727  1.00  0.00    -0.014 A 
ATOM     64  C   UNL A   1      42.658  23.527  26.356  1.00  0.00     0.010 A 
ATOM     65  C   UNL A   1      42.169  22.681  28.576  1.00  0.00     0.010 A 
ATOM     66  C   UNL A   1      42.551  22.232  25.841  1.00  0.00     0.020 A 
ATOM     67  C   UNL A   1      42.083  21.382  28.068  1.00  0.00     0.020 A 
ATOM     68  C   UNL A   1      42.268  21.167  26.701  1.00  0.00     0.054 A 
BRANCH  68  69
ATOM     69  S   UNL A   1      42.209  19.483  26.027  1.00  0.00     0.124 S 
ATOM     70  O   UNL A   1      43.136  19.575  24.903  1.00  0.00    -0.237 OA
ATOM     71  O   UNL A   1      42.661  18.672  27.154  1.00  0.00    -0.237 OA
ATOM     72  O   UNL A   1      40.803  19.308  25.670  1.00  0.00    -0.744 OA
ENDBRANCH  68  69
ENDBRANCH  40  63
BRANCH  52  73
ATOM     73  C   UNL A   1      47.900  27.479  30.029  1.00  0.00    -0.014 A 
ATOM     74  C   UNL A   1      48.798  27.882  29.026  1.00  0.00     0.010 A 
ATOM     75  C   UNL A   1      48.390  26.818  31.169  1.00  0.00     0.010 A 
ATOM     76  C   UNL A   1      50.162  27.606  29.149  1.00  0.00     0.020 A 
ATOM     77  C   UNL A   1      49.756  26.557  31.304  1.00  0.00     0.020 A 
ATOM     78  C   UNL A   1      50.632  26.941  30.286  1.00  0.00     0.054 A 
BRANCH  78  79
ATOM     79  S   UNL A   1      52.412  26.628  30.446  1.00  0.00     0.124 S 
ATOM     80  O   UNL A   1      52.902  27.912  30.938  1.00  0.00    -0.237 OA
ATOM     81  O   UNL A   1      52.461  25.527  31.406  1.00  0.00    -0.237 OA
ATOM     82  O   UNL A   1      52.824  26.281  29.089  1.00  0.00    -0.744 OA
ENDBRANCH  78  79
ENDBRANCH  52  73
ENDBRANCH  26  27
ENDBRANCH  19  21
ENDBRANCH  18  19
ENDBRANCH   1  18
TORSDOF 16
ENDMDL
