MODEL 1
REMARK VINA RESULT:     -11.3      0.000      0.000
REMARK SMILES O=C(COc1ccc2c(c1)O/C(=C\c1cccs1)C2=O)OCCOC(=O)c1ccc(-c2c3nc(c(-c4ccc(S(=O)(=O)[O-])cc4)c4ccc([nH]4)c(-c4ccc(S(=O)(=O)[O-])cc4)c4nc(c(-c5ccc(S(=O)(=O)[O-])cc5)c5ccc2[nH]5)C=C4)C=C3)cc1
REMARK SMILES IDX 22 1 21 2 2 3 1 4 3 5 4 6 5 7 6 8 10 9 7 10 9 11 8 12 11 13
REMARK SMILES IDX 19 14 12 15 20 16 13 17 14 18 15 19 18 20 16 21 17 22 23 23
REMARK SMILES IDX 24 24 25 25 26 26 27 27 28 28 86 29 29 30 85 31 30 32 31 33
REMARK SMILES IDX 32 34 79 35 33 36 84 37 78 38 80 39 34 40 83 41 77 42 76 43
REMARK SMILES IDX 35 45 65 46 46 47 64 48 47 49 50 50 63 51 81 52 48 53 49 54
REMARK SMILES IDX 62 56 82 57 51 58 36 59 37 60 45 61 38 62 44 63 39 64 40 65
REMARK SMILES IDX 41 66 42 67 43 68 66 69 67 70 75 71 68 72 74 73 69 74 70 75
REMARK SMILES IDX 71 76 72 77 73 78 52 79 53 80 61 81 54 82 60 83 55 84 56 85
REMARK SMILES IDX 57 86 58 87 59 88
REMARK H PARENT 80 44 50 55
REMARK Flexibility Score: inf
ROOT
ATOM      1  C   UNL A   1      38.143  22.597  25.888  1.00  0.00     0.274 C 
ENDROOT
BRANCH   1   2
ATOM      2  O   UNL A   1      37.551  21.670  24.957  1.00  0.00    -0.460 OA
BRANCH   2   3
ATOM      3  C   UNL A   1      36.500  20.873  25.271  1.00  0.00     0.344 C 
ATOM      4  O   UNL A   1      36.477  19.699  24.902  1.00  0.00    -0.248 OA
BRANCH   3   5
ATOM      5  C   UNL A   1      35.396  21.446  26.149  1.00  0.00     0.351 C 
BRANCH   5   6
ATOM      6  O   UNL A   1      34.137  21.514  25.490  1.00  0.00    -0.482 OA
BRANCH   6   7
ATOM      7  C   UNL A   1      34.090  22.624  24.697  1.00  0.00     0.123 A 
ATOM      8  C   UNL A   1      34.015  22.499  23.293  1.00  0.00     0.047 A 
ATOM      9  C   UNL A   1      34.070  23.861  25.333  1.00  0.00     0.094 A 
ATOM     10  C   UNL A   1      33.943  23.631  22.486  1.00  0.00     0.020 A 
ATOM     11  C   UNL A   1      33.979  24.963  24.519  1.00  0.00     0.142 A 
ATOM     12  C   UNL A   1      33.912  24.848  23.132  1.00  0.00     0.069 A 
ATOM     13  O   UNL A   1      33.879  26.255  24.960  1.00  0.00    -0.452 OA
ATOM     14  C   UNL A   1      33.712  26.188  22.598  1.00  0.00     0.232 C 
ATOM     15  C   UNL A   1      33.653  27.025  23.823  1.00  0.00     0.176 C 
ATOM     16  O   UNL A   1      33.576  26.507  21.435  1.00  0.00    -0.285 OA
ATOM     17  C   UNL A   1      33.308  28.316  23.836  1.00  0.00     0.070 C 
BRANCH  17  18
ATOM     18  C   UNL A   1      33.211  29.007  25.073  1.00  0.00     0.031 A 
ATOM     19  C   UNL A   1      34.157  29.138  26.075  1.00  0.00     0.020 A 
ATOM     20  S   UNL A   1      31.747  29.794  25.509  1.00  0.00    -0.144 S 
ATOM     21  C   UNL A   1      33.672  29.853  27.206  1.00  0.00     0.012 A 
ATOM     22  C   UNL A   1      32.365  30.249  27.037  1.00  0.00     0.065 A 
ENDBRANCH  17  18
ENDBRANCH   6   7
ENDBRANCH   5   6
ENDBRANCH   3   5
ENDBRANCH   2   3
ENDBRANCH   1   2
BRANCH   1  23
ATOM     23  C   UNL A   1      39.486  22.077  26.406  1.00  0.00     0.275 C 
BRANCH  23  24
ATOM     24  O   UNL A   1      40.030  22.961  27.406  1.00  0.00    -0.458 OA
BRANCH  24  25
ATOM     25  C   UNL A   1      41.008  23.815  26.998  1.00  0.00     0.338 C 
ATOM     26  O   UNL A   1      41.695  23.711  26.000  1.00  0.00    -0.246 OA
BRANCH  25  27
ATOM     27  C   UNL A   1      40.940  25.026  27.852  1.00  0.00     0.060 A 
ATOM     28  C   UNL A   1      42.065  25.856  27.953  1.00  0.00     0.016 A 
ATOM     29  C   UNL A   1      39.753  25.370  28.501  1.00  0.00     0.016 A 
ATOM     30  C   UNL A   1      42.005  27.036  28.706  1.00  0.00     0.010 A 
ATOM     31  C   UNL A   1      39.700  26.536  29.267  1.00  0.00     0.010 A 
ATOM     32  C   UNL A   1      40.828  27.368  29.389  1.00  0.00    -0.014 A 
BRANCH  32  33
ATOM     33  C   UNL A   1      40.792  28.475  30.378  1.00  0.00     0.031 A 
ATOM     34  C   UNL A   1      41.709  28.392  31.568  1.00  0.00     0.074 A 
ATOM     35  C   UNL A   1      39.916  29.492  30.280  1.00  0.00     0.049 A 
ATOM     36  N   UNL A   1      41.752  29.142  32.637  1.00  0.00    -0.248 NA
ATOM     37  C   UNL A   1      42.696  27.302  31.551  1.00  0.00     0.031 C 
ATOM     38  C   UNL A   1      38.994  29.710  29.168  1.00  0.00     0.029 A 
ATOM     39  N   UNL A   1      39.640  30.515  31.156  1.00  0.00    -0.354 N 
ATOM     40  C   UNL A   1      42.753  28.600  33.434  1.00  0.00     0.074 A 
ATOM     41  C   UNL A   1      43.272  27.445  32.734  1.00  0.00     0.031 C 
ATOM     42  C   UNL A   1      38.229  30.782  29.444  1.00  0.00     0.029 A 
ATOM     43  C   UNL A   1      38.578  31.299  30.769  1.00  0.00     0.049 A 
ATOM     44  H   UNL A   1      40.153  30.672  31.980  1.00  0.00     0.167 HD
ATOM     45  C   UNL A   1      43.197  29.019  34.643  1.00  0.00     0.031 A 
ATOM     46  C   UNL A   1      37.934  32.290  31.420  1.00  0.00     0.031 A 
ATOM     47  C   UNL A   1      42.660  30.149  35.352  1.00  0.00     0.049 A 
ATOM     48  C   UNL A   1      38.396  32.706  32.795  1.00  0.00     0.074 A 
ATOM     49  C   UNL A   1      43.065  30.671  36.568  1.00  0.00     0.029 A 
ATOM     50  N   UNL A   1      41.588  30.918  34.923  1.00  0.00    -0.354 N 
ATOM     51  N   UNL A   1      39.375  32.216  33.519  1.00  0.00    -0.248 NA
ATOM     52  C   UNL A   1      37.674  33.814  33.439  1.00  0.00     0.031 C 
ATOM     53  C   UNL A   1      42.188  31.706  36.910  1.00  0.00     0.029 A 
ATOM     54  C   UNL A   1      41.292  31.886  35.868  1.00  0.00     0.049 A 
ATOM     55  H   UNL A   1      41.109  30.794  34.071  1.00  0.00     0.167 HD
ATOM     56  C   UNL A   1      39.404  32.973  34.686  1.00  0.00     0.074 A 
ATOM     57  C   UNL A   1      38.349  33.957  34.574  1.00  0.00     0.031 C 
ATOM     58  C   UNL A   1      40.241  32.867  35.750  1.00  0.00     0.031 A 
BRANCH  45  59
ATOM     59  C   UNL A   1      44.279  28.202  35.300  1.00  0.00    -0.014 A 
ATOM     60  C   UNL A   1      45.634  28.353  34.953  1.00  0.00     0.010 A 
ATOM     61  C   UNL A   1      43.928  27.258  36.283  1.00  0.00     0.010 A 
ATOM     62  C   UNL A   1      46.607  27.529  35.526  1.00  0.00     0.020 A 
ATOM     63  C   UNL A   1      44.901  26.459  36.885  1.00  0.00     0.020 A 
ATOM     64  C   UNL A   1      46.232  26.581  36.482  1.00  0.00     0.054 A 
BRANCH  64  65
ATOM     65  S   UNL A   1      47.511  25.509  37.191  1.00  0.00     0.124 S 
ATOM     66  O   UNL A   1      46.946  25.195  38.501  1.00  0.00    -0.237 OA
ATOM     67  O   UNL A   1      47.558  24.398  36.245  1.00  0.00    -0.237 OA
ATOM     68  O   UNL A   1      48.701  26.356  37.214  1.00  0.00    -0.744 OA
ENDBRANCH  64  65
ENDBRANCH  45  59
BRANCH  46  69
ATOM     69  C   UNL A   1      36.751  32.935  30.784  1.00  0.00    -0.014 A 
ATOM     70  C   UNL A   1      35.444  32.603  31.180  1.00  0.00     0.010 A 
ATOM     71  C   UNL A   1      36.935  33.927  29.801  1.00  0.00     0.010 A 
ATOM     72  C   UNL A   1      34.345  33.258  30.613  1.00  0.00     0.020 A 
ATOM     73  C   UNL A   1      35.841  34.603  29.254  1.00  0.00     0.020 A 
ATOM     74  C   UNL A   1      34.552  34.265  29.664  1.00  0.00     0.054 A 
BRANCH  74  75
ATOM     75  S   UNL A   1      33.119  35.181  29.033  1.00  0.00     0.124 S 
ATOM     76  O   UNL A   1      32.574  34.258  28.044  1.00  0.00    -0.237 OA
ATOM     77  O   UNL A   1      32.315  35.371  30.238  1.00  0.00    -0.237 OA
ATOM     78  O   UNL A   1      33.705  36.407  28.496  1.00  0.00    -0.744 OA
ENDBRANCH  74  75
ENDBRANCH  46  69
BRANCH  58  79
ATOM     79  C   UNL A   1      40.101  33.863  36.875  1.00  0.00    -0.014 A 
ATOM     80  C   UNL A   1      40.585  35.178  36.761  1.00  0.00     0.010 A 
ATOM     81  C   UNL A   1      39.366  33.504  38.021  1.00  0.00     0.010 A 
ATOM     82  C   UNL A   1      40.340  36.111  37.774  1.00  0.00     0.020 A 
ATOM     83  C   UNL A   1      39.095  34.441  39.021  1.00  0.00     0.020 A 
ATOM     84  C   UNL A   1      39.588  35.739  38.894  1.00  0.00     0.054 A 
BRANCH  84  85
ATOM     85  S   UNL A   1      39.210  36.993  40.151  1.00  0.00     0.124 S 
ATOM     86  O   UNL A   1      38.637  38.069  39.346  1.00  0.00    -0.237 OA
ATOM     87  O   UNL A   1      38.273  36.295  41.027  1.00  0.00    -0.237 OA
ATOM     88  O   UNL A   1      40.511  37.289  40.748  1.00  0.00    -0.744 OA
ENDBRANCH  84  85
ENDBRANCH  58  79
ENDBRANCH  32  33
ENDBRANCH  25  27
ENDBRANCH  24  25
ENDBRANCH  23  24
ENDBRANCH   1  23
TORSDOF 17
ENDMDL
MODEL 2
REMARK VINA RESULT:     -11.2      4.100     10.351
REMARK SMILES O=C(COc1ccc2c(c1)O/C(=C\c1cccs1)C2=O)OCCOC(=O)c1ccc(-c2c3nc(c(-c4ccc(S(=O)(=O)[O-])cc4)c4ccc([nH]4)c(-c4ccc(S(=O)(=O)[O-])cc4)c4nc(c(-c5ccc(S(=O)(=O)[O-])cc5)c5ccc2[nH]5)C=C4)C=C3)cc1
REMARK SMILES IDX 22 1 21 2 2 3 1 4 3 5 4 6 5 7 6 8 10 9 7 10 9 11 8 12 11 13
REMARK SMILES IDX 19 14 12 15 20 16 13 17 14 18 15 19 18 20 16 21 17 22 23 23
REMARK SMILES IDX 24 24 25 25 26 26 27 27 28 28 86 29 29 30 85 31 30 32 31 33
REMARK SMILES IDX 32 34 79 35 33 36 84 37 78 38 80 39 34 40 83 41 77 42 76 43
REMARK SMILES IDX 35 45 65 46 46 47 64 48 47 49 50 50 63 51 81 52 48 53 49 54
REMARK SMILES IDX 62 56 82 57 51 58 36 59 37 60 45 61 38 62 44 63 39 64 40 65
REMARK SMILES IDX 41 66 42 67 43 68 66 69 67 70 75 71 68 72 74 73 69 74 70 75
REMARK SMILES IDX 71 76 72 77 73 78 52 79 53 80 61 81 54 82 60 83 55 84 56 85
REMARK SMILES IDX 57 86 58 87 59 88
REMARK H PARENT 80 44 50 55
REMARK Flexibility Score: inf
ROOT
ATOM      1  C   UNL A   1      31.852  30.261  25.800  1.00  0.00     0.274 C 
ENDROOT
BRANCH   1   2
ATOM      2  O   UNL A   1      31.043  29.266  25.142  1.00  0.00    -0.460 OA
BRANCH   2   3
ATOM      3  C   UNL A   1      30.602  29.392  23.866  1.00  0.00     0.344 C 
ATOM      4  O   UNL A   1      29.739  30.222  23.585  1.00  0.00    -0.248 OA
BRANCH   3   5
ATOM      5  C   UNL A   1      31.257  28.538  22.789  1.00  0.00     0.351 C 
BRANCH   5   6
ATOM      6  O   UNL A   1      30.632  27.271  22.624  1.00  0.00    -0.482 OA
BRANCH   6   7
ATOM      7  C   UNL A   1      30.892  26.482  23.708  1.00  0.00     0.123 A 
ATOM      8  C   UNL A   1      29.855  26.116  24.593  1.00  0.00     0.047 A 
ATOM      9  C   UNL A   1      32.197  26.026  23.866  1.00  0.00     0.094 A 
ATOM     10  C   UNL A   1      30.117  25.293  25.685  1.00  0.00     0.020 A 
ATOM     11  C   UNL A   1      32.429  25.200  24.938  1.00  0.00     0.142 A 
ATOM     12  C   UNL A   1      31.412  24.840  25.820  1.00  0.00     0.069 A 
ATOM     13  O   UNL A   1      33.626  24.600  25.219  1.00  0.00    -0.452 OA
ATOM     14  C   UNL A   1      31.976  23.880  26.759  1.00  0.00     0.232 C 
ATOM     15  C   UNL A   1      33.375  23.740  26.284  1.00  0.00     0.176 C 
ATOM     16  O   UNL A   1      31.405  23.308  27.664  1.00  0.00    -0.285 OA
ATOM     17  C   UNL A   1      34.237  22.825  26.740  1.00  0.00     0.070 C 
BRANCH  17  18
ATOM     18  C   UNL A   1      35.532  22.728  26.165  1.00  0.00     0.031 A 
ATOM     19  C   UNL A   1      36.554  23.660  26.157  1.00  0.00     0.020 A 
ATOM     20  S   UNL A   1      35.988  21.315  25.300  1.00  0.00    -0.144 S 
ATOM     21  C   UNL A   1      37.692  23.230  25.419  1.00  0.00     0.012 A 
ATOM     22  C   UNL A   1      37.508  21.978  24.882  1.00  0.00     0.065 A 
ENDBRANCH  17  18
ENDBRANCH   6   7
ENDBRANCH   5   6
ENDBRANCH   3   5
ENDBRANCH   2   3
ENDBRANCH   1   2
BRANCH   1  23
ATOM     23  C   UNL A   1      33.244  29.713  26.123  1.00  0.00     0.275 C 
BRANCH  23  24
ATOM     24  O   UNL A   1      33.603  29.992  27.490  1.00  0.00    -0.458 OA
BRANCH  24  25
ATOM     25  C   UNL A   1      34.493  31.002  27.693  1.00  0.00     0.338 C 
ATOM     26  O   UNL A   1      34.249  32.193  27.718  1.00  0.00    -0.246 OA
BRANCH  25  27
ATOM     27  C   UNL A   1      35.780  30.396  28.113  1.00  0.00     0.060 A 
ATOM     28  C   UNL A   1      35.880  29.814  29.385  1.00  0.00     0.016 A 
ATOM     29  C   UNL A   1      36.863  30.352  27.234  1.00  0.00     0.016 A 
ATOM     30  C   UNL A   1      37.067  29.183  29.779  1.00  0.00     0.010 A 
ATOM     31  C   UNL A   1      38.052  29.740  27.636  1.00  0.00     0.010 A 
ATOM     32  C   UNL A   1      38.169  29.167  28.916  1.00  0.00    -0.014 A 
BRANCH  32  33
ATOM     33  C   UNL A   1      39.509  28.722  29.376  1.00  0.00     0.031 A 
ATOM     34  C   UNL A   1      40.371  29.711  30.111  1.00  0.00     0.074 A 
ATOM     35  C   UNL A   1      39.994  27.501  29.085  1.00  0.00     0.049 A 
ATOM     36  N   UNL A   1      41.623  29.616  30.472  1.00  0.00    -0.248 NA
ATOM     37  C   UNL A   1      39.731  30.987  30.470  1.00  0.00     0.031 C 
ATOM     38  C   UNL A   1      39.258  26.437  28.405  1.00  0.00     0.029 A 
ATOM     39  N   UNL A   1      41.243  26.967  29.297  1.00  0.00    -0.354 N 
ATOM     40  C   UNL A   1      41.932  30.828  31.076  1.00  0.00     0.074 A 
ATOM     41  C   UNL A   1      40.742  31.649  31.011  1.00  0.00     0.031 C 
ATOM     42  C   UNL A   1      40.080  25.387  28.227  1.00  0.00     0.029 A 
ATOM     43  C   UNL A   1      41.410  25.720  28.740  1.00  0.00     0.049 A 
ATOM     44  H   UNL A   1      41.950  27.431  29.800  1.00  0.00     0.167 HD
ATOM     45  C   UNL A   1      43.102  31.228  31.631  1.00  0.00     0.031 A 
ATOM     46  C   UNL A   1      42.514  24.953  28.620  1.00  0.00     0.031 A 
ATOM     47  C   UNL A   1      44.292  30.423  31.668  1.00  0.00     0.049 A 
ATOM     48  C   UNL A   1      43.827  25.436  29.184  1.00  0.00     0.074 A 
ATOM     49  C   UNL A   1      45.517  30.727  32.236  1.00  0.00     0.029 A 
ATOM     50  N   UNL A   1      44.418  29.165  31.097  1.00  0.00    -0.354 N 
ATOM     51  N   UNL A   1      44.096  26.565  29.795  1.00  0.00    -0.248 NA
ATOM     52  C   UNL A   1      44.986  24.539  29.049  1.00  0.00     0.031 C 
ATOM     53  C   UNL A   1      46.404  29.688  31.939  1.00  0.00     0.029 A 
ATOM     54  C   UNL A   1      45.710  28.696  31.264  1.00  0.00     0.049 A 
ATOM     55  H   UNL A   1      43.694  28.677  30.641  1.00  0.00     0.167 HD
ATOM     56  C   UNL A   1      45.442  26.501  30.144  1.00  0.00     0.074 A 
ATOM     57  C   UNL A   1      45.934  25.222  29.680  1.00  0.00     0.031 C 
ATOM     58  C   UNL A   1      46.196  27.418  30.801  1.00  0.00     0.031 A 
BRANCH  45  59
ATOM     59  C   UNL A   1      43.159  32.629  32.182  1.00  0.00    -0.014 A 
ATOM     60  C   UNL A   1      43.519  33.725  31.377  1.00  0.00     0.010 A 
ATOM     61  C   UNL A   1      42.851  32.849  33.537  1.00  0.00     0.010 A 
ATOM     62  C   UNL A   1      43.637  35.002  31.933  1.00  0.00     0.020 A 
ATOM     63  C   UNL A   1      42.930  34.129  34.087  1.00  0.00     0.020 A 
ATOM     64  C   UNL A   1      43.350  35.193  33.288  1.00  0.00     0.054 A 
BRANCH  64  65
ATOM     65  S   UNL A   1      43.533  36.855  33.988  1.00  0.00     0.124 S 
ATOM     66  O   UNL A   1      43.554  37.686  32.788  1.00  0.00    -0.237 OA
ATOM     67  O   UNL A   1      42.341  36.985  34.821  1.00  0.00    -0.237 OA
ATOM     68  O   UNL A   1      44.796  36.787  34.719  1.00  0.00    -0.744 OA
ENDBRANCH  64  65
ENDBRANCH  45  59
BRANCH  46  69
ATOM     69  C   UNL A   1      42.424  23.652  27.898  1.00  0.00    -0.014 A 
ATOM     70  C   UNL A   1      42.824  23.539  26.556  1.00  0.00     0.010 A 
ATOM     71  C   UNL A   1      41.976  22.501  28.576  1.00  0.00     0.010 A 
ATOM     72  C   UNL A   1      42.787  22.299  25.908  1.00  0.00     0.020 A 
ATOM     73  C   UNL A   1      41.965  21.257  27.941  1.00  0.00     0.020 A 
ATOM     74  C   UNL A   1      42.372  21.162  26.610  1.00  0.00     0.054 A 
BRANCH  74  75
ATOM     75  S   UNL A   1      42.447  19.548  25.786  1.00  0.00     0.124 S 
ATOM     76  O   UNL A   1      41.055  19.328  25.411  1.00  0.00    -0.237 OA
ATOM     77  O   UNL A   1      43.371  19.803  24.683  1.00  0.00    -0.237 OA
ATOM     78  O   UNL A   1      42.970  18.659  26.821  1.00  0.00    -0.744 OA
ENDBRANCH  74  75
ENDBRANCH  46  69
BRANCH  58  79
ATOM     79  C   UNL A   1      47.632  27.075  31.114  1.00  0.00    -0.014 A 
ATOM     80  C   UNL A   1      47.999  26.475  32.331  1.00  0.00     0.010 A 
ATOM     81  C   UNL A   1      48.612  27.252  30.119  1.00  0.00     0.010 A 
ATOM     82  C   UNL A   1      49.319  26.064  32.547  1.00  0.00     0.020 A 
ATOM     83  C   UNL A   1      49.924  26.817  30.319  1.00  0.00     0.020 A 
ATOM     84  C   UNL A   1      50.271  26.229  31.535  1.00  0.00     0.054 A 
BRANCH  84  85
ATOM     85  S   UNL A   1      51.954  25.607  31.808  1.00  0.00     0.124 S 
ATOM     86  O   UNL A   1      52.629  26.001  30.574  1.00  0.00    -0.237 OA
ATOM     87  O   UNL A   1      52.370  26.327  33.009  1.00  0.00    -0.237 OA
ATOM     88  O   UNL A   1      51.769  24.168  31.984  1.00  0.00    -0.744 OA
ENDBRANCH  84  85
ENDBRANCH  58  79
ENDBRANCH  32  33
ENDBRANCH  25  27
ENDBRANCH  24  25
ENDBRANCH  23  24
ENDBRANCH   1  23
TORSDOF 17
ENDMDL
MODEL 3
REMARK VINA RESULT:     -11.1      6.513     11.376
REMARK SMILES O=C(COc1ccc2c(c1)O/C(=C\c1cccs1)C2=O)OCCOC(=O)c1ccc(-c2c3nc(c(-c4ccc(S(=O)(=O)[O-])cc4)c4ccc([nH]4)c(-c4ccc(S(=O)(=O)[O-])cc4)c4nc(c(-c5ccc(S(=O)(=O)[O-])cc5)c5ccc2[nH]5)C=C4)C=C3)cc1
REMARK SMILES IDX 22 1 21 2 2 3 1 4 3 5 4 6 5 7 6 8 10 9 7 10 9 11 8 12 11 13
REMARK SMILES IDX 19 14 12 15 20 16 13 17 14 18 15 19 18 20 16 21 17 22 23 23
REMARK SMILES IDX 24 24 25 25 26 26 27 27 28 28 86 29 29 30 85 31 30 32 31 33
REMARK SMILES IDX 32 34 79 35 33 36 84 37 78 38 80 39 34 40 83 41 77 42 76 43
REMARK SMILES IDX 35 45 65 46 46 47 64 48 47 49 50 50 63 51 81 52 48 53 49 54
REMARK SMILES IDX 62 56 82 57 51 58 36 59 37 60 45 61 38 62 44 63 39 64 40 65
REMARK SMILES IDX 41 66 42 67 43 68 66 69 67 70 75 71 68 72 74 73 69 74 70 75
REMARK SMILES IDX 71 76 72 77 73 78 52 79 53 80 61 81 54 82 60 83 55 84 56 85
REMARK SMILES IDX 57 86 58 87 59 88
REMARK H PARENT 80 44 50 55
REMARK Flexibility Score: inf
ROOT
ATOM      1  C   UNL A   1      38.236  21.140  25.356  1.00  0.00     0.274 C 
ENDROOT
BRANCH   1   2
ATOM      2  O   UNL A   1      38.838  22.250  26.052  1.00  0.00    -0.460 OA
BRANCH   2   3
ATOM      3  C   UNL A   1      38.240  23.459  26.181  1.00  0.00     0.344 C 
ATOM      4  O   UNL A   1      38.915  24.486  26.227  1.00  0.00    -0.248 OA
BRANCH   3   5
ATOM      5  C   UNL A   1      36.718  23.514  26.190  1.00  0.00     0.351 C 
BRANCH   5   6
ATOM      6  O   UNL A   1      36.179  24.254  25.101  1.00  0.00    -0.482 OA
BRANCH   6   7
ATOM      7  C   UNL A   1      35.161  23.552  24.523  1.00  0.00     0.123 A 
ATOM      8  C   UNL A   1      34.381  24.132  23.500  1.00  0.00     0.047 A 
ATOM      9  C   UNL A   1      34.968  22.242  24.950  1.00  0.00     0.094 A 
ATOM     10  C   UNL A   1      33.358  23.406  22.895  1.00  0.00     0.020 A 
ATOM     11  C   UNL A   1      33.967  21.538  24.327  1.00  0.00     0.142 A 
ATOM     12  C   UNL A   1      33.187  22.107  23.321  1.00  0.00     0.069 A 
ATOM     13  O   UNL A   1      33.671  20.223  24.562  1.00  0.00    -0.452 OA
ATOM     14  C   UNL A   1      32.311  21.060  22.812  1.00  0.00     0.232 C 
ATOM     15  C   UNL A   1      32.711  19.878  23.616  1.00  0.00     0.176 C 
ATOM     16  O   UNL A   1      31.502  21.147  21.912  1.00  0.00    -0.285 OA
ATOM     17  C   UNL A   1      32.292  18.631  23.379  1.00  0.00     0.070 C 
BRANCH  17  18
ATOM     18  C   UNL A   1      32.793  17.558  24.164  1.00  0.00     0.031 A 
ATOM     19  C   UNL A   1      32.207  16.918  25.241  1.00  0.00     0.020 A 
ATOM     20  S   UNL A   1      34.352  16.910  23.843  1.00  0.00    -0.144 S 
ATOM     21  C   UNL A   1      33.045  15.925  25.820  1.00  0.00     0.012 A 
ATOM     22  C   UNL A   1      34.253  15.833  25.167  1.00  0.00     0.065 A 
ENDBRANCH  17  18
ENDBRANCH   6   7
ENDBRANCH   5   6
ENDBRANCH   3   5
ENDBRANCH   2   3
ENDBRANCH   1   2
BRANCH   1  23
ATOM     23  C   UNL A   1      39.115  19.890  25.445  1.00  0.00     0.275 C 
BRANCH  23  24
ATOM     24  O   UNL A   1      40.081  20.015  26.507  1.00  0.00    -0.458 OA
BRANCH  24  25
ATOM     25  C   UNL A   1      41.386  19.830  26.168  1.00  0.00     0.338 C 
ATOM     26  O   UNL A   1      41.849  18.898  25.538  1.00  0.00    -0.246 OA
BRANCH  25  27
ATOM     27  C   UNL A   1      42.122  21.075  26.494  1.00  0.00     0.060 A 
ATOM     28  C   UNL A   1      42.329  21.417  27.839  1.00  0.00     0.016 A 
ATOM     29  C   UNL A   1      42.655  21.871  25.479  1.00  0.00     0.016 A 
ATOM     30  C   UNL A   1      43.072  22.557  28.170  1.00  0.00     0.010 A 
ATOM     31  C   UNL A   1      43.380  23.017  25.810  1.00  0.00     0.010 A 
ATOM     32  C   UNL A   1      43.580  23.378  27.155  1.00  0.00    -0.014 A 
BRANCH  32  33
ATOM     33  C   UNL A   1      44.166  24.709  27.456  1.00  0.00     0.031 A 
ATOM     34  C   UNL A   1      43.230  25.839  27.781  1.00  0.00     0.074 A 
ATOM     35  C   UNL A   1      45.488  24.942  27.364  1.00  0.00     0.049 A 
ATOM     36  N   UNL A   1      43.482  27.114  27.922  1.00  0.00    -0.248 NA
ATOM     37  C   UNL A   1      41.813  25.479  27.952  1.00  0.00     0.031 C 
ATOM     38  C   UNL A   1      46.509  23.935  27.086  1.00  0.00     0.029 A 
ATOM     39  N   UNL A   1      46.192  26.120  27.463  1.00  0.00    -0.354 N 
ATOM     40  C   UNL A   1      42.254  27.713  28.172  1.00  0.00     0.074 A 
ATOM     41  C   UNL A   1      41.256  26.665  28.139  1.00  0.00     0.031 C 
ATOM     42  C   UNL A   1      47.707  24.543  27.004  1.00  0.00     0.029 A 
ATOM     43  C   UNL A   1      47.531  25.985  27.181  1.00  0.00     0.049 A 
ATOM     44  H   UNL A   1      45.777  26.976  27.713  1.00  0.00     0.167 HD
ATOM     45  C   UNL A   1      41.977  29.019  28.403  1.00  0.00     0.031 A 
ATOM     46  C   UNL A   1      48.497  26.918  27.041  1.00  0.00     0.031 A 
ATOM     47  C   UNL A   1      42.965  30.064  28.405  1.00  0.00     0.049 A 
ATOM     48  C   UNL A   1      48.164  28.376  27.235  1.00  0.00     0.074 A 
ATOM     49  C   UNL A   1      42.787  31.412  28.660  1.00  0.00     0.029 A 
ATOM     50  N   UNL A   1      44.310  29.885  28.120  1.00  0.00    -0.354 N 
ATOM     51  N   UNL A   1      47.007  28.927  27.517  1.00  0.00    -0.248 NA
ATOM     52  C   UNL A   1      49.268  29.340  27.100  1.00  0.00     0.031 C 
ATOM     53  C   UNL A   1      44.009  32.059  28.451  1.00  0.00     0.029 A 
ATOM     54  C   UNL A   1      44.967  31.104  28.153  1.00  0.00     0.049 A 
ATOM     55  H   UNL A   1      44.735  29.019  27.923  1.00  0.00     0.167 HD
ATOM     56  C   UNL A   1      47.249  30.293  27.624  1.00  0.00     0.074 A 
ATOM     57  C   UNL A   1      48.662  30.489  27.379  1.00  0.00     0.031 C 
ATOM     58  C   UNL A   1      46.377  31.293  27.910  1.00  0.00     0.031 A 
BRANCH  45  59
ATOM     59  C   UNL A   1      40.531  29.391  28.604  1.00  0.00    -0.014 A 
ATOM     60  C   UNL A   1      39.604  29.352  27.546  1.00  0.00     0.010 A 
ATOM     61  C   UNL A   1      40.095  29.794  29.879  1.00  0.00     0.010 A 
ATOM     62  C   UNL A   1      38.287  29.774  27.745  1.00  0.00     0.020 A 
ATOM     63  C   UNL A   1      38.770  30.181  30.091  1.00  0.00     0.020 A 
ATOM     64  C   UNL A   1      37.881  30.194  29.016  1.00  0.00     0.054 A 
BRANCH  64  65
ATOM     65  S   UNL A   1      36.173  30.759  29.240  1.00  0.00     0.124 S 
ATOM     66  O   UNL A   1      36.185  32.039  28.537  1.00  0.00    -0.237 OA
ATOM     67  O   UNL A   1      35.399  29.698  28.601  1.00  0.00    -0.237 OA
ATOM     68  O   UNL A   1      36.024  30.848  30.690  1.00  0.00    -0.744 OA
ENDBRANCH  64  65
ENDBRANCH  45  59
BRANCH  46  69
ATOM     69  C   UNL A   1      49.874  26.492  26.659  1.00  0.00    -0.014 A 
ATOM     70  C   UNL A   1      50.783  26.028  27.625  1.00  0.00     0.010 A 
ATOM     71  C   UNL A   1      50.265  26.509  25.306  1.00  0.00     0.010 A 
ATOM     72  C   UNL A   1      52.052  25.579  27.245  1.00  0.00     0.020 A 
ATOM     73  C   UNL A   1      51.521  26.034  24.920  1.00  0.00     0.020 A 
ATOM     74  C   UNL A   1      52.408  25.571  25.892  1.00  0.00     0.054 A 
BRANCH  74  75
ATOM     75  S   UNL A   1      54.012  24.873  25.412  1.00  0.00     0.124 S 
ATOM     76  O   UNL A   1      54.809  25.073  26.617  1.00  0.00    -0.237 OA
ATOM     77  O   UNL A   1      53.668  23.488  25.098  1.00  0.00    -0.237 OA
ATOM     78  O   UNL A   1      54.404  25.677  24.256  1.00  0.00    -0.744 OA
ENDBRANCH  74  75
ENDBRANCH  46  69
BRANCH  58  79
ATOM     79  C   UNL A   1      46.912  32.699  28.029  1.00  0.00    -0.014 A 
ATOM     80  C   UNL A   1      47.398  33.203  29.248  1.00  0.00     0.010 A 
ATOM     81  C   UNL A   1      47.035  33.486  26.868  1.00  0.00     0.010 A 
ATOM     82  C   UNL A   1      47.992  34.469  29.302  1.00  0.00     0.020 A 
ATOM     83  C   UNL A   1      47.653  34.738  26.913  1.00  0.00     0.020 A 
ATOM     84  C   UNL A   1      48.125  35.225  28.132  1.00  0.00     0.054 A 
BRANCH  84  85
ATOM     85  S   UNL A   1      48.978  36.824  28.215  1.00  0.00     0.124 S 
ATOM     86  O   UNL A   1      49.670  36.736  29.498  1.00  0.00    -0.237 OA
ATOM     87  O   UNL A   1      49.837  36.790  27.034  1.00  0.00    -0.237 OA
ATOM     88  O   UNL A   1      47.892  37.801  28.160  1.00  0.00    -0.744 OA
ENDBRANCH  84  85
ENDBRANCH  58  79
ENDBRANCH  32  33
ENDBRANCH  25  27
ENDBRANCH  24  25
ENDBRANCH  23  24
ENDBRANCH   1  23
TORSDOF 17
ENDMDL
