MODEL 1
REMARK VINA RESULT:     -11.7      0.000      0.000
REMARK SMILES O=C(N/N=C/c1ccccc1O)C(=O)Nc1cccc(C(=O)OCCOC(=O)c2ccc(-c3c4nc(c(-c5ccc(S(=O)(=O)[O-])cc5)c5ccc([nH]5)c(-c5ccc(S(=O)(=O)[O-])cc5)c5nc(c(-c6ccc(S(=O)(=O)[O-])cc6)c6ccc3[nH]6)C=C5)C=C4)cc2)c1
REMARK SMILES IDX 24 1 23 2 21 3 22 4 20 5 16 6 17 7 89 8 18 9 19 10 15 11
REMARK SMILES IDX 13 12 14 13 2 15 1 16 3 17 4 19 5 20 6 21 7 22 11 23 8 24
REMARK SMILES IDX 10 25 9 26 12 27 25 29 26 30 27 31 28 32 29 33 30 34 88 35
REMARK SMILES IDX 31 36 87 37 32 38 33 39 34 40 81 41 35 42 86 43 80 44 82 45
REMARK SMILES IDX 36 46 85 47 79 48 78 49 37 51 67 52 48 53 66 54 49 55 52 56
REMARK SMILES IDX 65 57 83 58 50 59 51 60 64 62 84 63 53 64 38 65 39 66 47 67
REMARK SMILES IDX 40 68 46 69 41 70 42 71 43 72 44 73 45 74 68 75 69 76 77 77
REMARK SMILES IDX 70 78 76 79 71 80 72 81 73 82 74 83 75 84 54 85 55 86 63 87
REMARK SMILES IDX 56 88 62 89 57 90 58 91 59 92 60 93 61 94
REMARK H PARENT 15 14 3 18 12 28 82 50 52 61
REMARK Flexibility Score: inf
ROOT
ATOM      1  C   UNL A   1      33.339  31.090  27.245  1.00  0.00     0.275 C 
ENDROOT
BRANCH   1   2
ATOM      2  O   UNL A   1      33.820  30.010  26.429  1.00  0.00    -0.458 OA
BRANCH   2   3
ATOM      3  C   UNL A   1      33.020  28.918  26.392  1.00  0.00     0.338 C 
ATOM      4  O   UNL A   1      32.604  28.278  27.346  1.00  0.00    -0.246 OA
BRANCH   3   5
ATOM      5  C   UNL A   1      32.693  28.543  25.001  1.00  0.00     0.062 A 
ATOM      6  C   UNL A   1      33.100  26.483  22.638  1.00  0.00     0.042 A 
ATOM      7  C   UNL A   1      31.410  26.805  22.057  1.00  0.00     0.026 A 
ATOM      8  C   UNL A   1      33.771  27.365  24.069  1.00  0.00     0.041 A 
ATOM      9  C   UNL A   1      30.372  28.062  22.923  1.00  0.00     0.003 A 
ATOM     10  C   UNL A   1      31.021  28.907  24.391  1.00  0.00     0.016 A 
BRANCH   6  11
ATOM     11  N   UNL A   1      33.496  25.156  22.448  1.00  0.00    -0.318 N 
ATOM     12  C   UNL A   1      32.915  24.025  23.014  1.00  0.00     0.315 C 
ATOM     13  O   UNL A   1      33.198  22.945  22.481  1.00  0.00    -0.263 OA
ATOM     14  H   UNL A   1      34.266  25.007  21.854  1.00  0.00     0.170 HD
BRANCH  12  15
ATOM     15  C   UNL A   1      31.921  23.964  24.205  1.00  0.00     0.329 C 
ATOM     16  O   UNL A   1      30.736  23.724  23.959  1.00  0.00    -0.262 OA
ATOM     17  N   UNL A   1      32.272  24.331  25.507  1.00  0.00    -0.239 N 
ATOM     18  H   UNL A   1      31.836  25.088  25.960  1.00  0.00     0.194 HD
BRANCH  17  19
ATOM     19  N   UNL A   1      33.240  23.601  26.125  1.00  0.00    -0.180 NA
ATOM     20  C   UNL A   1      34.524  24.089  25.992  1.00  0.00     0.145 C 
BRANCH  20  21
ATOM     21  C   UNL A   1      36.491  23.285  25.842  1.00  0.00     0.036 A 
ATOM     22  C   UNL A   1      37.813  23.926  26.300  1.00  0.00     0.013 A 
ATOM     23  C   UNL A   1      37.065  21.930  25.360  1.00  0.00     0.124 A 
ATOM     24  C   UNL A   1      39.116  23.384  26.492  1.00  0.00     0.001 A 
ATOM     25  C   UNL A   1      38.358  21.357  25.637  1.00  0.00     0.047 A 
ATOM     26  C   UNL A   1      39.363  22.067  26.245  1.00  0.00     0.004 A 
BRANCH  23  27
ATOM     27  O   UNL A   1      36.387  21.055  24.501  1.00  0.00    -0.507 OA
ATOM     28  H   UNL A   1      35.461  21.137  24.386  1.00  0.00     0.293 HD
ENDBRANCH  23  27
ENDBRANCH  20  21
ENDBRANCH  17  19
ENDBRANCH  12  15
ENDBRANCH   6  11
ENDBRANCH   3   5
ENDBRANCH   2   3
ENDBRANCH   1   2
BRANCH   1  29
ATOM     29  C   UNL A   1      34.391  31.546  28.256  1.00  0.00     0.275 C 
BRANCH  29  30
ATOM     30  O   UNL A   1      35.545  30.688  28.225  1.00  0.00    -0.458 OA
BRANCH  30  31
ATOM     31  C   UNL A   1      36.271  30.647  29.363  1.00  0.00     0.338 C 
ATOM     32  O   UNL A   1      35.969  31.063  30.471  1.00  0.00    -0.246 OA
BRANCH  31  33
ATOM     33  C   UNL A   1      37.533  29.934  29.137  1.00  0.00     0.060 A 
ATOM     34  C   UNL A   1      38.275  29.522  30.242  1.00  0.00     0.016 A 
ATOM     35  C   UNL A   1      38.078  29.869  27.856  1.00  0.00     0.016 A 
ATOM     36  C   UNL A   1      39.591  29.110  30.088  1.00  0.00     0.010 A 
ATOM     37  C   UNL A   1      39.377  29.379  27.693  1.00  0.00     0.010 A 
ATOM     38  C   UNL A   1      40.156  29.027  28.810  1.00  0.00    -0.014 A 
BRANCH  38  39
ATOM     39  C   UNL A   1      41.571  28.611  28.649  1.00  0.00     0.031 A 
ATOM     40  C   UNL A   1      42.675  29.618  28.820  1.00  0.00     0.074 A 
ATOM     41  C   UNL A   1      41.865  27.330  28.355  1.00  0.00     0.049 A 
ATOM     42  N   UNL A   1      43.948  29.500  28.546  1.00  0.00    -0.248 NA
ATOM     43  C   UNL A   1      42.297  30.933  29.363  1.00  0.00     0.031 C 
ATOM     44  C   UNL A   1      40.893  26.241  28.226  1.00  0.00     0.029 A 
ATOM     45  N   UNL A   1      43.073  26.725  28.108  1.00  0.00    -0.354 N 
ATOM     46  C   UNL A   1      44.514  30.738  28.827  1.00  0.00     0.074 A 
ATOM     47  C   UNL A   1      43.446  31.593  29.297  1.00  0.00     0.031 C 
ATOM     48  C   UNL A   1      41.541  25.102  27.946  1.00  0.00     0.029 A 
ATOM     49  C   UNL A   1      42.962  25.393  27.789  1.00  0.00     0.049 A 
ATOM     50  H   UNL A   1      43.934  27.200  28.156  1.00  0.00     0.167 HD
ATOM     51  C   UNL A   1      45.805  31.126  28.690  1.00  0.00     0.031 A 
ATOM     52  C   UNL A   1      43.888  24.513  27.366  1.00  0.00     0.031 A 
ATOM     53  C   UNL A   1      46.863  30.259  28.244  1.00  0.00     0.049 A 
ATOM     54  C   UNL A   1      45.303  24.979  27.176  1.00  0.00     0.074 A 
ATOM     55  C   UNL A   1      48.205  30.554  28.079  1.00  0.00     0.029 A 
ATOM     56  N   UNL A   1      46.702  28.926  27.900  1.00  0.00    -0.354 N 
ATOM     57  N   UNL A   1      45.813  26.168  27.395  1.00  0.00    -0.248 NA
ATOM     58  C   UNL A   1      46.264  23.990  26.671  1.00  0.00     0.031 C 
ATOM     59  C   UNL A   1      48.848  29.409  27.594  1.00  0.00     0.029 A 
ATOM     60  C   UNL A   1      47.916  28.386  27.510  1.00  0.00     0.049 A 
ATOM     61  H   UNL A   1      45.849  28.434  27.931  1.00  0.00     0.167 HD
ATOM     62  C   UNL A   1      47.159  26.065  27.065  1.00  0.00     0.074 A 
ATOM     63  C   UNL A   1      47.386  24.695  26.653  1.00  0.00     0.031 C 
ATOM     64  C   UNL A   1      48.121  27.022  27.099  1.00  0.00     0.031 A 
BRANCH  51  65
ATOM     65  C   UNL A   1      46.134  32.566  28.981  1.00  0.00    -0.014 A 
ATOM     66  C   UNL A   1      46.584  32.979  30.248  1.00  0.00     0.010 A 
ATOM     67  C   UNL A   1      46.028  33.518  27.950  1.00  0.00     0.010 A 
ATOM     68  C   UNL A   1      46.884  34.323  30.488  1.00  0.00     0.020 A 
ATOM     69  C   UNL A   1      46.351  34.859  28.179  1.00  0.00     0.020 A 
ATOM     70  C   UNL A   1      46.761  35.255  29.454  1.00  0.00     0.054 A 
BRANCH  70  71
ATOM     71  S   UNL A   1      47.174  36.990  29.787  1.00  0.00     0.124 S 
ATOM     72  O   UNL A   1      47.424  37.501  28.442  1.00  0.00    -0.237 OA
ATOM     73  O   UNL A   1      45.962  37.489  30.433  1.00  0.00    -0.237 OA
ATOM     74  O   UNL A   1      48.349  36.908  30.651  1.00  0.00    -0.744 OA
ENDBRANCH  70  71
ENDBRANCH  51  65
BRANCH  52  75
ATOM     75  C   UNL A   1      43.487  23.118  27.043  1.00  0.00    -0.014 A 
ATOM     76  C   UNL A   1      43.754  22.571  25.777  1.00  0.00     0.010 A 
ATOM     77  C   UNL A   1      42.862  22.317  28.017  1.00  0.00     0.010 A 
ATOM     78  C   UNL A   1      43.397  21.252  25.487  1.00  0.00     0.020 A 
ATOM     79  C   UNL A   1      42.530  20.988  27.741  1.00  0.00     0.020 A 
ATOM     80  C   UNL A   1      42.790  20.468  26.473  1.00  0.00     0.054 A 
BRANCH  80  81
ATOM     81  S   UNL A   1      42.395  18.737  26.098  1.00  0.00     0.124 S 
ATOM     82  O   UNL A   1      42.670  18.081  27.372  1.00  0.00    -0.237 OA
ATOM     83  O   UNL A   1      40.986  18.810  25.714  1.00  0.00    -0.237 OA
ATOM     84  O   UNL A   1      43.311  18.407  25.008  1.00  0.00    -0.744 OA
ENDBRANCH  80  81
ENDBRANCH  52  75
BRANCH  64  85
ATOM     85  C   UNL A   1      49.513  26.606  26.710  1.00  0.00    -0.014 A 
ATOM     86  C   UNL A   1      50.404  26.073  27.657  1.00  0.00     0.010 A 
ATOM     87  C   UNL A   1      49.917  26.715  25.368  1.00  0.00     0.010 A 
ATOM     88  C   UNL A   1      51.691  25.685  27.272  1.00  0.00     0.020 A 
ATOM     89  C   UNL A   1      51.193  26.306  24.975  1.00  0.00     0.020 A 
ATOM     90  C   UNL A   1      52.078  25.808  25.934  1.00  0.00     0.054 A 
BRANCH  90  91
ATOM     91  S   UNL A   1      53.738  25.264  25.450  1.00  0.00     0.124 S 
ATOM     92  O   UNL A   1      54.217  26.406  24.675  1.00  0.00    -0.237 OA
ATOM     93  O   UNL A   1      54.398  25.057  26.736  1.00  0.00    -0.237 OA
ATOM     94  O   UNL A   1      53.493  24.047  24.680  1.00  0.00    -0.744 OA
ENDBRANCH  90  91
ENDBRANCH  64  85
ENDBRANCH  38  39
ENDBRANCH  31  33
ENDBRANCH  30  31
ENDBRANCH  29  30
ENDBRANCH   1  29
TORSDOF 19
ENDMDL
MODEL 2
REMARK VINA RESULT:     -11.4      6.174     11.874
REMARK SMILES O=C(N/N=C/c1ccccc1O)C(=O)Nc1cccc(C(=O)OCCOC(=O)c2ccc(-c3c4nc(c(-c5ccc(S(=O)(=O)[O-])cc5)c5ccc([nH]5)c(-c5ccc(S(=O)(=O)[O-])cc5)c5nc(c(-c6ccc(S(=O)(=O)[O-])cc6)c6ccc3[nH]6)C=C5)C=C4)cc2)c1
REMARK SMILES IDX 24 1 23 2 21 3 22 4 20 5 16 6 17 7 89 8 18 9 19 10 15 11
REMARK SMILES IDX 13 12 14 13 2 15 1 16 3 17 4 19 5 20 6 21 7 22 11 23 8 24
REMARK SMILES IDX 10 25 9 26 12 27 25 29 26 30 27 31 28 32 29 33 30 34 88 35
REMARK SMILES IDX 31 36 87 37 32 38 33 39 34 40 81 41 35 42 86 43 80 44 82 45
REMARK SMILES IDX 36 46 85 47 79 48 78 49 37 51 67 52 48 53 66 54 49 55 52 56
REMARK SMILES IDX 65 57 83 58 50 59 51 60 64 62 84 63 53 64 38 65 39 66 47 67
REMARK SMILES IDX 40 68 46 69 41 70 42 71 43 72 44 73 45 74 68 75 69 76 77 77
REMARK SMILES IDX 70 78 76 79 71 80 72 81 73 82 74 83 75 84 54 85 55 86 63 87
REMARK SMILES IDX 56 88 62 89 57 90 58 91 59 92 60 93 61 94
REMARK H PARENT 15 14 3 18 12 28 82 50 52 61
REMARK Flexibility Score: inf
ROOT
ATOM      1  C   UNL A   1      37.967  22.829  25.855  1.00  0.00     0.275 C 
ENDROOT
BRANCH   1   2
ATOM      2  O   UNL A   1      37.597  22.308  24.568  1.00  0.00    -0.458 OA
BRANCH   2   3
ATOM      3  C   UNL A   1      36.425  22.775  24.074  1.00  0.00     0.338 C 
ATOM      4  O   UNL A   1      36.272  23.492  23.097  1.00  0.00    -0.246 OA
BRANCH   3   5
ATOM      5  C   UNL A   1      35.282  22.320  24.892  1.00  0.00     0.062 A 
ATOM      6  C   UNL A   1      32.775  23.128  26.640  1.00  0.00     0.042 A 
ATOM      7  C   UNL A   1      31.911  21.621  26.109  1.00  0.00     0.026 A 
ATOM      8  C   UNL A   1      34.463  23.472  26.083  1.00  0.00     0.041 A 
ATOM      9  C   UNL A   1      32.772  20.416  25.007  1.00  0.00     0.003 A 
ATOM     10  C   UNL A   1      34.442  20.785  24.402  1.00  0.00     0.016 A 
BRANCH   6  11
ATOM     11  N   UNL A   1      31.914  24.215  26.814  1.00  0.00    -0.318 N 
ATOM     12  C   UNL A   1      31.263  24.929  25.813  1.00  0.00     0.315 C 
ATOM     13  O   UNL A   1      30.313  25.633  26.179  1.00  0.00    -0.263 OA
ATOM     14  H   UNL A   1      31.753  24.504  27.741  1.00  0.00     0.170 HD
BRANCH  12  15
ATOM     15  C   UNL A   1      31.559  24.914  24.289  1.00  0.00     0.329 C 
ATOM     16  O   UNL A   1      30.831  24.231  23.564  1.00  0.00    -0.262 OA
ATOM     17  N   UNL A   1      32.701  25.496  23.732  1.00  0.00    -0.239 N 
ATOM     18  H   UNL A   1      33.373  24.952  23.260  1.00  0.00     0.194 HD
BRANCH  17  19
ATOM     19  N   UNL A   1      32.848  26.842  23.867  1.00  0.00    -0.180 NA
ATOM     20  C   UNL A   1      33.677  27.246  24.893  1.00  0.00     0.145 C 
BRANCH  20  21
ATOM     21  C   UNL A   1      33.789  28.880  26.256  1.00  0.00     0.036 A 
ATOM     22  C   UNL A   1      34.919  29.210  27.247  1.00  0.00     0.013 A 
ATOM     23  C   UNL A   1      32.893  30.113  26.533  1.00  0.00     0.124 A 
ATOM     24  C   UNL A   1      35.218  30.387  27.991  1.00  0.00     0.001 A 
ATOM     25  C   UNL A   1      33.240  31.335  27.213  1.00  0.00     0.047 A 
ATOM     26  C   UNL A   1      34.419  31.488  27.897  1.00  0.00     0.004 A 
BRANCH  23  27
ATOM     27  O   UNL A   1      31.538  30.188  26.185  1.00  0.00    -0.507 OA
ATOM     28  H   UNL A   1      30.881  29.954  26.811  1.00  0.00     0.293 HD
ENDBRANCH  23  27
ENDBRANCH  20  21
ENDBRANCH  17  19
ENDBRANCH  12  15
ENDBRANCH   6  11
ENDBRANCH   3   5
ENDBRANCH   2   3
ENDBRANCH   1   2
BRANCH   1  29
ATOM     29  C   UNL A   1      39.437  22.556  26.173  1.00  0.00     0.275 C 
BRANCH  29  30
ATOM     30  O   UNL A   1      39.899  23.394  27.246  1.00  0.00    -0.458 OA
BRANCH  30  31
ATOM     31  C   UNL A   1      40.783  24.353  26.895  1.00  0.00     0.338 C 
ATOM     32  O   UNL A   1      41.625  24.322  26.010  1.00  0.00    -0.246 OA
BRANCH  31  33
ATOM     33  C   UNL A   1      40.572  25.561  27.700  1.00  0.00     0.060 A 
ATOM     34  C   UNL A   1      41.582  26.519  27.746  1.00  0.00     0.016 A 
ATOM     35  C   UNL A   1      39.484  25.639  28.569  1.00  0.00     0.016 A 
ATOM     36  C   UNL A   1      41.553  27.522  28.704  1.00  0.00     0.010 A 
ATOM     37  C   UNL A   1      39.417  26.696  29.481  1.00  0.00     0.010 A 
ATOM     38  C   UNL A   1      40.466  27.627  29.579  1.00  0.00    -0.014 A 
BRANCH  38  39
ATOM     39  C   UNL A   1      40.448  28.684  30.621  1.00  0.00     0.031 A 
ATOM     40  C   UNL A   1      41.414  28.623  31.772  1.00  0.00     0.074 A 
ATOM     41  C   UNL A   1      39.570  29.701  30.529  1.00  0.00     0.049 A 
ATOM     42  N   UNL A   1      41.439  29.338  32.866  1.00  0.00    -0.248 NA
ATOM     43  C   UNL A   1      42.488  27.619  31.686  1.00  0.00     0.031 C 
ATOM     44  C   UNL A   1      38.624  29.914  29.430  1.00  0.00     0.029 A 
ATOM     45  N   UNL A   1      39.329  30.752  31.380  1.00  0.00    -0.354 N 
ATOM     46  C   UNL A   1      42.490  28.836  33.624  1.00  0.00     0.074 A 
ATOM     47  C   UNL A   1      43.083  27.757  32.863  1.00  0.00     0.031 C 
ATOM     48  C   UNL A   1      37.922  31.033  29.663  1.00  0.00     0.029 A 
ATOM     49  C   UNL A   1      38.304  31.568  30.964  1.00  0.00     0.049 A 
ATOM     50  H   UNL A   1      39.841  30.904  32.207  1.00  0.00     0.167 HD
ATOM     51  C   UNL A   1      42.912  29.233  34.849  1.00  0.00     0.031 A 
ATOM     52  C   UNL A   1      37.701  32.601  31.582  1.00  0.00     0.031 A 
ATOM     53  C   UNL A   1      42.329  30.323  35.586  1.00  0.00     0.049 A 
ATOM     54  C   UNL A   1      38.154  32.992  32.959  1.00  0.00     0.074 A 
ATOM     55  C   UNL A   1      42.688  30.809  36.832  1.00  0.00     0.029 A 
ATOM     56  N   UNL A   1      41.272  31.103  35.142  1.00  0.00    -0.354 N 
ATOM     57  N   UNL A   1      39.116  32.474  33.686  1.00  0.00    -0.248 NA
ATOM     58  C   UNL A   1      37.434  34.096  33.605  1.00  0.00     0.031 C 
ATOM     59  C   UNL A   1      41.820  31.856  37.159  1.00  0.00     0.029 A 
ATOM     60  C   UNL A   1      40.956  32.058  36.095  1.00  0.00     0.049 A 
ATOM     61  H   UNL A   1      40.815  30.995  34.277  1.00  0.00     0.167 HD
ATOM     62  C   UNL A   1      39.122  33.199  34.872  1.00  0.00     0.074 A 
ATOM     63  C   UNL A   1      38.085  34.203  34.754  1.00  0.00     0.031 C 
ATOM     64  C   UNL A   1      39.917  33.046  35.961  1.00  0.00     0.031 A 
BRANCH  51  65
ATOM     65  C   UNL A   1      44.026  28.451  35.490  1.00  0.00    -0.014 A 
ATOM     66  C   UNL A   1      43.773  27.306  36.266  1.00  0.00     0.010 A 
ATOM     67  C   UNL A   1      45.359  28.850  35.278  1.00  0.00     0.010 A 
ATOM     68  C   UNL A   1      44.829  26.598  36.848  1.00  0.00     0.020 A 
ATOM     69  C   UNL A   1      46.420  28.132  35.837  1.00  0.00     0.020 A 
ATOM     70  C   UNL A   1      46.145  27.018  36.634  1.00  0.00     0.054 A 
BRANCH  70  71
ATOM     71  S   UNL A   1      47.498  26.072  37.386  1.00  0.00     0.124 S 
ATOM     72  O   UNL A   1      47.271  26.308  38.810  1.00  0.00    -0.237 OA
ATOM     73  O   UNL A   1      47.233  24.712  36.925  1.00  0.00    -0.237 OA
ATOM     74  O   UNL A   1      48.702  26.691  36.836  1.00  0.00    -0.744 OA
ENDBRANCH  70  71
ENDBRANCH  51  65
BRANCH  52  75
ATOM     75  C   UNL A   1      36.568  33.298  30.917  1.00  0.00    -0.014 A 
ATOM     76  C   UNL A   1      35.285  33.283  31.487  1.00  0.00     0.010 A 
ATOM     77  C   UNL A   1      36.778  34.009  29.721  1.00  0.00     0.010 A 
ATOM     78  C   UNL A   1      34.230  33.960  30.871  1.00  0.00     0.020 A 
ATOM     79  C   UNL A   1      35.733  34.712  29.117  1.00  0.00     0.020 A 
ATOM     80  C   UNL A   1      34.462  34.674  29.691  1.00  0.00     0.054 A 
BRANCH  80  81
ATOM     81  S   UNL A   1      33.093  35.601  28.942  1.00  0.00     0.124 S 
ATOM     82  O   UNL A   1      32.394  34.559  28.199  1.00  0.00    -0.237 OA
ATOM     83  O   UNL A   1      32.390  36.126  30.110  1.00  0.00    -0.237 OA
ATOM     84  O   UNL A   1      33.770  36.609  28.128  1.00  0.00    -0.744 OA
ENDBRANCH  80  81
ENDBRANCH  52  75
BRANCH  64  85
ATOM     85  C   UNL A   1      39.713  34.010  37.097  1.00  0.00    -0.014 A 
ATOM     86  C   UNL A   1      39.091  33.607  38.291  1.00  0.00     0.010 A 
ATOM     87  C   UNL A   1      40.189  35.328  36.978  1.00  0.00     0.010 A 
ATOM     88  C   UNL A   1      38.919  34.517  39.337  1.00  0.00     0.020 A 
ATOM     89  C   UNL A   1      40.042  36.233  38.031  1.00  0.00     0.020 A 
ATOM     90  C   UNL A   1      39.393  35.826  39.199  1.00  0.00     0.054 A 
BRANCH  90  91
ATOM     91  S   UNL A   1      39.192  36.980  40.583  1.00  0.00     0.124 S 
ATOM     92  O   UNL A   1      38.061  36.399  41.300  1.00  0.00    -0.237 OA
ATOM     93  O   UNL A   1      40.481  36.893  41.265  1.00  0.00    -0.237 OA
ATOM     94  O   UNL A   1      38.926  38.260  39.931  1.00  0.00    -0.744 OA
ENDBRANCH  90  91
ENDBRANCH  64  85
ENDBRANCH  38  39
ENDBRANCH  31  33
ENDBRANCH  30  31
ENDBRANCH  29  30
ENDBRANCH   1  29
TORSDOF 19
ENDMDL
MODEL 3
REMARK VINA RESULT:     -11.4      4.730      5.866
REMARK SMILES O=C(N/N=C/c1ccccc1O)C(=O)Nc1cccc(C(=O)OCCOC(=O)c2ccc(-c3c4nc(c(-c5ccc(S(=O)(=O)[O-])cc5)c5ccc([nH]5)c(-c5ccc(S(=O)(=O)[O-])cc5)c5nc(c(-c6ccc(S(=O)(=O)[O-])cc6)c6ccc3[nH]6)C=C5)C=C4)cc2)c1
REMARK SMILES IDX 24 1 23 2 21 3 22 4 20 5 16 6 17 7 89 8 18 9 19 10 15 11
REMARK SMILES IDX 13 12 14 13 2 15 1 16 3 17 4 19 5 20 6 21 7 22 11 23 8 24
REMARK SMILES IDX 10 25 9 26 12 27 25 29 26 30 27 31 28 32 29 33 30 34 88 35
REMARK SMILES IDX 31 36 87 37 32 38 33 39 34 40 81 41 35 42 86 43 80 44 82 45
REMARK SMILES IDX 36 46 85 47 79 48 78 49 37 51 67 52 48 53 66 54 49 55 52 56
REMARK SMILES IDX 65 57 83 58 50 59 51 60 64 62 84 63 53 64 38 65 39 66 47 67
REMARK SMILES IDX 40 68 46 69 41 70 42 71 43 72 44 73 45 74 68 75 69 76 77 77
REMARK SMILES IDX 70 78 76 79 71 80 72 81 73 82 74 83 75 84 54 85 55 86 63 87
REMARK SMILES IDX 56 88 62 89 57 90 58 91 59 92 60 93 61 94
REMARK H PARENT 15 14 3 18 12 28 82 50 52 61
REMARK Flexibility Score: inf
ROOT
ATOM      1  C   UNL A   1      31.963  30.123  25.650  1.00  0.00     0.275 C 
ENDROOT
BRANCH   1   2
ATOM      2  O   UNL A   1      33.069  29.363  25.138  1.00  0.00    -0.458 OA
BRANCH   2   3
ATOM      3  C   UNL A   1      32.959  28.989  23.841  1.00  0.00     0.338 C 
ATOM      4  O   UNL A   1      33.688  29.317  22.917  1.00  0.00    -0.246 OA
BRANCH   3   5
ATOM      5  C   UNL A   1      31.791  28.108  23.637  1.00  0.00     0.062 A 
ATOM      6  C   UNL A   1      30.142  25.606  24.644  1.00  0.00     0.042 A 
ATOM      7  C   UNL A   1      28.605  26.372  24.052  1.00  0.00     0.026 A 
ATOM      8  C   UNL A   1      31.737  26.429  24.410  1.00  0.00     0.041 A 
ATOM      9  C   UNL A   1      28.674  27.998  23.182  1.00  0.00     0.003 A 
ATOM     10  C   UNL A   1      30.263  28.852  22.995  1.00  0.00     0.016 A 
BRANCH   6  11
ATOM     11  N   UNL A   1      29.961  24.859  25.811  1.00  0.00    -0.318 N 
ATOM     12  C   UNL A   1      30.618  23.681  26.155  1.00  0.00     0.315 C 
ATOM     13  O   UNL A   1      30.557  23.354  27.347  1.00  0.00    -0.263 OA
ATOM     14  H   UNL A   1      29.301  25.201  26.455  1.00  0.00     0.170 HD
BRANCH  12  15
ATOM     15  C   UNL A   1      31.453  22.755  25.231  1.00  0.00     0.329 C 
ATOM     16  O   UNL A   1      31.194  22.755  24.024  1.00  0.00    -0.262 OA
ATOM     17  N   UNL A   1      32.356  21.807  25.720  1.00  0.00    -0.239 N 
ATOM     18  H   UNL A   1      32.223  20.845  25.563  1.00  0.00     0.194 HD
BRANCH  17  19
ATOM     19  N   UNL A   1      33.427  22.267  26.423  1.00  0.00    -0.180 NA
ATOM     20  C   UNL A   1      34.469  22.755  25.661  1.00  0.00     0.145 C 
BRANCH  20  21
ATOM     21  C   UNL A   1      36.594  22.828  25.789  1.00  0.00     0.036 A 
ATOM     22  C   UNL A   1      37.478  24.024  26.183  1.00  0.00     0.013 A 
ATOM     23  C   UNL A   1      37.718  21.775  25.624  1.00  0.00     0.124 A 
ATOM     24  C   UNL A   1      38.851  24.111  26.554  1.00  0.00     0.001 A 
ATOM     25  C   UNL A   1      39.083  21.843  26.084  1.00  0.00     0.047 A 
ATOM     26  C   UNL A   1      39.631  22.993  26.593  1.00  0.00     0.004 A 
BRANCH  23  27
ATOM     27  O   UNL A   1      37.566  20.572  24.922  1.00  0.00    -0.507 OA
ATOM     28  H   UNL A   1      36.740  20.359  24.534  1.00  0.00     0.293 HD
ENDBRANCH  23  27
ENDBRANCH  20  21
ENDBRANCH  17  19
ENDBRANCH  12  15
ENDBRANCH   6  11
ENDBRANCH   3   5
ENDBRANCH   2   3
ENDBRANCH   1   2
BRANCH   1  29
ATOM     29  C   UNL A   1      32.392  31.045  26.791  1.00  0.00     0.275 C 
BRANCH  29  30
ATOM     30  O   UNL A   1      33.614  30.588  27.395  1.00  0.00    -0.458 OA
BRANCH  30  31
ATOM     31  C   UNL A   1      34.439  31.557  27.846  1.00  0.00     0.338 C 
ATOM     32  O   UNL A   1      34.211  32.751  27.969  1.00  0.00    -0.246 OA
BRANCH  31  33
ATOM     33  C   UNL A   1      35.717  30.980  28.275  1.00  0.00     0.060 A 
ATOM     34  C   UNL A   1      35.713  29.734  28.898  1.00  0.00     0.016 A 
ATOM     35  C   UNL A   1      36.874  31.757  28.260  1.00  0.00     0.016 A 
ATOM     36  C   UNL A   1      36.839  29.283  29.571  1.00  0.00     0.010 A 
ATOM     37  C   UNL A   1      38.032  31.267  28.871  1.00  0.00     0.010 A 
ATOM     38  C   UNL A   1      38.015  30.041  29.560  1.00  0.00    -0.014 A 
BRANCH  38  39
ATOM     39  C   UNL A   1      39.211  29.570  30.302  1.00  0.00     0.031 A 
ATOM     40  C   UNL A   1      39.605  30.235  31.592  1.00  0.00     0.074 A 
ATOM     41  C   UNL A   1      39.938  28.543  29.822  1.00  0.00     0.049 A 
ATOM     42  N   UNL A   1      40.702  30.096  32.289  1.00  0.00    -0.248 NA
ATOM     43  C   UNL A   1      38.643  31.189  32.170  1.00  0.00     0.031 C 
ATOM     44  C   UNL A   1      39.626  27.770  28.617  1.00  0.00     0.029 A 
ATOM     45  N   UNL A   1      41.094  27.972  30.291  1.00  0.00    -0.354 N 
ATOM     46  C   UNL A   1      40.591  30.983  33.354  1.00  0.00     0.074 A 
ATOM     47  C   UNL A   1      39.317  31.653  33.214  1.00  0.00     0.031 C 
ATOM     48  C   UNL A   1      40.554  26.816  28.454  1.00  0.00     0.029 A 
ATOM     49  C   UNL A   1      41.570  26.963  29.488  1.00  0.00     0.049 A 
ATOM     50  H   UNL A   1      41.539  28.258  31.122  1.00  0.00     0.167 HD
ATOM     51  C   UNL A   1      41.480  31.223  34.348  1.00  0.00     0.031 A 
ATOM     52  C   UNL A   1      42.722  26.267  29.545  1.00  0.00     0.031 A 
ATOM     53  C   UNL A   1      42.734  30.532  34.490  1.00  0.00     0.049 A 
ATOM     54  C   UNL A   1      43.712  26.585  30.628  1.00  0.00     0.074 A 
ATOM     55  C   UNL A   1      43.702  30.697  35.466  1.00  0.00     0.029 A 
ATOM     56  N   UNL A   1      43.193  29.540  33.637  1.00  0.00    -0.354 N 
ATOM     57  N   UNL A   1      43.617  27.463  31.598  1.00  0.00    -0.248 NA
ATOM     58  C   UNL A   1      44.970  25.827  30.617  1.00  0.00     0.031 C 
ATOM     59  C   UNL A   1      44.765  29.833  35.179  1.00  0.00     0.029 A 
ATOM     60  C   UNL A   1      44.435  29.092  34.055  1.00  0.00     0.049 A 
ATOM     61  H   UNL A   1      42.706  29.202  32.850  1.00  0.00     0.167 HD
ATOM     62  C   UNL A   1      44.799  27.354  32.321  1.00  0.00     0.074 A 
ATOM     63  C   UNL A   1      45.582  26.312  31.689  1.00  0.00     0.031 C 
ATOM     64  C   UNL A   1      45.200  28.056  33.410  1.00  0.00     0.031 A 
BRANCH  51  65
ATOM     65  C   UNL A   1      41.147  32.311  35.333  1.00  0.00    -0.014 A 
ATOM     66  C   UNL A   1      40.494  32.034  36.547  1.00  0.00     0.010 A 
ATOM     67  C   UNL A   1      41.534  33.635  35.052  1.00  0.00     0.010 A 
ATOM     68  C   UNL A   1      40.199  33.065  37.443  1.00  0.00     0.020 A 
ATOM     69  C   UNL A   1      41.264  34.666  35.957  1.00  0.00     0.020 A 
ATOM     70  C   UNL A   1      40.582  34.375  37.140  1.00  0.00     0.054 A 
BRANCH  70  71
ATOM     71  S   UNL A   1      40.203  35.694  38.328  1.00  0.00     0.124 S 
ATOM     72  O   UNL A   1      39.053  35.136  39.036  1.00  0.00    -0.237 OA
ATOM     73  O   UNL A   1      41.435  35.786  39.108  1.00  0.00    -0.237 OA
ATOM     74  O   UNL A   1      39.914  36.850  37.484  1.00  0.00    -0.744 OA
ENDBRANCH  70  71
ENDBRANCH  51  65
BRANCH  52  75
ATOM     75  C   UNL A   1      43.015  25.242  28.509  1.00  0.00    -0.014 A 
ATOM     76  C   UNL A   1      42.849  23.875  28.787  1.00  0.00     0.010 A 
ATOM     77  C   UNL A   1      43.435  25.633  27.224  1.00  0.00     0.010 A 
ATOM     78  C   UNL A   1      43.103  22.918  27.801  1.00  0.00     0.020 A 
ATOM     79  C   UNL A   1      43.662  24.681  26.227  1.00  0.00     0.020 A 
ATOM     80  C   UNL A   1      43.505  23.328  26.526  1.00  0.00     0.054 A 
BRANCH  80  81
ATOM     81  S   UNL A   1      43.765  22.072  25.242  1.00  0.00     0.124 S 
ATOM     82  O   UNL A   1      45.054  21.508  25.629  1.00  0.00    -0.237 OA
ATOM     83  O   UNL A   1      42.611  21.194  25.418  1.00  0.00    -0.237 OA
ATOM     84  O   UNL A   1      43.764  22.848  24.003  1.00  0.00    -0.744 OA
ENDBRANCH  80  81
ENDBRANCH  52  75
BRANCH  64  85
ATOM     85  C   UNL A   1      46.533  27.693  34.005  1.00  0.00    -0.014 A 
ATOM     86  C   UNL A   1      46.648  26.674  34.965  1.00  0.00     0.010 A 
ATOM     87  C   UNL A   1      47.690  28.358  33.562  1.00  0.00     0.010 A 
ATOM     88  C   UNL A   1      47.898  26.348  35.499  1.00  0.00     0.020 A 
ATOM     89  C   UNL A   1      48.944  28.017  34.075  1.00  0.00     0.020 A 
ATOM     90  C   UNL A   1      49.037  27.024  35.052  1.00  0.00     0.054 A 
BRANCH  90  91
ATOM     91  S   UNL A   1      50.653  26.559  35.731  1.00  0.00     0.124 S 
ATOM     92  O   UNL A   1      51.344  26.054  34.548  1.00  0.00    -0.237 OA
ATOM     93  O   UNL A   1      51.156  27.823  36.262  1.00  0.00    -0.237 OA
ATOM     94  O   UNL A   1      50.328  25.552  36.739  1.00  0.00    -0.744 OA
ENDBRANCH  90  91
ENDBRANCH  64  85
ENDBRANCH  38  39
ENDBRANCH  31  33
ENDBRANCH  30  31
ENDBRANCH  29  30
ENDBRANCH   1  29
TORSDOF 19
ENDMDL
