MODEL 1
REMARK VINA RESULT:     -12.1      0.000      0.000
REMARK SMILES Cc1nc(-c2ccccc2Cl)nc2sc(C(=O)OCCOC(=O)c3ccc(-c4c5nc(c(-c6ccc(S(=O)(=O)[O-])cc6)c6ccc([nH]6)c(-c6ccc(S(=O)(=O)[O-])cc6)c6nc(c(-c7ccc(S(=O)(=O)[O-])cc7)c7ccc4[nH]7)C=C6)C=C5)cc3)c(N)c12
REMARK SMILES IDX 20 1 19 2 18 3 16 4 17 5 15 6 1 7 2 8 3 9 86 10 4 11 13 12
REMARK SMILES IDX 84 13 12 14 14 15 5 16 6 17 10 18 7 19 9 20 11 21 8 22 85 23
REMARK SMILES IDX 21 26 22 27 23 28 24 29 25 30 83 31 26 32 82 33 27 34 28 35
REMARK SMILES IDX 29 36 76 37 30 38 81 39 75 40 77 41 31 42 80 43 74 44 73 45
REMARK SMILES IDX 32 47 62 48 43 49 61 50 44 51 47 52 60 53 78 54 45 55 46 56
REMARK SMILES IDX 59 58 79 59 48 60 33 61 34 62 42 63 35 64 41 65 36 66 37 67
REMARK SMILES IDX 38 68 39 69 40 70 63 71 64 72 72 73 65 74 71 75 66 76 67 77
REMARK SMILES IDX 68 78 69 79 70 80 49 81 50 82 58 83 51 84 57 85 52 86 53 87
REMARK SMILES IDX 54 88 55 89 56 90
REMARK H PARENT 85 24 85 25 77 46 47 57
REMARK Flexibility Score: inf
ROOT
ATOM      1  C   UNL A   1      36.837  21.751  25.588  1.00  0.00     0.275 C 
ENDROOT
BRANCH   1   2
ATOM      2  C   UNL A   1      35.521  21.993  26.319  1.00  0.00     0.275 C 
BRANCH   2   3
ATOM      3  O   UNL A   1      34.719  22.972  25.637  1.00  0.00    -0.458 OA
BRANCH   3   4
ATOM      4  C   UNL A   1      33.407  23.109  26.016  1.00  0.00     0.350 C 
ATOM      5  O   UNL A   1      32.898  22.493  26.940  1.00  0.00    -0.245 OA
BRANCH   4   6
ATOM      6  C   UNL A   1      32.734  24.111  25.199  1.00  0.00     0.138 A 
ATOM      7  C   UNL A   1      32.449  25.770  20.840  1.00  0.00     0.067 C 
ATOM      8  C   UNL A   1      31.798  26.111  22.147  1.00  0.00     0.052 A 
ATOM      9  N   UNL A   1      30.985  27.211  22.131  1.00  0.00    -0.233 NA
ATOM     10  C   UNL A   1      32.022  25.448  23.378  1.00  0.00     0.057 A 
ATOM     11  C   UNL A   1      30.358  27.589  23.258  1.00  0.00     0.162 A 
ATOM     12  C   UNL A   1      31.319  25.967  24.452  1.00  0.00     0.130 A 
ATOM     13  C   UNL A   1      32.837  24.339  23.831  1.00  0.00     0.069 A 
ATOM     14  N   UNL A   1      30.487  27.010  24.449  1.00  0.00    -0.217 NA
ATOM     15  S   UNL A   1      31.613  25.184  25.916  1.00  0.00    -0.106 S 
BRANCH  11  16
ATOM     16  C   UNL A   1      29.578  28.828  23.272  1.00  0.00     0.038 A 
ATOM     17  C   UNL A   1      28.412  28.890  22.472  1.00  0.00     0.013 A 
ATOM     18  C   UNL A   1      29.962  29.991  23.952  1.00  0.00     0.052 A 
ATOM     19  C   UNL A   1      27.671  30.064  22.339  1.00  0.00     0.001 A 
ATOM     20  C   UNL A   1      29.217  31.173  23.816  1.00  0.00     0.021 A 
ATOM     21  Cl  UNL A   1      31.387  30.072  24.928  1.00  0.00    -0.084 Cl
ATOM     22  C   UNL A   1      28.079  31.210  23.008  1.00  0.00     0.002 A 
ENDBRANCH  11  16
BRANCH  13  23
ATOM     23  N   UNL A   1      33.634  23.594  23.031  1.00  0.00    -0.397 N 
ATOM     24  H   UNL A   1      34.594  23.512  23.233  1.00  0.00     0.156 HD
ATOM     25  H   UNL A   1      33.254  23.133  22.249  1.00  0.00     0.156 HD
ENDBRANCH  13  23
ENDBRANCH   4   6
ENDBRANCH   3   4
ENDBRANCH   2   3
ENDBRANCH   1   2
BRANCH   1  26
ATOM     26  O   UNL A   1      37.778  22.779  25.896  1.00  0.00    -0.458 OA
BRANCH  26  27
ATOM     27  C   UNL A   1      38.962  22.345  26.380  1.00  0.00     0.338 C 
ATOM     28  O   UNL A   1      39.294  21.189  26.588  1.00  0.00    -0.246 OA
BRANCH  27  29
ATOM     29  C   UNL A   1      39.810  23.495  26.694  1.00  0.00     0.060 A 
ATOM     30  C   UNL A   1      40.784  23.339  27.687  1.00  0.00     0.016 A 
ATOM     31  C   UNL A   1      39.488  24.749  26.160  1.00  0.00     0.016 A 
ATOM     32  C   UNL A   1      41.340  24.469  28.254  1.00  0.00     0.010 A 
ATOM     33  C   UNL A   1      40.036  25.872  26.730  1.00  0.00     0.010 A 
ATOM     34  C   UNL A   1      40.900  25.719  27.818  1.00  0.00    -0.014 A 
BRANCH  34  35
ATOM     35  C   UNL A   1      41.297  26.892  28.573  1.00  0.00     0.031 A 
ATOM     36  C   UNL A   1      42.613  27.478  28.230  1.00  0.00     0.074 A 
ATOM     37  C   UNL A   1      40.405  27.502  29.377  1.00  0.00     0.049 A 
ATOM     38  N   UNL A   1      43.601  27.754  29.016  1.00  0.00    -0.248 NA
ATOM     39  C   UNL A   1      42.887  27.723  26.804  1.00  0.00     0.031 C 
ATOM     40  C   UNL A   1      38.975  27.193  29.508  1.00  0.00     0.029 A 
ATOM     41  N   UNL A   1      40.548  28.637  30.109  1.00  0.00    -0.354 N 
ATOM     42  C   UNL A   1      44.560  28.362  28.213  1.00  0.00     0.074 A 
ATOM     43  C   UNL A   1      44.132  28.187  26.848  1.00  0.00     0.031 C 
ATOM     44  C   UNL A   1      38.348  28.260  30.046  1.00  0.00     0.029 A 
ATOM     45  C   UNL A   1      39.342  29.262  30.393  1.00  0.00     0.049 A 
ATOM     46  H   UNL A   1      41.420  28.983  30.407  1.00  0.00     0.167 HD
ATOM     47  C   UNL A   1      45.545  29.158  28.709  1.00  0.00     0.031 A 
ATOM     48  C   UNL A   1      39.172  30.558  30.750  1.00  0.00     0.031 A 
ATOM     49  C   UNL A   1      45.732  29.003  30.123  1.00  0.00     0.049 A 
ATOM     50  C   UNL A   1      40.483  31.061  31.239  1.00  0.00     0.074 A 
ATOM     51  C   UNL A   1      46.070  27.939  30.936  1.00  0.00     0.029 A 
ATOM     52  N   UNL A   1      45.191  29.956  30.952  1.00  0.00    -0.354 N 
ATOM     53  N   UNL A   1      41.080  30.611  32.309  1.00  0.00    -0.248 NA
ATOM     54  C   UNL A   1      41.349  31.764  30.303  1.00  0.00     0.031 C 
ATOM     55  C   UNL A   1      45.285  28.112  32.113  1.00  0.00     0.029 A 
ATOM     56  C   UNL A   1      44.547  29.288  31.966  1.00  0.00     0.049 A 
ATOM     57  H   UNL A   1      45.254  30.933  30.841  1.00  0.00     0.167 HD
ATOM     58  C   UNL A   1      42.434  30.605  31.997  1.00  0.00     0.074 A 
ATOM     59  C   UNL A   1      42.545  31.429  30.797  1.00  0.00     0.031 C 
ATOM     60  C   UNL A   1      43.298  29.712  32.570  1.00  0.00     0.031 A 
BRANCH  47  61
ATOM     61  C   UNL A   1      46.106  30.310  27.925  1.00  0.00    -0.014 A 
ATOM     62  C   UNL A   1      47.480  30.373  27.637  1.00  0.00     0.010 A 
ATOM     63  C   UNL A   1      45.332  31.461  27.653  1.00  0.00     0.010 A 
ATOM     64  C   UNL A   1      48.049  31.540  27.107  1.00  0.00     0.020 A 
ATOM     65  C   UNL A   1      45.879  32.606  27.082  1.00  0.00     0.020 A 
ATOM     66  C   UNL A   1      47.243  32.650  26.838  1.00  0.00     0.054 A 
BRANCH  66  67
ATOM     67  S   UNL A   1      47.996  34.178  26.226  1.00  0.00     0.124 S 
ATOM     68  O   UNL A   1      49.337  33.727  25.866  1.00  0.00    -0.237 OA
ATOM     69  O   UNL A   1      47.123  34.530  25.109  1.00  0.00    -0.237 OA
ATOM     70  O   UNL A   1      47.924  35.079  27.374  1.00  0.00    -0.744 OA
ENDBRANCH  66  67
ENDBRANCH  47  61
BRANCH  48  71
ATOM     71  C   UNL A   1      38.052  31.433  30.313  1.00  0.00    -0.014 A 
ATOM     72  C   UNL A   1      38.099  32.146  29.104  1.00  0.00     0.010 A 
ATOM     73  C   UNL A   1      36.817  31.401  31.001  1.00  0.00     0.010 A 
ATOM     74  C   UNL A   1      36.949  32.781  28.595  1.00  0.00     0.020 A 
ATOM     75  C   UNL A   1      35.676  32.042  30.513  1.00  0.00     0.020 A 
ATOM     76  C   UNL A   1      35.743  32.715  29.300  1.00  0.00     0.054 A 
BRANCH  76  77
ATOM     77  S   UNL A   1      34.237  33.433  28.582  1.00  0.00     0.124 S 
ATOM     78  O   UNL A   1      34.776  34.371  27.602  1.00  0.00    -0.237 OA
ATOM     79  O   UNL A   1      33.562  32.260  28.034  1.00  0.00    -0.237 OA
ATOM     80  O   UNL A   1      33.568  34.050  29.726  1.00  0.00    -0.744 OA
ENDBRANCH  76  77
ENDBRANCH  48  71
BRANCH  60  81
ATOM     81  C   UNL A   1      42.812  28.881  33.740  1.00  0.00    -0.014 A 
ATOM     82  C   UNL A   1      42.016  27.729  33.581  1.00  0.00     0.010 A 
ATOM     83  C   UNL A   1      43.333  29.156  35.017  1.00  0.00     0.010 A 
ATOM     84  C   UNL A   1      41.738  26.887  34.669  1.00  0.00     0.020 A 
ATOM     85  C   UNL A   1      43.075  28.312  36.103  1.00  0.00     0.020 A 
ATOM     86  C   UNL A   1      42.274  27.182  35.923  1.00  0.00     0.054 A 
BRANCH  86  87
ATOM     87  S   UNL A   1      41.975  26.044  37.306  1.00  0.00     0.124 S 
ATOM     88  O   UNL A   1      40.588  26.332  37.659  1.00  0.00    -0.237 OA
ATOM     89  O   UNL A   1      42.212  24.733  36.704  1.00  0.00    -0.237 OA
ATOM     90  O   UNL A   1      42.963  26.443  38.308  1.00  0.00    -0.744 OA
ENDBRANCH  86  87
ENDBRANCH  60  81
ENDBRANCH  34  35
ENDBRANCH  27  29
ENDBRANCH  26  27
ENDBRANCH   1  26
TORSDOF 16
ENDMDL
MODEL 2
REMARK VINA RESULT:     -12.0      1.663      2.265
REMARK SMILES Cc1nc(-c2ccccc2Cl)nc2sc(C(=O)OCCOC(=O)c3ccc(-c4c5nc(c(-c6ccc(S(=O)(=O)[O-])cc6)c6ccc([nH]6)c(-c6ccc(S(=O)(=O)[O-])cc6)c6nc(c(-c7ccc(S(=O)(=O)[O-])cc7)c7ccc4[nH]7)C=C6)C=C5)cc3)c(N)c12
REMARK SMILES IDX 20 1 19 2 18 3 16 4 17 5 15 6 1 7 2 8 3 9 86 10 4 11 13 12
REMARK SMILES IDX 84 13 12 14 14 15 5 16 6 17 10 18 7 19 9 20 11 21 8 22 85 23
REMARK SMILES IDX 21 26 22 27 23 28 24 29 25 30 83 31 26 32 82 33 27 34 28 35
REMARK SMILES IDX 29 36 76 37 30 38 81 39 75 40 77 41 31 42 80 43 74 44 73 45
REMARK SMILES IDX 32 47 62 48 43 49 61 50 44 51 47 52 60 53 78 54 45 55 46 56
REMARK SMILES IDX 59 58 79 59 48 60 33 61 34 62 42 63 35 64 41 65 36 66 37 67
REMARK SMILES IDX 38 68 39 69 40 70 63 71 64 72 72 73 65 74 71 75 66 76 67 77
REMARK SMILES IDX 68 78 69 79 70 80 49 81 50 82 58 83 51 84 57 85 52 86 53 87
REMARK SMILES IDX 54 88 55 89 56 90
REMARK H PARENT 85 24 85 25 77 46 47 57
REMARK Flexibility Score: inf
ROOT
ATOM      1  C   UNL A   1      38.341  21.343  24.866  1.00  0.00     0.275 C 
ENDROOT
BRANCH   1   2
ATOM      2  C   UNL A   1      37.068  20.522  25.048  1.00  0.00     0.275 C 
BRANCH   2   3
ATOM      3  O   UNL A   1      35.948  21.148  24.402  1.00  0.00    -0.458 OA
BRANCH   3   4
ATOM      4  C   UNL A   1      34.687  20.808  24.823  1.00  0.00     0.350 C 
ATOM      5  O   UNL A   1      34.278  19.659  24.886  1.00  0.00    -0.245 OA
BRANCH   4   6
ATOM      6  C   UNL A   1      33.935  21.992  25.220  1.00  0.00     0.138 A 
ATOM      7  C   UNL A   1      29.792  23.382  26.874  1.00  0.00     0.067 C 
ATOM      8  C   UNL A   1      31.059  24.076  26.473  1.00  0.00     0.052 A 
ATOM      9  N   UNL A   1      31.015  25.444  26.500  1.00  0.00    -0.233 NA
ATOM     10  C   UNL A   1      32.235  23.442  26.003  1.00  0.00     0.057 A 
ATOM     11  C   UNL A   1      32.107  26.149  26.159  1.00  0.00     0.162 A 
ATOM     12  C   UNL A   1      33.266  24.305  25.672  1.00  0.00     0.130 A 
ATOM     13  C   UNL A   1      32.653  22.079  25.751  1.00  0.00     0.069 A 
ATOM     14  N   UNL A   1      33.260  25.638  25.733  1.00  0.00    -0.217 NA
ATOM     15  S   UNL A   1      34.650  23.539  25.091  1.00  0.00    -0.106 S 
BRANCH  11  16
ATOM     16  C   UNL A   1      32.029  27.609  26.078  1.00  0.00     0.038 A 
ATOM     17  C   UNL A   1      32.390  28.360  27.223  1.00  0.00     0.013 A 
ATOM     18  C   UNL A   1      31.531  28.311  24.972  1.00  0.00     0.052 A 
ATOM     19  C   UNL A   1      32.243  29.745  27.273  1.00  0.00     0.001 A 
ATOM     20  C   UNL A   1      31.381  29.706  25.024  1.00  0.00     0.021 A 
ATOM     21  Cl  UNL A   1      31.010  27.520  23.525  1.00  0.00    -0.084 Cl
ATOM     22  C   UNL A   1      31.730  30.418  26.172  1.00  0.00     0.002 A 
ENDBRANCH  11  16
BRANCH  13  23
ATOM     23  N   UNL A   1      31.891  20.985  25.985  1.00  0.00    -0.397 N 
ATOM     24  H   UNL A   1      32.200  20.297  26.617  1.00  0.00     0.156 HD
ATOM     25  H   UNL A   1      31.028  20.879  25.524  1.00  0.00     0.156 HD
ENDBRANCH  13  23
ENDBRANCH   4   6
ENDBRANCH   3   4
ENDBRANCH   2   3
ENDBRANCH   1   2
BRANCH   1  26
ATOM     26  O   UNL A   1      38.522  22.235  25.966  1.00  0.00    -0.458 OA
BRANCH  26  27
ATOM     27  C   UNL A   1      39.645  22.033  26.688  1.00  0.00     0.338 C 
ATOM     28  O   UNL A   1      40.028  20.982  27.176  1.00  0.00    -0.246 OA
BRANCH  27  29
ATOM     29  C   UNL A   1      40.343  23.306  26.869  1.00  0.00     0.060 A 
ATOM     30  C   UNL A   1      41.568  23.291  27.546  1.00  0.00     0.016 A 
ATOM     31  C   UNL A   1      39.680  24.499  26.560  1.00  0.00     0.016 A 
ATOM     32  C   UNL A   1      42.064  24.479  28.046  1.00  0.00     0.010 A 
ATOM     33  C   UNL A   1      40.170  25.680  27.064  1.00  0.00     0.010 A 
ATOM     34  C   UNL A   1      41.317  25.643  27.862  1.00  0.00    -0.014 A 
BRANCH  34  35
ATOM     35  C   UNL A   1      41.707  26.836  28.589  1.00  0.00     0.031 A 
ATOM     36  C   UNL A   1      43.032  27.405  28.251  1.00  0.00     0.074 A 
ATOM     37  C   UNL A   1      40.806  27.473  29.360  1.00  0.00     0.049 A 
ATOM     38  N   UNL A   1      44.008  27.699  29.046  1.00  0.00    -0.248 NA
ATOM     39  C   UNL A   1      43.331  27.606  26.823  1.00  0.00     0.031 C 
ATOM     40  C   UNL A   1      39.372  27.176  29.476  1.00  0.00     0.029 A 
ATOM     41  N   UNL A   1      40.943  28.629  30.061  1.00  0.00    -0.354 N 
ATOM     42  C   UNL A   1      44.984  28.278  28.242  1.00  0.00     0.074 A 
ATOM     43  C   UNL A   1      44.578  28.065  26.875  1.00  0.00     0.031 C 
ATOM     44  C   UNL A   1      38.742  28.261  29.972  1.00  0.00     0.029 A 
ATOM     45  C   UNL A   1      39.736  29.268  30.306  1.00  0.00     0.049 A 
ATOM     46  H   UNL A   1      41.812  28.979  30.363  1.00  0.00     0.167 HD
ATOM     47  C   UNL A   1      45.965  29.083  28.730  1.00  0.00     0.031 A 
ATOM     48  C   UNL A   1      39.568  30.575  30.622  1.00  0.00     0.031 A 
ATOM     49  C   UNL A   1      46.128  28.969  30.151  1.00  0.00     0.049 A 
ATOM     50  C   UNL A   1      40.873  31.085  31.118  1.00  0.00     0.074 A 
ATOM     51  C   UNL A   1      46.446  27.927  31.000  1.00  0.00     0.029 A 
ATOM     52  N   UNL A   1      45.579  29.949  30.943  1.00  0.00    -0.354 N 
ATOM     53  N   UNL A   1      41.449  30.664  32.211  1.00  0.00    -0.248 NA
ATOM     54  C   UNL A   1      41.758  31.756  30.177  1.00  0.00     0.031 C 
ATOM     55  C   UNL A   1      45.643  28.138  32.158  1.00  0.00     0.029 A 
ATOM     56  C   UNL A   1      44.914  29.314  31.964  1.00  0.00     0.049 A 
ATOM     57  H   UNL A   1      45.648  30.921  30.805  1.00  0.00     0.167 HD
ATOM     58  C   UNL A   1      42.808  30.642  31.922  1.00  0.00     0.074 A 
ATOM     59  C   UNL A   1      42.943  31.429  30.700  1.00  0.00     0.031 C 
ATOM     60  C   UNL A   1      43.657  29.762  32.535  1.00  0.00     0.031 A 
BRANCH  47  61
ATOM     61  C   UNL A   1      46.545  30.209  27.922  1.00  0.00    -0.014 A 
ATOM     62  C   UNL A   1      47.936  30.321  27.754  1.00  0.00     0.010 A 
ATOM     63  C   UNL A   1      45.751  31.300  27.505  1.00  0.00     0.010 A 
ATOM     64  C   UNL A   1      48.501  31.478  27.199  1.00  0.00     0.020 A 
ATOM     65  C   UNL A   1      46.298  32.433  26.908  1.00  0.00     0.020 A 
ATOM     66  C   UNL A   1      47.676  32.527  26.784  1.00  0.00     0.054 A 
BRANCH  66  67
ATOM     67  S   UNL A   1      48.415  34.048  26.138  1.00  0.00     0.124 S 
ATOM     68  O   UNL A   1      47.376  34.522  25.229  1.00  0.00    -0.237 OA
ATOM     69  O   UNL A   1      48.607  34.841  27.350  1.00  0.00    -0.237 OA
ATOM     70  O   UNL A   1      49.645  33.587  25.500  1.00  0.00    -0.744 OA
ENDBRANCH  66  67
ENDBRANCH  47  61
BRANCH  48  71
ATOM     71  C   UNL A   1      38.460  31.442  30.141  1.00  0.00    -0.014 A 
ATOM     72  C   UNL A   1      37.897  31.283  28.864  1.00  0.00     0.010 A 
ATOM     73  C   UNL A   1      37.797  32.310  31.040  1.00  0.00     0.010 A 
ATOM     74  C   UNL A   1      36.707  31.950  28.511  1.00  0.00     0.020 A 
ATOM     75  C   UNL A   1      36.626  32.989  30.692  1.00  0.00     0.020 A 
ATOM     76  C   UNL A   1      36.075  32.790  29.433  1.00  0.00     0.054 A 
BRANCH  76  77
ATOM     77  S   UNL A   1      34.480  33.551  29.015  1.00  0.00     0.124 S 
ATOM     78  O   UNL A   1      33.860  32.533  28.172  1.00  0.00    -0.237 OA
ATOM     79  O   UNL A   1      33.872  33.745  30.328  1.00  0.00    -0.237 OA
ATOM     80  O   UNL A   1      34.856  34.782  28.322  1.00  0.00    -0.744 OA
ENDBRANCH  76  77
ENDBRANCH  48  71
BRANCH  60  81
ATOM     81  C   UNL A   1      43.148  28.967  33.721  1.00  0.00    -0.014 A 
ATOM     82  C   UNL A   1      42.195  27.936  33.598  1.00  0.00     0.010 A 
ATOM     83  C   UNL A   1      43.789  29.133  34.961  1.00  0.00     0.010 A 
ATOM     84  C   UNL A   1      41.883  27.107  34.685  1.00  0.00     0.020 A 
ATOM     85  C   UNL A   1      43.496  28.299  36.046  1.00  0.00     0.020 A 
ATOM     86  C   UNL A   1      42.541  27.290  35.903  1.00  0.00     0.054 A 
BRANCH  86  87
ATOM     87  S   UNL A   1      42.188  26.161  37.281  1.00  0.00     0.124 S 
ATOM     88  O   UNL A   1      42.413  24.849  36.681  1.00  0.00    -0.237 OA
ATOM     89  O   UNL A   1      43.165  26.568  38.290  1.00  0.00    -0.237 OA
ATOM     90  O   UNL A   1      40.797  26.454  37.625  1.00  0.00    -0.744 OA
ENDBRANCH  86  87
ENDBRANCH  60  81
ENDBRANCH  34  35
ENDBRANCH  27  29
ENDBRANCH  26  27
ENDBRANCH   1  26
TORSDOF 16
ENDMDL
MODEL 3
REMARK VINA RESULT:     -11.9      2.468      9.053
REMARK SMILES Cc1nc(-c2ccccc2Cl)nc2sc(C(=O)OCCOC(=O)c3ccc(-c4c5nc(c(-c6ccc(S(=O)(=O)[O-])cc6)c6ccc([nH]6)c(-c6ccc(S(=O)(=O)[O-])cc6)c6nc(c(-c7ccc(S(=O)(=O)[O-])cc7)c7ccc4[nH]7)C=C6)C=C5)cc3)c(N)c12
REMARK SMILES IDX 20 1 19 2 18 3 16 4 17 5 15 6 1 7 2 8 3 9 86 10 4 11 13 12
REMARK SMILES IDX 84 13 12 14 14 15 5 16 6 17 10 18 7 19 9 20 11 21 8 22 85 23
REMARK SMILES IDX 21 26 22 27 23 28 24 29 25 30 83 31 26 32 82 33 27 34 28 35
REMARK SMILES IDX 29 36 76 37 30 38 81 39 75 40 77 41 31 42 80 43 74 44 73 45
REMARK SMILES IDX 32 47 62 48 43 49 61 50 44 51 47 52 60 53 78 54 45 55 46 56
REMARK SMILES IDX 59 58 79 59 48 60 33 61 34 62 42 63 35 64 41 65 36 66 37 67
REMARK SMILES IDX 38 68 39 69 40 70 63 71 64 72 72 73 65 74 71 75 66 76 67 77
REMARK SMILES IDX 68 78 69 79 70 80 49 81 50 82 58 83 51 84 57 85 52 86 53 87
REMARK SMILES IDX 54 88 55 89 56 90
REMARK H PARENT 85 24 85 25 77 46 47 57
REMARK Flexibility Score: inf
ROOT
ATOM      1  C   UNL A   1      33.353  30.582  26.517  1.00  0.00     0.275 C 
ENDROOT
BRANCH   1   2
ATOM      2  C   UNL A   1      31.829  30.538  26.499  1.00  0.00     0.275 C 
BRANCH   2   3
ATOM      3  O   UNL A   1      31.350  29.244  26.097  1.00  0.00    -0.458 OA
BRANCH   3   4
ATOM      4  C   UNL A   1      31.184  29.005  24.755  1.00  0.00     0.350 C 
ATOM      5  O   UNL A   1      30.517  29.712  24.016  1.00  0.00    -0.245 OA
BRANCH   4   6
ATOM      6  C   UNL A   1      31.944  27.832  24.340  1.00  0.00     0.138 A 
ATOM      7  C   UNL A   1      32.811  25.075  20.669  1.00  0.00     0.067 C 
ATOM      8  C   UNL A   1      33.259  25.106  22.099  1.00  0.00     0.052 A 
ATOM      9  N   UNL A   1      34.040  24.054  22.494  1.00  0.00    -0.233 NA
ATOM     10  C   UNL A   1      32.877  26.070  23.063  1.00  0.00     0.057 A 
ATOM     11  C   UNL A   1      34.491  24.001  23.759  1.00  0.00     0.162 A 
ATOM     12  C   UNL A   1      33.407  25.867  24.326  1.00  0.00     0.130 A 
ATOM     13  C   UNL A   1      32.032  27.246  23.082  1.00  0.00     0.069 A 
ATOM     14  N   UNL A   1      34.206  24.874  24.722  1.00  0.00    -0.217 NA
ATOM     15  S   UNL A   1      32.924  27.007  25.471  1.00  0.00    -0.106 S 
BRANCH  11  16
ATOM     16  C   UNL A   1      35.231  22.823  24.215  1.00  0.00     0.038 A 
ATOM     17  C   UNL A   1      36.646  22.873  24.188  1.00  0.00     0.013 A 
ATOM     18  C   UNL A   1      34.632  21.612  24.587  1.00  0.00     0.052 A 
ATOM     19  C   UNL A   1      37.429  21.763  24.498  1.00  0.00     0.001 A 
ATOM     20  C   UNL A   1      35.422  20.493  24.897  1.00  0.00     0.021 A 
ATOM     21  Cl  UNL A   1      32.917  21.394  24.620  1.00  0.00    -0.084 Cl
ATOM     22  C   UNL A   1      36.814  20.568  24.847  1.00  0.00     0.002 A 
ENDBRANCH  11  16
BRANCH  13  23
ATOM     23  N   UNL A   1      31.375  27.738  22.007  1.00  0.00    -0.397 N 
ATOM     24  H   UNL A   1      31.407  27.257  21.149  1.00  0.00     0.156 HD
ATOM     25  H   UNL A   1      30.864  28.575  22.083  1.00  0.00     0.156 HD
ENDBRANCH  13  23
ENDBRANCH   4   6
ENDBRANCH   3   4
ENDBRANCH   2   3
ENDBRANCH   1   2
BRANCH   1  26
ATOM     26  O   UNL A   1      33.833  30.738  27.852  1.00  0.00    -0.458 OA
BRANCH  26  27
ATOM     27  C   UNL A   1      34.686  31.770  28.037  1.00  0.00     0.338 C 
ATOM     28  O   UNL A   1      34.570  32.907  27.609  1.00  0.00    -0.246 OA
BRANCH  27  29
ATOM     29  C   UNL A   1      35.848  31.311  28.797  1.00  0.00     0.060 A 
ATOM     30  C   UNL A   1      36.805  32.261  29.169  1.00  0.00     0.016 A 
ATOM     31  C   UNL A   1      36.072  29.936  28.941  1.00  0.00     0.016 A 
ATOM     32  C   UNL A   1      38.057  31.826  29.555  1.00  0.00     0.010 A 
ATOM     33  C   UNL A   1      37.321  29.504  29.317  1.00  0.00     0.010 A 
ATOM     34  C   UNL A   1      38.318  30.455  29.549  1.00  0.00    -0.014 A 
BRANCH  34  35
ATOM     35  C   UNL A   1      39.689  30.012  29.714  1.00  0.00     0.031 A 
ATOM     36  C   UNL A   1      40.213  30.007  31.099  1.00  0.00     0.074 A 
ATOM     37  C   UNL A   1      40.339  29.450  28.677  1.00  0.00     0.049 A 
ATOM     38  N   UNL A   1      41.291  30.557  31.554  1.00  0.00    -0.248 NA
ATOM     39  C   UNL A   1      39.383  29.359  32.129  1.00  0.00     0.031 C 
ATOM     40  C   UNL A   1      39.777  29.097  27.367  1.00  0.00     0.029 A 
ATOM     41  N   UNL A   1      41.585  28.912  28.638  1.00  0.00    -0.354 N 
ATOM     42  C   UNL A   1      41.365  30.186  32.892  1.00  0.00     0.074 A 
ATOM     43  C   UNL A   1      40.103  29.575  33.226  1.00  0.00     0.031 C 
ATOM     44  C   UNL A   1      40.581  28.185  26.782  1.00  0.00     0.029 A 
ATOM     45  C   UNL A   1      41.750  27.984  27.621  1.00  0.00     0.049 A 
ATOM     46  H   UNL A   1      42.301  29.156  29.270  1.00  0.00     0.167 HD
ATOM     47  C   UNL A   1      42.524  30.204  33.604  1.00  0.00     0.031 A 
ATOM     48  C   UNL A   1      42.705  27.024  27.555  1.00  0.00     0.031 A 
ATOM     49  C   UNL A   1      43.552  30.986  32.979  1.00  0.00     0.049 A 
ATOM     50  C   UNL A   1      43.800  27.420  28.479  1.00  0.00     0.074 A 
ATOM     51  C   UNL A   1      43.660  32.313  32.612  1.00  0.00     0.029 A 
ATOM     52  N   UNL A   1      44.536  30.321  32.288  1.00  0.00    -0.354 N 
ATOM     53  N   UNL A   1      44.540  28.482  28.314  1.00  0.00    -0.248 NA
ATOM     54  C   UNL A   1      43.799  26.877  29.829  1.00  0.00     0.031 C 
ATOM     55  C   UNL A   1      44.372  32.297  31.378  1.00  0.00     0.029 A 
ATOM     56  C   UNL A   1      44.691  30.969  31.086  1.00  0.00     0.049 A 
ATOM     57  H   UNL A   1      45.037  29.530  32.595  1.00  0.00     0.167 HD
ATOM     58  C   UNL A   1      44.760  28.976  29.593  1.00  0.00     0.074 A 
ATOM     59  C   UNL A   1      44.376  27.887  30.486  1.00  0.00     0.031 C 
ATOM     60  C   UNL A   1      44.964  30.309  29.823  1.00  0.00     0.031 A 
BRANCH  47  61
ATOM     61  C   UNL A   1      42.791  29.228  34.713  1.00  0.00    -0.014 A 
ATOM     62  C   UNL A   1      43.226  29.681  35.971  1.00  0.00     0.010 A 
ATOM     63  C   UNL A   1      42.837  27.836  34.473  1.00  0.00     0.010 A 
ATOM     64  C   UNL A   1      43.691  28.778  36.938  1.00  0.00     0.020 A 
ATOM     65  C   UNL A   1      43.250  26.928  35.444  1.00  0.00     0.020 A 
ATOM     66  C   UNL A   1      43.703  27.407  36.664  1.00  0.00     0.054 A 
BRANCH  66  67
ATOM     67  S   UNL A   1      44.374  26.254  37.886  1.00  0.00     0.124 S 
ATOM     68  O   UNL A   1      43.735  25.000  37.496  1.00  0.00    -0.237 OA
ATOM     69  O   UNL A   1      45.811  26.338  37.639  1.00  0.00    -0.237 OA
ATOM     70  O   UNL A   1      43.934  26.812  39.162  1.00  0.00    -0.744 OA
ENDBRANCH  66  67
ENDBRANCH  47  61
BRANCH  48  71
ATOM     71  C   UNL A   1      42.505  25.643  27.039  1.00  0.00    -0.014 A 
ATOM     72  C   UNL A   1      43.583  24.849  26.615  1.00  0.00     0.010 A 
ATOM     73  C   UNL A   1      41.245  25.015  27.165  1.00  0.00     0.010 A 
ATOM     74  C   UNL A   1      43.408  23.476  26.350  1.00  0.00     0.020 A 
ATOM     75  C   UNL A   1      41.058  23.658  26.888  1.00  0.00     0.020 A 
ATOM     76  C   UNL A   1      42.148  22.890  26.498  1.00  0.00     0.054 A 
BRANCH  76  77
ATOM     77  S   UNL A   1      41.953  21.098  26.272  1.00  0.00     0.124 S 
ATOM     78  O   UNL A   1      40.554  20.984  25.875  1.00  0.00    -0.237 OA
ATOM     79  O   UNL A   1      42.935  20.805  25.231  1.00  0.00    -0.237 OA
ATOM     80  O   UNL A   1      42.269  20.547  27.589  1.00  0.00    -0.744 OA
ENDBRANCH  76  77
ENDBRANCH  48  71
BRANCH  60  81
ATOM     81  C   UNL A   1      45.195  31.223  28.635  1.00  0.00    -0.014 A 
ATOM     82  C   UNL A   1      44.142  31.786  27.887  1.00  0.00     0.010 A 
ATOM     83  C   UNL A   1      46.502  31.681  28.389  1.00  0.00     0.010 A 
ATOM     84  C   UNL A   1      44.389  32.764  26.913  1.00  0.00     0.020 A 
ATOM     85  C   UNL A   1      46.755  32.670  27.431  1.00  0.00     0.020 A 
ATOM     86  C   UNL A   1      45.696  33.205  26.695  1.00  0.00     0.054 A 
BRANCH  86  87
ATOM     87  S   UNL A   1      45.996  34.528  25.488  1.00  0.00     0.124 S 
ATOM     88  O   UNL A   1      45.156  34.129  24.363  1.00  0.00    -0.237 OA
ATOM     89  O   UNL A   1      45.560  35.725  26.206  1.00  0.00    -0.237 OA
ATOM     90  O   UNL A   1      47.436  34.455  25.241  1.00  0.00    -0.744 OA
ENDBRANCH  86  87
ENDBRANCH  60  81
ENDBRANCH  34  35
ENDBRANCH  27  29
ENDBRANCH  26  27
ENDBRANCH   1  26
TORSDOF 16
ENDMDL
