MODEL 1
REMARK VINA RESULT:     -11.1      0.000      0.000
REMARK SMILES Cc1c(C)c2c(c(C)c1O)CC[C@@](C)(C(=O)OCCOC(=O)c1ccc(-c3c4nc(c(-c5ccc(S(=O)(=O)[O-])cc5)c5ccc([nH]5)c(-c5ccc(S(=O)(=O)[O-])cc5)c5nc(c(-c6ccc(S(=O)(=O)[O-])cc6)c6ccc3[nH]6)C=C5)C=C4)cc1)O2
REMARK SMILES IDX 19 1 18 2 17 3 15 4 16 5 13 6 1 7 2 8 3 9 9 10 4 11 5 12
REMARK SMILES IDX 7 13 6 14 83 15 8 16 11 17 12 18 14 19 10 20 20 22 21 23
REMARK SMILES IDX 22 24 23 25 24 26 82 27 25 28 81 29 26 30 27 31 28 32 75 33
REMARK SMILES IDX 29 34 80 35 74 36 76 37 30 38 79 39 73 40 72 41 31 43 61 44
REMARK SMILES IDX 42 45 60 46 43 47 46 48 59 49 77 50 44 51 45 52 58 54 78 55
REMARK SMILES IDX 47 56 32 57 33 58 41 59 34 60 40 61 35 62 36 63 37 64 38 65
REMARK SMILES IDX 39 66 62 67 63 68 71 69 64 70 70 71 65 72 66 73 67 74 68 75
REMARK SMILES IDX 69 76 48 77 49 78 57 79 50 80 56 81 51 82 52 83 53 84 54 85
REMARK SMILES IDX 55 86
REMARK H PARENT 10 21 76 42 46 53
REMARK Flexibility Score: inf
ROOT
ATOM      1  C   UNL A   1      32.716  28.711  26.648  1.00  0.00     0.275 C 
ENDROOT
BRANCH   1   2
ATOM      2  C   UNL A   1      31.741  27.604  27.042  1.00  0.00     0.274 C 
BRANCH   2   3
ATOM      3  O   UNL A   1      32.045  26.372  26.355  1.00  0.00    -0.459 OA
BRANCH   3   4
ATOM      4  C   UNL A   1      30.982  25.570  26.046  1.00  0.00     0.350 C 
ATOM      5  O   UNL A   1      29.817  25.864  26.292  1.00  0.00    -0.247 OA
BRANCH   4   6
ATOM      6  C   UNL A   1      31.427  24.226  25.423  1.00  0.00     0.203 C 
ATOM      7  C   UNL A   1      37.106  21.710  25.126  1.00  0.00     0.049 C 
ATOM      8  C   UNL A   1      35.597  21.745  25.158  1.00  0.00    -0.002 A 
ATOM      9  C   UNL A   1      34.891  22.961  25.330  1.00  0.00    -0.002 A 
ATOM     10  C   UNL A   1      34.860  20.551  25.049  1.00  0.00     0.122 A 
ATOM     11  C   UNL A   1      35.650  24.265  25.415  1.00  0.00     0.049 C 
ATOM     12  C   UNL A   1      33.481  22.947  25.407  1.00  0.00     0.127 A 
ATOM     13  C   UNL A   1      33.458  20.533  25.099  1.00  0.00    -0.002 A 
ATOM     14  C   UNL A   1      32.767  21.739  25.348  1.00  0.00     0.001 A 
ATOM     15  O   UNL A   1      32.860  24.164  25.553  1.00  0.00    -0.475 OA
ATOM     16  C   UNL A   1      32.705  19.237  24.934  1.00  0.00     0.049 C 
ATOM     17  C   UNL A   1      31.275  21.732  25.539  1.00  0.00     0.044 C 
ATOM     18  C   UNL A   1      30.782  23.039  26.135  1.00  0.00     0.065 C 
ATOM     19  C   UNL A   1      31.070  24.323  23.933  1.00  0.00     0.069 C 
BRANCH  10  20
ATOM     20  O   UNL A   1      35.493  19.343  24.897  1.00  0.00    -0.507 OA
ATOM     21  H   UNL A   1      35.063  18.642  24.446  1.00  0.00     0.293 HD
ENDBRANCH  10  20
ENDBRANCH   4   6
ENDBRANCH   3   4
ENDBRANCH   2   3
ENDBRANCH   1   2
BRANCH   1  22
ATOM     22  O   UNL A   1      33.832  28.732  27.554  1.00  0.00    -0.458 OA
BRANCH  22  23
ATOM     23  C   UNL A   1      34.309  29.957  27.878  1.00  0.00     0.338 C 
ATOM     24  O   UNL A   1      33.687  31.000  27.961  1.00  0.00    -0.246 OA
BRANCH  23  25
ATOM     25  C   UNL A   1      35.740  29.833  28.189  1.00  0.00     0.060 A 
ATOM     26  C   UNL A   1      36.662  30.087  27.178  1.00  0.00     0.016 A 
ATOM     27  C   UNL A   1      36.167  29.378  29.438  1.00  0.00     0.016 A 
ATOM     28  C   UNL A   1      38.014  29.859  27.398  1.00  0.00     0.010 A 
ATOM     29  C   UNL A   1      37.536  29.185  29.668  1.00  0.00     0.010 A 
ATOM     30  C   UNL A   1      38.469  29.402  28.640  1.00  0.00    -0.014 A 
BRANCH  30  31
ATOM     31  C   UNL A   1      39.909  29.068  28.795  1.00  0.00     0.031 A 
ATOM     32  C   UNL A   1      40.829  30.046  29.473  1.00  0.00     0.074 A 
ATOM     33  C   UNL A   1      40.372  27.852  28.442  1.00  0.00     0.049 A 
ATOM     34  N   UNL A   1      42.123  29.974  29.653  1.00  0.00    -0.248 NA
ATOM     35  C   UNL A   1      40.210  31.259  30.032  1.00  0.00     0.031 C 
ATOM     36  C   UNL A   1      39.561  26.765  27.888  1.00  0.00     0.029 A 
ATOM     37  N   UNL A   1      41.630  27.311  28.539  1.00  0.00    -0.354 N 
ATOM     38  C   UNL A   1      42.478  31.143  30.317  1.00  0.00     0.074 A 
ATOM     39  C   UNL A   1      41.266  31.912  30.499  1.00  0.00     0.031 C 
ATOM     40  C   UNL A   1      40.329  25.673  27.749  1.00  0.00     0.029 A 
ATOM     41  C   UNL A   1      41.700  26.000  28.130  1.00  0.00     0.049 A 
ATOM     42  H   UNL A   1      42.408  27.814  28.871  1.00  0.00     0.167 HD
ATOM     43  C   UNL A   1      43.702  31.541  30.736  1.00  0.00     0.031 A 
ATOM     44  C   UNL A   1      42.752  25.161  28.049  1.00  0.00     0.031 A 
ATOM     45  C   UNL A   1      44.906  30.773  30.564  1.00  0.00     0.049 A 
ATOM     46  C   UNL A   1      44.120  25.664  28.418  1.00  0.00     0.074 A 
ATOM     47  C   UNL A   1      46.204  31.117  30.897  1.00  0.00     0.029 A 
ATOM     48  N   UNL A   1      44.955  29.495  30.027  1.00  0.00    -0.354 N 
ATOM     49  N   UNL A   1      44.459  26.822  28.934  1.00  0.00    -0.248 NA
ATOM     50  C   UNL A   1      45.250  24.759  28.166  1.00  0.00     0.031 C 
ATOM     51  C   UNL A   1      47.044  30.060  30.528  1.00  0.00     0.029 A 
ATOM     52  C   UNL A   1      46.263  29.040  30.008  1.00  0.00     0.049 A 
ATOM     53  H   UNL A   1      44.176  28.988  29.706  1.00  0.00     0.167 HD
ATOM     54  C   UNL A   1      45.842  26.786  29.065  1.00  0.00     0.074 A 
ATOM     55  C   UNL A   1      46.275  25.484  28.598  1.00  0.00     0.031 C 
ATOM     56  C   UNL A   1      46.678  27.748  29.526  1.00  0.00     0.031 A 
BRANCH  43  57
ATOM     57  C   UNL A   1      43.800  32.898  31.377  1.00  0.00    -0.014 A 
ATOM     58  C   UNL A   1      43.696  33.056  32.770  1.00  0.00     0.010 A 
ATOM     59  C   UNL A   1      44.006  34.032  30.570  1.00  0.00     0.010 A 
ATOM     60  C   UNL A   1      43.755  34.331  33.341  1.00  0.00     0.020 A 
ATOM     61  C   UNL A   1      44.086  35.306  31.139  1.00  0.00     0.020 A 
ATOM     62  C   UNL A   1      43.941  35.447  32.521  1.00  0.00     0.054 A 
BRANCH  62  63
ATOM     63  S   UNL A   1      44.012  37.091  33.286  1.00  0.00     0.124 S 
ATOM     64  O   UNL A   1      42.809  37.087  34.117  1.00  0.00    -0.237 OA
ATOM     65  O   UNL A   1      45.278  37.054  34.013  1.00  0.00    -0.237 OA
ATOM     66  O   UNL A   1      43.978  38.006  32.147  1.00  0.00    -0.744 OA
ENDBRANCH  62  63
ENDBRANCH  43  57
BRANCH  44  67
ATOM     67  C   UNL A   1      42.556  23.769  27.563  1.00  0.00    -0.014 A 
ATOM     68  C   UNL A   1      42.673  23.469  26.195  1.00  0.00     0.010 A 
ATOM     69  C   UNL A   1      42.281  22.729  28.470  1.00  0.00     0.010 A 
ATOM     70  C   UNL A   1      42.525  22.154  25.744  1.00  0.00     0.020 A 
ATOM     71  C   UNL A   1      42.156  21.410  28.026  1.00  0.00     0.020 A 
ATOM     72  C   UNL A   1      42.274  21.131  26.663  1.00  0.00     0.054 A 
BRANCH  72  73
ATOM     73  S   UNL A   1      42.166  19.420  26.067  1.00  0.00     0.124 S 
ATOM     74  O   UNL A   1      42.690  18.669  27.202  1.00  0.00    -0.237 OA
ATOM     75  O   UNL A   1      40.736  19.265  25.809  1.00  0.00    -0.237 OA
ATOM     76  O   UNL A   1      43.008  19.421  24.873  1.00  0.00    -0.744 OA
ENDBRANCH  72  73
ENDBRANCH  44  67
BRANCH  56  77
ATOM     77  C   UNL A   1      48.148  27.434  29.548  1.00  0.00    -0.014 A 
ATOM     78  C   UNL A   1      48.960  27.713  28.435  1.00  0.00     0.010 A 
ATOM     79  C   UNL A   1      48.736  26.920  30.718  1.00  0.00     0.010 A 
ATOM     80  C   UNL A   1      50.334  27.468  28.486  1.00  0.00     0.020 A 
ATOM     81  C   UNL A   1      50.113  26.691  30.779  1.00  0.00     0.020 A 
ATOM     82  C   UNL A   1      50.903  26.959  29.658  1.00  0.00     0.054 A 
BRANCH  82  83
ATOM     83  S   UNL A   1      52.698  26.702  29.718  1.00  0.00     0.124 S 
ATOM     84  O   UNL A   1      52.842  25.824  30.875  1.00  0.00    -0.237 OA
ATOM     85  O   UNL A   1      52.977  26.086  28.423  1.00  0.00    -0.237 OA
ATOM     86  O   UNL A   1      53.235  28.051  29.887  1.00  0.00    -0.744 OA
ENDBRANCH  82  83
ENDBRANCH  56  77
ENDBRANCH  30  31
ENDBRANCH  23  25
ENDBRANCH  22  23
ENDBRANCH   1  22
TORSDOF 15
ENDMDL
MODEL 2
REMARK VINA RESULT:     -10.9      5.797     11.963
REMARK SMILES Cc1c(C)c2c(c(C)c1O)CC[C@@](C)(C(=O)OCCOC(=O)c1ccc(-c3c4nc(c(-c5ccc(S(=O)(=O)[O-])cc5)c5ccc([nH]5)c(-c5ccc(S(=O)(=O)[O-])cc5)c5nc(c(-c6ccc(S(=O)(=O)[O-])cc6)c6ccc3[nH]6)C=C5)C=C4)cc1)O2
REMARK SMILES IDX 19 1 18 2 17 3 15 4 16 5 13 6 1 7 2 8 3 9 9 10 4 11 5 12
REMARK SMILES IDX 7 13 6 14 83 15 8 16 11 17 12 18 14 19 10 20 20 22 21 23
REMARK SMILES IDX 22 24 23 25 24 26 82 27 25 28 81 29 26 30 27 31 28 32 75 33
REMARK SMILES IDX 29 34 80 35 74 36 76 37 30 38 79 39 73 40 72 41 31 43 61 44
REMARK SMILES IDX 42 45 60 46 43 47 46 48 59 49 77 50 44 51 45 52 58 54 78 55
REMARK SMILES IDX 47 56 32 57 33 58 41 59 34 60 40 61 35 62 36 63 37 64 38 65
REMARK SMILES IDX 39 66 62 67 63 68 71 69 64 70 70 71 65 72 66 73 67 74 68 75
REMARK SMILES IDX 69 76 48 77 49 78 57 79 50 80 56 81 51 82 52 83 53 84 54 85
REMARK SMILES IDX 55 86
REMARK H PARENT 10 21 76 42 46 53
REMARK Flexibility Score: inf
ROOT
ATOM      1  C   UNL A   1      42.339  26.040  26.506  1.00  0.00     0.275 C 
ENDROOT
BRANCH   1   2
ATOM      2  C   UNL A   1      43.445  26.543  25.580  1.00  0.00     0.274 C 
BRANCH   2   3
ATOM      3  O   UNL A   1      43.970  25.477  24.763  1.00  0.00    -0.459 OA
BRANCH   3   4
ATOM      4  C   UNL A   1      45.246  25.072  25.037  1.00  0.00     0.350 C 
ATOM      5  O   UNL A   1      46.229  25.793  24.907  1.00  0.00    -0.247 OA
BRANCH   4   6
ATOM      6  C   UNL A   1      45.308  23.584  25.454  1.00  0.00     0.203 C 
ATOM      7  C   UNL A   1      40.669  19.528  26.289  1.00  0.00     0.049 C 
ATOM      8  C   UNL A   1      42.072  19.998  25.987  1.00  0.00    -0.002 A 
ATOM      9  C   UNL A   1      42.390  21.377  25.932  1.00  0.00    -0.002 A 
ATOM     10  C   UNL A   1      43.089  19.063  25.721  1.00  0.00     0.122 A 
ATOM     11  C   UNL A   1      41.331  22.407  26.247  1.00  0.00     0.049 C 
ATOM     12  C   UNL A   1      43.702  21.779  25.595  1.00  0.00     0.127 A 
ATOM     13  C   UNL A   1      44.400  19.456  25.411  1.00  0.00    -0.002 A 
ATOM     14  C   UNL A   1      44.690  20.831  25.282  1.00  0.00     0.001 A 
ATOM     15  O   UNL A   1      43.946  23.132  25.580  1.00  0.00    -0.475 OA
ATOM     16  C   UNL A   1      45.471  18.420  25.175  1.00  0.00     0.049 C 
ATOM     17  C   UNL A   1      46.050  21.279  24.821  1.00  0.00     0.044 C 
ATOM     18  C   UNL A   1      46.047  22.743  24.415  1.00  0.00     0.065 C 
ATOM     19  C   UNL A   1      45.965  23.570  26.842  1.00  0.00     0.069 C 
BRANCH  10  20
ATOM     20  O   UNL A   1      42.832  17.716  25.746  1.00  0.00    -0.507 OA
ATOM     21  H   UNL A   1      43.196  17.182  26.426  1.00  0.00     0.293 HD
ENDBRANCH  10  20
ENDBRANCH   4   6
ENDBRANCH   3   4
ENDBRANCH   2   3
ENDBRANCH   1   2
BRANCH   1  22
ATOM     22  O   UNL A   1      41.059  26.496  26.040  1.00  0.00    -0.458 OA
BRANCH  22  23
ATOM     23  C   UNL A   1      39.983  26.036  26.721  1.00  0.00     0.338 C 
ATOM     24  O   UNL A   1      39.286  25.076  26.451  1.00  0.00    -0.246 OA
BRANCH  23  25
ATOM     25  C   UNL A   1      39.803  26.863  27.923  1.00  0.00     0.060 A 
ATOM     26  C   UNL A   1      40.272  28.173  27.901  1.00  0.00     0.016 A 
ATOM     27  C   UNL A   1      39.263  26.324  29.092  1.00  0.00     0.016 A 
ATOM     28  C   UNL A   1      40.234  28.943  29.056  1.00  0.00     0.010 A 
ATOM     29  C   UNL A   1      39.192  27.117  30.245  1.00  0.00     0.010 A 
ATOM     30  C   UNL A   1      39.699  28.428  30.241  1.00  0.00    -0.014 A 
BRANCH  30  31
ATOM     31  C   UNL A   1      39.778  29.249  31.478  1.00  0.00     0.031 A 
ATOM     32  C   UNL A   1      40.992  29.146  32.361  1.00  0.00     0.074 A 
ATOM     33  C   UNL A   1      38.830  30.167  31.752  1.00  0.00     0.049 A 
ATOM     34  N   UNL A   1      41.229  29.726  33.509  1.00  0.00    -0.248 NA
ATOM     35  C   UNL A   1      42.088  28.287  31.883  1.00  0.00     0.031 C 
ATOM     36  C   UNL A   1      37.663  30.456  30.916  1.00  0.00     0.029 A 
ATOM     37  N   UNL A   1      38.722  31.059  32.791  1.00  0.00    -0.354 N 
ATOM     38  C   UNL A   1      42.485  29.280  33.907  1.00  0.00     0.074 A 
ATOM     39  C   UNL A   1      42.956  28.373  32.881  1.00  0.00     0.031 C 
ATOM     40  C   UNL A   1      36.991  31.491  31.443  1.00  0.00     0.029 A 
ATOM     41  C   UNL A   1      37.632  31.891  32.693  1.00  0.00     0.049 A 
ATOM     42  H   UNL A   1      39.365  31.098  33.536  1.00  0.00     0.167 HD
ATOM     43  C   UNL A   1      43.183  29.595  35.023  1.00  0.00     0.031 A 
ATOM     44  C   UNL A   1      37.185  32.853  33.524  1.00  0.00     0.031 A 
ATOM     45  C   UNL A   1      42.719  30.504  36.037  1.00  0.00     0.049 A 
ATOM     46  C   UNL A   1      37.919  33.108  34.811  1.00  0.00     0.074 A 
ATOM     47  C   UNL A   1      43.324  30.841  37.235  1.00  0.00     0.029 A 
ATOM     48  N   UNL A   1      41.544  31.237  35.961  1.00  0.00    -0.354 N 
ATOM     49  N   UNL A   1      39.047  32.587  35.232  1.00  0.00    -0.248 NA
ATOM     50  C   UNL A   1      37.304  34.057  35.750  1.00  0.00     0.031 C 
ATOM     51  C   UNL A   1      42.496  31.752  37.901  1.00  0.00     0.029 A 
ATOM     52  C   UNL A   1      41.398  32.016  37.096  1.00  0.00     0.049 A 
ATOM     53  H   UNL A   1      40.907  31.206  35.211  1.00  0.00     0.167 HD
ATOM     54  C   UNL A   1      39.275  33.142  36.485  1.00  0.00     0.074 A 
ATOM     55  C   UNL A   1      38.182  34.058  36.744  1.00  0.00     0.031 C 
ATOM     56  C   UNL A   1      40.297  32.910  37.346  1.00  0.00     0.031 A 
BRANCH  43  57
ATOM     57  C   UNL A   1      44.503  28.905  35.224  1.00  0.00    -0.014 A 
ATOM     58  C   UNL A   1      44.583  27.659  35.871  1.00  0.00     0.010 A 
ATOM     59  C   UNL A   1      45.681  29.511  34.752  1.00  0.00     0.010 A 
ATOM     60  C   UNL A   1      45.825  27.051  36.078  1.00  0.00     0.020 A 
ATOM     61  C   UNL A   1      46.922  28.897  34.939  1.00  0.00     0.020 A 
ATOM     62  C   UNL A   1      46.987  27.678  35.619  1.00  0.00     0.054 A 
BRANCH  62  63
ATOM     63  S   UNL A   1      48.587  26.870  35.902  1.00  0.00     0.124 S 
ATOM     64  O   UNL A   1      48.250  25.895  36.938  1.00  0.00    -0.237 OA
ATOM     65  O   UNL A   1      48.901  26.309  34.591  1.00  0.00    -0.237 OA
ATOM     66  O   UNL A   1      49.455  27.962  36.334  1.00  0.00    -0.744 OA
ENDBRANCH  62  63
ENDBRANCH  43  57
BRANCH  44  67
ATOM     67  C   UNL A   1      35.958  33.621  33.180  1.00  0.00    -0.014 A 
ATOM     68  C   UNL A   1      34.689  33.031  33.309  1.00  0.00     0.010 A 
ATOM     69  C   UNL A   1      36.050  34.957  32.750  1.00  0.00     0.010 A 
ATOM     70  C   UNL A   1      33.535  33.765  33.021  1.00  0.00     0.020 A 
ATOM     71  C   UNL A   1      34.898  35.702  32.484  1.00  0.00     0.020 A 
ATOM     72  C   UNL A   1      33.646  35.099  32.617  1.00  0.00     0.054 A 
BRANCH  72  73
ATOM     73  S   UNL A   1      32.133  36.058  32.325  1.00  0.00     0.124 S 
ATOM     74  O   UNL A   1      32.315  37.192  33.225  1.00  0.00    -0.237 OA
ATOM     75  O   UNL A   1      32.220  36.360  30.898  1.00  0.00    -0.237 OA
ATOM     76  O   UNL A   1      31.065  35.130  32.692  1.00  0.00    -0.744 OA
ENDBRANCH  72  73
ENDBRANCH  44  67
BRANCH  56  77
ATOM     77  C   UNL A   1      40.284  33.655  38.651  1.00  0.00    -0.014 A 
ATOM     78  C   UNL A   1      40.914  34.907  38.771  1.00  0.00     0.010 A 
ATOM     79  C   UNL A   1      39.578  33.131  39.749  1.00  0.00     0.010 A 
ATOM     80  C   UNL A   1      40.850  35.615  39.972  1.00  0.00     0.020 A 
ATOM     81  C   UNL A   1      39.496  33.847  40.947  1.00  0.00     0.020 A 
ATOM     82  C   UNL A   1      40.141  35.082  41.053  1.00  0.00     0.054 A 
BRANCH  82  83
ATOM     83  S   UNL A   1      40.025  36.048  42.585  1.00  0.00     0.124 S 
ATOM     84  O   UNL A   1      39.527  37.331  42.098  1.00  0.00    -0.237 OA
ATOM     85  O   UNL A   1      39.083  35.270  43.384  1.00  0.00    -0.237 OA
ATOM     86  O   UNL A   1      41.397  36.062  43.089  1.00  0.00    -0.744 OA
ENDBRANCH  82  83
ENDBRANCH  56  77
ENDBRANCH  30  31
ENDBRANCH  23  25
ENDBRANCH  22  23
ENDBRANCH   1  22
TORSDOF 15
ENDMDL
MODEL 3
REMARK VINA RESULT:     -10.9      0.930      1.479
REMARK SMILES Cc1c(C)c2c(c(C)c1O)CC[C@@](C)(C(=O)OCCOC(=O)c1ccc(-c3c4nc(c(-c5ccc(S(=O)(=O)[O-])cc5)c5ccc([nH]5)c(-c5ccc(S(=O)(=O)[O-])cc5)c5nc(c(-c6ccc(S(=O)(=O)[O-])cc6)c6ccc3[nH]6)C=C5)C=C4)cc1)O2
REMARK SMILES IDX 19 1 18 2 17 3 15 4 16 5 13 6 1 7 2 8 3 9 9 10 4 11 5 12
REMARK SMILES IDX 7 13 6 14 83 15 8 16 11 17 12 18 14 19 10 20 20 22 21 23
REMARK SMILES IDX 22 24 23 25 24 26 82 27 25 28 81 29 26 30 27 31 28 32 75 33
REMARK SMILES IDX 29 34 80 35 74 36 76 37 30 38 79 39 73 40 72 41 31 43 61 44
REMARK SMILES IDX 42 45 60 46 43 47 46 48 59 49 77 50 44 51 45 52 58 54 78 55
REMARK SMILES IDX 47 56 32 57 33 58 41 59 34 60 40 61 35 62 36 63 37 64 38 65
REMARK SMILES IDX 39 66 62 67 63 68 71 69 64 70 70 71 65 72 66 73 67 74 68 75
REMARK SMILES IDX 69 76 48 77 49 78 57 79 50 80 56 81 51 82 52 83 53 84 54 85
REMARK SMILES IDX 55 86
REMARK H PARENT 10 21 76 42 46 53
REMARK Flexibility Score: inf
ROOT
ATOM      1  C   UNL A   1      32.761  28.295  27.244  1.00  0.00     0.275 C 
ENDROOT
BRANCH   1   2
ATOM      2  C   UNL A   1      31.919  27.949  26.017  1.00  0.00     0.274 C 
BRANCH   2   3
ATOM      3  O   UNL A   1      32.188  26.609  25.558  1.00  0.00    -0.459 OA
BRANCH   3   4
ATOM      4  C   UNL A   1      31.242  25.666  25.846  1.00  0.00     0.350 C 
ATOM      5  O   UNL A   1      30.252  25.887  26.535  1.00  0.00    -0.247 OA
BRANCH   4   6
ATOM      6  C   UNL A   1      31.605  24.279  25.265  1.00  0.00     0.203 C 
ATOM      7  C   UNL A   1      37.143  21.469  24.948  1.00  0.00     0.049 C 
ATOM      8  C   UNL A   1      35.638  21.581  25.009  1.00  0.00    -0.002 A 
ATOM      9  C   UNL A   1      34.999  22.837  25.149  1.00  0.00    -0.002 A 
ATOM     10  C   UNL A   1      34.841  20.423  24.962  1.00  0.00     0.122 A 
ATOM     11  C   UNL A   1      35.823  24.103  25.169  1.00  0.00     0.049 C 
ATOM     12  C   UNL A   1      33.592  22.897  25.256  1.00  0.00     0.127 A 
ATOM     13  C   UNL A   1      33.441  20.478  25.041  1.00  0.00    -0.002 A 
ATOM     14  C   UNL A   1      32.817  21.726  25.258  1.00  0.00     0.001 A 
ATOM     15  O   UNL A   1      33.036  24.149  25.369  1.00  0.00    -0.475 OA
ATOM     16  C   UNL A   1      32.621  19.217  24.942  1.00  0.00     0.049 C 
ATOM     17  C   UNL A   1      31.331  21.802  25.480  1.00  0.00     0.044 C 
ATOM     18  C   UNL A   1      30.918  23.154  26.036  1.00  0.00     0.065 C 
ATOM     19  C   UNL A   1      31.219  24.338  23.780  1.00  0.00     0.069 C 
BRANCH  10  20
ATOM     20  O   UNL A   1      35.409  19.180  24.842  1.00  0.00    -0.507 OA
ATOM     21  H   UNL A   1      34.888  18.412  24.976  1.00  0.00     0.293 HD
ENDBRANCH  10  20
ENDBRANCH   4   6
ENDBRANCH   3   4
ENDBRANCH   2   3
ENDBRANCH   1   2
BRANCH   1  22
ATOM     22  O   UNL A   1      33.965  28.970  26.843  1.00  0.00    -0.458 OA
BRANCH  22  23
ATOM     23  C   UNL A   1      34.295  30.069  27.560  1.00  0.00     0.338 C 
ATOM     24  O   UNL A   1      33.590  31.026  27.821  1.00  0.00    -0.246 OA
BRANCH  23  25
ATOM     25  C   UNL A   1      35.670  29.910  28.052  1.00  0.00     0.060 A 
ATOM     26  C   UNL A   1      36.720  30.132  27.167  1.00  0.00     0.016 A 
ATOM     27  C   UNL A   1      35.921  29.453  29.348  1.00  0.00     0.016 A 
ATOM     28  C   UNL A   1      38.026  29.870  27.560  1.00  0.00     0.010 A 
ATOM     29  C   UNL A   1      37.243  29.226  29.752  1.00  0.00     0.010 A 
ATOM     30  C   UNL A   1      38.306  29.411  28.851  1.00  0.00    -0.014 A 
BRANCH  30  31
ATOM     31  C   UNL A   1      39.705  29.040  29.192  1.00  0.00     0.031 A 
ATOM     32  C   UNL A   1      40.516  29.941  30.082  1.00  0.00     0.074 A 
ATOM     33  C   UNL A   1      40.210  27.851  28.808  1.00  0.00     0.049 A 
ATOM     34  N   UNL A   1      41.767  29.832  30.447  1.00  0.00    -0.248 NA
ATOM     35  C   UNL A   1      39.824  31.113  30.644  1.00  0.00     0.031 C 
ATOM     36  C   UNL A   1      39.489  26.830  28.046  1.00  0.00     0.029 A 
ATOM     37  N   UNL A   1      41.438  27.282  29.045  1.00  0.00    -0.354 N 
ATOM     38  C   UNL A   1      42.023  30.934  31.255  1.00  0.00     0.074 A 
ATOM     39  C   UNL A   1      40.800  31.705  31.320  1.00  0.00     0.031 C 
ATOM     40  C   UNL A   1      40.264  25.740  27.929  1.00  0.00     0.029 A 
ATOM     41  C   UNL A   1      41.563  26.010  28.539  1.00  0.00     0.049 A 
ATOM     42  H   UNL A   1      42.159  27.742  29.533  1.00  0.00     0.167 HD
ATOM     43  C   UNL A   1      43.171  31.274  31.887  1.00  0.00     0.031 A 
ATOM     44  C   UNL A   1      42.612  25.163  28.544  1.00  0.00     0.031 A 
ATOM     45  C   UNL A   1      44.384  30.503  31.831  1.00  0.00     0.049 A 
ATOM     46  C   UNL A   1      43.910  25.609  29.157  1.00  0.00     0.074 A 
ATOM     47  C   UNL A   1      45.619  30.795  32.384  1.00  0.00     0.029 A 
ATOM     48  N   UNL A   1      44.509  29.274  31.199  1.00  0.00    -0.354 N 
ATOM     49  N   UNL A   1      44.173  26.713  29.816  1.00  0.00    -0.248 NA
ATOM     50  C   UNL A   1      45.062  24.710  29.000  1.00  0.00     0.031 C 
ATOM     51  C   UNL A   1      46.501  29.758  32.055  1.00  0.00     0.029 A 
ATOM     52  C   UNL A   1      45.802  28.800  31.337  1.00  0.00     0.049 A 
ATOM     53  H   UNL A   1      43.785  28.810  30.721  1.00  0.00     0.167 HD
ATOM     54  C   UNL A   1      45.520  26.642  30.149  1.00  0.00     0.074 A 
ATOM     55  C   UNL A   1      46.013  25.377  29.642  1.00  0.00     0.031 C 
ATOM     56  C   UNL A   1      46.281  27.547  30.812  1.00  0.00     0.031 A 
BRANCH  43  57
ATOM     57  C   UNL A   1      43.177  32.569  32.650  1.00  0.00    -0.014 A 
ATOM     58  C   UNL A   1      43.485  33.787  32.019  1.00  0.00     0.010 A 
ATOM     59  C   UNL A   1      42.860  32.567  34.021  1.00  0.00     0.010 A 
ATOM     60  C   UNL A   1      43.518  34.975  32.755  1.00  0.00     0.020 A 
ATOM     61  C   UNL A   1      42.872  33.755  34.757  1.00  0.00     0.020 A 
ATOM     62  C   UNL A   1      43.220  34.949  34.121  1.00  0.00     0.054 A 
BRANCH  62  63
ATOM     63  S   UNL A   1      43.272  36.503  35.056  1.00  0.00     0.124 S 
ATOM     64  O   UNL A   1      42.803  37.467  34.062  1.00  0.00    -0.237 OA
ATOM     65  O   UNL A   1      42.353  36.245  36.162  1.00  0.00    -0.237 OA
ATOM     66  O   UNL A   1      44.677  36.634  35.435  1.00  0.00    -0.744 OA
ENDBRANCH  62  63
ENDBRANCH  43  57
BRANCH  44  67
ATOM     67  C   UNL A   1      42.486  23.821  27.916  1.00  0.00    -0.014 A 
ATOM     68  C   UNL A   1      42.691  23.659  26.535  1.00  0.00     0.010 A 
ATOM     69  C   UNL A   1      42.189  22.691  28.700  1.00  0.00     0.010 A 
ATOM     70  C   UNL A   1      42.609  22.391  25.951  1.00  0.00     0.020 A 
ATOM     71  C   UNL A   1      42.129  21.419  28.124  1.00  0.00     0.020 A 
ATOM     72  C   UNL A   1      42.335  21.278  26.751  1.00  0.00     0.054 A 
BRANCH  72  73
ATOM     73  S   UNL A   1      42.313  19.631  25.986  1.00  0.00     0.124 S 
ATOM     74  O   UNL A   1      42.582  18.763  27.128  1.00  0.00    -0.237 OA
ATOM     75  O   UNL A   1      40.960  19.556  25.439  1.00  0.00    -0.237 OA
ATOM     76  O   UNL A   1      43.376  19.704  24.988  1.00  0.00    -0.744 OA
ENDBRANCH  72  73
ENDBRANCH  44  67
BRANCH  56  77
ATOM     77  C   UNL A   1      47.729  27.207  31.028  1.00  0.00    -0.014 A 
ATOM     78  C   UNL A   1      48.127  26.416  32.121  1.00  0.00     0.010 A 
ATOM     79  C   UNL A   1      48.692  27.623  30.092  1.00  0.00     0.010 A 
ATOM     80  C   UNL A   1      49.467  26.061  32.282  1.00  0.00     0.020 A 
ATOM     81  C   UNL A   1      50.032  27.253  30.240  1.00  0.00     0.020 A 
ATOM     82  C   UNL A   1      50.412  26.481  31.340  1.00  0.00     0.054 A 
BRANCH  82  83
ATOM     83  S   UNL A   1      52.138  25.958  31.543  1.00  0.00     0.124 S 
ATOM     84  O   UNL A   1      52.666  26.122  30.191  1.00  0.00    -0.237 OA
ATOM     85  O   UNL A   1      52.645  26.903  32.534  1.00  0.00    -0.237 OA
ATOM     86  O   UNL A   1      52.029  24.577  32.007  1.00  0.00    -0.744 OA
ENDBRANCH  82  83
ENDBRANCH  56  77
ENDBRANCH  30  31
ENDBRANCH  23  25
ENDBRANCH  22  23
ENDBRANCH   1  22
TORSDOF 15
ENDMDL
