MODEL 1
REMARK VINA RESULT:     -11.2      0.000      0.000
REMARK SMILES Cc1ccnc(C(=O)c2[nH]c3ccc(F)cc3c2CC(=O)OCCOC(=O)c2ccc(-c3c4nc(c(-c5ccc(S(=O)(=O)[O-])cc5)c5ccc([nH]5)c(-c5ccc(S(=O)(=O)[O-])cc5)c5nc(c(-c6ccc(S(=O)(=O)[O-])cc6)c6ccc3[nH]6)C=C5)C=C4)cc2)c1
REMARK SMILES IDX 23 1 22 2 20 3 21 4 19 5 18 6 9 7 10 8 11 9 17 11 12 12
REMARK SMILES IDX 16 13 13 14 14 15 15 16 7 17 8 18 6 19 1 20 2 21 3 22 88 23
REMARK SMILES IDX 4 24 5 25 24 26 25 27 26 28 27 29 28 30 29 31 87 32 30 33
REMARK SMILES IDX 86 34 31 35 32 36 33 37 80 38 34 39 85 40 79 41 81 42 35 43
REMARK SMILES IDX 84 44 78 45 77 46 36 48 66 49 47 50 65 51 48 52 51 53 64 54
REMARK SMILES IDX 82 55 49 56 50 57 63 59 83 60 52 61 37 62 38 63 46 64 39 65
REMARK SMILES IDX 45 66 40 67 41 68 42 69 43 70 44 71 67 72 68 73 76 74 69 75
REMARK SMILES IDX 75 76 70 77 71 78 72 79 73 80 74 81 53 82 54 83 62 84 55 85
REMARK SMILES IDX 61 86 56 87 57 88 58 89 59 90 60 91
REMARK H PARENT 10 10 81 47 51 58
REMARK Flexibility Score: inf
ROOT
ATOM      1  C   UNL A   1      35.804  22.085  24.477  1.00  0.00     0.274 C 
ENDROOT
BRANCH   1   2
ATOM      2  O   UNL A   1      35.762  23.006  23.366  1.00  0.00    -0.462 OA
BRANCH   2   3
ATOM      3  C   UNL A   1      34.932  24.072  23.517  1.00  0.00     0.310 C 
ATOM      4  O   UNL A   1      34.218  24.509  22.616  1.00  0.00    -0.252 OA
BRANCH   3   5
ATOM      5  C   UNL A   1      34.821  24.593  24.932  1.00  0.00     0.161 C 
BRANCH   5   6
ATOM      6  C   UNL A   1      33.529  25.219  25.362  1.00  0.00     0.000 A 
ATOM      7  C   UNL A   1      32.424  24.599  25.956  1.00  0.00     0.093 A 
ATOM      8  N   UNL A   1      31.374  25.487  25.856  1.00  0.00    -0.352 N 
ATOM      9  C   UNL A   1      31.755  26.635  25.203  1.00  0.00     0.046 A 
ATOM     10  H   UNL A   1      30.470  25.321  26.208  1.00  0.00     0.167 HD
ATOM     11  C   UNL A   1      33.121  26.532  24.955  1.00  0.00     0.007 A 
ATOM     12  C   UNL A   1      30.984  27.716  24.756  1.00  0.00     0.030 A 
ATOM     13  C   UNL A   1      33.770  27.583  24.274  1.00  0.00     0.049 A 
ATOM     14  C   UNL A   1      31.642  28.734  24.057  1.00  0.00     0.041 A 
ATOM     15  C   UNL A   1      33.011  28.669  23.839  1.00  0.00     0.123 A 
ATOM     16  F   UNL A   1      33.615  29.658  23.164  1.00  0.00    -0.207 F 
BRANCH   7  17
ATOM     17  C   UNL A   1      32.184  23.199  26.300  1.00  0.00     0.227 C 
ATOM     18  O   UNL A   1      32.116  22.883  27.486  1.00  0.00    -0.285 OA
BRANCH  17  19
ATOM     19  C   UNL A   1      32.102  22.114  25.243  1.00  0.00     0.113 A 
ATOM     20  C   UNL A   1      33.036  18.494  24.576  1.00  0.00     0.044 C 
ATOM     21  C   UNL A   1      32.519  19.892  24.403  1.00  0.00    -0.047 A 
ATOM     22  C   UNL A   1      32.304  20.382  23.113  1.00  0.00     0.023 A 
ATOM     23  C   UNL A   1      32.380  20.768  25.494  1.00  0.00     0.036 A 
ATOM     24  C   UNL A   1      31.953  21.710  22.959  1.00  0.00     0.112 A 
ATOM     25  N   UNL A   1      31.845  22.575  23.986  1.00  0.00    -0.253 NA
ENDBRANCH  17  19
ENDBRANCH   7  17
ENDBRANCH   5   6
ENDBRANCH   3   5
ENDBRANCH   2   3
ENDBRANCH   1   2
BRANCH   1  26
ATOM     26  C   UNL A   1      37.233  21.932  25.024  1.00  0.00     0.275 C 
BRANCH  26  27
ATOM     27  O   UNL A   1      37.784  23.159  25.558  1.00  0.00    -0.458 OA
BRANCH  27  28
ATOM     28  C   UNL A   1      38.954  22.966  26.203  1.00  0.00     0.338 C 
ATOM     29  O   UNL A   1      39.592  21.933  26.202  1.00  0.00    -0.246 OA
BRANCH  28  30
ATOM     30  C   UNL A   1      39.517  24.129  26.877  1.00  0.00     0.060 A 
ATOM     31  C   UNL A   1      39.110  24.387  28.186  1.00  0.00     0.016 A 
ATOM     32  C   UNL A   1      40.166  25.107  26.118  1.00  0.00     0.016 A 
ATOM     33  C   UNL A   1      39.357  25.636  28.744  1.00  0.00     0.010 A 
ATOM     34  C   UNL A   1      40.467  26.339  26.700  1.00  0.00     0.010 A 
ATOM     35  C   UNL A   1      40.070  26.607  28.019  1.00  0.00    -0.014 A 
BRANCH  35  36
ATOM     36  C   UNL A   1      40.596  27.787  28.739  1.00  0.00     0.031 A 
ATOM     37  C   UNL A   1      41.991  27.861  29.279  1.00  0.00     0.074 A 
ATOM     38  C   UNL A   1      39.742  28.818  28.889  1.00  0.00     0.049 A 
ATOM     39  N   UNL A   1      42.564  28.854  29.910  1.00  0.00    -0.248 NA
ATOM     40  C   UNL A   1      42.849  26.681  29.102  1.00  0.00     0.031 C 
ATOM     41  C   UNL A   1      38.358  28.834  28.402  1.00  0.00     0.029 A 
ATOM     42  N   UNL A   1      39.904  30.044  29.473  1.00  0.00    -0.354 N 
ATOM     43  C   UNL A   1      43.850  28.426  30.213  1.00  0.00     0.074 A 
ATOM     44  C   UNL A   1      43.966  27.071  29.709  1.00  0.00     0.031 C 
ATOM     45  C   UNL A   1      37.809  30.023  28.678  1.00  0.00     0.029 A 
ATOM     46  C   UNL A   1      38.781  30.830  29.401  1.00  0.00     0.049 A 
ATOM     47  H   UNL A   1      40.741  30.333  29.901  1.00  0.00     0.167 HD
ATOM     48  C   UNL A   1      44.833  29.107  30.853  1.00  0.00     0.031 A 
ATOM     49  C   UNL A   1      38.545  32.066  29.875  1.00  0.00     0.031 A 
ATOM     50  C   UNL A   1      44.693  30.454  31.353  1.00  0.00     0.049 A 
ATOM     51  C   UNL A   1      39.642  32.784  30.592  1.00  0.00     0.074 A 
ATOM     52  C   UNL A   1      45.644  31.245  31.978  1.00  0.00     0.029 A 
ATOM     53  N   UNL A   1      43.530  31.211  31.293  1.00  0.00    -0.354 N 
ATOM     54  N   UNL A   1      40.862  32.373  30.842  1.00  0.00    -0.248 NA
ATOM     55  C   UNL A   1      39.335  34.130  31.089  1.00  0.00     0.031 C 
ATOM     56  C   UNL A   1      45.043  32.457  32.338  1.00  0.00     0.029 A 
ATOM     57  C   UNL A   1      43.730  32.443  31.895  1.00  0.00     0.049 A 
ATOM     58  H   UNL A   1      42.686  30.914  30.883  1.00  0.00     0.167 HD
ATOM     59  C   UNL A   1      41.475  33.414  31.523  1.00  0.00     0.074 A 
ATOM     60  C   UNL A   1      40.495  34.479  31.628  1.00  0.00     0.031 C 
ATOM     61  C   UNL A   1      42.736  33.480  32.017  1.00  0.00     0.031 A 
BRANCH  48  62
ATOM     62  C   UNL A   1      46.148  28.405  31.079  1.00  0.00    -0.014 A 
ATOM     63  C   UNL A   1      46.354  27.580  32.198  1.00  0.00     0.010 A 
ATOM     64  C   UNL A   1      47.167  28.509  30.112  1.00  0.00     0.010 A 
ATOM     65  C   UNL A   1      47.563  26.894  32.362  1.00  0.00     0.020 A 
ATOM     66  C   UNL A   1      48.369  27.811  30.263  1.00  0.00     0.020 A 
ATOM     67  C   UNL A   1      48.565  27.018  31.395  1.00  0.00     0.054 A 
BRANCH  67  68
ATOM     68  S   UNL A   1      50.112  26.090  31.608  1.00  0.00     0.124 S 
ATOM     69  O   UNL A   1      50.897  26.998  32.441  1.00  0.00    -0.237 OA
ATOM     70  O   UNL A   1      49.667  24.863  32.264  1.00  0.00    -0.237 OA
ATOM     71  O   UNL A   1      50.604  25.917  30.243  1.00  0.00    -0.744 OA
ENDBRANCH  67  68
ENDBRANCH  48  62
BRANCH  49  72
ATOM     72  C   UNL A   1      37.204  32.667  29.672  1.00  0.00    -0.014 A 
ATOM     73  C   UNL A   1      36.243  32.625  30.694  1.00  0.00     0.010 A 
ATOM     74  C   UNL A   1      36.927  33.378  28.490  1.00  0.00     0.010 A 
ATOM     75  C   UNL A   1      35.026  33.295  30.541  1.00  0.00     0.020 A 
ATOM     76  C   UNL A   1      35.723  34.067  28.343  1.00  0.00     0.020 A 
ATOM     77  C   UNL A   1      34.776  34.017  29.369  1.00  0.00     0.054 A 
BRANCH  77  78
ATOM     78  S   UNL A   1      33.238  34.968  29.231  1.00  0.00     0.124 S 
ATOM     79  O   UNL A   1      32.488  34.187  28.251  1.00  0.00    -0.237 OA
ATOM     80  O   UNL A   1      32.718  34.940  30.595  1.00  0.00    -0.237 OA
ATOM     81  O   UNL A   1      33.691  36.280  28.774  1.00  0.00    -0.744 OA
ENDBRANCH  77  78
ENDBRANCH  49  72
BRANCH  61  82
ATOM     82  C   UNL A   1      43.114  34.753  32.718  1.00  0.00    -0.014 A 
ATOM     83  C   UNL A   1      43.561  35.870  31.988  1.00  0.00     0.010 A 
ATOM     84  C   UNL A   1      43.020  34.837  34.118  1.00  0.00     0.010 A 
ATOM     85  C   UNL A   1      43.943  37.038  32.652  1.00  0.00     0.020 A 
ATOM     86  C   UNL A   1      43.382  36.011  34.783  1.00  0.00     0.020 A 
ATOM     87  C   UNL A   1      43.858  37.098  34.047  1.00  0.00     0.054 A 
BRANCH  87  88
ATOM     88  S   UNL A   1      44.342  38.630  34.889  1.00  0.00     0.124 S 
ATOM     89  O   UNL A   1      43.541  39.628  34.185  1.00  0.00    -0.237 OA
ATOM     90  O   UNL A   1      43.952  38.376  36.274  1.00  0.00    -0.237 OA
ATOM     91  O   UNL A   1      45.781  38.710  34.659  1.00  0.00    -0.744 OA
ENDBRANCH  87  88
ENDBRANCH  61  82
ENDBRANCH  35  36
ENDBRANCH  28  30
ENDBRANCH  27  28
ENDBRANCH  26  27
ENDBRANCH   1  26
TORSDOF 17
ENDMDL
MODEL 2
REMARK VINA RESULT:     -11.1      1.548      3.488
REMARK SMILES Cc1ccnc(C(=O)c2[nH]c3ccc(F)cc3c2CC(=O)OCCOC(=O)c2ccc(-c3c4nc(c(-c5ccc(S(=O)(=O)[O-])cc5)c5ccc([nH]5)c(-c5ccc(S(=O)(=O)[O-])cc5)c5nc(c(-c6ccc(S(=O)(=O)[O-])cc6)c6ccc3[nH]6)C=C5)C=C4)cc2)c1
REMARK SMILES IDX 23 1 22 2 20 3 21 4 19 5 18 6 9 7 10 8 11 9 17 11 12 12
REMARK SMILES IDX 16 13 13 14 14 15 15 16 7 17 8 18 6 19 1 20 2 21 3 22 88 23
REMARK SMILES IDX 4 24 5 25 24 26 25 27 26 28 27 29 28 30 29 31 87 32 30 33
REMARK SMILES IDX 86 34 31 35 32 36 33 37 80 38 34 39 85 40 79 41 81 42 35 43
REMARK SMILES IDX 84 44 78 45 77 46 36 48 66 49 47 50 65 51 48 52 51 53 64 54
REMARK SMILES IDX 82 55 49 56 50 57 63 59 83 60 52 61 37 62 38 63 46 64 39 65
REMARK SMILES IDX 45 66 40 67 41 68 42 69 43 70 44 71 67 72 68 73 76 74 69 75
REMARK SMILES IDX 75 76 70 77 71 78 72 79 73 80 74 81 53 82 54 83 62 84 55 85
REMARK SMILES IDX 61 86 56 87 57 88 58 89 59 90 60 91
REMARK H PARENT 10 10 81 47 51 58
REMARK Flexibility Score: inf
ROOT
ATOM      1  C   UNL A   1      36.196  22.166  24.177  1.00  0.00     0.274 C 
ENDROOT
BRANCH   1   2
ATOM      2  O   UNL A   1      35.592  22.608  22.942  1.00  0.00    -0.462 OA
BRANCH   2   3
ATOM      3  C   UNL A   1      34.588  23.516  23.070  1.00  0.00     0.310 C 
ATOM      4  O   UNL A   1      34.765  24.732  23.037  1.00  0.00    -0.252 OA
BRANCH   3   5
ATOM      5  C   UNL A   1      33.198  22.922  23.096  1.00  0.00     0.161 C 
BRANCH   5   6
ATOM      6  C   UNL A   1      32.832  22.012  24.229  1.00  0.00     0.000 A 
ATOM      7  C   UNL A   1      32.923  22.263  25.603  1.00  0.00     0.093 A 
ATOM      8  N   UNL A   1      32.803  21.044  26.235  1.00  0.00    -0.352 N 
ATOM      9  C   UNL A   1      32.665  20.023  25.324  1.00  0.00     0.046 A 
ATOM     10  H   UNL A   1      32.814  20.920  27.211  1.00  0.00     0.167 HD
ATOM     11  C   UNL A   1      32.595  20.607  24.062  1.00  0.00     0.007 A 
ATOM     12  C   UNL A   1      32.667  18.636  25.516  1.00  0.00     0.030 A 
ATOM     13  C   UNL A   1      32.465  19.773  22.932  1.00  0.00     0.049 A 
ATOM     14  C   UNL A   1      32.566  17.826  24.381  1.00  0.00     0.041 A 
ATOM     15  C   UNL A   1      32.452  18.392  23.118  1.00  0.00     0.123 A 
ATOM     16  F   UNL A   1      32.359  17.590  22.047  1.00  0.00    -0.207 F 
BRANCH   7  17
ATOM     17  C   UNL A   1      33.412  23.433  26.330  1.00  0.00     0.227 C 
ATOM     18  O   UNL A   1      34.298  23.282  27.170  1.00  0.00    -0.285 OA
BRANCH  17  19
ATOM     19  C   UNL A   1      32.801  24.808  26.144  1.00  0.00     0.113 A 
ATOM     20  C   UNL A   1      33.658  28.508  26.202  1.00  0.00     0.044 C 
ATOM     21  C   UNL A   1      32.897  27.218  26.101  1.00  0.00    -0.047 A 
ATOM     22  C   UNL A   1      31.508  27.237  26.236  1.00  0.00     0.023 A 
ATOM     23  C   UNL A   1      33.555  25.978  26.017  1.00  0.00     0.036 A 
ATOM     24  C   UNL A   1      30.830  26.033  26.271  1.00  0.00     0.112 A 
ATOM     25  N   UNL A   1      31.440  24.833  26.225  1.00  0.00    -0.253 NA
ENDBRANCH  17  19
ENDBRANCH   7  17
ENDBRANCH   5   6
ENDBRANCH   3   5
ENDBRANCH   2   3
ENDBRANCH   1   2
BRANCH   1  26
ATOM     26  C   UNL A   1      37.060  23.273  24.805  1.00  0.00     0.275 C 
BRANCH  26  27
ATOM     27  O   UNL A   1      37.477  22.983  26.160  1.00  0.00    -0.458 OA
BRANCH  27  28
ATOM     28  C   UNL A   1      38.819  22.985  26.302  1.00  0.00     0.338 C 
ATOM     29  O   UNL A   1      39.570  22.129  25.878  1.00  0.00    -0.246 OA
BRANCH  28  30
ATOM     30  C   UNL A   1      39.398  24.159  26.943  1.00  0.00     0.060 A 
ATOM     31  C   UNL A   1      38.988  24.464  28.241  1.00  0.00     0.016 A 
ATOM     32  C   UNL A   1      40.068  25.102  26.158  1.00  0.00     0.016 A 
ATOM     33  C   UNL A   1      39.253  25.725  28.762  1.00  0.00     0.010 A 
ATOM     34  C   UNL A   1      40.386  26.346  26.704  1.00  0.00     0.010 A 
ATOM     35  C   UNL A   1      39.986  26.661  28.011  1.00  0.00    -0.014 A 
BRANCH  35  36
ATOM     36  C   UNL A   1      40.528  27.854  28.698  1.00  0.00     0.031 A 
ATOM     37  C   UNL A   1      41.934  27.937  29.206  1.00  0.00     0.074 A 
ATOM     38  C   UNL A   1      39.677  28.888  28.848  1.00  0.00     0.049 A 
ATOM     39  N   UNL A   1      42.520  28.942  29.805  1.00  0.00    -0.248 NA
ATOM     40  C   UNL A   1      42.789  26.754  29.031  1.00  0.00     0.031 C 
ATOM     41  C   UNL A   1      38.282  28.895  28.391  1.00  0.00     0.029 A 
ATOM     42  N   UNL A   1      39.851  30.124  29.405  1.00  0.00    -0.354 N 
ATOM     43  C   UNL A   1      43.813  28.519  30.088  1.00  0.00     0.074 A 
ATOM     44  C   UNL A   1      43.918  27.156  29.607  1.00  0.00     0.031 C 
ATOM     45  C   UNL A   1      37.739  30.089  28.657  1.00  0.00     0.029 A 
ATOM     46  C   UNL A   1      38.728  30.910  29.344  1.00  0.00     0.049 A 
ATOM     47  H   UNL A   1      40.698  30.421  29.810  1.00  0.00     0.167 HD
ATOM     48  C   UNL A   1      44.811  29.211  30.694  1.00  0.00     0.031 A 
ATOM     49  C   UNL A   1      38.502  32.154  29.801  1.00  0.00     0.031 A 
ATOM     50  C   UNL A   1      44.681  30.568  31.172  1.00  0.00     0.049 A 
ATOM     51  C   UNL A   1      39.614  32.885  30.480  1.00  0.00     0.074 A 
ATOM     52  C   UNL A   1      45.645  31.369  31.761  1.00  0.00     0.029 A 
ATOM     53  N   UNL A   1      43.517  31.323  31.124  1.00  0.00    -0.354 N 
ATOM     54  N   UNL A   1      40.839  32.478  30.710  1.00  0.00    -0.248 NA
ATOM     55  C   UNL A   1      39.318  34.239  30.958  1.00  0.00     0.031 C 
ATOM     56  C   UNL A   1      45.052  32.588  32.112  1.00  0.00     0.029 A 
ATOM     57  C   UNL A   1      43.730  32.567  31.699  1.00  0.00     0.049 A 
ATOM     58  H   UNL A   1      42.664  31.019  30.737  1.00  0.00     0.167 HD
ATOM     59  C   UNL A   1      41.467  33.530  31.359  1.00  0.00     0.074 A 
ATOM     60  C   UNL A   1      40.490  34.598  31.465  1.00  0.00     0.031 C 
ATOM     61  C   UNL A   1      42.738  33.605  31.823  1.00  0.00     0.031 A 
BRANCH  48  62
ATOM     62  C   UNL A   1      46.130  28.513  30.903  1.00  0.00    -0.014 A 
ATOM     63  C   UNL A   1      47.221  28.740  30.046  1.00  0.00     0.010 A 
ATOM     64  C   UNL A   1      46.305  27.678  32.023  1.00  0.00     0.010 A 
ATOM     65  C   UNL A   1      48.454  28.125  30.289  1.00  0.00     0.020 A 
ATOM     66  C   UNL A   1      47.541  27.075  32.279  1.00  0.00     0.020 A 
ATOM     67  C   UNL A   1      48.605  27.292  31.402  1.00  0.00     0.054 A 
BRANCH  67  68
ATOM     68  S   UNL A   1      50.224  26.532  31.720  1.00  0.00     0.124 S 
ATOM     69  O   UNL A   1      50.134  25.296  30.947  1.00  0.00    -0.237 OA
ATOM     70  O   UNL A   1      51.158  27.529  31.201  1.00  0.00    -0.237 OA
ATOM     71  O   UNL A   1      50.247  26.359  33.170  1.00  0.00    -0.744 OA
ENDBRANCH  67  68
ENDBRANCH  48  62
BRANCH  49  72
ATOM     72  C   UNL A   1      37.157  32.751  29.616  1.00  0.00    -0.014 A 
ATOM     73  C   UNL A   1      36.209  32.705  30.650  1.00  0.00     0.010 A 
ATOM     74  C   UNL A   1      36.862  33.463  28.438  1.00  0.00     0.010 A 
ATOM     75  C   UNL A   1      34.988  33.372  30.514  1.00  0.00     0.020 A 
ATOM     76  C   UNL A   1      35.654  34.149  28.308  1.00  0.00     0.020 A 
ATOM     77  C   UNL A   1      34.721  34.095  29.347  1.00  0.00     0.054 A 
BRANCH  77  78
ATOM     78  S   UNL A   1      33.179  35.042  29.230  1.00  0.00     0.124 S 
ATOM     79  O   UNL A   1      33.653  36.330  28.732  1.00  0.00    -0.237 OA
ATOM     80  O   UNL A   1      32.387  34.253  28.290  1.00  0.00    -0.237 OA
ATOM     81  O   UNL A   1      32.679  35.045  30.603  1.00  0.00    -0.744 OA
ENDBRANCH  77  78
ENDBRANCH  49  72
BRANCH  61  82
ATOM     82  C   UNL A   1      43.132  34.891  32.492  1.00  0.00    -0.014 A 
ATOM     83  C   UNL A   1      42.913  35.083  33.869  1.00  0.00     0.010 A 
ATOM     84  C   UNL A   1      43.730  35.917  31.740  1.00  0.00     0.010 A 
ATOM     85  C   UNL A   1      43.252  36.295  34.473  1.00  0.00     0.020 A 
ATOM     86  C   UNL A   1      44.088  37.124  32.346  1.00  0.00     0.020 A 
ATOM     87  C   UNL A   1      43.830  37.311  33.707  1.00  0.00     0.054 A 
BRANCH  87  88
ATOM     88  S   UNL A   1      44.279  38.872  34.514  1.00  0.00     0.124 S 
ATOM     89  O   UNL A   1      45.640  39.084  34.028  1.00  0.00    -0.237 OA
ATOM     90  O   UNL A   1      43.277  39.803  34.001  1.00  0.00    -0.237 OA
ATOM     91  O   UNL A   1      44.167  38.568  35.938  1.00  0.00    -0.744 OA
ENDBRANCH  87  88
ENDBRANCH  61  82
ENDBRANCH  35  36
ENDBRANCH  28  30
ENDBRANCH  27  28
ENDBRANCH  26  27
ENDBRANCH   1  26
TORSDOF 17
ENDMDL
MODEL 3
REMARK VINA RESULT:     -10.9      2.347      8.219
REMARK SMILES Cc1ccnc(C(=O)c2[nH]c3ccc(F)cc3c2CC(=O)OCCOC(=O)c2ccc(-c3c4nc(c(-c5ccc(S(=O)(=O)[O-])cc5)c5ccc([nH]5)c(-c5ccc(S(=O)(=O)[O-])cc5)c5nc(c(-c6ccc(S(=O)(=O)[O-])cc6)c6ccc3[nH]6)C=C5)C=C4)cc2)c1
REMARK SMILES IDX 23 1 22 2 20 3 21 4 19 5 18 6 9 7 10 8 11 9 17 11 12 12
REMARK SMILES IDX 16 13 13 14 14 15 15 16 7 17 8 18 6 19 1 20 2 21 3 22 88 23
REMARK SMILES IDX 4 24 5 25 24 26 25 27 26 28 27 29 28 30 29 31 87 32 30 33
REMARK SMILES IDX 86 34 31 35 32 36 33 37 80 38 34 39 85 40 79 41 81 42 35 43
REMARK SMILES IDX 84 44 78 45 77 46 36 48 66 49 47 50 65 51 48 52 51 53 64 54
REMARK SMILES IDX 82 55 49 56 50 57 63 59 83 60 52 61 37 62 38 63 46 64 39 65
REMARK SMILES IDX 45 66 40 67 41 68 42 69 43 70 44 71 67 72 68 73 76 74 69 75
REMARK SMILES IDX 75 76 70 77 71 78 72 79 73 80 74 81 53 82 54 83 62 84 55 85
REMARK SMILES IDX 61 86 56 87 57 88 58 89 59 90 60 91
REMARK H PARENT 10 10 81 47 51 58
REMARK Flexibility Score: inf
ROOT
ATOM      1  C   UNL A   1      36.784  21.687  24.151  1.00  0.00     0.274 C 
ENDROOT
BRANCH   1   2
ATOM      2  O   UNL A   1      36.895  23.119  24.002  1.00  0.00    -0.462 OA
BRANCH   2   3
ATOM      3  C   UNL A   1      35.742  23.818  24.172  1.00  0.00     0.310 C 
ATOM      4  O   UNL A   1      34.914  23.989  23.280  1.00  0.00    -0.252 OA
BRANCH   3   5
ATOM      5  C   UNL A   1      35.463  24.243  25.597  1.00  0.00     0.161 C 
BRANCH   5   6
ATOM      6  C   UNL A   1      34.037  24.425  26.020  1.00  0.00     0.000 A 
ATOM      7  C   UNL A   1      33.077  23.437  26.265  1.00  0.00     0.093 A 
ATOM      8  N   UNL A   1      31.855  24.075  26.292  1.00  0.00    -0.352 N 
ATOM      9  C   UNL A   1      31.991  25.421  26.050  1.00  0.00     0.046 A 
ATOM     10  H   UNL A   1      30.996  23.625  26.464  1.00  0.00     0.167 HD
ATOM     11  C   UNL A   1      33.355  25.685  25.959  1.00  0.00     0.007 A 
ATOM     12  C   UNL A   1      31.015  26.403  25.838  1.00  0.00     0.030 A 
ATOM     13  C   UNL A   1      33.777  27.005  25.697  1.00  0.00     0.049 A 
ATOM     14  C   UNL A   1      31.454  27.699  25.551  1.00  0.00     0.041 A 
ATOM     15  C   UNL A   1      32.811  27.990  25.499  1.00  0.00     0.123 A 
ATOM     16  F   UNL A   1      33.203  29.241  25.219  1.00  0.00    -0.207 F 
BRANCH   7  17
ATOM     17  C   UNL A   1      33.154  21.982  26.159  1.00  0.00     0.227 C 
ATOM     18  O   UNL A   1      33.680  21.347  27.072  1.00  0.00    -0.285 OA
BRANCH  17  19
ATOM     19  C   UNL A   1      32.682  21.239  24.923  1.00  0.00     0.113 A 
ATOM     20  C   UNL A   1      32.799  17.839  23.234  1.00  0.00     0.044 C 
ATOM     21  C   UNL A   1      32.524  19.288  23.514  1.00  0.00    -0.047 A 
ATOM     22  C   UNL A   1      32.171  20.129  22.456  1.00  0.00     0.023 A 
ATOM     23  C   UNL A   1      32.750  19.851  24.783  1.00  0.00     0.036 A 
ATOM     24  C   UNL A   1      32.047  21.484  22.701  1.00  0.00     0.112 A 
ATOM     25  N   UNL A   1      32.289  22.049  23.899  1.00  0.00    -0.253 NA
ENDBRANCH  17  19
ENDBRANCH   7  17
ENDBRANCH   5   6
ENDBRANCH   3   5
ENDBRANCH   2   3
ENDBRANCH   1   2
BRANCH   1  26
ATOM     26  C   UNL A   1      37.838  21.142  25.131  1.00  0.00     0.275 C 
BRANCH  26  27
ATOM     27  O   UNL A   1      38.204  22.082  26.169  1.00  0.00    -0.458 OA
BRANCH  27  28
ATOM     28  C   UNL A   1      39.527  22.074  26.434  1.00  0.00     0.338 C 
ATOM     29  O   UNL A   1      40.252  21.103  26.350  1.00  0.00    -0.246 OA
BRANCH  28  30
ATOM     30  C   UNL A   1      40.126  23.361  26.762  1.00  0.00     0.060 A 
ATOM     31  C   UNL A   1      40.885  23.451  27.929  1.00  0.00     0.016 A 
ATOM     32  C   UNL A   1      39.670  24.510  26.109  1.00  0.00     0.016 A 
ATOM     33  C   UNL A   1      41.195  24.702  28.447  1.00  0.00     0.010 A 
ATOM     34  C   UNL A   1      40.033  25.766  26.597  1.00  0.00     0.010 A 
ATOM     35  C   UNL A   1      40.804  25.868  27.765  1.00  0.00    -0.014 A 
BRANCH  35  36
ATOM     36  C   UNL A   1      41.414  27.157  28.154  1.00  0.00     0.031 A 
ATOM     37  C   UNL A   1      40.627  28.294  28.729  1.00  0.00     0.074 A 
ATOM     38  C   UNL A   1      42.743  27.264  27.965  1.00  0.00     0.049 A 
ATOM     39  N   UNL A   1      41.063  29.464  29.124  1.00  0.00    -0.248 NA
ATOM     40  C   UNL A   1      39.176  28.110  28.873  1.00  0.00     0.031 C 
ATOM     41  C   UNL A   1      43.595  26.209  27.403  1.00  0.00     0.029 A 
ATOM     42  N   UNL A   1      43.612  28.287  28.231  1.00  0.00    -0.354 N 
ATOM     43  C   UNL A   1      39.945  30.162  29.562  1.00  0.00     0.074 A 
ATOM     44  C   UNL A   1      38.806  29.288  29.366  1.00  0.00     0.031 C 
ATOM     45  C   UNL A   1      44.866  26.628  27.396  1.00  0.00     0.029 A 
ATOM     46  C   UNL A   1      44.913  27.991  27.906  1.00  0.00     0.049 A 
ATOM     47  H   UNL A   1      43.332  29.148  28.616  1.00  0.00     0.167 HD
ATOM     48  C   UNL A   1      39.886  31.417  30.076  1.00  0.00     0.031 A 
ATOM     49  C   UNL A   1      46.028  28.736  27.992  1.00  0.00     0.031 A 
ATOM     50  C   UNL A   1      41.034  32.274  30.256  1.00  0.00     0.049 A 
ATOM     51  C   UNL A   1      45.929  30.121  28.545  1.00  0.00     0.074 A 
ATOM     52  C   UNL A   1      41.084  33.544  30.806  1.00  0.00     0.029 A 
ATOM     53  N   UNL A   1      42.334  31.956  29.884  1.00  0.00    -0.354 N 
ATOM     54  N   UNL A   1      44.867  30.752  28.982  1.00  0.00    -0.248 NA
ATOM     55  C   UNL A   1      47.175  30.891  28.620  1.00  0.00     0.031 C 
ATOM     56  C   UNL A   1      42.401  34.011  30.723  1.00  0.00     0.029 A 
ATOM     57  C   UNL A   1      43.184  33.014  30.164  1.00  0.00     0.049 A 
ATOM     58  H   UNL A   1      42.611  31.102  29.480  1.00  0.00     0.167 HD
ATOM     59  C   UNL A   1      45.315  31.999  29.391  1.00  0.00     0.074 A 
ATOM     60  C   UNL A   1      46.748  32.022  29.167  1.00  0.00     0.031 C 
ATOM     61  C   UNL A   1      44.602  33.031  29.907  1.00  0.00     0.031 A 
BRANCH  48  62
ATOM     62  C   UNL A   1      38.534  31.960  30.462  1.00  0.00    -0.014 A 
ATOM     63  C   UNL A   1      37.988  31.725  31.736  1.00  0.00     0.010 A 
ATOM     64  C   UNL A   1      37.834  32.786  29.562  1.00  0.00     0.010 A 
ATOM     65  C   UNL A   1      36.757  32.284  32.094  1.00  0.00     0.020 A 
ATOM     66  C   UNL A   1      36.611  33.361  29.923  1.00  0.00     0.020 A 
ATOM     67  C   UNL A   1      36.073  33.095  31.183  1.00  0.00     0.054 A 
BRANCH  67  68
ATOM     68  S   UNL A   1      34.494  33.840  31.682  1.00  0.00     0.124 S 
ATOM     69  O   UNL A   1      33.829  34.030  30.394  1.00  0.00    -0.237 OA
ATOM     70  O   UNL A   1      33.908  32.816  32.543  1.00  0.00    -0.237 OA
ATOM     71  O   UNL A   1      34.890  35.070  32.364  1.00  0.00    -0.744 OA
ENDBRANCH  67  68
ENDBRANCH  48  62
BRANCH  49  72
ATOM     72  C   UNL A   1      47.313  28.156  27.531  1.00  0.00    -0.014 A 
ATOM     73  C   UNL A   1      47.737  28.328  26.204  1.00  0.00     0.010 A 
ATOM     74  C   UNL A   1      48.167  27.522  28.453  1.00  0.00     0.010 A 
ATOM     75  C   UNL A   1      49.001  27.883  25.807  1.00  0.00     0.020 A 
ATOM     76  C   UNL A   1      49.438  27.097  28.066  1.00  0.00     0.020 A 
ATOM     77  C   UNL A   1      49.846  27.276  26.742  1.00  0.00     0.054 A 
BRANCH  77  78
ATOM     78  S   UNL A   1      51.522  26.801  26.238  1.00  0.00     0.124 S 
ATOM     79  O   UNL A   1      51.370  25.370  25.996  1.00  0.00    -0.237 OA
ATOM     80  O   UNL A   1      51.747  27.624  25.052  1.00  0.00    -0.237 OA
ATOM     81  O   UNL A   1      52.338  27.159  27.396  1.00  0.00    -0.744 OA
ENDBRANCH  77  78
ENDBRANCH  49  72
BRANCH  61  82
ATOM     82  C   UNL A   1      45.376  34.270  30.256  1.00  0.00    -0.014 A 
ATOM     83  C   UNL A   1      45.553  35.298  29.311  1.00  0.00     0.010 A 
ATOM     84  C   UNL A   1      45.929  34.412  31.540  1.00  0.00     0.010 A 
ATOM     85  C   UNL A   1      46.303  36.430  29.635  1.00  0.00     0.020 A 
ATOM     86  C   UNL A   1      46.663  35.553  31.874  1.00  0.00     0.020 A 
ATOM     87  C   UNL A   1      46.860  36.548  30.913  1.00  0.00     0.054 A 
BRANCH  87  88
ATOM     88  S   UNL A   1      47.815  38.034  31.320  1.00  0.00     0.124 S 
ATOM     89  O   UNL A   1      47.819  38.001  32.780  1.00  0.00    -0.237 OA
ATOM     90  O   UNL A   1      49.105  37.776  30.683  1.00  0.00    -0.237 OA
ATOM     91  O   UNL A   1      47.040  39.117  30.723  1.00  0.00    -0.744 OA
ENDBRANCH  87  88
ENDBRANCH  61  82
ENDBRANCH  35  36
ENDBRANCH  28  30
ENDBRANCH  27  28
ENDBRANCH  26  27
ENDBRANCH   1  26
TORSDOF 17
ENDMDL
