MODEL 1
REMARK VINA RESULT:      -9.5      0.000      0.000
REMARK SMILES C[C@@H]1CC(=O)N([C@@H]2C=C[C@@H](C(=O)OCCOC(=O)c3ccc(-c4c5nc(c(-c6ccc(S(=O)(=O)[O-])cc6)c6ccc([nH]6)c(-c6ccc(S(=O)(=O)[O-])cc6)c6nc(c(-c7ccc(S(=O)(=O)[O-])cc7)c7ccc4[nH]7)C=C6)C=C5)cc3)C2)C1=O
REMARK SMILES IDX 15 1 14 2 13 3 11 4 12 5 10 6 7 7 8 8 79 9 9 10 6 11 1 12
REMARK SMILES IDX 2 13 3 14 80 15 4 16 81 17 5 18 16 19 17 20 18 21 19 22
REMARK SMILES IDX 20 23 78 24 21 25 77 26 22 27 23 28 24 29 71 30 25 31 76 32
REMARK SMILES IDX 70 33 72 34 26 35 75 36 69 37 68 38 27 40 57 41 38 42 56 43
REMARK SMILES IDX 39 44 42 45 55 46 73 47 40 48 41 49 54 51 74 52 43 53 28 54
REMARK SMILES IDX 29 55 37 56 30 57 36 58 31 59 32 60 33 61 34 62 35 63 58 64
REMARK SMILES IDX 59 65 67 66 60 67 66 68 61 69 62 70 63 71 64 72 65 73 44 74
REMARK SMILES IDX 45 75 53 76 46 77 52 78 47 79 48 80 49 81 50 82 51 83
REMARK H PARENT 72 39 42 50
REMARK Flexibility Score: inf
ROOT
ATOM      1  C   UNL A   1      32.969  31.895  27.214  1.00  0.00     0.275 C 
ENDROOT
BRANCH   1   2
ATOM      2  C   UNL A   1      32.641  33.331  27.626  1.00  0.00     0.274 C 
BRANCH   2   3
ATOM      3  O   UNL A   1      33.801  33.915  28.241  1.00  0.00    -0.462 OA
BRANCH   3   4
ATOM      4  C   UNL A   1      33.659  34.429  29.489  1.00  0.00     0.312 C 
ATOM      5  O   UNL A   1      32.633  34.950  29.910  1.00  0.00    -0.252 OA
BRANCH   4   6
ATOM      6  C   UNL A   1      34.903  34.205  30.344  1.00  0.00     0.124 C 
ATOM      7  C   UNL A   1      36.181  32.408  31.442  1.00  0.00     0.117 C 
ATOM      8  C   UNL A   1      36.810  32.839  30.153  1.00  0.00    -0.005 C 
ATOM      9  C   UNL A   1      34.811  33.097  31.409  1.00  0.00     0.049 C 
ATOM     10  C   UNL A   1      36.099  33.791  29.537  1.00  0.00    -0.014 C 
BRANCH   7  11
ATOM     11  N   UNL A   1      37.024  32.753  32.576  1.00  0.00    -0.275 N 
ATOM     12  C   UNL A   1      37.854  31.894  35.706  1.00  0.00     0.018 C 
ATOM     13  C   UNL A   1      38.448  32.443  34.415  1.00  0.00     0.085 C 
ATOM     14  C   UNL A   1      38.179  33.929  34.235  1.00  0.00     0.114 C 
ATOM     15  C   UNL A   1      37.776  31.813  33.223  1.00  0.00     0.233 C 
ATOM     16  C   UNL A   1      37.173  33.996  33.123  1.00  0.00     0.230 C 
ATOM     17  O   UNL A   1      37.878  30.629  32.930  1.00  0.00    -0.274 OA
ATOM     18  O   UNL A   1      36.617  35.031  32.788  1.00  0.00    -0.274 OA
ENDBRANCH   7  11
ENDBRANCH   4   6
ENDBRANCH   3   4
ENDBRANCH   2   3
ENDBRANCH   1   2
BRANCH   1  19
ATOM     19  O   UNL A   1      34.005  31.342  28.051  1.00  0.00    -0.458 OA
BRANCH  19  20
ATOM     20  C   UNL A   1      34.336  30.054  27.785  1.00  0.00     0.338 C 
ATOM     21  O   UNL A   1      33.656  29.218  27.215  1.00  0.00    -0.246 OA
BRANCH  20  22
ATOM     22  C   UNL A   1      35.730  29.813  28.195  1.00  0.00     0.060 A 
ATOM     23  C   UNL A   1      36.741  30.008  27.251  1.00  0.00     0.016 A 
ATOM     24  C   UNL A   1      36.035  29.330  29.470  1.00  0.00     0.016 A 
ATOM     25  C   UNL A   1      38.065  29.732  27.578  1.00  0.00     0.010 A 
ATOM     26  C   UNL A   1      37.366  29.045  29.794  1.00  0.00     0.010 A 
ATOM     27  C   UNL A   1      38.387  29.239  28.849  1.00  0.00    -0.014 A 
BRANCH  27  28
ATOM     28  C   UNL A   1      39.794  28.892  29.163  1.00  0.00     0.031 A 
ATOM     29  C   UNL A   1      40.676  29.886  29.862  1.00  0.00     0.074 A 
ATOM     30  C   UNL A   1      40.265  27.670  28.850  1.00  0.00     0.049 A 
ATOM     31  N   UNL A   1      41.936  29.778  30.197  1.00  0.00    -0.248 NA
ATOM     32  C   UNL A   1      40.060  31.170  30.233  1.00  0.00     0.031 C 
ATOM     33  C   UNL A   1      39.493  26.605  28.209  1.00  0.00     0.029 A 
ATOM     34  N   UNL A   1      41.508  27.118  29.036  1.00  0.00    -0.354 N 
ATOM     35  C   UNL A   1      42.270  30.981  30.807  1.00  0.00     0.074 A 
ATOM     36  C   UNL A   1      41.084  31.811  30.780  1.00  0.00     0.031 C 
ATOM     37  C   UNL A   1      40.276  25.524  28.064  1.00  0.00     0.029 A 
ATOM     38  C   UNL A   1      41.613  25.832  28.563  1.00  0.00     0.049 A 
ATOM     39  H   UNL A   1      42.252  27.598  29.466  1.00  0.00     0.167 HD
ATOM     40  C   UNL A   1      43.457  31.359  31.341  1.00  0.00     0.031 A 
ATOM     41  C   UNL A   1      42.673  25.001  28.522  1.00  0.00     0.031 A 
ATOM     42  C   UNL A   1      44.636  30.533  31.363  1.00  0.00     0.049 A 
ATOM     43  C   UNL A   1      43.993  25.463  29.072  1.00  0.00     0.074 A 
ATOM     44  C   UNL A   1      45.884  30.826  31.886  1.00  0.00     0.029 A 
ATOM     45  N   UNL A   1      44.714  29.252  30.837  1.00  0.00    -0.354 N 
ATOM     46  N   UNL A   1      44.292  26.606  29.643  1.00  0.00    -0.248 NA
ATOM     47  C   UNL A   1      45.118  24.524  28.972  1.00  0.00     0.031 C 
ATOM     48  C   UNL A   1      46.728  29.737  31.639  1.00  0.00     0.029 A 
ATOM     49  C   UNL A   1      45.994  28.749  31.004  1.00  0.00     0.049 A 
ATOM     50  H   UNL A   1      43.970  28.771  30.409  1.00  0.00     0.167 HD
ATOM     51  C   UNL A   1      45.637  26.519  29.980  1.00  0.00     0.074 A 
ATOM     52  C   UNL A   1      46.089  25.205  29.567  1.00  0.00     0.031 C 
ATOM     53  C   UNL A   1      46.429  27.444  30.576  1.00  0.00     0.031 A 
BRANCH  40  54
ATOM     54  C   UNL A   1      43.546  32.747  31.914  1.00  0.00    -0.014 A 
ATOM     55  C   UNL A   1      43.262  32.994  33.269  1.00  0.00     0.010 A 
ATOM     56  C   UNL A   1      43.944  33.814  31.090  1.00  0.00     0.010 A 
ATOM     57  C   UNL A   1      43.338  34.293  33.781  1.00  0.00     0.020 A 
ATOM     58  C   UNL A   1      44.042  35.111  31.602  1.00  0.00     0.020 A 
ATOM     59  C   UNL A   1      43.721  35.345  32.942  1.00  0.00     0.054 A 
BRANCH  59  60
ATOM     60  S   UNL A   1      43.819  37.021  33.630  1.00  0.00     0.124 S 
ATOM     61  O   UNL A   1      45.045  36.949  34.419  1.00  0.00    -0.237 OA
ATOM     62  O   UNL A   1      43.889  37.857  32.434  1.00  0.00    -0.237 OA
ATOM     63  O   UNL A   1      42.585  37.150  34.403  1.00  0.00    -0.744 OA
ENDBRANCH  59  60
ENDBRANCH  40  54
BRANCH  41  64
ATOM     64  C   UNL A   1      42.529  23.652  27.911  1.00  0.00    -0.014 A 
ATOM     65  C   UNL A   1      42.897  23.427  26.574  1.00  0.00     0.010 A 
ATOM     66  C   UNL A   1      42.035  22.580  28.677  1.00  0.00     0.010 A 
ATOM     67  C   UNL A   1      42.766  22.155  26.010  1.00  0.00     0.020 A 
ATOM     68  C   UNL A   1      41.924  21.302  28.124  1.00  0.00     0.020 A 
ATOM     69  C   UNL A   1      42.281  21.100  26.789  1.00  0.00     0.054 A 
BRANCH  69  70
ATOM     70  S   UNL A   1      42.175  19.442  26.060  1.00  0.00     0.124 S 
ATOM     71  O   UNL A   1      40.752  19.333  25.758  1.00  0.00    -0.237 OA
ATOM     72  O   UNL A   1      43.062  19.543  24.903  1.00  0.00    -0.237 OA
ATOM     73  O   UNL A   1      42.658  18.569  27.129  1.00  0.00    -0.744 OA
ENDBRANCH  69  70
ENDBRANCH  41  64
BRANCH  53  74
ATOM     74  C   UNL A   1      47.861  27.060  30.831  1.00  0.00    -0.014 A 
ATOM     75  C   UNL A   1      48.858  27.304  29.869  1.00  0.00     0.010 A 
ATOM     76  C   UNL A   1      48.219  26.479  32.060  1.00  0.00     0.010 A 
ATOM     77  C   UNL A   1      50.184  26.945  30.121  1.00  0.00     0.020 A 
ATOM     78  C   UNL A   1      49.549  26.137  32.324  1.00  0.00     0.020 A 
ATOM     79  C   UNL A   1      50.520  26.358  31.345  1.00  0.00     0.054 A 
BRANCH  79  80
ATOM     80  S   UNL A   1      52.254  25.927  31.664  1.00  0.00     0.124 S 
ATOM     81  O   UNL A   1      52.856  26.097  30.346  1.00  0.00    -0.237 OA
ATOM     82  O   UNL A   1      52.653  26.910  32.670  1.00  0.00    -0.237 OA
ATOM     83  O   UNL A   1      52.182  24.549  32.146  1.00  0.00    -0.744 OA
ENDBRANCH  79  80
ENDBRANCH  53  74
ENDBRANCH  27  28
ENDBRANCH  20  22
ENDBRANCH  19  20
ENDBRANCH   1  19
TORSDOF 15
ENDMDL
MODEL 2
REMARK VINA RESULT:      -9.4      2.590     11.329
REMARK SMILES C[C@@H]1CC(=O)N([C@@H]2C=C[C@@H](C(=O)OCCOC(=O)c3ccc(-c4c5nc(c(-c6ccc(S(=O)(=O)[O-])cc6)c6ccc([nH]6)c(-c6ccc(S(=O)(=O)[O-])cc6)c6nc(c(-c7ccc(S(=O)(=O)[O-])cc7)c7ccc4[nH]7)C=C6)C=C5)cc3)C2)C1=O
REMARK SMILES IDX 15 1 14 2 13 3 11 4 12 5 10 6 7 7 8 8 79 9 9 10 6 11 1 12
REMARK SMILES IDX 2 13 3 14 80 15 4 16 81 17 5 18 16 19 17 20 18 21 19 22
REMARK SMILES IDX 20 23 78 24 21 25 77 26 22 27 23 28 24 29 71 30 25 31 76 32
REMARK SMILES IDX 70 33 72 34 26 35 75 36 69 37 68 38 27 40 57 41 38 42 56 43
REMARK SMILES IDX 39 44 42 45 55 46 73 47 40 48 41 49 54 51 74 52 43 53 28 54
REMARK SMILES IDX 29 55 37 56 30 57 36 58 31 59 32 60 33 61 34 62 35 63 58 64
REMARK SMILES IDX 59 65 67 66 60 67 66 68 61 69 62 70 63 71 64 72 65 73 44 74
REMARK SMILES IDX 45 75 53 76 46 77 52 78 47 79 48 80 49 81 50 82 51 83
REMARK H PARENT 72 39 42 50
REMARK Flexibility Score: inf
ROOT
ATOM      1  C   UNL A   1      39.601  20.769  25.854  1.00  0.00     0.275 C 
ENDROOT
BRANCH   1   2
ATOM      2  C   UNL A   1      40.746  19.809  26.179  1.00  0.00     0.274 C 
BRANCH   2   3
ATOM      3  O   UNL A   1      41.858  20.565  26.688  1.00  0.00    -0.462 OA
BRANCH   3   4
ATOM      4  C   UNL A   1      42.951  20.686  25.893  1.00  0.00     0.312 C 
ATOM      5  O   UNL A   1      43.263  19.886  25.019  1.00  0.00    -0.252 OA
BRANCH   4   6
ATOM      6  C   UNL A   1      43.706  21.987  26.154  1.00  0.00     0.124 C 
ATOM      7  C   UNL A   1      45.338  23.504  25.106  1.00  0.00     0.117 C 
ATOM      8  C   UNL A   1      43.937  24.019  24.991  1.00  0.00    -0.005 C 
ATOM      9  C   UNL A   1      45.141  22.067  25.606  1.00  0.00     0.049 C 
ATOM     10  C   UNL A   1      43.044  23.180  25.529  1.00  0.00    -0.014 C 
BRANCH   7  11
ATOM     11  N   UNL A   1      46.141  24.358  25.968  1.00  0.00    -0.275 N 
ATOM     12  C   UNL A   1      49.234  25.514  26.528  1.00  0.00     0.018 C 
ATOM     13  C   UNL A   1      47.770  25.931  26.580  1.00  0.00     0.085 C 
ATOM     14  C   UNL A   1      47.065  25.428  27.830  1.00  0.00     0.114 C 
ATOM     15  C   UNL A   1      47.004  25.285  25.455  1.00  0.00     0.233 C 
ATOM     16  C   UNL A   1      46.144  24.353  27.334  1.00  0.00     0.230 C 
ATOM     17  O   UNL A   1      47.181  25.546  24.273  1.00  0.00    -0.274 OA
ATOM     18  O   UNL A   1      45.505  23.624  28.079  1.00  0.00    -0.274 OA
ENDBRANCH   7  11
ENDBRANCH   4   6
ENDBRANCH   3   4
ENDBRANCH   2   3
ENDBRANCH   1   2
BRANCH   1  19
ATOM     19  O   UNL A   1      39.823  22.060  26.458  1.00  0.00    -0.458 OA
BRANCH  19  20
ATOM     20  C   UNL A   1      38.911  23.011  26.139  1.00  0.00     0.338 C 
ATOM     21  O   UNL A   1      37.892  22.870  25.485  1.00  0.00    -0.246 OA
BRANCH  20  22
ATOM     22  C   UNL A   1      39.267  24.274  26.807  1.00  0.00     0.060 A 
ATOM     23  C   UNL A   1      40.029  25.206  26.098  1.00  0.00     0.016 A 
ATOM     24  C   UNL A   1      38.919  24.511  28.139  1.00  0.00     0.016 A 
ATOM     25  C   UNL A   1      40.439  26.386  26.712  1.00  0.00     0.010 A 
ATOM     26  C   UNL A   1      39.340  25.693  28.757  1.00  0.00     0.010 A 
ATOM     27  C   UNL A   1      40.108  26.634  28.050  1.00  0.00    -0.014 A 
BRANCH  27  28
ATOM     28  C   UNL A   1      40.603  27.866  28.709  1.00  0.00     0.031 A 
ATOM     29  C   UNL A   1      42.035  27.956  29.156  1.00  0.00     0.074 A 
ATOM     30  C   UNL A   1      39.774  28.914  28.874  1.00  0.00     0.049 A 
ATOM     31  N   UNL A   1      42.646  28.935  29.772  1.00  0.00    -0.248 NA
ATOM     32  C   UNL A   1      42.891  26.794  28.872  1.00  0.00     0.031 C 
ATOM     33  C   UNL A   1      38.377  28.960  28.444  1.00  0.00     0.029 A 
ATOM     34  N   UNL A   1      39.992  30.143  29.443  1.00  0.00    -0.354 N 
ATOM     35  C   UNL A   1      43.953  28.506  29.962  1.00  0.00     0.074 A 
ATOM     36  C   UNL A   1      44.043  27.170  29.411  1.00  0.00     0.031 C 
ATOM     37  C   UNL A   1      37.864  30.163  28.755  1.00  0.00     0.029 A 
ATOM     38  C   UNL A   1      38.882  30.953  29.442  1.00  0.00     0.049 A 
ATOM     39  H   UNL A   1      40.860  30.418  29.818  1.00  0.00     0.167 HD
ATOM     40  C   UNL A   1      44.985  29.165  30.543  1.00  0.00     0.031 A 
ATOM     41  C   UNL A   1      38.699  32.187  29.950  1.00  0.00     0.031 A 
ATOM     42  C   UNL A   1      44.893  30.492  31.094  1.00  0.00     0.049 A 
ATOM     43  C   UNL A   1      39.845  32.876  30.638  1.00  0.00     0.074 A 
ATOM     44  C   UNL A   1      45.884  31.245  31.698  1.00  0.00     0.029 A 
ATOM     45  N   UNL A   1      43.740  31.263  31.110  1.00  0.00    -0.354 N 
ATOM     46  N   UNL A   1      41.075  32.453  30.811  1.00  0.00    -0.248 NA
ATOM     47  C   UNL A   1      39.578  34.207  31.198  1.00  0.00     0.031 C 
ATOM     48  C   UNL A   1      45.320  32.456  32.117  1.00  0.00     0.029 A 
ATOM     49  C   UNL A   1      43.989  32.475  31.732  1.00  0.00     0.049 A 
ATOM     50  H   UNL A   1      42.872  30.990  30.734  1.00  0.00     0.167 HD
ATOM     51  C   UNL A   1      41.732  33.472  31.491  1.00  0.00     0.074 A 
ATOM     52  C   UNL A   1      40.769  34.538  31.681  1.00  0.00     0.031 C 
ATOM     53  C   UNL A   1      43.017  33.520  31.923  1.00  0.00     0.031 A 
BRANCH  40  54
ATOM     54  C   UNL A   1      46.299  28.439  30.643  1.00  0.00    -0.014 A 
ATOM     55  C   UNL A   1      46.543  27.516  31.676  1.00  0.00     0.010 A 
ATOM     56  C   UNL A   1      47.293  28.665  29.675  1.00  0.00     0.010 A 
ATOM     57  C   UNL A   1      47.775  26.860  31.760  1.00  0.00     0.020 A 
ATOM     58  C   UNL A   1      48.518  27.996  29.743  1.00  0.00     0.020 A 
ATOM     59  C   UNL A   1      48.758  27.110  30.796  1.00  0.00     0.054 A 
BRANCH  59  60
ATOM     60  S   UNL A   1      50.346  26.242  30.922  1.00  0.00     0.124 S 
ATOM     61  O   UNL A   1      50.887  26.410  29.576  1.00  0.00    -0.237 OA
ATOM     62  O   UNL A   1      51.037  26.984  31.974  1.00  0.00    -0.237 OA
ATOM     63  O   UNL A   1      49.967  24.876  31.277  1.00  0.00    -0.744 OA
ENDBRANCH  59  60
ENDBRANCH  40  54
BRANCH  41  64
ATOM     64  C   UNL A   1      37.366  32.837  29.849  1.00  0.00    -0.014 A 
ATOM     65  C   UNL A   1      36.419  32.697  30.878  1.00  0.00     0.010 A 
ATOM     66  C   UNL A   1      37.046  33.617  28.722  1.00  0.00     0.010 A 
ATOM     67  C   UNL A   1      35.171  33.318  30.777  1.00  0.00     0.020 A 
ATOM     68  C   UNL A   1      35.808  34.259  28.630  1.00  0.00     0.020 A 
ATOM     69  C   UNL A   1      34.874  34.097  29.654  1.00  0.00     0.054 A 
BRANCH  69  70
ATOM     70  S   UNL A   1      33.273  34.946  29.569  1.00  0.00     0.124 S 
ATOM     71  O   UNL A   1      32.521  34.087  28.659  1.00  0.00    -0.237 OA
ATOM     72  O   UNL A   1      32.830  34.936  30.961  1.00  0.00    -0.237 OA
ATOM     73  O   UNL A   1      33.616  36.266  29.044  1.00  0.00    -0.744 OA
ENDBRANCH  69  70
ENDBRANCH  41  64
BRANCH  53  74
ATOM     74  C   UNL A   1      43.457  34.773  32.628  1.00  0.00    -0.014 A 
ATOM     75  C   UNL A   1      43.956  35.873  31.906  1.00  0.00     0.010 A 
ATOM     76  C   UNL A   1      43.338  34.866  34.025  1.00  0.00     0.010 A 
ATOM     77  C   UNL A   1      44.358  37.032  32.575  1.00  0.00     0.020 A 
ATOM     78  C   UNL A   1      43.719  36.031  34.696  1.00  0.00     0.020 A 
ATOM     79  C   UNL A   1      44.242  37.101  33.967  1.00  0.00     0.054 A 
BRANCH  79  80
ATOM     80  S   UNL A   1      44.741  38.627  34.813  1.00  0.00     0.124 S 
ATOM     81  O   UNL A   1      46.177  38.662  34.554  1.00  0.00    -0.237 OA
ATOM     82  O   UNL A   1      43.953  39.650  34.129  1.00  0.00    -0.237 OA
ATOM     83  O   UNL A   1      44.363  38.388  36.205  1.00  0.00    -0.744 OA
ENDBRANCH  79  80
ENDBRANCH  53  74
ENDBRANCH  27  28
ENDBRANCH  20  22
ENDBRANCH  19  20
ENDBRANCH   1  19
TORSDOF 15
ENDMDL
MODEL 3
REMARK VINA RESULT:      -9.1      2.703      5.288
REMARK SMILES C[C@@H]1CC(=O)N([C@@H]2C=C[C@@H](C(=O)OCCOC(=O)c3ccc(-c4c5nc(c(-c6ccc(S(=O)(=O)[O-])cc6)c6ccc([nH]6)c(-c6ccc(S(=O)(=O)[O-])cc6)c6nc(c(-c7ccc(S(=O)(=O)[O-])cc7)c7ccc4[nH]7)C=C6)C=C5)cc3)C2)C1=O
REMARK SMILES IDX 15 1 14 2 13 3 11 4 12 5 10 6 7 7 8 8 79 9 9 10 6 11 1 12
REMARK SMILES IDX 2 13 3 14 80 15 4 16 81 17 5 18 16 19 17 20 18 21 19 22
REMARK SMILES IDX 20 23 78 24 21 25 77 26 22 27 23 28 24 29 71 30 25 31 76 32
REMARK SMILES IDX 70 33 72 34 26 35 75 36 69 37 68 38 27 40 57 41 38 42 56 43
REMARK SMILES IDX 39 44 42 45 55 46 73 47 40 48 41 49 54 51 74 52 43 53 28 54
REMARK SMILES IDX 29 55 37 56 30 57 36 58 31 59 32 60 33 61 34 62 35 63 58 64
REMARK SMILES IDX 59 65 67 66 60 67 66 68 61 69 62 70 63 71 64 72 65 73 44 74
REMARK SMILES IDX 45 75 53 76 46 77 52 78 47 79 48 80 49 81 50 82 51 83
REMARK H PARENT 72 39 42 50
REMARK Flexibility Score: inf
ROOT
ATOM      1  C   UNL A   1      32.636  29.621  27.069  1.00  0.00     0.275 C 
ENDROOT
BRANCH   1   2
ATOM      2  C   UNL A   1      31.871  30.139  25.850  1.00  0.00     0.274 C 
BRANCH   2   3
ATOM      3  O   UNL A   1      32.244  29.359  24.701  1.00  0.00    -0.462 OA
BRANCH   3   4
ATOM      4  C   UNL A   1      31.374  28.406  24.280  1.00  0.00     0.312 C 
ATOM      5  O   UNL A   1      30.242  28.635  23.871  1.00  0.00    -0.252 OA
BRANCH   4   6
ATOM      6  C   UNL A   1      32.002  27.015  24.291  1.00  0.00     0.124 C 
ATOM      7  C   UNL A   1      33.783  25.719  25.393  1.00  0.00     0.117 C 
ATOM      8  C   UNL A   1      32.431  25.413  25.960  1.00  0.00    -0.005 C 
ATOM      9  C   UNL A   1      33.522  26.952  24.518  1.00  0.00     0.049 C 
ATOM     10  C   UNL A   1      31.466  26.141  25.387  1.00  0.00    -0.014 C 
BRANCH   7  11
ATOM     11  N   UNL A   1      34.331  24.566  24.696  1.00  0.00    -0.275 N 
ATOM     12  C   UNL A   1      37.022  22.593  24.405  1.00  0.00     0.018 C 
ATOM     13  C   UNL A   1      35.500  22.557  24.379  1.00  0.00     0.085 C 
ATOM     14  C   UNL A   1      34.928  23.018  23.048  1.00  0.00     0.114 C 
ATOM     15  C   UNL A   1      34.938  23.543  25.369  1.00  0.00     0.233 C 
ATOM     16  C   UNL A   1      34.316  24.356  23.346  1.00  0.00     0.230 C 
ATOM     17  O   UNL A   1      35.059  23.435  26.582  1.00  0.00    -0.274 OA
ATOM     18  O   UNL A   1      33.873  25.095  22.480  1.00  0.00    -0.274 OA
ENDBRANCH   7  11
ENDBRANCH   4   6
ENDBRANCH   3   4
ENDBRANCH   2   3
ENDBRANCH   1   2
BRANCH   1  19
ATOM     19  O   UNL A   1      34.055  29.830  26.915  1.00  0.00    -0.458 OA
BRANCH  19  20
ATOM     20  C   UNL A   1      34.632  30.602  27.869  1.00  0.00     0.338 C 
ATOM     21  O   UNL A   1      34.121  31.520  28.486  1.00  0.00    -0.246 OA
BRANCH  20  22
ATOM     22  C   UNL A   1      35.985  30.097  28.155  1.00  0.00     0.060 A 
ATOM     23  C   UNL A   1      36.266  29.655  29.451  1.00  0.00     0.016 A 
ATOM     24  C   UNL A   1      36.987  30.123  27.183  1.00  0.00     0.016 A 
ATOM     25  C   UNL A   1      37.549  29.227  29.780  1.00  0.00     0.010 A 
ATOM     26  C   UNL A   1      38.278  29.700  27.519  1.00  0.00     0.010 A 
ATOM     27  C   UNL A   1      38.568  29.257  28.820  1.00  0.00    -0.014 A 
BRANCH  27  28
ATOM     28  C   UNL A   1      39.943  28.856  29.202  1.00  0.00     0.031 A 
ATOM     29  C   UNL A   1      40.813  29.799  29.982  1.00  0.00     0.074 A 
ATOM     30  C   UNL A   1      40.395  27.630  28.875  1.00  0.00     0.049 A 
ATOM     31  N   UNL A   1      42.048  29.641  30.384  1.00  0.00    -0.248 NA
ATOM     32  C   UNL A   1      40.215  31.090  30.360  1.00  0.00     0.031 C 
ATOM     33  C   UNL A   1      39.629  26.611  28.157  1.00  0.00     0.029 A 
ATOM     34  N   UNL A   1      41.608  27.034  29.113  1.00  0.00    -0.354 N 
ATOM     35  C   UNL A   1      42.382  30.813  31.051  1.00  0.00     0.074 A 
ATOM     36  C   UNL A   1      41.225  31.681  30.985  1.00  0.00     0.031 C 
ATOM     37  C   UNL A   1      40.387  25.510  28.021  1.00  0.00     0.029 A 
ATOM     38  C   UNL A   1      41.702  25.761  28.605  1.00  0.00     0.049 A 
ATOM     39  H   UNL A   1      42.341  27.476  29.600  1.00  0.00     0.167 HD
ATOM     40  C   UNL A   1      43.547  31.136  31.663  1.00  0.00     0.031 A 
ATOM     41  C   UNL A   1      42.737  24.898  28.595  1.00  0.00     0.031 A 
ATOM     42  C   UNL A   1      44.698  30.274  31.724  1.00  0.00     0.049 A 
ATOM     43  C   UNL A   1      44.037  25.301  29.234  1.00  0.00     0.074 A 
ATOM     44  C   UNL A   1      45.922  30.510  32.327  1.00  0.00     0.029 A 
ATOM     45  N   UNL A   1      44.768  29.008  31.162  1.00  0.00    -0.354 N 
ATOM     46  N   UNL A   1      44.336  26.415  29.858  1.00  0.00    -0.248 NA
ATOM     47  C   UNL A   1      45.137  24.330  29.167  1.00  0.00     0.031 C 
ATOM     48  C   UNL A   1      46.746  29.404  32.092  1.00  0.00     0.029 A 
ATOM     49  C   UNL A   1      46.020  28.459  31.383  1.00  0.00     0.049 A 
ATOM     50  H   UNL A   1      44.035  28.564  30.677  1.00  0.00     0.167 HD
ATOM     51  C   UNL A   1      45.657  26.275  30.268  1.00  0.00     0.074 A 
ATOM     52  C   UNL A   1      46.092  24.961  29.838  1.00  0.00     0.031 C 
ATOM     53  C   UNL A   1      46.441  27.155  30.938  1.00  0.00     0.031 A 
BRANCH  40  54
ATOM     54  C   UNL A   1      43.644  32.503  32.286  1.00  0.00    -0.014 A 
ATOM     55  C   UNL A   1      44.046  33.619  31.531  1.00  0.00     0.010 A 
ATOM     56  C   UNL A   1      43.302  32.675  33.639  1.00  0.00     0.010 A 
ATOM     57  C   UNL A   1      44.142  34.879  32.130  1.00  0.00     0.020 A 
ATOM     58  C   UNL A   1      43.376  33.936  34.237  1.00  0.00     0.020 A 
ATOM     59  C   UNL A   1      43.813  35.028  33.482  1.00  0.00     0.054 A 
BRANCH  59  60
ATOM     60  S   UNL A   1      43.939  36.673  34.236  1.00  0.00     0.124 S 
ATOM     61  O   UNL A   1      43.872  36.356  35.660  1.00  0.00    -0.237 OA
ATOM     62  O   UNL A   1      45.236  37.149  33.759  1.00  0.00    -0.237 OA
ATOM     63  O   UNL A   1      42.783  37.389  33.700  1.00  0.00    -0.744 OA
ENDBRANCH  59  60
ENDBRANCH  40  54
BRANCH  41  64
ATOM     64  C   UNL A   1      42.588  23.574  27.933  1.00  0.00    -0.014 A 
ATOM     65  C   UNL A   1      42.942  23.403  26.584  1.00  0.00     0.010 A 
ATOM     66  C   UNL A   1      42.104  22.472  28.661  1.00  0.00     0.010 A 
ATOM     67  C   UNL A   1      42.806  22.154  25.972  1.00  0.00     0.020 A 
ATOM     68  C   UNL A   1      41.990  21.216  28.059  1.00  0.00     0.020 A 
ATOM     69  C   UNL A   1      42.332  21.068  26.714  1.00  0.00     0.054 A 
BRANCH  69  70
ATOM     70  S   UNL A   1      42.221  19.440  25.921  1.00  0.00     0.124 S 
ATOM     71  O   UNL A   1      43.136  19.588  24.794  1.00  0.00    -0.237 OA
ATOM     72  O   UNL A   1      42.663  18.536  26.981  1.00  0.00    -0.237 OA
ATOM     73  O   UNL A   1      40.807  19.329  25.569  1.00  0.00    -0.744 OA
ENDBRANCH  69  70
ENDBRANCH  41  64
BRANCH  53  74
ATOM     74  C   UNL A   1      47.843  26.719  31.260  1.00  0.00    -0.014 A 
ATOM     75  C   UNL A   1      48.129  26.016  32.445  1.00  0.00     0.010 A 
ATOM     76  C   UNL A   1      48.882  26.983  30.351  1.00  0.00     0.010 A 
ATOM     77  C   UNL A   1      49.437  25.614  32.729  1.00  0.00     0.020 A 
ATOM     78  C   UNL A   1      50.187  26.564  30.621  1.00  0.00     0.020 A 
ATOM     79  C   UNL A   1      50.459  25.896  31.817  1.00  0.00     0.054 A 
BRANCH  79  80
ATOM     80  S   UNL A   1      52.145  25.338  32.190  1.00  0.00     0.124 S 
ATOM     81  O   UNL A   1      52.441  26.068  33.418  1.00  0.00    -0.237 OA
ATOM     82  O   UNL A   1      51.983  23.893  32.340  1.00  0.00    -0.237 OA
ATOM     83  O   UNL A   1      52.911  25.752  31.016  1.00  0.00    -0.744 OA
ENDBRANCH  79  80
ENDBRANCH  53  74
ENDBRANCH  27  28
ENDBRANCH  20  22
ENDBRANCH  19  20
ENDBRANCH   1  19
TORSDOF 15
ENDMDL
