MODEL 1
REMARK VINA RESULT:     -10.3      0.000      0.000
REMARK SMILES COc1cccc(C(=O)Nc2ccsc2C(=O)OCCOC(=O)c2ccc(-c3c4nc(c(-c5ccc(S(=O)(=O)[O-])cc5)c5ccc([nH]5)c(-c5ccc(S(=O)(=O)[O-])cc5)c5nc(c(-c6ccc(S(=O)(=O)[O-])cc6)c6ccc3[nH]6)C=C5)C=C4)cc2)c1
REMARK SMILES IDX 19 1 18 2 16 3 17 4 15 5 11 6 12 7 13 8 14 9 10 10 8 11 9 12
REMARK SMILES IDX 7 14 3 15 4 16 84 17 5 18 6 19 2 20 1 21 20 22 21 23 22 24
REMARK SMILES IDX 23 25 24 26 25 27 83 28 26 29 82 30 27 31 28 32 29 33 76 34
REMARK SMILES IDX 30 35 81 36 75 37 77 38 31 39 80 40 74 41 73 42 32 44 62 45
REMARK SMILES IDX 43 46 61 47 44 48 47 49 60 50 78 51 45 52 46 53 59 55 79 56
REMARK SMILES IDX 48 57 33 58 34 59 42 60 35 61 41 62 36 63 37 64 38 65 39 66
REMARK SMILES IDX 40 67 63 68 64 69 72 70 65 71 71 72 66 73 67 74 68 75 69 76
REMARK SMILES IDX 70 77 49 78 50 79 58 80 51 81 57 82 52 83 53 84 54 85 55 86
REMARK SMILES IDX 56 87
REMARK H PARENT 10 13 77 43 47 54
REMARK Flexibility Score: inf
ROOT
ATOM      1  C   UNL A   1      36.005  21.135  24.962  1.00  0.00     0.275 C 
ENDROOT
BRANCH   1   2
ATOM      2  O   UNL A   1      35.382  22.433  25.009  1.00  0.00    -0.458 OA
BRANCH   2   3
ATOM      3  C   UNL A   1      34.892  22.919  23.825  1.00  0.00     0.350 C 
ATOM      4  O   UNL A   1      35.597  23.159  22.855  1.00  0.00    -0.245 OA
BRANCH   3   5
ATOM      5  C   UNL A   1      33.443  23.069  23.891  1.00  0.00     0.136 A 
ATOM      6  C   UNL A   1      32.533  23.621  22.994  1.00  0.00     0.067 A 
ATOM      7  C   UNL A   1      31.196  23.564  23.507  1.00  0.00     0.039 A 
ATOM      8  C   UNL A   1      31.136  23.063  24.787  1.00  0.00     0.068 A 
ATOM      9  S   UNL A   1      32.664  22.563  25.342  1.00  0.00    -0.135 S 
BRANCH   6  10
ATOM     10  N   UNL A   1      32.930  24.111  21.754  1.00  0.00    -0.320 N 
ATOM     11  C   UNL A   1      32.780  25.339  21.157  1.00  0.00     0.255 C 
ATOM     12  O   UNL A   1      32.880  25.421  19.930  1.00  0.00    -0.269 OA
ATOM     13  H   UNL A   1      33.408  23.453  21.200  1.00  0.00     0.170 HD
BRANCH  11  14
ATOM     14  C   UNL A   1      32.591  26.591  21.935  1.00  0.00     0.043 A 
ATOM     15  C   UNL A   1      31.203  28.366  22.831  1.00  0.00     0.119 A 
ATOM     16  C   UNL A   1      32.328  28.916  23.451  1.00  0.00     0.046 A 
ATOM     17  C   UNL A   1      31.327  27.170  22.123  1.00  0.00     0.060 A 
ATOM     18  C   UNL A   1      33.574  28.299  23.345  1.00  0.00     0.005 A 
ATOM     19  C   UNL A   1      33.708  27.144  22.577  1.00  0.00     0.014 A 
BRANCH  15  20
ATOM     20  O   UNL A   1      30.055  29.090  22.986  1.00  0.00    -0.497 OA
ATOM     21  C   UNL A   1      29.738  30.036  21.971  1.00  0.00     0.278 C 
ENDBRANCH  15  20
ENDBRANCH  11  14
ENDBRANCH   6  10
ENDBRANCH   3   5
ENDBRANCH   2   3
ENDBRANCH   1   2
BRANCH   1  22
ATOM     22  C   UNL A   1      37.535  21.240  24.927  1.00  0.00     0.275 C 
BRANCH  22  23
ATOM     23  O   UNL A   1      38.023  22.335  25.724  1.00  0.00    -0.458 OA
BRANCH  23  24
ATOM     24  C   UNL A   1      39.226  22.124  26.307  1.00  0.00     0.338 C 
ATOM     25  O   UNL A   1      39.867  21.084  26.296  1.00  0.00    -0.246 OA
BRANCH  24  26
ATOM     26  C   UNL A   1      39.766  23.379  26.860  1.00  0.00     0.060 A 
ATOM     27  C   UNL A   1      39.523  24.550  26.136  1.00  0.00     0.016 A 
ATOM     28  C   UNL A   1      40.566  23.413  28.006  1.00  0.00     0.016 A 
ATOM     29  C   UNL A   1      40.102  25.751  26.532  1.00  0.00     0.010 A 
ATOM     30  C   UNL A   1      41.145  24.625  28.406  1.00  0.00     0.010 A 
ATOM     31  C   UNL A   1      40.938  25.797  27.656  1.00  0.00    -0.014 A 
BRANCH  31  32
ATOM     32  C   UNL A   1      41.660  27.058  27.965  1.00  0.00     0.031 A 
ATOM     33  C   UNL A   1      40.908  28.225  28.548  1.00  0.00     0.074 A 
ATOM     34  C   UNL A   1      42.996  27.132  27.806  1.00  0.00     0.049 A 
ATOM     35  N   UNL A   1      41.357  29.397  28.916  1.00  0.00    -0.248 NA
ATOM     36  C   UNL A   1      39.461  28.046  28.746  1.00  0.00     0.031 C 
ATOM     37  C   UNL A   1      43.847  26.053  27.301  1.00  0.00     0.029 A 
ATOM     38  N   UNL A   1      43.874  28.153  28.075  1.00  0.00    -0.354 N 
ATOM     39  C   UNL A   1      40.250  30.101  29.374  1.00  0.00     0.074 A 
ATOM     40  C   UNL A   1      39.103  29.233  29.215  1.00  0.00     0.031 C 
ATOM     41  C   UNL A   1      45.127  26.463  27.319  1.00  0.00     0.029 A 
ATOM     42  C   UNL A   1      45.183  27.842  27.798  1.00  0.00     0.049 A 
ATOM     43  H   UNL A   1      43.590  29.026  28.432  1.00  0.00     0.167 HD
ATOM     44  C   UNL A   1      40.190  31.355  29.887  1.00  0.00     0.031 A 
ATOM     45  C   UNL A   1      46.302  28.585  27.907  1.00  0.00     0.031 A 
ATOM     46  C   UNL A   1      41.330  32.220  30.046  1.00  0.00     0.049 A 
ATOM     47  C   UNL A   1      46.204  29.993  28.431  1.00  0.00     0.074 A 
ATOM     48  C   UNL A   1      41.369  33.509  30.549  1.00  0.00     0.029 A 
ATOM     49  N   UNL A   1      42.632  31.884  29.708  1.00  0.00    -0.354 N 
ATOM     50  N   UNL A   1      45.145  30.645  28.850  1.00  0.00    -0.248 NA
ATOM     51  C   UNL A   1      47.455  30.763  28.503  1.00  0.00     0.031 C 
ATOM     52  C   UNL A   1      42.689  33.967  30.475  1.00  0.00     0.029 A 
ATOM     53  C   UNL A   1      43.480  32.944  29.979  1.00  0.00     0.049 A 
ATOM     54  H   UNL A   1      42.913  31.018  29.331  1.00  0.00     0.167 HD
ATOM     55  C   UNL A   1      45.607  31.892  29.261  1.00  0.00     0.074 A 
ATOM     56  C   UNL A   1      47.040  31.897  29.051  1.00  0.00     0.031 C 
ATOM     57  C   UNL A   1      44.906  32.935  29.770  1.00  0.00     0.031 A 
BRANCH  44  58
ATOM     58  C   UNL A   1      38.833  31.877  30.280  1.00  0.00    -0.014 A 
ATOM     59  C   UNL A   1      38.003  32.528  29.349  1.00  0.00     0.010 A 
ATOM     60  C   UNL A   1      38.374  31.696  31.597  1.00  0.00     0.010 A 
ATOM     61  C   UNL A   1      36.759  33.031  29.742  1.00  0.00     0.020 A 
ATOM     62  C   UNL A   1      37.120  32.172  31.987  1.00  0.00     0.020 A 
ATOM     63  C   UNL A   1      36.328  32.856  31.061  1.00  0.00     0.054 A 
BRANCH  63  64
ATOM     64  S   UNL A   1      34.710  33.518  31.546  1.00  0.00     0.124 S 
ATOM     65  O   UNL A   1      34.208  32.465  32.426  1.00  0.00    -0.237 OA
ATOM     66  O   UNL A   1      35.060  34.773  32.206  1.00  0.00    -0.237 OA
ATOM     67  O   UNL A   1      34.000  33.661  30.277  1.00  0.00    -0.744 OA
ENDBRANCH  63  64
ENDBRANCH  44  58
BRANCH  45  68
ATOM     68  C   UNL A   1      47.617  28.014  27.504  1.00  0.00    -0.014 A 
ATOM     69  C   UNL A   1      48.337  27.178  28.376  1.00  0.00     0.010 A 
ATOM     70  C   UNL A   1      48.153  28.302  26.235  1.00  0.00     0.010 A 
ATOM     71  C   UNL A   1      49.577  26.656  27.992  1.00  0.00     0.020 A 
ATOM     72  C   UNL A   1      49.378  27.760  25.838  1.00  0.00     0.020 A 
ATOM     73  C   UNL A   1      50.088  26.949  26.725  1.00  0.00     0.054 A 
BRANCH  73  74
ATOM     74  S   UNL A   1      51.673  26.219  26.227  1.00  0.00     0.124 S 
ATOM     75  O   UNL A   1      52.632  27.157  26.801  1.00  0.00    -0.237 OA
ATOM     76  O   UNL A   1      51.625  24.900  26.852  1.00  0.00    -0.237 OA
ATOM     77  O   UNL A   1      51.602  26.211  24.767  1.00  0.00    -0.744 OA
ENDBRANCH  73  74
ENDBRANCH  45  68
BRANCH  57  78
ATOM     78  C   UNL A   1      45.684  34.158  30.181  1.00  0.00    -0.014 A 
ATOM     79  C   UNL A   1      45.899  35.224  29.290  1.00  0.00     0.010 A 
ATOM     80  C   UNL A   1      46.167  34.257  31.499  1.00  0.00     0.010 A 
ATOM     81  C   UNL A   1      46.613  36.354  29.701  1.00  0.00     0.020 A 
ATOM     82  C   UNL A   1      46.859  35.396  31.920  1.00  0.00     0.020 A 
ATOM     83  C   UNL A   1      47.091  36.431  31.012  1.00  0.00     0.054 A 
BRANCH  83  84
ATOM     84  S   UNL A   1      47.984  37.922  31.534  1.00  0.00     0.124 S 
ATOM     85  O   UNL A   1      49.363  37.585  31.190  1.00  0.00    -0.237 OA
ATOM     86  O   UNL A   1      47.370  38.967  30.719  1.00  0.00    -0.237 OA
ATOM     87  O   UNL A   1      47.703  38.012  32.965  1.00  0.00    -0.744 OA
ENDBRANCH  83  84
ENDBRANCH  57  78
ENDBRANCH  31  32
ENDBRANCH  24  26
ENDBRANCH  23  24
ENDBRANCH  22  23
ENDBRANCH   1  22
TORSDOF 17
ENDMDL
MODEL 2
REMARK VINA RESULT:     -10.1      3.013      8.834
REMARK SMILES COc1cccc(C(=O)Nc2ccsc2C(=O)OCCOC(=O)c2ccc(-c3c4nc(c(-c5ccc(S(=O)(=O)[O-])cc5)c5ccc([nH]5)c(-c5ccc(S(=O)(=O)[O-])cc5)c5nc(c(-c6ccc(S(=O)(=O)[O-])cc6)c6ccc3[nH]6)C=C5)C=C4)cc2)c1
REMARK SMILES IDX 19 1 18 2 16 3 17 4 15 5 11 6 12 7 13 8 14 9 10 10 8 11 9 12
REMARK SMILES IDX 7 14 3 15 4 16 84 17 5 18 6 19 2 20 1 21 20 22 21 23 22 24
REMARK SMILES IDX 23 25 24 26 25 27 83 28 26 29 82 30 27 31 28 32 29 33 76 34
REMARK SMILES IDX 30 35 81 36 75 37 77 38 31 39 80 40 74 41 73 42 32 44 62 45
REMARK SMILES IDX 43 46 61 47 44 48 47 49 60 50 78 51 45 52 46 53 59 55 79 56
REMARK SMILES IDX 48 57 33 58 34 59 42 60 35 61 41 62 36 63 37 64 38 65 39 66
REMARK SMILES IDX 40 67 63 68 64 69 72 70 65 71 71 72 66 73 67 74 68 75 69 76
REMARK SMILES IDX 70 77 49 78 50 79 58 80 51 81 57 82 52 83 53 84 54 85 55 86
REMARK SMILES IDX 56 87
REMARK H PARENT 10 13 77 43 47 54
REMARK Flexibility Score: inf
ROOT
ATOM      1  C   UNL A   1      33.399  28.650  24.749  1.00  0.00     0.275 C 
ENDROOT
BRANCH   1   2
ATOM      2  O   UNL A   1      33.962  27.457  24.169  1.00  0.00    -0.458 OA
BRANCH   2   3
ATOM      3  C   UNL A   1      33.458  27.073  22.954  1.00  0.00     0.350 C 
ATOM      4  O   UNL A   1      33.818  27.562  21.893  1.00  0.00    -0.245 OA
BRANCH   3   5
ATOM      5  C   UNL A   1      32.481  26.002  23.118  1.00  0.00     0.136 A 
ATOM      6  C   UNL A   1      32.578  24.629  22.917  1.00  0.00     0.067 A 
ATOM      7  C   UNL A   1      31.335  23.972  23.191  1.00  0.00     0.039 A 
ATOM      8  C   UNL A   1      30.323  24.853  23.501  1.00  0.00     0.068 A 
ATOM      9  S   UNL A   1      30.881  26.458  23.566  1.00  0.00    -0.135 S 
BRANCH   6  10
ATOM     10  N   UNL A   1      33.773  24.025  22.537  1.00  0.00    -0.320 N 
ATOM     11  C   UNL A   1      34.633  23.185  23.202  1.00  0.00     0.255 C 
ATOM     12  O   UNL A   1      35.796  23.084  22.801  1.00  0.00    -0.269 OA
ATOM     13  H   UNL A   1      34.055  24.241  21.619  1.00  0.00     0.170 HD
BRANCH  11  14
ATOM     14  C   UNL A   1      34.198  22.321  24.331  1.00  0.00     0.043 A 
ATOM     15  C   UNL A   1      33.020  20.401  25.226  1.00  0.00     0.119 A 
ATOM     16  C   UNL A   1      33.465  20.739  26.506  1.00  0.00     0.046 A 
ATOM     17  C   UNL A   1      33.437  21.160  24.132  1.00  0.00     0.060 A 
ATOM     18  C   UNL A   1      34.296  21.842  26.703  1.00  0.00     0.005 A 
ATOM     19  C   UNL A   1      34.652  22.640  25.618  1.00  0.00     0.014 A 
BRANCH  15  20
ATOM     20  O   UNL A   1      32.185  19.320  25.180  1.00  0.00    -0.497 OA
ATOM     21  C   UNL A   1      32.678  18.092  25.703  1.00  0.00     0.278 C 
ENDBRANCH  15  20
ENDBRANCH  11  14
ENDBRANCH   6  10
ENDBRANCH   3   5
ENDBRANCH   2   3
ENDBRANCH   1   2
BRANCH   1  22
ATOM     22  C   UNL A   1      32.895  28.404  26.177  1.00  0.00     0.275 C 
BRANCH  22  23
ATOM     23  O   UNL A   1      33.957  28.465  27.147  1.00  0.00    -0.458 OA
BRANCH  23  24
ATOM     24  C   UNL A   1      34.270  29.711  27.572  1.00  0.00     0.338 C 
ATOM     25  O   UNL A   1      33.514  30.668  27.639  1.00  0.00    -0.246 OA
BRANCH  24  26
ATOM     26  C   UNL A   1      35.646  29.753  28.098  1.00  0.00     0.060 A 
ATOM     27  C   UNL A   1      36.670  30.010  27.181  1.00  0.00     0.016 A 
ATOM     28  C   UNL A   1      35.951  29.462  29.431  1.00  0.00     0.016 A 
ATOM     29  C   UNL A   1      38.001  29.947  27.582  1.00  0.00     0.010 A 
ATOM     30  C   UNL A   1      37.292  29.403  29.834  1.00  0.00     0.010 A 
ATOM     31  C   UNL A   1      38.326  29.619  28.905  1.00  0.00    -0.014 A 
BRANCH  31  32
ATOM     32  C   UNL A   1      39.752  29.411  29.265  1.00  0.00     0.031 A 
ATOM     33  C   UNL A   1      40.424  28.106  28.930  1.00  0.00     0.074 A 
ATOM     34  C   UNL A   1      40.468  30.414  29.810  1.00  0.00     0.049 A 
ATOM     35  N   UNL A   1      41.664  27.739  29.130  1.00  0.00    -0.248 NA
ATOM     36  C   UNL A   1      39.591  27.081  28.282  1.00  0.00     0.031 C 
ATOM     37  C   UNL A   1      39.947  31.744  30.134  1.00  0.00     0.029 A 
ATOM     38  N   UNL A   1      41.792  30.477  30.168  1.00  0.00    -0.354 N 
ATOM     39  C   UNL A   1      41.758  26.439  28.649  1.00  0.00     0.074 A 
ATOM     40  C   UNL A   1      40.443  26.071  28.169  1.00  0.00     0.031 C 
ATOM     41  C   UNL A   1      40.949  32.498  30.620  1.00  0.00     0.029 A 
ATOM     42  C   UNL A   1      42.168  31.695  30.680  1.00  0.00     0.049 A 
ATOM     43  H   UNL A   1      42.413  29.719  30.068  1.00  0.00     0.167 HD
ATOM     44  C   UNL A   1      42.840  25.624  28.602  1.00  0.00     0.031 A 
ATOM     45  C   UNL A   1      43.357  32.118  31.153  1.00  0.00     0.031 A 
ATOM     46  C   UNL A   1      44.148  25.987  29.079  1.00  0.00     0.049 A 
ATOM     47  C   UNL A   1      44.532  31.177  31.140  1.00  0.00     0.074 A 
ATOM     48  C   UNL A   1      45.307  25.228  29.083  1.00  0.00     0.029 A 
ATOM     49  N   UNL A   1      44.476  27.215  29.635  1.00  0.00    -0.354 N 
ATOM     50  N   UNL A   1      44.599  29.946  30.689  1.00  0.00    -0.248 NA
ATOM     51  C   UNL A   1      45.796  31.685  31.693  1.00  0.00     0.031 C 
ATOM     52  C   UNL A   1      46.323  25.982  29.680  1.00  0.00     0.029 A 
ATOM     53  C   UNL A   1      45.813  27.230  29.996  1.00  0.00     0.049 A 
ATOM     54  H   UNL A   1      43.850  27.966  29.755  1.00  0.00     0.167 HD
ATOM     55  C   UNL A   1      45.917  29.544  30.880  1.00  0.00     0.074 A 
ATOM     56  C   UNL A   1      46.614  30.666  31.475  1.00  0.00     0.031 C 
ATOM     57  C   UNL A   1      46.497  28.354  30.584  1.00  0.00     0.031 A 
BRANCH  44  58
ATOM     58  C   UNL A   1      42.639  24.238  28.046  1.00  0.00    -0.014 A 
ATOM     59  C   UNL A   1      42.892  23.949  26.694  1.00  0.00     0.010 A 
ATOM     60  C   UNL A   1      42.207  23.205  28.898  1.00  0.00     0.010 A 
ATOM     61  C   UNL A   1      42.671  22.663  26.192  1.00  0.00     0.020 A 
ATOM     62  C   UNL A   1      42.011  21.912  28.407  1.00  0.00     0.020 A 
ATOM     63  C   UNL A   1      42.224  21.653  27.051  1.00  0.00     0.054 A 
BRANCH  63  64
ATOM     64  S   UNL A   1      41.944  19.993  26.376  1.00  0.00     0.124 S 
ATOM     65  O   UNL A   1      42.847  19.981  25.228  1.00  0.00    -0.237 OA
ATOM     66  O   UNL A   1      42.328  19.125  27.486  1.00  0.00    -0.237 OA
ATOM     67  O   UNL A   1      40.519  19.988  26.049  1.00  0.00    -0.744 OA
ENDBRANCH  63  64
ENDBRANCH  44  58
BRANCH  45  68
ATOM     68  C   UNL A   1      43.496  33.499  31.691  1.00  0.00    -0.014 A 
ATOM     69  C   UNL A   1      43.892  34.560  30.857  1.00  0.00     0.010 A 
ATOM     70  C   UNL A   1      43.224  33.761  33.047  1.00  0.00     0.010 A 
ATOM     71  C   UNL A   1      44.031  35.852  31.374  1.00  0.00     0.020 A 
ATOM     72  C   UNL A   1      43.335  35.055  33.560  1.00  0.00     0.020 A 
ATOM     73  C   UNL A   1      43.749  36.092  32.721  1.00  0.00     0.054 A 
BRANCH  73  74
ATOM     74  S   UNL A   1      43.885  37.785  33.359  1.00  0.00     0.124 S 
ATOM     75  O   UNL A   1      45.102  37.711  34.160  1.00  0.00    -0.237 OA
ATOM     76  O   UNL A   1      43.979  38.579  32.136  1.00  0.00    -0.237 OA
ATOM     77  O   UNL A   1      42.647  37.966  34.116  1.00  0.00    -0.744 OA
ENDBRANCH  73  74
ENDBRANCH  45  68
BRANCH  57  78
ATOM     78  C   UNL A   1      47.972  28.215  30.856  1.00  0.00    -0.014 A 
ATOM     79  C   UNL A   1      48.448  27.703  32.075  1.00  0.00     0.010 A 
ATOM     80  C   UNL A   1      48.893  28.562  29.851  1.00  0.00     0.010 A 
ATOM     81  C   UNL A   1      49.822  27.572  32.297  1.00  0.00     0.020 A 
ATOM     82  C   UNL A   1      50.267  28.409  30.059  1.00  0.00     0.020 A 
ATOM     83  C   UNL A   1      50.723  27.929  31.289  1.00  0.00     0.054 A 
BRANCH  83  84
ATOM     84  S   UNL A   1      52.500  27.716  31.586  1.00  0.00     0.124 S 
ATOM     85  O   UNL A   1      52.957  29.099  31.693  1.00  0.00    -0.237 OA
ATOM     86  O   UNL A   1      52.530  26.946  32.826  1.00  0.00    -0.237 OA
ATOM     87  O   UNL A   1      52.965  26.996  30.402  1.00  0.00    -0.744 OA
ENDBRANCH  83  84
ENDBRANCH  57  78
ENDBRANCH  31  32
ENDBRANCH  24  26
ENDBRANCH  23  24
ENDBRANCH  22  23
ENDBRANCH   1  22
TORSDOF 17
ENDMDL
MODEL 3
REMARK VINA RESULT:     -10.0      2.973      9.453
REMARK SMILES COc1cccc(C(=O)Nc2ccsc2C(=O)OCCOC(=O)c2ccc(-c3c4nc(c(-c5ccc(S(=O)(=O)[O-])cc5)c5ccc([nH]5)c(-c5ccc(S(=O)(=O)[O-])cc5)c5nc(c(-c6ccc(S(=O)(=O)[O-])cc6)c6ccc3[nH]6)C=C5)C=C4)cc2)c1
REMARK SMILES IDX 19 1 18 2 16 3 17 4 15 5 11 6 12 7 13 8 14 9 10 10 8 11 9 12
REMARK SMILES IDX 7 14 3 15 4 16 84 17 5 18 6 19 2 20 1 21 20 22 21 23 22 24
REMARK SMILES IDX 23 25 24 26 25 27 83 28 26 29 82 30 27 31 28 32 29 33 76 34
REMARK SMILES IDX 30 35 81 36 75 37 77 38 31 39 80 40 74 41 73 42 32 44 62 45
REMARK SMILES IDX 43 46 61 47 44 48 47 49 60 50 78 51 45 52 46 53 59 55 79 56
REMARK SMILES IDX 48 57 33 58 34 59 42 60 35 61 41 62 36 63 37 64 38 65 39 66
REMARK SMILES IDX 40 67 63 68 64 69 72 70 65 71 71 72 66 73 67 74 68 75 69 76
REMARK SMILES IDX 70 77 49 78 50 79 58 80 51 81 57 82 52 83 53 84 54 85 55 86
REMARK SMILES IDX 56 87
REMARK H PARENT 10 13 77 43 47 54
REMARK Flexibility Score: inf
ROOT
ATOM      1  C   UNL A   1      42.259  18.773  26.768  1.00  0.00     0.275 C 
ENDROOT
BRANCH   1   2
ATOM      2  O   UNL A   1      41.634  20.015  26.388  1.00  0.00    -0.458 OA
BRANCH   2   3
ATOM      3  C   UNL A   1      40.312  19.949  26.032  1.00  0.00     0.350 C 
ATOM      4  O   UNL A   1      39.767  18.920  25.661  1.00  0.00    -0.245 OA
BRANCH   3   5
ATOM      5  C   UNL A   1      39.672  21.250  26.192  1.00  0.00     0.136 A 
ATOM      6  C   UNL A   1      38.445  21.733  25.747  1.00  0.00     0.067 A 
ATOM      7  C   UNL A   1      38.251  23.099  26.133  1.00  0.00     0.039 A 
ATOM      8  C   UNL A   1      39.347  23.634  26.769  1.00  0.00     0.068 A 
ATOM      9  S   UNL A   1      40.572  22.477  27.000  1.00  0.00    -0.135 S 
BRANCH   6  10
ATOM     10  N   UNL A   1      37.545  20.926  25.056  1.00  0.00    -0.320 N 
ATOM     11  C   UNL A   1      36.174  20.838  25.086  1.00  0.00     0.255 C 
ATOM     12  O   UNL A   1      35.635  19.809  24.671  1.00  0.00    -0.269 OA
ATOM     13  H   UNL A   1      37.972  20.301  24.427  1.00  0.00     0.170 HD
BRANCH  11  14
ATOM     14  C   UNL A   1      35.308  21.968  25.515  1.00  0.00     0.043 A 
ATOM     15  C   UNL A   1      34.175  24.072  25.106  1.00  0.00     0.119 A 
ATOM     16  C   UNL A   1      33.639  24.020  26.395  1.00  0.00     0.046 A 
ATOM     17  C   UNL A   1      34.961  23.014  24.647  1.00  0.00     0.060 A 
ATOM     18  C   UNL A   1      33.906  22.939  27.235  1.00  0.00     0.005 A 
ATOM     19  C   UNL A   1      34.750  21.920  26.800  1.00  0.00     0.014 A 
BRANCH  15  20
ATOM     20  O   UNL A   1      33.863  25.201  24.403  1.00  0.00    -0.497 OA
ATOM     21  C   UNL A   1      32.542  25.302  23.884  1.00  0.00     0.278 C 
ENDBRANCH  15  20
ENDBRANCH  11  14
ENDBRANCH   6  10
ENDBRANCH   3   5
ENDBRANCH   2   3
ENDBRANCH   1   2
BRANCH   1  22
ATOM     22  C   UNL A   1      43.360  18.366  25.780  1.00  0.00     0.275 C 
BRANCH  22  23
ATOM     23  O   UNL A   1      43.369  19.196  24.604  1.00  0.00    -0.458 OA
BRANCH  23  24
ATOM     24  C   UNL A   1      44.549  19.806  24.346  1.00  0.00     0.338 C 
ATOM     25  O   UNL A   1      45.438  19.392  23.617  1.00  0.00    -0.246 OA
BRANCH  24  26
ATOM     26  C   UNL A   1      44.589  21.147  24.957  1.00  0.00     0.060 A 
ATOM     27  C   UNL A   1      44.349  22.236  24.115  1.00  0.00     0.016 A 
ATOM     28  C   UNL A   1      44.939  21.353  26.295  1.00  0.00     0.016 A 
ATOM     29  C   UNL A   1      44.488  23.535  24.594  1.00  0.00     0.010 A 
ATOM     30  C   UNL A   1      45.075  22.663  26.776  1.00  0.00     0.010 A 
ATOM     31  C   UNL A   1      44.876  23.762  25.921  1.00  0.00    -0.014 A 
BRANCH  31  32
ATOM     32  C   UNL A   1      45.162  25.152  26.360  1.00  0.00     0.031 A 
ATOM     33  C   UNL A   1      46.550  25.714  26.200  1.00  0.00     0.074 A 
ATOM     34  C   UNL A   1      44.169  25.938  26.820  1.00  0.00     0.049 A 
ATOM     35  N   UNL A   1      46.996  26.910  26.490  1.00  0.00    -0.248 NA
ATOM     36  C   UNL A   1      47.567  24.813  25.635  1.00  0.00     0.031 C 
ATOM     37  C   UNL A   1      42.771  25.528  26.973  1.00  0.00     0.029 A 
ATOM     38  N   UNL A   1      44.179  27.250  27.223  1.00  0.00    -0.354 N 
ATOM     39  C   UNL A   1      48.346  26.901  26.159  1.00  0.00     0.074 A 
ATOM     40  C   UNL A   1      48.652  25.575  25.670  1.00  0.00     0.031 C 
ATOM     41  C   UNL A   1      42.055  26.577  27.413  1.00  0.00     0.029 A 
ATOM     42  C   UNL A   1      42.947  27.717  27.612  1.00  0.00     0.049 A 
ATOM     43  H   UNL A   1      44.994  27.803  27.232  1.00  0.00     0.167 HD
ATOM     44  C   UNL A   1      49.251  27.908  26.248  1.00  0.00     0.031 A 
ATOM     45  C   UNL A   1      42.576  28.924  28.084  1.00  0.00     0.031 A 
ATOM     46  C   UNL A   1      48.948  29.228  26.735  1.00  0.00     0.049 A 
ATOM     47  C   UNL A   1      43.609  30.010  28.222  1.00  0.00     0.074 A 
ATOM     48  C   UNL A   1      49.798  30.313  26.870  1.00  0.00     0.029 A 
ATOM     49  N   UNL A   1      47.698  29.646  27.164  1.00  0.00    -0.354 N 
ATOM     50  N   UNL A   1      44.885  29.980  27.914  1.00  0.00    -0.248 NA
ATOM     51  C   UNL A   1      43.152  31.297  28.767  1.00  0.00     0.031 C 
ATOM     52  C   UNL A   1      49.071  31.373  27.420  1.00  0.00     0.029 A 
ATOM     53  C   UNL A   1      47.756  30.967  27.576  1.00  0.00     0.049 A 
ATOM     54  H   UNL A   1      46.887  29.087  27.175  1.00  0.00     0.167 HD
ATOM     55  C   UNL A   1      45.374  31.251  28.201  1.00  0.00     0.074 A 
ATOM     56  C   UNL A   1      44.256  32.027  28.697  1.00  0.00     0.031 C 
ATOM     57  C   UNL A   1      46.635  31.731  28.063  1.00  0.00     0.031 A 
BRANCH  44  58
ATOM     58  C   UNL A   1      50.668  27.601  25.841  1.00  0.00    -0.014 A 
ATOM     59  C   UNL A   1      51.158  27.957  24.572  1.00  0.00     0.010 A 
ATOM     60  C   UNL A   1      51.528  26.961  26.752  1.00  0.00     0.010 A 
ATOM     61  C   UNL A   1      52.468  27.636  24.204  1.00  0.00     0.020 A 
ATOM     62  C   UNL A   1      52.847  26.664  26.399  1.00  0.00     0.020 A 
ATOM     63  C   UNL A   1      53.303  26.984  25.118  1.00  0.00     0.054 A 
BRANCH  63  64
ATOM     64  S   UNL A   1      54.998  26.579  24.617  1.00  0.00     0.124 S 
ATOM     65  O   UNL A   1      55.779  27.521  25.415  1.00  0.00    -0.237 OA
ATOM     66  O   UNL A   1      55.121  25.175  25.003  1.00  0.00    -0.237 OA
ATOM     67  O   UNL A   1      55.003  26.829  23.177  1.00  0.00    -0.744 OA
ENDBRANCH  63  64
ENDBRANCH  44  58
BRANCH  45  68
ATOM     68  C   UNL A   1      41.160  29.169  28.470  1.00  0.00    -0.014 A 
ATOM     69  C   UNL A   1      40.814  29.441  29.806  1.00  0.00     0.010 A 
ATOM     70  C   UNL A   1      40.145  29.137  27.495  1.00  0.00     0.010 A 
ATOM     71  C   UNL A   1      39.479  29.657  30.161  1.00  0.00     0.020 A 
ATOM     72  C   UNL A   1      38.814  29.380  27.841  1.00  0.00     0.020 A 
ATOM     73  C   UNL A   1      38.488  29.628  29.176  1.00  0.00     0.054 A 
BRANCH  73  74
ATOM     74  S   UNL A   1      36.769  29.965  29.650  1.00  0.00     0.124 S 
ATOM     75  O   UNL A   1      36.032  29.469  28.492  1.00  0.00    -0.237 OA
ATOM     76  O   UNL A   1      36.619  29.186  30.876  1.00  0.00    -0.237 OA
ATOM     77  O   UNL A   1      36.743  31.414  29.835  1.00  0.00    -0.744 OA
ENDBRANCH  73  74
ENDBRANCH  45  68
BRANCH  57  78
ATOM     78  C   UNL A   1      46.868  33.178  28.409  1.00  0.00    -0.014 A 
ATOM     79  C   UNL A   1      46.817  34.184  27.428  1.00  0.00     0.010 A 
ATOM     80  C   UNL A   1      47.095  33.538  29.750  1.00  0.00     0.010 A 
ATOM     81  C   UNL A   1      47.024  35.522  27.779  1.00  0.00     0.020 A 
ATOM     82  C   UNL A   1      47.277  34.877  30.108  1.00  0.00     0.020 A 
ATOM     83  C   UNL A   1      47.256  35.859  29.115  1.00  0.00     0.054 A 
BRANCH  83  84
ATOM     84  S   UNL A   1      47.486  37.605  29.552  1.00  0.00     0.124 S 
ATOM     85  O   UNL A   1      48.935  37.690  29.708  1.00  0.00    -0.237 OA
ATOM     86  O   UNL A   1      46.937  38.302  28.392  1.00  0.00    -0.237 OA
ATOM     87  O   UNL A   1      46.716  37.758  30.785  1.00  0.00    -0.744 OA
ENDBRANCH  83  84
ENDBRANCH  57  78
ENDBRANCH  31  32
ENDBRANCH  24  26
ENDBRANCH  23  24
ENDBRANCH  22  23
ENDBRANCH   1  22
TORSDOF 17
ENDMDL
