MODEL 1
REMARK VINA RESULT:     -11.2      0.000      0.000
REMARK SMILES O=C(CCCCCN1C(=O)/C(=C2\C(=O)Nc3ccccc32)SC1=S)OCCOC(=O)c1ccc(-c2c3nc(c(-c4ccc(S(=O)(=O)[O-])cc4)c4ccc([nH]4)c(-c4ccc(S(=O)(=O)[O-])cc4)c4nc(c(-c5ccc(S(=O)(=O)[O-])cc5)c5ccc2[nH]5)C=C4)C=C3)cc1
REMARK SMILES IDX 26 1 25 2 2 3 1 4 3 5 4 6 5 7 6 8 7 9 8 10 9 11 23 12 10 13
REMARK SMILES IDX 11 14 22 15 24 16 12 17 13 18 21 19 14 20 15 21 16 22 20 23
REMARK SMILES IDX 17 25 19 26 18 27 27 28 28 29 29 30 30 31 31 32 32 33 90 34
REMARK SMILES IDX 33 35 89 36 34 37 35 38 36 39 83 40 37 41 88 42 82 43 84 44
REMARK SMILES IDX 38 45 87 46 81 47 80 48 39 50 69 51 50 52 68 53 51 54 54 55
REMARK SMILES IDX 67 56 85 57 52 58 53 59 66 61 86 62 55 63 40 64 41 65 49 66
REMARK SMILES IDX 42 67 48 68 43 69 44 70 45 71 46 72 47 73 70 74 71 75 79 76
REMARK SMILES IDX 72 77 78 78 73 79 74 80 75 81 76 82 77 83 56 84 57 85 65 86
REMARK SMILES IDX 58 87 64 88 59 89 60 90 61 91 62 92 63 93
REMARK H PARENT 15 24 84 49 54 60
REMARK Flexibility Score: inf
ROOT
ATOM      1  C   UNL A   1      41.256  21.745  26.427  1.00  0.00     0.274 C 
ENDROOT
BRANCH   1   2
ATOM      2  O   UNL A   1      40.039  22.442  26.733  1.00  0.00    -0.462 OA
BRANCH   2   3
ATOM      3  C   UNL A   1      38.934  22.048  26.041  1.00  0.00     0.305 C 
ATOM      4  O   UNL A   1      38.900  20.991  25.426  1.00  0.00    -0.252 OA
BRANCH   3   5
ATOM      5  C   UNL A   1      37.844  23.099  25.966  1.00  0.00     0.123 C 
BRANCH   5   6
ATOM      6  C   UNL A   1      36.442  22.543  25.746  1.00  0.00     0.012 C 
BRANCH   6   7
ATOM      7  C   UNL A   1      35.921  22.647  24.309  1.00  0.00     0.002 C 
BRANCH   7   8
ATOM      8  C   UNL A   1      34.448  23.041  24.143  1.00  0.00     0.022 C 
BRANCH   8   9
ATOM      9  C   UNL A   1      34.033  24.392  24.716  1.00  0.00     0.127 C 
BRANCH   9  10
ATOM     10  N   UNL A   1      32.735  24.856  24.248  1.00  0.00    -0.293 N 
ATOM     11  C   UNL A   1      32.694  25.746  23.184  1.00  0.00     0.267 C 
ATOM     12  C   UNL A   1      31.520  24.470  24.766  1.00  0.00     0.148 C 
ATOM     13  O   UNL A   1      33.599  25.912  22.383  1.00  0.00    -0.268 OA
ATOM     14  C   UNL A   1      31.337  26.355  23.105  1.00  0.00     0.093 C 
ATOM     15  S   UNL A   1      30.238  25.245  23.856  1.00  0.00    -0.053 SA
ATOM     16  S   UNL A   1      31.198  23.458  26.052  1.00  0.00    -0.052 S 
ATOM     17  C   UNL A   1      31.043  27.601  22.706  1.00  0.00     0.069 C 
ATOM     18  C   UNL A   1      32.078  28.625  22.295  1.00  0.00     0.257 C 
ATOM     19  C   UNL A   1      29.746  28.311  22.729  1.00  0.00     0.012 A 
ATOM     20  O   UNL A   1      33.289  28.522  22.276  1.00  0.00    -0.269 OA
ATOM     21  N   UNL A   1      31.369  29.788  22.065  1.00  0.00    -0.321 N 
ATOM     22  C   UNL A   1      30.019  29.627  22.345  1.00  0.00     0.049 A 
ATOM     23  C   UNL A   1      28.449  27.959  23.071  1.00  0.00     0.011 A 
ATOM     24  H   UNL A   1      31.771  30.627  21.744  1.00  0.00     0.170 HD
ATOM     25  C   UNL A   1      29.055  30.617  22.313  1.00  0.00     0.027 A 
ATOM     26  C   UNL A   1      27.456  28.946  23.060  1.00  0.00     0.001 A 
ATOM     27  C   UNL A   1      27.759  30.265  22.688  1.00  0.00     0.002 A 
ENDBRANCH   9  10
ENDBRANCH   8   9
ENDBRANCH   7   8
ENDBRANCH   6   7
ENDBRANCH   5   6
ENDBRANCH   3   5
ENDBRANCH   2   3
ENDBRANCH   1   2
BRANCH   1  28
ATOM     28  C   UNL A   1      42.292  22.649  25.746  1.00  0.00     0.275 C 
BRANCH  28  29
ATOM     29  O   UNL A   1      42.751  23.690  26.624  1.00  0.00    -0.458 OA
BRANCH  29  30
ATOM     30  C   UNL A   1      42.574  24.951  26.144  1.00  0.00     0.338 C 
ATOM     31  O   UNL A   1      42.608  25.291  24.973  1.00  0.00    -0.246 OA
BRANCH  30  32
ATOM     32  C   UNL A   1      42.135  25.844  27.240  1.00  0.00     0.060 A 
ATOM     33  C   UNL A   1      41.055  25.532  28.074  1.00  0.00     0.016 A 
ATOM     34  C   UNL A   1      42.828  27.048  27.411  1.00  0.00     0.016 A 
ATOM     35  C   UNL A   1      40.688  26.419  29.093  1.00  0.00     0.010 A 
ATOM     36  C   UNL A   1      42.453  27.937  28.419  1.00  0.00     0.010 A 
ATOM     37  C   UNL A   1      41.390  27.622  29.279  1.00  0.00    -0.014 A 
BRANCH  37  38
ATOM     38  C   UNL A   1      41.135  28.484  30.459  1.00  0.00     0.031 A 
ATOM     39  C   UNL A   1      40.054  29.521  30.465  1.00  0.00     0.074 A 
ATOM     40  C   UNL A   1      41.951  28.359  31.523  1.00  0.00     0.049 A 
ATOM     41  N   UNL A   1      39.727  30.350  31.424  1.00  0.00    -0.248 NA
ATOM     42  C   UNL A   1      39.240  29.648  29.249  1.00  0.00     0.031 C 
ATOM     43  C   UNL A   1      43.044  27.392  31.627  1.00  0.00     0.029 A 
ATOM     44  N   UNL A   1      41.999  29.052  32.707  1.00  0.00    -0.354 N 
ATOM     45  C   UNL A   1      38.659  31.090  30.938  1.00  0.00     0.074 A 
ATOM     46  C   UNL A   1      38.416  30.636  29.584  1.00  0.00     0.031 C 
ATOM     47  C   UNL A   1      43.654  27.550  32.812  1.00  0.00     0.029 A 
ATOM     48  C   UNL A   1      43.016  28.647  33.537  1.00  0.00     0.049 A 
ATOM     49  H   UNL A   1      41.365  29.769  32.939  1.00  0.00     0.167 HD
ATOM     50  C   UNL A   1      37.941  32.049  31.572  1.00  0.00     0.031 A 
ATOM     51  C   UNL A   1      43.406  29.103  34.745  1.00  0.00     0.031 A 
ATOM     52  C   UNL A   1      38.199  32.500  32.920  1.00  0.00     0.049 A 
ATOM     53  C   UNL A   1      42.645  30.217  35.400  1.00  0.00     0.074 A 
ATOM     54  C   UNL A   1      37.467  33.405  33.671  1.00  0.00     0.029 A 
ATOM     55  N   UNL A   1      39.272  32.109  33.705  1.00  0.00    -0.354 N 
ATOM     56  N   UNL A   1      41.585  30.849  34.961  1.00  0.00    -0.248 NA
ATOM     57  C   UNL A   1      43.123  30.677  36.712  1.00  0.00     0.031 C 
ATOM     58  C   UNL A   1      38.139  33.617  34.878  1.00  0.00     0.029 A 
ATOM     59  C   UNL A   1      39.251  32.792  34.912  1.00  0.00     0.049 A 
ATOM     60  H   UNL A   1      39.950  31.444  33.445  1.00  0.00     0.167 HD
ATOM     61  C   UNL A   1      41.255  31.770  35.948  1.00  0.00     0.074 A 
ATOM     62  C   UNL A   1      42.227  31.612  37.012  1.00  0.00     0.031 C 
ATOM     63  C   UNL A   1      40.229  32.656  35.965  1.00  0.00     0.031 A 
BRANCH  50  64
ATOM     64  C   UNL A   1      36.792  32.688  30.837  1.00  0.00    -0.014 A 
ATOM     65  C   UNL A   1      37.027  33.787  29.989  1.00  0.00     0.010 A 
ATOM     66  C   UNL A   1      35.466  32.287  31.083  1.00  0.00     0.010 A 
ATOM     67  C   UNL A   1      35.960  34.490  29.423  1.00  0.00     0.020 A 
ATOM     68  C   UNL A   1      34.397  32.974  30.499  1.00  0.00     0.020 A 
ATOM     69  C   UNL A   1      34.650  34.085  29.691  1.00  0.00     0.054 A 
BRANCH  69  70
ATOM     70  S   UNL A   1      33.273  35.022  28.969  1.00  0.00     0.124 S 
ATOM     71  O   UNL A   1      32.468  35.342  30.143  1.00  0.00    -0.237 OA
ATOM     72  O   UNL A   1      33.949  36.154  28.338  1.00  0.00    -0.237 OA
ATOM     73  O   UNL A   1      32.664  34.073  28.038  1.00  0.00    -0.744 OA
ENDBRANCH  69  70
ENDBRANCH  50  64
BRANCH  51  74
ATOM     74  C   UNL A   1      44.561  28.439  35.404  1.00  0.00    -0.014 A 
ATOM     75  C   UNL A   1      44.352  27.350  36.270  1.00  0.00     0.010 A 
ATOM     76  C   UNL A   1      45.843  29.001  35.300  1.00  0.00     0.010 A 
ATOM     77  C   UNL A   1      45.391  26.884  37.080  1.00  0.00     0.020 A 
ATOM     78  C   UNL A   1      46.890  28.523  36.092  1.00  0.00     0.020 A 
ATOM     79  C   UNL A   1      46.646  27.493  37.005  1.00  0.00     0.054 A 
BRANCH  79  80
ATOM     80  S   UNL A   1      47.945  26.960  38.153  1.00  0.00     0.124 S 
ATOM     81  O   UNL A   1      49.054  26.686  37.243  1.00  0.00    -0.237 OA
ATOM     82  O   UNL A   1      48.111  28.129  39.013  1.00  0.00    -0.237 OA
ATOM     83  O   UNL A   1      47.366  25.788  38.804  1.00  0.00    -0.744 OA
ENDBRANCH  79  80
ENDBRANCH  51  74
BRANCH  63  84
ATOM     84  C   UNL A   1      40.079  33.558  37.162  1.00  0.00    -0.014 A 
ATOM     85  C   UNL A   1      39.262  33.162  38.238  1.00  0.00     0.010 A 
ATOM     86  C   UNL A   1      40.618  34.857  37.154  1.00  0.00     0.010 A 
ATOM     87  C   UNL A   1      38.944  34.063  39.259  1.00  0.00     0.020 A 
ATOM     88  C   UNL A   1      40.322  35.754  38.187  1.00  0.00     0.020 A 
ATOM     89  C   UNL A   1      39.462  35.360  39.217  1.00  0.00     0.054 A 
BRANCH  89  90
ATOM     90  S   UNL A   1      38.985  36.535  40.515  1.00  0.00     0.124 S 
ATOM     91  O   UNL A   1      40.229  36.687  41.264  1.00  0.00    -0.237 OA
ATOM     92  O   UNL A   1      38.564  37.706  39.750  1.00  0.00    -0.237 OA
ATOM     93  O   UNL A   1      37.909  35.844  41.224  1.00  0.00    -0.744 OA
ENDBRANCH  89  90
ENDBRANCH  63  84
ENDBRANCH  37  38
ENDBRANCH  30  32
ENDBRANCH  29  30
ENDBRANCH  28  29
ENDBRANCH   1  28
TORSDOF 19
ENDMDL
MODEL 2
REMARK VINA RESULT:     -11.0      3.940     10.308
REMARK SMILES O=C(CCCCCN1C(=O)/C(=C2\C(=O)Nc3ccccc32)SC1=S)OCCOC(=O)c1ccc(-c2c3nc(c(-c4ccc(S(=O)(=O)[O-])cc4)c4ccc([nH]4)c(-c4ccc(S(=O)(=O)[O-])cc4)c4nc(c(-c5ccc(S(=O)(=O)[O-])cc5)c5ccc2[nH]5)C=C4)C=C3)cc1
REMARK SMILES IDX 26 1 25 2 2 3 1 4 3 5 4 6 5 7 6 8 7 9 8 10 9 11 23 12 10 13
REMARK SMILES IDX 11 14 22 15 24 16 12 17 13 18 21 19 14 20 15 21 16 22 20 23
REMARK SMILES IDX 17 25 19 26 18 27 27 28 28 29 29 30 30 31 31 32 32 33 90 34
REMARK SMILES IDX 33 35 89 36 34 37 35 38 36 39 83 40 37 41 88 42 82 43 84 44
REMARK SMILES IDX 38 45 87 46 81 47 80 48 39 50 69 51 50 52 68 53 51 54 54 55
REMARK SMILES IDX 67 56 85 57 52 58 53 59 66 61 86 62 55 63 40 64 41 65 49 66
REMARK SMILES IDX 42 67 48 68 43 69 44 70 45 71 46 72 47 73 70 74 71 75 79 76
REMARK SMILES IDX 72 77 78 78 73 79 74 80 75 81 76 82 77 83 56 84 57 85 65 86
REMARK SMILES IDX 58 87 64 88 59 89 60 90 61 91 62 92 63 93
REMARK H PARENT 15 24 84 49 54 60
REMARK Flexibility Score: inf
ROOT
ATOM      1  C   UNL A   1      31.758  29.542  26.059  1.00  0.00     0.274 C 
ENDROOT
BRANCH   1   2
ATOM      2  O   UNL A   1      31.127  29.917  24.826  1.00  0.00    -0.462 OA
BRANCH   2   3
ATOM      3  C   UNL A   1      31.456  29.172  23.735  1.00  0.00     0.305 C 
ATOM      4  O   UNL A   1      32.621  28.941  23.439  1.00  0.00    -0.252 OA
BRANCH   3   5
ATOM      5  C   UNL A   1      30.278  28.814  22.851  1.00  0.00     0.123 C 
BRANCH   5   6
ATOM      6  C   UNL A   1      29.553  27.534  23.250  1.00  0.00     0.012 C 
BRANCH   6   7
ATOM      7  C   UNL A   1      30.418  26.497  23.975  1.00  0.00     0.002 C 
BRANCH   7   8
ATOM      8  C   UNL A   1      30.095  26.253  25.454  1.00  0.00     0.022 C 
BRANCH   8   9
ATOM      9  C   UNL A   1      30.648  24.972  26.071  1.00  0.00     0.127 C 
BRANCH   9  10
ATOM     10  N   UNL A   1      31.921  24.548  25.506  1.00  0.00    -0.293 N 
ATOM     11  C   UNL A   1      31.980  23.326  24.851  1.00  0.00     0.267 C 
ATOM     12  C   UNL A   1      33.089  25.273  25.548  1.00  0.00     0.148 C 
ATOM     13  O   UNL A   1      31.014  22.733  24.401  1.00  0.00    -0.268 OA
ATOM     14  C   UNL A   1      33.406  22.932  24.674  1.00  0.00     0.093 C 
ATOM     15  S   UNL A   1      34.341  24.390  24.698  1.00  0.00    -0.053 SA
ATOM     16  S   UNL A   1      33.388  26.745  26.274  1.00  0.00    -0.052 S 
ATOM     17  C   UNL A   1      33.896  21.684  24.688  1.00  0.00     0.069 C 
ATOM     18  C   UNL A   1      33.059  20.447  24.926  1.00  0.00     0.257 C 
ATOM     19  C   UNL A   1      35.304  21.231  24.653  1.00  0.00     0.012 A 
ATOM     20  O   UNL A   1      31.869  20.363  25.159  1.00  0.00    -0.269 OA
ATOM     21  N   UNL A   1      33.959  19.400  24.964  1.00  0.00    -0.321 N 
ATOM     22  C   UNL A   1      35.268  19.846  24.840  1.00  0.00     0.049 A 
ATOM     23  C   UNL A   1      36.529  21.866  24.530  1.00  0.00     0.011 A 
ATOM     24  H   UNL A   1      33.704  18.455  25.068  1.00  0.00     0.170 HD
ATOM     25  C   UNL A   1      36.407  19.069  24.934  1.00  0.00     0.027 A 
ATOM     26  C   UNL A   1      37.699  21.105  24.636  1.00  0.00     0.001 A 
ATOM     27  C   UNL A   1      37.637  19.718  24.841  1.00  0.00     0.002 A 
ENDBRANCH   9  10
ENDBRANCH   8   9
ENDBRANCH   7   8
ENDBRANCH   6   7
ENDBRANCH   5   6
ENDBRANCH   3   5
ENDBRANCH   2   3
ENDBRANCH   1   2
BRANCH   1  28
ATOM     28  C   UNL A   1      32.674  30.644  26.607  1.00  0.00     0.275 C 
BRANCH  28  29
ATOM     29  O   UNL A   1      33.948  30.123  27.019  1.00  0.00    -0.458 OA
BRANCH  29  30
ATOM     30  C   UNL A   1      34.589  30.876  27.953  1.00  0.00     0.338 C 
ATOM     31  O   UNL A   1      34.107  31.786  28.606  1.00  0.00    -0.246 OA
BRANCH  30  32
ATOM     32  C   UNL A   1      35.931  30.306  28.215  1.00  0.00     0.060 A 
ATOM     33  C   UNL A   1      36.936  30.277  27.243  1.00  0.00     0.016 A 
ATOM     34  C   UNL A   1      36.166  29.763  29.484  1.00  0.00     0.016 A 
ATOM     35  C   UNL A   1      38.184  29.722  27.552  1.00  0.00     0.010 A 
ATOM     36  C   UNL A   1      37.406  29.199  29.787  1.00  0.00     0.010 A 
ATOM     37  C   UNL A   1      38.431  29.190  28.829  1.00  0.00    -0.014 A 
BRANCH  37  38
ATOM     38  C   UNL A   1      39.794  28.766  29.232  1.00  0.00     0.031 A 
ATOM     39  C   UNL A   1      40.720  29.678  29.978  1.00  0.00     0.074 A 
ATOM     40  C   UNL A   1      40.217  27.546  28.852  1.00  0.00     0.049 A 
ATOM     41  N   UNL A   1      41.942  29.441  30.384  1.00  0.00    -0.248 NA
ATOM     42  C   UNL A   1      40.220  31.019  30.308  1.00  0.00     0.031 C 
ATOM     43  C   UNL A   1      39.408  26.576  28.113  1.00  0.00     0.029 A 
ATOM     44  N   UNL A   1      41.427  26.920  29.019  1.00  0.00    -0.354 N 
ATOM     45  C   UNL A   1      42.357  30.596  31.033  1.00  0.00     0.074 A 
ATOM     46  C   UNL A   1      41.267  31.546  30.934  1.00  0.00     0.031 C 
ATOM     47  C   UNL A   1      40.142  25.475  27.893  1.00  0.00     0.029 A 
ATOM     48  C   UNL A   1      41.480  25.672  28.447  1.00  0.00     0.049 A 
ATOM     49  H   UNL A   1      42.182  27.325  29.502  1.00  0.00     0.167 HD
ATOM     50  C   UNL A   1      43.532  30.831  31.663  1.00  0.00     0.031 A 
ATOM     51  C   UNL A   1      42.488  24.779  28.363  1.00  0.00     0.031 A 
ATOM     52  C   UNL A   1      44.615  29.880  31.747  1.00  0.00     0.049 A 
ATOM     53  C   UNL A   1      43.809  25.089  29.003  1.00  0.00     0.074 A 
ATOM     54  C   UNL A   1      45.808  30.003  32.441  1.00  0.00     0.029 A 
ATOM     55  N   UNL A   1      44.655  28.651  31.106  1.00  0.00    -0.354 N 
ATOM     56  N   UNL A   1      44.156  26.152  29.685  1.00  0.00    -0.248 NA
ATOM     57  C   UNL A   1      44.872  24.082  28.872  1.00  0.00     0.031 C 
ATOM     58  C   UNL A   1      46.597  28.885  32.158  1.00  0.00     0.029 A 
ATOM     59  C   UNL A   1      45.871  28.029  31.345  1.00  0.00     0.049 A 
ATOM     60  H   UNL A   1      43.926  28.275  30.560  1.00  0.00     0.167 HD
ATOM     61  C   UNL A   1      45.471  25.938  30.081  1.00  0.00     0.074 A 
ATOM     62  C   UNL A   1      45.859  24.640  29.565  1.00  0.00     0.031 C 
ATOM     63  C   UNL A   1      46.272  26.747  30.815  1.00  0.00     0.031 A 
BRANCH  50  64
ATOM     64  C   UNL A   1      43.733  32.168  32.331  1.00  0.00    -0.014 A 
ATOM     65  C   UNL A   1      43.279  32.368  33.648  1.00  0.00     0.010 A 
ATOM     66  C   UNL A   1      44.252  33.261  31.614  1.00  0.00     0.010 A 
ATOM     67  C   UNL A   1      43.315  33.639  34.227  1.00  0.00     0.020 A 
ATOM     68  C   UNL A   1      44.311  34.530  32.199  1.00  0.00     0.020 A 
ATOM     69  C   UNL A   1      43.820  34.715  33.494  1.00  0.00     0.054 A 
BRANCH  69  70
ATOM     70  S   UNL A   1      43.837  36.366  34.249  1.00  0.00     0.124 S 
ATOM     71  O   UNL A   1      44.749  37.096  33.375  1.00  0.00    -0.237 OA
ATOM     72  O   UNL A   1      42.434  36.768  34.177  1.00  0.00    -0.237 OA
ATOM     73  O   UNL A   1      44.337  36.119  35.601  1.00  0.00    -0.744 OA
ENDBRANCH  69  70
ENDBRANCH  50  64
BRANCH  51  74
ATOM     74  C   UNL A   1      42.227  23.490  27.672  1.00  0.00    -0.014 A 
ATOM     75  C   UNL A   1      41.547  22.454  28.339  1.00  0.00     0.010 A 
ATOM     76  C   UNL A   1      42.803  23.241  26.416  1.00  0.00     0.010 A 
ATOM     77  C   UNL A   1      41.517  21.167  27.796  1.00  0.00     0.020 A 
ATOM     78  C   UNL A   1      42.755  21.960  25.860  1.00  0.00     0.020 A 
ATOM     79  C   UNL A   1      42.146  20.923  26.572  1.00  0.00     0.054 A 
BRANCH  79  80
ATOM     80  S   UNL A   1      42.207  19.222  25.946  1.00  0.00     0.124 S 
ATOM     81  O   UNL A   1      42.775  18.505  27.085  1.00  0.00    -0.237 OA
ATOM     82  O   UNL A   1      40.804  18.936  25.658  1.00  0.00    -0.237 OA
ATOM     83  O   UNL A   1      43.073  19.319  24.774  1.00  0.00    -0.744 OA
ENDBRANCH  79  80
ENDBRANCH  51  74
BRANCH  63  84
ATOM     84  C   UNL A   1      47.674  26.288  31.117  1.00  0.00    -0.014 A 
ATOM     85  C   UNL A   1      47.952  25.650  32.341  1.00  0.00     0.010 A 
ATOM     86  C   UNL A   1      48.740  26.625  30.264  1.00  0.00     0.010 A 
ATOM     87  C   UNL A   1      49.272  25.402  32.730  1.00  0.00     0.020 A 
ATOM     88  C   UNL A   1      50.062  26.356  30.639  1.00  0.00     0.020 A 
ATOM     89  C   UNL A   1      50.319  25.774  31.883  1.00  0.00     0.054 A 
BRANCH  89  90
ATOM     90  S   UNL A   1      52.028  25.504  32.435  1.00  0.00     0.124 S 
ATOM     91  O   UNL A   1      51.996  26.023  33.798  1.00  0.00    -0.237 OA
ATOM     92  O   UNL A   1      52.179  24.056  32.316  1.00  0.00    -0.237 OA
ATOM     93  O   UNL A   1      52.821  26.285  31.487  1.00  0.00    -0.744 OA
ENDBRANCH  89  90
ENDBRANCH  63  84
ENDBRANCH  37  38
ENDBRANCH  30  32
ENDBRANCH  29  30
ENDBRANCH  28  29
ENDBRANCH   1  28
TORSDOF 19
ENDMDL
MODEL 3
REMARK VINA RESULT:     -11.0      1.848      8.306
REMARK SMILES O=C(CCCCCN1C(=O)/C(=C2\C(=O)Nc3ccccc32)SC1=S)OCCOC(=O)c1ccc(-c2c3nc(c(-c4ccc(S(=O)(=O)[O-])cc4)c4ccc([nH]4)c(-c4ccc(S(=O)(=O)[O-])cc4)c4nc(c(-c5ccc(S(=O)(=O)[O-])cc5)c5ccc2[nH]5)C=C4)C=C3)cc1
REMARK SMILES IDX 26 1 25 2 2 3 1 4 3 5 4 6 5 7 6 8 7 9 8 10 9 11 23 12 10 13
REMARK SMILES IDX 11 14 22 15 24 16 12 17 13 18 21 19 14 20 15 21 16 22 20 23
REMARK SMILES IDX 17 25 19 26 18 27 27 28 28 29 29 30 30 31 31 32 32 33 90 34
REMARK SMILES IDX 33 35 89 36 34 37 35 38 36 39 83 40 37 41 88 42 82 43 84 44
REMARK SMILES IDX 38 45 87 46 81 47 80 48 39 50 69 51 50 52 68 53 51 54 54 55
REMARK SMILES IDX 67 56 85 57 52 58 53 59 66 61 86 62 55 63 40 64 41 65 49 66
REMARK SMILES IDX 42 67 48 68 43 69 44 70 45 71 46 72 47 73 70 74 71 75 79 76
REMARK SMILES IDX 72 77 78 78 73 79 74 80 75 81 76 82 77 83 56 84 57 85 65 86
REMARK SMILES IDX 58 87 64 88 59 89 60 90 61 91 62 92 63 93
REMARK H PARENT 15 24 84 49 54 60
REMARK Flexibility Score: inf
ROOT
ATOM      1  C   UNL A   1      32.931  31.418  27.197  1.00  0.00     0.274 C 
ENDROOT
BRANCH   1   2
ATOM      2  O   UNL A   1      32.031  30.304  27.285  1.00  0.00    -0.462 OA
BRANCH   2   3
ATOM      3  C   UNL A   1      31.853  29.587  26.140  1.00  0.00     0.305 C 
ATOM      4  O   UNL A   1      31.622  30.131  25.068  1.00  0.00    -0.252 OA
BRANCH   3   5
ATOM      5  C   UNL A   1      31.797  28.088  26.350  1.00  0.00     0.123 C 
BRANCH   5   6
ATOM      6  C   UNL A   1      33.090  27.473  26.874  1.00  0.00     0.012 C 
BRANCH   6   7
ATOM      7  C   UNL A   1      34.032  26.929  25.795  1.00  0.00     0.002 C 
BRANCH   7   8
ATOM      8  C   UNL A   1      34.236  25.408  25.769  1.00  0.00     0.022 C 
BRANCH   8   9
ATOM      9  C   UNL A   1      33.642  24.660  24.579  1.00  0.00     0.127 C 
BRANCH   9  10
ATOM     10  N   UNL A   1      32.336  25.154  24.165  1.00  0.00    -0.293 N 
ATOM     11  C   UNL A   1      32.268  26.013  23.078  1.00  0.00     0.267 C 
ATOM     12  C   UNL A   1      31.139  24.825  24.757  1.00  0.00     0.148 C 
ATOM     13  O   UNL A   1      33.134  26.124  22.226  1.00  0.00    -0.268 OA
ATOM     14  C   UNL A   1      30.929  26.665  23.051  1.00  0.00     0.093 C 
ATOM     15  S   UNL A   1      29.837  25.616  23.893  1.00  0.00    -0.053 SA
ATOM     16  S   UNL A   1      30.853  23.862  26.090  1.00  0.00    -0.052 S 
ATOM     17  C   UNL A   1      30.655  27.908  22.629  1.00  0.00     0.069 C 
ATOM     18  C   UNL A   1      31.698  28.884  22.133  1.00  0.00     0.257 C 
ATOM     19  C   UNL A   1      29.384  28.662  22.698  1.00  0.00     0.012 A 
ATOM     20  O   UNL A   1      32.903  28.739  22.054  1.00  0.00    -0.269 OA
ATOM     21  N   UNL A   1      31.016  30.063  21.904  1.00  0.00    -0.321 N 
ATOM     22  C   UNL A   1      29.679  29.956  22.259  1.00  0.00     0.049 A 
ATOM     23  C   UNL A   1      28.097  28.365  23.117  1.00  0.00     0.011 A 
ATOM     24  H   UNL A   1      31.427  30.878  21.537  1.00  0.00     0.170 HD
ATOM     25  C   UNL A   1      28.747  30.977  22.246  1.00  0.00     0.027 A 
ATOM     26  C   UNL A   1      27.137  29.384  23.127  1.00  0.00     0.001 A 
ATOM     27  C   UNL A   1      27.462  30.680  22.699  1.00  0.00     0.002 A 
ENDBRANCH   9  10
ENDBRANCH   8   9
ENDBRANCH   7   8
ENDBRANCH   6   7
ENDBRANCH   5   6
ENDBRANCH   3   5
ENDBRANCH   2   3
ENDBRANCH   1   2
BRANCH   1  28
ATOM     28  C   UNL A   1      32.215  32.764  27.371  1.00  0.00     0.275 C 
BRANCH  28  29
ATOM     29  O   UNL A   1      33.146  33.853  27.476  1.00  0.00    -0.458 OA
BRANCH  29  30
ATOM     30  C   UNL A   1      33.313  34.333  28.739  1.00  0.00     0.338 C 
ATOM     31  O   UNL A   1      32.511  34.998  29.372  1.00  0.00    -0.246 OA
BRANCH  30  32
ATOM     32  C   UNL A   1      34.547  33.764  29.327  1.00  0.00     0.060 A 
ATOM     33  C   UNL A   1      35.824  34.195  28.952  1.00  0.00     0.016 A 
ATOM     34  C   UNL A   1      34.401  32.742  30.274  1.00  0.00     0.016 A 
ATOM     35  C   UNL A   1      36.953  33.616  29.544  1.00  0.00     0.010 A 
ATOM     36  C   UNL A   1      35.528  32.157  30.854  1.00  0.00     0.010 A 
ATOM     37  C   UNL A   1      36.812  32.601  30.507  1.00  0.00    -0.014 A 
BRANCH  37  38
ATOM     38  C   UNL A   1      37.981  32.106  31.274  1.00  0.00     0.031 A 
ATOM     39  C   UNL A   1      38.377  32.703  32.590  1.00  0.00     0.074 A 
ATOM     40  C   UNL A   1      38.733  31.133  30.725  1.00  0.00     0.049 A 
ATOM     41  N   UNL A   1      39.381  32.374  33.363  1.00  0.00    -0.248 NA
ATOM     42  C   UNL A   1      37.550  33.803  33.103  1.00  0.00     0.031 C 
ATOM     43  C   UNL A   1      38.452  30.483  29.445  1.00  0.00     0.029 A 
ATOM     44  N   UNL A   1      39.888  30.533  31.162  1.00  0.00    -0.354 N 
ATOM     45  C   UNL A   1      39.303  33.215  34.465  1.00  0.00     0.074 A 
ATOM     46  C   UNL A   1      38.173  34.094  34.241  1.00  0.00     0.031 C 
ATOM     47  C   UNL A   1      39.405  29.572  29.200  1.00  0.00     0.029 A 
ATOM     48  C   UNL A   1      40.380  29.593  30.289  1.00  0.00     0.049 A 
ATOM     49  H   UNL A   1      40.320  30.753  32.019  1.00  0.00     0.167 HD
ATOM     50  C   UNL A   1      40.095  33.238  35.564  1.00  0.00     0.031 A 
ATOM     51  C   UNL A   1      41.493  28.834  30.343  1.00  0.00     0.031 A 
ATOM     52  C   UNL A   1      41.225  32.363  35.771  1.00  0.00     0.049 A 
ATOM     53  C   UNL A   1      42.400  28.927  31.534  1.00  0.00     0.074 A 
ATOM     54  C   UNL A   1      42.028  32.258  36.894  1.00  0.00     0.029 A 
ATOM     55  N   UNL A   1      41.727  31.467  34.840  1.00  0.00    -0.354 N 
ATOM     56  N   UNL A   1      42.265  29.668  32.606  1.00  0.00    -0.248 NA
ATOM     57  C   UNL A   1      43.601  28.080  31.532  1.00  0.00     0.031 C 
ATOM     58  C   UNL A   1      43.059  31.357  36.613  1.00  0.00     0.029 A 
ATOM     59  C   UNL A   1      42.859  30.844  35.342  1.00  0.00     0.049 A 
ATOM     60  H   UNL A   1      41.337  31.297  33.951  1.00  0.00     0.167 HD
ATOM     61  C   UNL A   1      43.353  29.368  33.416  1.00  0.00     0.074 A 
ATOM     62  C   UNL A   1      44.138  28.373  32.713  1.00  0.00     0.031 C 
ATOM     63  C   UNL A   1      43.658  29.870  34.637  1.00  0.00     0.031 A 
BRANCH  50  64
ATOM     64  C   UNL A   1      39.781  34.232  36.652  1.00  0.00    -0.014 A 
ATOM     65  C   UNL A   1      40.339  35.523  36.604  1.00  0.00     0.010 A 
ATOM     66  C   UNL A   1      39.043  33.849  37.787  1.00  0.00     0.010 A 
ATOM     67  C   UNL A   1      40.188  36.404  37.678  1.00  0.00     0.020 A 
ATOM     68  C   UNL A   1      38.870  34.737  38.853  1.00  0.00     0.020 A 
ATOM     69  C   UNL A   1      39.463  36.000  38.802  1.00  0.00     0.054 A 
BRANCH  69  70
ATOM     70  S   UNL A   1      39.297  37.146  40.201  1.00  0.00     0.124 S 
ATOM     71  O   UNL A   1      40.688  37.398  40.560  1.00  0.00    -0.237 OA
ATOM     72  O   UNL A   1      38.582  38.275  39.609  1.00  0.00    -0.237 OA
ATOM     73  O   UNL A   1      38.531  36.379  41.182  1.00  0.00    -0.744 OA
ENDBRANCH  69  70
ENDBRANCH  50  64
BRANCH  51  74
ATOM     74  C   UNL A   1      41.751  27.890  29.225  1.00  0.00    -0.014 A 
ATOM     75  C   UNL A   1      41.214  26.590  29.256  1.00  0.00     0.010 A 
ATOM     76  C   UNL A   1      42.667  28.233  28.217  1.00  0.00     0.010 A 
ATOM     77  C   UNL A   1      41.651  25.624  28.346  1.00  0.00     0.020 A 
ATOM     78  C   UNL A   1      43.089  27.275  27.291  1.00  0.00     0.020 A 
ATOM     79  C   UNL A   1      42.606  25.967  27.386  1.00  0.00     0.054 A 
BRANCH  79  80
ATOM     80  S   UNL A   1      43.254  24.670  26.297  1.00  0.00     0.124 S 
ATOM     81  O   UNL A   1      44.402  24.185  27.060  1.00  0.00    -0.237 OA
ATOM     82  O   UNL A   1      42.129  23.745  26.196  1.00  0.00    -0.237 OA
ATOM     83  O   UNL A   1      43.580  25.387  25.067  1.00  0.00    -0.744 OA
ENDBRANCH  79  80
ENDBRANCH  51  74
BRANCH  63  84
ATOM     84  C   UNL A   1      44.907  29.380  35.323  1.00  0.00    -0.014 A 
ATOM     85  C   UNL A   1      46.091  30.137  35.242  1.00  0.00     0.010 A 
ATOM     86  C   UNL A   1      44.950  28.103  35.912  1.00  0.00     0.010 A 
ATOM     87  C   UNL A   1      47.305  29.608  35.691  1.00  0.00     0.020 A 
ATOM     88  C   UNL A   1      46.159  27.580  36.385  1.00  0.00     0.020 A 
ATOM     89  C   UNL A   1      47.333  28.325  36.243  1.00  0.00     0.054 A 
BRANCH  89  90
ATOM     90  S   UNL A   1      48.928  27.629  36.759  1.00  0.00     0.124 S 
ATOM     91  O   UNL A   1      48.783  27.569  38.210  1.00  0.00    -0.237 OA
ATOM     92  O   UNL A   1      48.953  26.338  36.075  1.00  0.00    -0.237 OA
ATOM     93  O   UNL A   1      49.902  28.603  36.268  1.00  0.00    -0.744 OA
ENDBRANCH  89  90
ENDBRANCH  63  84
ENDBRANCH  37  38
ENDBRANCH  30  32
ENDBRANCH  29  30
ENDBRANCH  28  29
ENDBRANCH   1  28
TORSDOF 19
ENDMDL
