MODEL 1
REMARK VINA RESULT:     -10.4      0.000      0.000
REMARK SMILES CN1C(=O)C[C@H](C(=O)OCCOC(=O)c2ccc(-c3c4nc(c(-c5ccc(S(=O)(=O)[O-])cc5)c5ccc([nH]5)c(-c5ccc(S(=O)(=O)[O-])cc5)c5nc(c(-c6ccc(S(=O)(=O)[O-])cc6)c6ccc3[nH]6)C=C5)C=C4)cc2)c2cccc(Cl)c21
REMARK SMILES IDX 12 1 11 2 10 3 9 4 7 5 8 6 6 7 1 8 2 9 3 10 81 11 4 12 5 13
REMARK SMILES IDX 75 14 79 15 76 16 78 17 80 18 77 19 13 20 14 21 15 22 16 23
REMARK SMILES IDX 74 24 17 25 73 26 18 27 19 28 20 29 67 30 21 31 72 32 66 33
REMARK SMILES IDX 68 34 22 35 71 36 65 37 64 38 23 40 53 41 34 42 52 43 35 44
REMARK SMILES IDX 38 45 51 46 69 47 36 48 37 49 50 51 70 52 39 53 24 54 25 55
REMARK SMILES IDX 33 56 26 57 32 58 27 59 28 60 29 61 30 62 31 63 54 64 55 65
REMARK SMILES IDX 63 66 56 67 62 68 57 69 58 70 59 71 60 72 61 73 40 74 41 75
REMARK SMILES IDX 49 76 42 77 48 78 43 79 44 80 45 81 46 82 47 83
REMARK H PARENT 68 39 38 50
REMARK Flexibility Score: inf
ROOT
ATOM      1  O   UNL A   1      38.908  24.317  26.584  1.00  0.00    -0.458 OA
ENDROOT
BRANCH   1   2
ATOM      2  C   UNL A   1      38.940  22.942  26.159  1.00  0.00     0.275 C 
BRANCH   2   3
ATOM      3  C   UNL A   1      39.993  22.128  26.918  1.00  0.00     0.274 C 
BRANCH   3   4
ATOM      4  O   UNL A   1      41.047  21.663  26.053  1.00  0.00    -0.462 OA
BRANCH   4   5
ATOM      5  C   UNL A   1      42.145  21.138  26.660  1.00  0.00     0.314 C 
ATOM      6  O   UNL A   1      42.118  20.125  27.353  1.00  0.00    -0.252 OA
BRANCH   5   7
ATOM      7  C   UNL A   1      43.423  21.955  26.431  1.00  0.00     0.140 C 
ATOM      8  C   UNL A   1      45.619  25.475  25.230  1.00  0.00     0.153 C 
ATOM      9  N   UNL A   1      44.751  24.385  25.643  1.00  0.00    -0.314 N 
ATOM     10  C   UNL A   1      44.639  23.334  24.735  1.00  0.00     0.227 C 
ATOM     11  C   UNL A   1      44.146  24.353  26.955  1.00  0.00     0.066 A 
ATOM     12  O   UNL A   1      45.305  23.249  23.701  1.00  0.00    -0.274 OA
ATOM     13  C   UNL A   1      43.534  22.360  24.978  1.00  0.00     0.120 C 
ATOM     14  C   UNL A   1      43.554  23.136  27.376  1.00  0.00    -0.008 A 
ATOM     15  C   UNL A   1      44.177  25.415  27.900  1.00  0.00     0.065 A 
ATOM     16  C   UNL A   1      43.172  22.963  28.726  1.00  0.00     0.007 A 
ATOM     17  C   UNL A   1      43.742  25.225  29.224  1.00  0.00     0.023 A 
ATOM     18  Cl  UNL A   1      44.667  27.047  27.579  1.00  0.00    -0.082 Cl
ATOM     19  C   UNL A   1      43.268  23.996  29.645  1.00  0.00     0.002 A 
ENDBRANCH   5   7
ENDBRANCH   4   5
ENDBRANCH   3   4
ENDBRANCH   2   3
ENDBRANCH   1   2
BRANCH   1  20
ATOM     20  C   UNL A   1      40.084  24.976  26.469  1.00  0.00     0.338 C 
ATOM     21  O   UNL A   1      40.864  24.927  25.534  1.00  0.00    -0.246 OA
BRANCH  20  22
ATOM     22  C   UNL A   1      40.264  25.889  27.605  1.00  0.00     0.060 A 
ATOM     23  C   UNL A   1      39.501  25.676  28.756  1.00  0.00     0.016 A 
ATOM     24  C   UNL A   1      41.080  27.015  27.490  1.00  0.00     0.016 A 
ATOM     25  C   UNL A   1      39.531  26.597  29.796  1.00  0.00     0.010 A 
ATOM     26  C   UNL A   1      41.112  27.941  28.537  1.00  0.00     0.010 A 
ATOM     27  C   UNL A   1      40.323  27.745  29.684  1.00  0.00    -0.014 A 
BRANCH  27  28
ATOM     28  C   UNL A   1      40.259  28.776  30.741  1.00  0.00     0.031 A 
ATOM     29  C   UNL A   1      41.226  28.721  31.886  1.00  0.00     0.074 A 
ATOM     30  C   UNL A   1      39.367  29.779  30.646  1.00  0.00     0.049 A 
ATOM     31  N   UNL A   1      41.277  29.469  32.956  1.00  0.00    -0.248 NA
ATOM     32  C   UNL A   1      42.282  27.696  31.814  1.00  0.00     0.031 C 
ATOM     33  C   UNL A   1      38.440  29.983  29.533  1.00  0.00     0.029 A 
ATOM     34  N   UNL A   1      39.103  30.817  31.500  1.00  0.00    -0.354 N 
ATOM     35  C   UNL A   1      42.356  29.000  33.693  1.00  0.00     0.074 A 
ATOM     36  C   UNL A   1      42.932  27.898  32.952  1.00  0.00     0.031 C 
ATOM     37  C   UNL A   1      37.711  31.086  29.771  1.00  0.00     0.029 A 
ATOM     38  C   UNL A   1      38.085  31.633  31.073  1.00  0.00     0.049 A 
ATOM     39  H   UNL A   1      39.596  30.964  32.340  1.00  0.00     0.167 HD
ATOM     40  C   UNL A   1      42.822  29.449  34.882  1.00  0.00     0.031 A 
ATOM     41  C   UNL A   1      37.500  32.687  31.676  1.00  0.00     0.031 A 
ATOM     42  C   UNL A   1      42.241  30.539  35.615  1.00  0.00     0.049 A 
ATOM     43  C   UNL A   1      37.970  33.105  33.040  1.00  0.00     0.074 A 
ATOM     44  C   UNL A   1      42.619  31.048  36.845  1.00  0.00     0.029 A 
ATOM     45  N   UNL A   1      41.162  31.295  35.182  1.00  0.00    -0.354 N 
ATOM     46  N   UNL A   1      38.948  32.607  33.759  1.00  0.00    -0.248 NA
ATOM     47  C   UNL A   1      37.251  34.215  33.680  1.00  0.00     0.031 C 
ATOM     48  C   UNL A   1      41.746  32.091  37.171  1.00  0.00     0.029 A 
ATOM     49  C   UNL A   1      40.850  32.257  36.127  1.00  0.00     0.049 A 
ATOM     50  H   UNL A   1      40.688  31.167  34.329  1.00  0.00     0.167 HD
ATOM     51  C   UNL A   1      38.967  33.347  34.934  1.00  0.00     0.074 A 
ATOM     52  C   UNL A   1      37.910  34.332  34.826  1.00  0.00     0.031 C 
ATOM     53  C   UNL A   1      39.787  33.221  36.005  1.00  0.00     0.031 A 
BRANCH  40  54
ATOM     54  C   UNL A   1      43.996  28.731  35.484  1.00  0.00    -0.014 A 
ATOM     55  C   UNL A   1      45.310  29.167  35.244  1.00  0.00     0.010 A 
ATOM     56  C   UNL A   1      43.776  27.638  36.341  1.00  0.00     0.010 A 
ATOM     57  C   UNL A   1      46.389  28.508  35.842  1.00  0.00     0.020 A 
ATOM     58  C   UNL A   1      44.852  26.988  36.952  1.00  0.00     0.020 A 
ATOM     59  C   UNL A   1      46.153  27.425  36.694  1.00  0.00     0.054 A 
BRANCH  59  60
ATOM     60  S   UNL A   1      47.573  26.609  37.472  1.00  0.00     0.124 S 
ATOM     61  O   UNL A   1      48.477  27.731  37.712  1.00  0.00    -0.237 OA
ATOM     62  O   UNL A   1      46.980  26.013  38.666  1.00  0.00    -0.237 OA
ATOM     63  O   UNL A   1      48.026  25.656  36.460  1.00  0.00    -0.744 OA
ENDBRANCH  59  60
ENDBRANCH  40  54
BRANCH  41  64
ATOM     64  C   UNL A   1      36.381  33.387  30.996  1.00  0.00    -0.014 A 
ATOM     65  C   UNL A   1      35.144  33.543  31.640  1.00  0.00     0.010 A 
ATOM     66  C   UNL A   1      36.570  33.949  29.719  1.00  0.00     0.010 A 
ATOM     67  C   UNL A   1      34.114  34.262  31.024  1.00  0.00     0.020 A 
ATOM     68  C   UNL A   1      35.550  34.683  29.108  1.00  0.00     0.020 A 
ATOM     69  C   UNL A   1      34.329  34.837  29.767  1.00  0.00     0.054 A 
BRANCH  69  70
ATOM     70  S   UNL A   1      33.001  35.829  29.028  1.00  0.00     0.124 S 
ATOM     71  O   UNL A   1      32.353  34.865  28.144  1.00  0.00    -0.237 OA
ATOM     72  O   UNL A   1      32.229  36.232  30.200  1.00  0.00    -0.237 OA
ATOM     73  O   UNL A   1      33.714  36.913  28.355  1.00  0.00    -0.744 OA
ENDBRANCH  69  70
ENDBRANCH  41  64
BRANCH  53  74
ATOM     74  C   UNL A   1      39.587  34.175  37.147  1.00  0.00    -0.014 A 
ATOM     75  C   UNL A   1      38.870  33.786  38.291  1.00  0.00     0.010 A 
ATOM     76  C   UNL A   1      40.198  35.441  37.111  1.00  0.00     0.010 A 
ATOM     77  C   UNL A   1      38.759  34.655  39.379  1.00  0.00     0.020 A 
ATOM     78  C   UNL A   1      40.102  36.306  38.203  1.00  0.00     0.020 A 
ATOM     79  C   UNL A   1      39.379  35.908  39.330  1.00  0.00     0.054 A 
BRANCH  79  80
ATOM     80  S   UNL A   1      39.257  36.992  40.779  1.00  0.00     0.124 S 
ATOM     81  O   UNL A   1      38.566  36.139  41.742  1.00  0.00    -0.237 OA
ATOM     82  O   UNL A   1      40.659  37.273  41.081  1.00  0.00    -0.237 OA
ATOM     83  O   UNL A   1      38.486  38.135  40.296  1.00  0.00    -0.744 OA
ENDBRANCH  79  80
ENDBRANCH  53  74
ENDBRANCH  27  28
ENDBRANCH  20  22
ENDBRANCH   1  20
TORSDOF 14
ENDMDL
MODEL 2
REMARK VINA RESULT:     -10.4      5.619     11.754
REMARK SMILES CN1C(=O)C[C@H](C(=O)OCCOC(=O)c2ccc(-c3c4nc(c(-c5ccc(S(=O)(=O)[O-])cc5)c5ccc([nH]5)c(-c5ccc(S(=O)(=O)[O-])cc5)c5nc(c(-c6ccc(S(=O)(=O)[O-])cc6)c6ccc3[nH]6)C=C5)C=C4)cc2)c2cccc(Cl)c21
REMARK SMILES IDX 12 1 11 2 10 3 9 4 7 5 8 6 6 7 1 8 2 9 3 10 81 11 4 12 5 13
REMARK SMILES IDX 75 14 79 15 76 16 78 17 80 18 77 19 13 20 14 21 15 22 16 23
REMARK SMILES IDX 74 24 17 25 73 26 18 27 19 28 20 29 67 30 21 31 72 32 66 33
REMARK SMILES IDX 68 34 22 35 71 36 65 37 64 38 23 40 53 41 34 42 52 43 35 44
REMARK SMILES IDX 38 45 51 46 69 47 36 48 37 49 50 51 70 52 39 53 24 54 25 55
REMARK SMILES IDX 33 56 26 57 32 58 27 59 28 60 29 61 30 62 31 63 54 64 55 65
REMARK SMILES IDX 63 66 56 67 62 68 57 69 58 70 59 71 60 72 61 73 40 74 41 75
REMARK SMILES IDX 49 76 42 77 48 78 43 79 44 80 45 81 46 82 47 83
REMARK H PARENT 68 39 38 50
REMARK Flexibility Score: inf
ROOT
ATOM      1  O   UNL A   1      33.592  29.868  27.521  1.00  0.00    -0.458 OA
ENDROOT
BRANCH   1   2
ATOM      2  C   UNL A   1      32.421  30.469  26.941  1.00  0.00     0.275 C 
BRANCH   2   3
ATOM      3  C   UNL A   1      31.990  29.763  25.651  1.00  0.00     0.274 C 
BRANCH   3   4
ATOM      4  O   UNL A   1      33.017  28.890  25.141  1.00  0.00    -0.462 OA
BRANCH   4   5
ATOM      5  C   UNL A   1      32.598  27.731  24.566  1.00  0.00     0.314 C 
ATOM      6  O   UNL A   1      32.568  27.547  23.353  1.00  0.00    -0.252 OA
BRANCH   5   7
ATOM      7  C   UNL A   1      32.127  26.678  25.578  1.00  0.00     0.140 C 
ATOM      8  C   UNL A   1      30.397  22.888  26.718  1.00  0.00     0.153 C 
ATOM      9  N   UNL A   1      31.002  24.100  26.190  1.00  0.00    -0.314 N 
ATOM     10  C   UNL A   1      30.186  25.229  26.201  1.00  0.00     0.227 C 
ATOM     11  C   UNL A   1      32.391  24.142  25.793  1.00  0.00     0.066 A 
ATOM     12  O   UNL A   1      29.070  25.261  26.721  1.00  0.00    -0.274 OA
ATOM     13  C   UNL A   1      30.653  26.395  25.394  1.00  0.00     0.120 C 
ATOM     14  C   UNL A   1      32.969  25.415  25.560  1.00  0.00    -0.008 A 
ATOM     15  C   UNL A   1      33.256  23.017  25.705  1.00  0.00     0.065 A 
ATOM     16  C   UNL A   1      34.370  25.542  25.416  1.00  0.00     0.007 A 
ATOM     17  C   UNL A   1      34.639  23.174  25.511  1.00  0.00     0.023 A 
ATOM     18  Cl  UNL A   1      32.767  21.353  25.758  1.00  0.00    -0.082 Cl
ATOM     19  C   UNL A   1      35.201  24.433  25.395  1.00  0.00     0.002 A 
ENDBRANCH   5   7
ENDBRANCH   4   5
ENDBRANCH   3   4
ENDBRANCH   2   3
ENDBRANCH   1   2
BRANCH   1  20
ATOM     20  C   UNL A   1      34.427  30.732  28.143  1.00  0.00     0.338 C 
ATOM     21  O   UNL A   1      34.140  31.819  28.614  1.00  0.00    -0.246 OA
BRANCH  20  22
ATOM     22  C   UNL A   1      35.758  30.130  28.294  1.00  0.00     0.060 A 
ATOM     23  C   UNL A   1      36.136  29.663  29.556  1.00  0.00     0.016 A 
ATOM     24  C   UNL A   1      36.668  30.140  27.237  1.00  0.00     0.016 A 
ATOM     25  C   UNL A   1      37.435  29.220  29.778  1.00  0.00     0.010 A 
ATOM     26  C   UNL A   1      37.973  29.693  27.459  1.00  0.00     0.010 A 
ATOM     27  C   UNL A   1      38.366  29.251  28.734  1.00  0.00    -0.014 A 
BRANCH  27  28
ATOM     28  C   UNL A   1      39.773  28.891  29.008  1.00  0.00     0.031 A 
ATOM     29  C   UNL A   1      40.674  29.889  29.673  1.00  0.00     0.074 A 
ATOM     30  C   UNL A   1      40.223  27.661  28.701  1.00  0.00     0.049 A 
ATOM     31  N   UNL A   1      41.956  29.806  29.916  1.00  0.00    -0.248 NA
ATOM     32  C   UNL A   1      40.051  31.141  30.136  1.00  0.00     0.031 C 
ATOM     33  C   UNL A   1      39.413  26.581  28.135  1.00  0.00     0.029 A 
ATOM     34  N   UNL A   1      41.472  27.113  28.831  1.00  0.00    -0.354 N 
ATOM     35  C   UNL A   1      42.298  30.995  30.545  1.00  0.00     0.074 A 
ATOM     36  C   UNL A   1      41.091  31.788  30.643  1.00  0.00     0.031 C 
ATOM     37  C   UNL A   1      40.188  25.497  27.972  1.00  0.00     0.029 A 
ATOM     38  C   UNL A   1      41.554  25.821  28.374  1.00  0.00     0.049 A 
ATOM     39  H   UNL A   1      42.238  27.599  29.216  1.00  0.00     0.167 HD
ATOM     40  C   UNL A   1      43.511  31.390  30.996  1.00  0.00     0.031 A 
ATOM     41  C   UNL A   1      42.618  25.001  28.264  1.00  0.00     0.031 A 
ATOM     42  C   UNL A   1      44.706  30.599  30.889  1.00  0.00     0.049 A 
ATOM     43  C   UNL A   1      43.972  25.496  28.681  1.00  0.00     0.074 A 
ATOM     44  C   UNL A   1      45.992  30.925  31.286  1.00  0.00     0.029 A 
ATOM     45  N   UNL A   1      44.763  29.323  30.352  1.00  0.00    -0.354 N 
ATOM     46  N   UNL A   1      44.296  26.653  29.210  1.00  0.00    -0.248 NA
ATOM     47  C   UNL A   1      45.107  24.586  28.475  1.00  0.00     0.031 C 
ATOM     48  C   UNL A   1      46.832  29.856  30.957  1.00  0.00     0.029 A 
ATOM     49  C   UNL A   1      46.063  28.851  30.392  1.00  0.00     0.049 A 
ATOM     50  H   UNL A   1      43.992  28.825  29.993  1.00  0.00     0.167 HD
ATOM     51  C   UNL A   1      45.670  26.606  29.407  1.00  0.00     0.074 A 
ATOM     52  C   UNL A   1      46.116  25.307  28.949  1.00  0.00     0.031 C 
ATOM     53  C   UNL A   1      46.488  27.558  29.921  1.00  0.00     0.031 A 
BRANCH  40  54
ATOM     54  C   UNL A   1      43.613  32.756  31.612  1.00  0.00    -0.014 A 
ATOM     55  C   UNL A   1      43.803  33.897  30.813  1.00  0.00     0.010 A 
ATOM     56  C   UNL A   1      43.464  32.904  33.002  1.00  0.00     0.010 A 
ATOM     57  C   UNL A   1      43.859  35.165  31.400  1.00  0.00     0.020 A 
ATOM     58  C   UNL A   1      43.504  34.171  33.589  1.00  0.00     0.020 A 
ATOM     59  C   UNL A   1      43.706  35.294  32.784  1.00  0.00     0.054 A 
BRANCH  59  60
ATOM     60  S   UNL A   1      43.760  36.955  33.510  1.00  0.00     0.124 S 
ATOM     61  O   UNL A   1      45.002  36.914  34.277  1.00  0.00    -0.237 OA
ATOM     62  O   UNL A   1      43.777  37.814  32.330  1.00  0.00    -0.237 OA
ATOM     63  O   UNL A   1      42.540  37.025  34.312  1.00  0.00    -0.744 OA
ENDBRANCH  59  60
ENDBRANCH  40  54
BRANCH  41  64
ATOM     64  C   UNL A   1      42.433  23.640  27.699  1.00  0.00    -0.014 A 
ATOM     65  C   UNL A   1      42.668  23.397  26.337  1.00  0.00     0.010 A 
ATOM     66  C   UNL A   1      42.073  22.568  28.538  1.00  0.00     0.010 A 
ATOM     67  C   UNL A   1      42.560  22.101  25.823  1.00  0.00     0.020 A 
ATOM     68  C   UNL A   1      41.980  21.269  28.032  1.00  0.00     0.020 A 
ATOM     69  C   UNL A   1      42.228  21.044  26.677  1.00  0.00     0.054 A 
BRANCH  69  70
ATOM     70  S   UNL A   1      42.170  19.363  25.996  1.00  0.00     0.124 S 
ATOM     71  O   UNL A   1      42.710  18.568  27.095  1.00  0.00    -0.237 OA
ATOM     72  O   UNL A   1      40.744  19.188  25.730  1.00  0.00    -0.237 OA
ATOM     73  O   UNL A   1      43.015  19.443  24.807  1.00  0.00    -0.744 OA
ENDBRANCH  69  70
ENDBRANCH  41  64
BRANCH  53  74
ATOM     74  C   UNL A   1      47.949  27.230  30.028  1.00  0.00    -0.014 A 
ATOM     75  C   UNL A   1      48.849  27.622  29.023  1.00  0.00     0.010 A 
ATOM     76  C   UNL A   1      48.437  26.602  31.188  1.00  0.00     0.010 A 
ATOM     77  C   UNL A   1      50.217  27.381  29.173  1.00  0.00     0.020 A 
ATOM     78  C   UNL A   1      49.806  26.374  31.348  1.00  0.00     0.020 A 
ATOM     79  C   UNL A   1      50.687  26.763  30.336  1.00  0.00     0.054 A 
BRANCH  79  80
ATOM     80  S   UNL A   1      52.473  26.510  30.521  1.00  0.00     0.124 S 
ATOM     81  O   UNL A   1      52.915  27.805  31.033  1.00  0.00    -0.237 OA
ATOM     82  O   UNL A   1      52.539  25.402  31.471  1.00  0.00    -0.237 OA
ATOM     83  O   UNL A   1      52.923  26.193  29.167  1.00  0.00    -0.744 OA
ENDBRANCH  79  80
ENDBRANCH  53  74
ENDBRANCH  27  28
ENDBRANCH  20  22
ENDBRANCH   1  20
TORSDOF 14
ENDMDL
MODEL 3
REMARK VINA RESULT:     -10.3      5.414     13.419
REMARK SMILES CN1C(=O)C[C@H](C(=O)OCCOC(=O)c2ccc(-c3c4nc(c(-c5ccc(S(=O)(=O)[O-])cc5)c5ccc([nH]5)c(-c5ccc(S(=O)(=O)[O-])cc5)c5nc(c(-c6ccc(S(=O)(=O)[O-])cc6)c6ccc3[nH]6)C=C5)C=C4)cc2)c2cccc(Cl)c21
REMARK SMILES IDX 12 1 11 2 10 3 9 4 7 5 8 6 6 7 1 8 2 9 3 10 81 11 4 12 5 13
REMARK SMILES IDX 75 14 79 15 76 16 78 17 80 18 77 19 13 20 14 21 15 22 16 23
REMARK SMILES IDX 74 24 17 25 73 26 18 27 19 28 20 29 67 30 21 31 72 32 66 33
REMARK SMILES IDX 68 34 22 35 71 36 65 37 64 38 23 40 53 41 34 42 52 43 35 44
REMARK SMILES IDX 38 45 51 46 69 47 36 48 37 49 50 51 70 52 39 53 24 54 25 55
REMARK SMILES IDX 33 56 26 57 32 58 27 59 28 60 29 61 30 62 31 63 54 64 55 65
REMARK SMILES IDX 63 66 56 67 62 68 57 69 58 70 59 71 60 72 61 73 40 74 41 75
REMARK SMILES IDX 49 76 42 77 48 78 43 79 44 80 45 81 46 82 47 83
REMARK H PARENT 68 39 38 50
REMARK Flexibility Score: inf
ROOT
ATOM      1  O   UNL A   1      35.563  31.022  29.098  1.00  0.00    -0.458 OA
ENDROOT
BRANCH   1   2
ATOM      2  C   UNL A   1      34.967  31.915  28.139  1.00  0.00     0.275 C 
BRANCH   2   3
ATOM      3  C   UNL A   1      34.061  32.956  28.805  1.00  0.00     0.274 C 
BRANCH   3   4
ATOM      4  O   UNL A   1      34.232  32.988  30.236  1.00  0.00    -0.462 OA
BRANCH   4   5
ATOM      5  C   UNL A   1      34.508  34.199  30.788  1.00  0.00     0.314 C 
ATOM      6  O   UNL A   1      33.941  35.239  30.463  1.00  0.00    -0.252 OA
BRANCH   5   7
ATOM      7  C   UNL A   1      35.629  34.157  31.835  1.00  0.00     0.140 C 
ATOM      8  C   UNL A   1      38.403  32.157  34.474  1.00  0.00     0.153 C 
ATOM      9  N   UNL A   1      37.456  32.691  33.509  1.00  0.00    -0.314 N 
ATOM     10  C   UNL A   1      36.264  33.174  34.046  1.00  0.00     0.227 C 
ATOM     11  C   UNL A   1      37.788  32.811  32.108  1.00  0.00     0.066 A 
ATOM     12  O   UNL A   1      36.046  33.266  35.255  1.00  0.00    -0.274 OA
ATOM     13  C   UNL A   1      35.158  33.437  33.079  1.00  0.00     0.120 C 
ATOM     14  C   UNL A   1      36.930  33.591  31.294  1.00  0.00    -0.008 A 
ATOM     15  C   UNL A   1      38.958  32.287  31.493  1.00  0.00     0.065 A 
ATOM     16  C   UNL A   1      37.328  33.953  29.987  1.00  0.00     0.007 A 
ATOM     17  C   UNL A   1      39.301  32.626  30.172  1.00  0.00     0.023 A 
ATOM     18  Cl  UNL A   1      40.063  31.156  32.207  1.00  0.00    -0.082 Cl
ATOM     19  C   UNL A   1      38.505  33.479  29.429  1.00  0.00     0.002 A 
ENDBRANCH   5   7
ENDBRANCH   4   5
ENDBRANCH   3   4
ENDBRANCH   2   3
ENDBRANCH   1   2
BRANCH   1  20
ATOM     20  C   UNL A   1      35.877  29.797  28.617  1.00  0.00     0.338 C 
ATOM     21  O   UNL A   1      35.108  28.964  28.173  1.00  0.00    -0.246 OA
BRANCH  20  22
ATOM     22  C   UNL A   1      37.336  29.627  28.585  1.00  0.00     0.060 A 
ATOM     23  C   UNL A   1      38.006  29.870  27.382  1.00  0.00     0.016 A 
ATOM     24  C   UNL A   1      38.016  29.112  29.688  1.00  0.00     0.016 A 
ATOM     25  C   UNL A   1      39.360  29.582  27.266  1.00  0.00     0.010 A 
ATOM     26  C   UNL A   1      39.379  28.824  29.572  1.00  0.00     0.010 A 
ATOM     27  C   UNL A   1      40.050  29.039  28.356  1.00  0.00    -0.014 A 
BRANCH  27  28
ATOM     28  C   UNL A   1      41.459  28.625  28.188  1.00  0.00     0.031 A 
ATOM     29  C   UNL A   1      42.552  29.638  28.360  1.00  0.00     0.074 A 
ATOM     30  C   UNL A   1      41.754  27.338  27.927  1.00  0.00     0.049 A 
ATOM     31  N   UNL A   1      43.837  29.502  28.165  1.00  0.00    -0.248 NA
ATOM     32  C   UNL A   1      42.147  30.977  28.821  1.00  0.00     0.031 C 
ATOM     33  C   UNL A   1      40.780  26.251  27.829  1.00  0.00     0.029 A 
ATOM     34  N   UNL A   1      42.962  26.731  27.706  1.00  0.00    -0.354 N 
ATOM     35  C   UNL A   1      44.395  30.738  28.465  1.00  0.00     0.074 A 
ATOM     36  C   UNL A   1      43.310  31.615  28.849  1.00  0.00     0.031 C 
ATOM     37  C   UNL A   1      41.432  25.105  27.571  1.00  0.00     0.029 A 
ATOM     38  C   UNL A   1      42.859  25.388  27.438  1.00  0.00     0.049 A 
ATOM     39  H   UNL A   1      43.821  27.210  27.736  1.00  0.00     0.167 HD
ATOM     40  C   UNL A   1      45.697  31.106  28.419  1.00  0.00     0.031 A 
ATOM     41  C   UNL A   1      43.805  24.492  27.095  1.00  0.00     0.031 A 
ATOM     42  C   UNL A   1      46.768  30.231  28.030  1.00  0.00     0.049 A 
ATOM     43  C   UNL A   1      45.229  24.947  26.955  1.00  0.00     0.074 A 
ATOM     44  C   UNL A   1      48.117  30.520  27.919  1.00  0.00     0.029 A 
ATOM     45  N   UNL A   1      46.614  28.895  27.694  1.00  0.00    -0.354 N 
ATOM     46  N   UNL A   1      45.735  26.138  27.173  1.00  0.00    -0.248 NA
ATOM     47  C   UNL A   1      46.207  23.944  26.511  1.00  0.00     0.031 C 
ATOM     48  C   UNL A   1      48.774  29.364  27.483  1.00  0.00     0.029 A 
ATOM     49  C   UNL A   1      47.840  28.347  27.361  1.00  0.00     0.049 A 
ATOM     50  H   UNL A   1      45.758  28.408  27.692  1.00  0.00     0.167 HD
ATOM     51  C   UNL A   1      47.093  26.026  26.899  1.00  0.00     0.074 A 
ATOM     52  C   UNL A   1      47.331  24.651  26.510  1.00  0.00     0.031 C 
ATOM     53  C   UNL A   1      48.054  26.979  26.965  1.00  0.00     0.031 A 
BRANCH  40  54
ATOM     54  C   UNL A   1      46.028  32.530  28.761  1.00  0.00    -0.014 A 
ATOM     55  C   UNL A   1      46.353  32.901  30.078  1.00  0.00     0.010 A 
ATOM     56  C   UNL A   1      46.065  33.499  27.743  1.00  0.00     0.010 A 
ATOM     57  C   UNL A   1      46.695  34.224  30.372  1.00  0.00     0.020 A 
ATOM     58  C   UNL A   1      46.421  34.819  28.031  1.00  0.00     0.020 A 
ATOM     59  C   UNL A   1      46.729  35.174  29.346  1.00  0.00     0.054 A 
BRANCH  59  60
ATOM     60  S   UNL A   1      47.200  36.877  29.757  1.00  0.00     0.124 S 
ATOM     61  O   UNL A   1      47.172  37.527  28.449  1.00  0.00    -0.237 OA
ATOM     62  O   UNL A   1      46.145  37.281  30.682  1.00  0.00    -0.237 OA
ATOM     63  O   UNL A   1      48.528  36.738  30.351  1.00  0.00    -0.744 OA
ENDBRANCH  59  60
ENDBRANCH  40  54
BRANCH  41  64
ATOM     64  C   UNL A   1      43.413  23.085  26.827  1.00  0.00    -0.014 A 
ATOM     65  C   UNL A   1      43.689  22.494  25.584  1.00  0.00     0.010 A 
ATOM     66  C   UNL A   1      42.811  22.313  27.838  1.00  0.00     0.010 A 
ATOM     67  C   UNL A   1      43.381  21.149  25.358  1.00  0.00     0.020 A 
ATOM     68  C   UNL A   1      42.516  20.964  27.623  1.00  0.00     0.020 A 
ATOM     69  C   UNL A   1      42.807  20.390  26.384  1.00  0.00     0.054 A 
BRANCH  69  70
ATOM     70  S   UNL A   1      42.489  18.628  26.087  1.00  0.00     0.124 S 
ATOM     71  O   UNL A   1      42.840  18.032  27.373  1.00  0.00    -0.237 OA
ATOM     72  O   UNL A   1      41.066  18.624  25.755  1.00  0.00    -0.237 OA
ATOM     73  O   UNL A   1      43.383  18.298  24.980  1.00  0.00    -0.744 OA
ENDBRANCH  69  70
ENDBRANCH  41  64
BRANCH  53  74
ATOM     74  C   UNL A   1      49.457  26.573  26.619  1.00  0.00    -0.014 A 
ATOM     75  C   UNL A   1      50.276  25.937  27.568  1.00  0.00     0.010 A 
ATOM     76  C   UNL A   1      49.929  26.750  25.307  1.00  0.00     0.010 A 
ATOM     77  C   UNL A   1      51.551  25.493  27.210  1.00  0.00     0.020 A 
ATOM     78  C   UNL A   1      51.197  26.293  24.941  1.00  0.00     0.020 A 
ATOM     79  C   UNL A   1      52.002  25.669  25.898  1.00  0.00     0.054 A 
BRANCH  79  80
ATOM     80  S   UNL A   1      53.642  25.036  25.454  1.00  0.00     0.124 S 
ATOM     81  O   UNL A   1      54.455  25.467  26.589  1.00  0.00    -0.237 OA
ATOM     82  O   UNL A   1      53.409  23.597  25.357  1.00  0.00    -0.237 OA
ATOM     83  O   UNL A   1      53.942  25.702  24.188  1.00  0.00    -0.744 OA
ENDBRANCH  79  80
ENDBRANCH  53  74
ENDBRANCH  27  28
ENDBRANCH  20  22
ENDBRANCH   1  20
TORSDOF 14
ENDMDL
