MODEL 1
REMARK VINA RESULT:     -10.0      0.000      0.000
REMARK SMILES CC(C)(C)OC(=O)N[C@H](c1ccccc1)[C@@H](O)CC(=O)OCCOC(=O)c1ccc(-c2c3nc(c(-c4ccc(S(=O)(=O)[O-])cc4)c4ccc([nH]4)c(-c4ccc(S(=O)(=O)[O-])cc4)c4nc(c(-c5ccc(S(=O)(=O)[O-])cc5)c5ccc2[nH]5)C=C4)C=C3)cc1
REMARK SMILES IDX 22 1 21 2 19 3 20 4 18 5 16 6 9 7 8 8 6 9 7 10 5 12 2 13
REMARK SMILES IDX 1 14 3 15 4 16 10 17 11 18 15 19 12 20 14 21 13 22 17 23
REMARK SMILES IDX 23 25 24 26 25 27 26 28 27 29 28 30 86 31 29 32 85 33 30 34
REMARK SMILES IDX 31 35 32 36 79 37 33 38 84 39 78 40 80 41 34 42 83 43 77 44
REMARK SMILES IDX 76 45 35 47 65 48 46 49 64 50 47 51 50 52 63 53 81 54 48 55
REMARK SMILES IDX 49 56 62 58 82 59 51 60 36 61 37 62 45 63 38 64 44 65 39 66
REMARK SMILES IDX 40 67 41 68 42 69 43 70 66 71 67 72 75 73 68 74 74 75 69 76
REMARK SMILES IDX 70 77 71 78 72 79 73 80 52 81 53 82 61 83 54 84 60 85 55 86
REMARK SMILES IDX 56 87 57 88 58 89 59 90
REMARK H PARENT 8 11 17 24 80 46 50 57
REMARK Flexibility Score: inf
ROOT
ATOM      1  C   UNL A   1      33.444  26.842  26.060  1.00  0.00     0.274 C 
ENDROOT
BRANCH   1   2
ATOM      2  O   UNL A   1      32.301  26.580  25.220  1.00  0.00    -0.462 OA
BRANCH   2   3
ATOM      3  C   UNL A   1      31.306  25.795  25.682  1.00  0.00     0.308 C 
ATOM      4  O   UNL A   1      30.967  25.735  26.857  1.00  0.00    -0.252 OA
BRANCH   3   5
ATOM      5  C   UNL A   1      30.702  24.932  24.595  1.00  0.00     0.157 C 
BRANCH   5   6
ATOM      6  C   UNL A   1      30.811  23.404  24.767  1.00  0.00     0.152 C 
BRANCH   6   7
ATOM      7  C   UNL A   1      32.281  22.851  24.672  1.00  0.00     0.145 C 
BRANCH   7   8
ATOM      8  N   UNL A   1      33.045  23.624  23.701  1.00  0.00    -0.312 N 
ATOM      9  C   UNL A   1      34.326  24.060  23.779  1.00  0.00     0.408 C 
ATOM     10  O   UNL A   1      34.829  24.693  22.857  1.00  0.00    -0.225 OA
ATOM     11  H   UNL A   1      32.564  23.861  22.875  1.00  0.00     0.167 HD
BRANCH   9  12
ATOM     12  O   UNL A   1      34.912  23.792  24.968  1.00  0.00    -0.444 OA
BRANCH  12  13
ATOM     13  C   UNL A   1      36.126  23.001  25.019  1.00  0.00     0.106 C 
ATOM     14  C   UNL A   1      35.761  21.776  25.867  1.00  0.00     0.056 C 
ATOM     15  C   UNL A   1      37.244  23.773  25.730  1.00  0.00     0.056 C 
ATOM     16  C   UNL A   1      36.564  22.524  23.628  1.00  0.00     0.056 C 
ENDBRANCH  12  13
ENDBRANCH   9  12
ENDBRANCH   7   8
BRANCH   7  17
ATOM     17  C   UNL A   1      32.379  21.356  24.313  1.00  0.00    -0.023 A 
ATOM     18  C   UNL A   1      32.534  20.353  25.292  1.00  0.00     0.006 A 
ATOM     19  C   UNL A   1      32.249  20.935  22.978  1.00  0.00     0.006 A 
ATOM     20  C   UNL A   1      32.586  18.999  24.951  1.00  0.00     0.000 A 
ATOM     21  C   UNL A   1      32.325  19.581  22.634  1.00  0.00     0.000 A 
ATOM     22  C   UNL A   1      32.493  18.613  23.620  1.00  0.00     0.000 A 
ENDBRANCH   7  17
ENDBRANCH   6   7
BRANCH   6  23
ATOM     23  O   UNL A   1      30.227  23.126  26.056  1.00  0.00    -0.390 OA
ATOM     24  H   UNL A   1      30.902  23.220  26.745  1.00  0.00     0.211 HD
ENDBRANCH   6  23
ENDBRANCH   5   6
ENDBRANCH   3   5
ENDBRANCH   2   3
ENDBRANCH   1   2
BRANCH   1  25
ATOM     25  C   UNL A   1      33.711  28.343  26.162  1.00  0.00     0.275 C 
BRANCH  25  26
ATOM     26  O   UNL A   1      33.937  28.709  27.533  1.00  0.00    -0.458 OA
BRANCH  26  27
ATOM     27  C   UNL A   1      34.487  29.931  27.715  1.00  0.00     0.338 C 
ATOM     28  O   UNL A   1      33.909  31.004  27.692  1.00  0.00    -0.246 OA
BRANCH  27  29
ATOM     29  C   UNL A   1      35.896  29.757  28.108  1.00  0.00     0.060 A 
ATOM     30  C   UNL A   1      36.896  29.970  27.153  1.00  0.00     0.016 A 
ATOM     31  C   UNL A   1      36.223  29.354  29.402  1.00  0.00     0.016 A 
ATOM     32  C   UNL A   1      38.231  29.753  27.483  1.00  0.00     0.010 A 
ATOM     33  C   UNL A   1      37.562  29.142  29.733  1.00  0.00     0.010 A 
ATOM     34  C   UNL A   1      38.570  29.313  28.768  1.00  0.00    -0.014 A 
BRANCH  34  35
ATOM     35  C   UNL A   1      39.963  28.907  29.068  1.00  0.00     0.031 A 
ATOM     36  C   UNL A   1      40.865  29.876  29.780  1.00  0.00     0.074 A 
ATOM     37  C   UNL A   1      40.408  27.684  28.728  1.00  0.00     0.049 A 
ATOM     38  N   UNL A   1      42.125  29.752  30.104  1.00  0.00    -0.248 NA
ATOM     39  C   UNL A   1      40.265  31.162  30.172  1.00  0.00     0.031 C 
ATOM     40  C   UNL A   1      39.608  26.640  28.086  1.00  0.00     0.029 A 
ATOM     41  N   UNL A   1      41.644  27.112  28.886  1.00  0.00    -0.354 N 
ATOM     42  C   UNL A   1      42.473  30.947  30.725  1.00  0.00     0.074 A 
ATOM     43  C   UNL A   1      41.303  31.798  30.691  1.00  0.00     0.031 C 
ATOM     44  C   UNL A   1      40.372  25.546  27.923  1.00  0.00     0.029 A 
ATOM     45  C   UNL A   1      41.722  25.827  28.403  1.00  0.00     0.049 A 
ATOM     46  H   UNL A   1      42.403  27.577  29.305  1.00  0.00     0.167 HD
ATOM     47  C   UNL A   1      43.656  31.300  31.285  1.00  0.00     0.031 A 
ATOM     48  C   UNL A   1      42.768  24.980  28.349  1.00  0.00     0.031 A 
ATOM     49  C   UNL A   1      44.820  30.454  31.294  1.00  0.00     0.049 A 
ATOM     50  C   UNL A   1      44.098  25.426  28.895  1.00  0.00     0.074 A 
ATOM     51  C   UNL A   1      46.072  30.714  31.823  1.00  0.00     0.029 A 
ATOM     52  N   UNL A   1      44.874  29.180  30.744  1.00  0.00    -0.354 N 
ATOM     53  N   UNL A   1      44.417  26.561  29.474  1.00  0.00    -0.248 NA
ATOM     54  C   UNL A   1      45.209  24.472  28.788  1.00  0.00     0.031 C 
ATOM     55  C   UNL A   1      46.899  29.621  31.541  1.00  0.00     0.029 A 
ATOM     56  C   UNL A   1      46.143  28.649  30.904  1.00  0.00     0.049 A 
ATOM     57  H   UNL A   1      44.122  28.722  30.306  1.00  0.00     0.167 HD
ATOM     58  C   UNL A   1      45.754  26.438  29.840  1.00  0.00     0.074 A 
ATOM     59  C   UNL A   1      46.180  25.119  29.419  1.00  0.00     0.031 C 
ATOM     60  C   UNL A   1      46.552  27.332  30.479  1.00  0.00     0.031 A 
BRANCH  47  61
ATOM     61  C   UNL A   1      43.745  32.681  31.885  1.00  0.00    -0.014 A 
ATOM     62  C   UNL A   1      43.431  32.914  33.236  1.00  0.00     0.010 A 
ATOM     63  C   UNL A   1      44.131  33.767  31.079  1.00  0.00     0.010 A 
ATOM     64  C   UNL A   1      43.429  34.214  33.752  1.00  0.00     0.020 A 
ATOM     65  C   UNL A   1      44.166  35.065  31.599  1.00  0.00     0.020 A 
ATOM     66  C   UNL A   1      43.788  35.282  32.925  1.00  0.00     0.054 A 
BRANCH  66  67
ATOM     67  S   UNL A   1      43.751  36.962  33.610  1.00  0.00     0.124 S 
ATOM     68  O   UNL A   1      43.738  37.779  32.399  1.00  0.00    -0.237 OA
ATOM     69  O   UNL A   1      42.512  36.966  34.384  1.00  0.00    -0.237 OA
ATOM     70  O   UNL A   1      44.977  37.041  34.401  1.00  0.00    -0.744 OA
ENDBRANCH  66  67
ENDBRANCH  47  61
BRANCH  48  71
ATOM     71  C   UNL A   1      42.591  23.617  27.776  1.00  0.00    -0.014 A 
ATOM     72  C   UNL A   1      42.922  23.363  26.433  1.00  0.00     0.010 A 
ATOM     73  C   UNL A   1      42.112  22.560  28.572  1.00  0.00     0.010 A 
ATOM     74  C   UNL A   1      42.766  22.084  25.893  1.00  0.00     0.020 A 
ATOM     75  C   UNL A   1      41.983  21.272  28.045  1.00  0.00     0.020 A 
ATOM     76  C   UNL A   1      42.304  21.044  26.705  1.00  0.00     0.054 A 
BRANCH  76  77
ATOM     77  S   UNL A   1      42.171  19.378  25.997  1.00  0.00     0.124 S 
ATOM     78  O   UNL A   1      40.734  19.254  25.778  1.00  0.00    -0.237 OA
ATOM     79  O   UNL A   1      42.989  19.484  24.791  1.00  0.00    -0.237 OA
ATOM     80  O   UNL A   1      42.721  18.516  27.041  1.00  0.00    -0.744 OA
ENDBRANCH  76  77
ENDBRANCH  48  71
BRANCH  60  81
ATOM     81  C   UNL A   1      47.952  26.889  30.818  1.00  0.00    -0.014 A 
ATOM     82  C   UNL A   1      49.052  27.217  30.004  1.00  0.00     0.010 A 
ATOM     83  C   UNL A   1      48.172  26.165  32.005  1.00  0.00     0.010 A 
ATOM     84  C   UNL A   1      50.338  26.792  30.350  1.00  0.00     0.020 A 
ATOM     85  C   UNL A   1      49.460  25.767  32.371  1.00  0.00     0.020 A 
ATOM     86  C   UNL A   1      50.533  26.069  31.532  1.00  0.00     0.054 A 
BRANCH  86  87
ATOM     87  S   UNL A   1      52.216  25.556  31.975  1.00  0.00     0.124 S 
ATOM     88  O   UNL A   1      52.027  24.146  32.306  1.00  0.00    -0.237 OA
ATOM     89  O   UNL A   1      52.964  25.818  30.747  1.00  0.00    -0.237 OA
ATOM     90  O   UNL A   1      52.557  26.420  33.102  1.00  0.00    -0.744 OA
ENDBRANCH  86  87
ENDBRANCH  60  81
ENDBRANCH  34  35
ENDBRANCH  27  29
ENDBRANCH  26  27
ENDBRANCH  25  26
ENDBRANCH   1  25
TORSDOF 21
ENDMDL
MODEL 2
REMARK VINA RESULT:      -9.7      4.795     10.347
REMARK SMILES CC(C)(C)OC(=O)N[C@H](c1ccccc1)[C@@H](O)CC(=O)OCCOC(=O)c1ccc(-c2c3nc(c(-c4ccc(S(=O)(=O)[O-])cc4)c4ccc([nH]4)c(-c4ccc(S(=O)(=O)[O-])cc4)c4nc(c(-c5ccc(S(=O)(=O)[O-])cc5)c5ccc2[nH]5)C=C4)C=C3)cc1
REMARK SMILES IDX 22 1 21 2 19 3 20 4 18 5 16 6 9 7 8 8 6 9 7 10 5 12 2 13
REMARK SMILES IDX 1 14 3 15 4 16 10 17 11 18 15 19 12 20 14 21 13 22 17 23
REMARK SMILES IDX 23 25 24 26 25 27 26 28 27 29 28 30 86 31 29 32 85 33 30 34
REMARK SMILES IDX 31 35 32 36 79 37 33 38 84 39 78 40 80 41 34 42 83 43 77 44
REMARK SMILES IDX 76 45 35 47 65 48 46 49 64 50 47 51 50 52 63 53 81 54 48 55
REMARK SMILES IDX 49 56 62 58 82 59 51 60 36 61 37 62 45 63 38 64 44 65 39 66
REMARK SMILES IDX 40 67 41 68 42 69 43 70 66 71 67 72 75 73 68 74 74 75 69 76
REMARK SMILES IDX 70 77 71 78 72 79 73 80 52 81 53 82 61 83 54 84 60 85 55 86
REMARK SMILES IDX 56 87 57 88 58 89 59 90
REMARK H PARENT 8 11 17 24 80 46 50 57
REMARK Flexibility Score: inf
ROOT
ATOM      1  C   UNL A   1      38.420  22.866  26.157  1.00  0.00     0.274 C 
ENDROOT
BRANCH   1   2
ATOM      2  O   UNL A   1      37.708  23.682  25.202  1.00  0.00    -0.462 OA
BRANCH   2   3
ATOM      3  C   UNL A   1      36.432  23.376  24.894  1.00  0.00     0.308 C 
ATOM      4  O   UNL A   1      35.962  23.441  23.765  1.00  0.00    -0.252 OA
BRANCH   3   5
ATOM      5  C   UNL A   1      35.615  23.016  26.116  1.00  0.00     0.157 C 
BRANCH   5   6
ATOM      6  C   UNL A   1      34.940  21.630  26.127  1.00  0.00     0.152 C 
BRANCH   6   7
ATOM      7  C   UNL A   1      33.502  21.611  25.488  1.00  0.00     0.145 C 
BRANCH   7   8
ATOM      8  N   UNL A   1      32.512  22.028  26.472  1.00  0.00    -0.312 N 
ATOM      9  C   UNL A   1      32.029  23.270  26.721  1.00  0.00     0.408 C 
ATOM     10  O   UNL A   1      31.177  23.450  27.584  1.00  0.00    -0.225 OA
ATOM     11  H   UNL A   1      32.142  21.307  27.033  1.00  0.00     0.167 HD
BRANCH   9  12
ATOM     12  O   UNL A   1      32.635  24.235  25.993  1.00  0.00    -0.444 OA
BRANCH  12  13
ATOM     13  C   UNL A   1      31.895  24.945  24.968  1.00  0.00     0.106 C 
ATOM     14  C   UNL A   1      32.963  25.440  23.984  1.00  0.00     0.056 C 
ATOM     15  C   UNL A   1      31.178  26.162  25.564  1.00  0.00     0.056 C 
ATOM     16  C   UNL A   1      30.921  24.027  24.217  1.00  0.00     0.056 C 
ENDBRANCH  12  13
ENDBRANCH   9  12
ENDBRANCH   7   8
BRANCH   7  17
ATOM     17  C   UNL A   1      33.082  20.251  24.899  1.00  0.00    -0.023 A 
ATOM     18  C   UNL A   1      33.019  19.077  25.679  1.00  0.00     0.006 A 
ATOM     19  C   UNL A   1      32.680  20.151  23.556  1.00  0.00     0.006 A 
ATOM     20  C   UNL A   1      32.602  17.860  25.136  1.00  0.00     0.000 A 
ATOM     21  C   UNL A   1      32.285  18.926  23.005  1.00  0.00     0.000 A 
ATOM     22  C   UNL A   1      32.246  17.781  23.795  1.00  0.00     0.000 A 
ENDBRANCH   7  17
ENDBRANCH   6   7
BRANCH   6  23
ATOM     23  O   UNL A   1      35.844  20.762  25.412  1.00  0.00    -0.390 OA
ATOM     24  H   UNL A   1      36.570  21.287  25.041  1.00  0.00     0.211 HD
ENDBRANCH   6  23
ENDBRANCH   5   6
ENDBRANCH   3   5
ENDBRANCH   2   3
ENDBRANCH   1   2
BRANCH   1  25
ATOM     25  C   UNL A   1      39.566  23.651  26.795  1.00  0.00     0.275 C 
BRANCH  25  26
ATOM     26  O   UNL A   1      39.151  25.004  27.049  1.00  0.00    -0.458 OA
BRANCH  26  27
ATOM     27  C   UNL A   1      40.137  25.926  26.977  1.00  0.00     0.338 C 
ATOM     28  O   UNL A   1      40.937  26.073  26.067  1.00  0.00    -0.246 OA
BRANCH  27  29
ATOM     29  C   UNL A   1      40.000  26.849  28.116  1.00  0.00     0.060 A 
ATOM     30  C   UNL A   1      40.700  28.060  28.093  1.00  0.00     0.016 A 
ATOM     31  C   UNL A   1      39.212  26.504  29.213  1.00  0.00     0.016 A 
ATOM     32  C   UNL A   1      40.635  28.923  29.184  1.00  0.00     0.010 A 
ATOM     33  C   UNL A   1      39.143  27.372  30.304  1.00  0.00     0.010 A 
ATOM     34  C   UNL A   1      39.877  28.571  30.307  1.00  0.00    -0.014 A 
BRANCH  34  35
ATOM     35  C   UNL A   1      39.951  29.394  31.538  1.00  0.00     0.031 A 
ATOM     36  C   UNL A   1      41.103  29.188  32.480  1.00  0.00     0.074 A 
ATOM     37  C   UNL A   1      39.014  30.324  31.797  1.00  0.00     0.049 A 
ATOM     38  N   UNL A   1      41.348  29.761  33.630  1.00  0.00    -0.248 NA
ATOM     39  C   UNL A   1      42.113  28.197  32.074  1.00  0.00     0.031 C 
ATOM     40  C   UNL A   1      37.883  30.651  30.928  1.00  0.00     0.029 A 
ATOM     41  N   UNL A   1      38.874  31.170  32.866  1.00  0.00    -0.354 N 
ATOM     42  C   UNL A   1      42.529  29.191  34.091  1.00  0.00     0.074 A 
ATOM     43  C   UNL A   1      42.927  28.197  33.118  1.00  0.00     0.031 C 
ATOM     44  C   UNL A   1      37.174  31.643  31.493  1.00  0.00     0.029 A 
ATOM     45  C   UNL A   1      37.773  31.988  32.781  1.00  0.00     0.049 A 
ATOM     46  H   UNL A   1      39.503  31.190  33.624  1.00  0.00     0.167 HD
ATOM     47  C   UNL A   1      43.228  29.478  35.216  1.00  0.00     0.031 A 
ATOM     48  C   UNL A   1      37.299  32.904  33.647  1.00  0.00     0.031 A 
ATOM     49  C   UNL A   1      42.812  30.454  36.189  1.00  0.00     0.049 A 
ATOM     50  C   UNL A   1      38.041  33.142  34.936  1.00  0.00     0.074 A 
ATOM     51  C   UNL A   1      43.436  30.817  37.369  1.00  0.00     0.029 A 
ATOM     52  N   UNL A   1      41.659  31.222  36.092  1.00  0.00    -0.354 N 
ATOM     53  N   UNL A   1      39.154  32.593  35.364  1.00  0.00    -0.248 NA
ATOM     54  C   UNL A   1      37.466  34.134  35.855  1.00  0.00     0.031 C 
ATOM     55  C   UNL A   1      42.630  31.763  38.014  1.00  0.00     0.029 A 
ATOM     56  C   UNL A   1      41.543  32.044  37.201  1.00  0.00     0.049 A 
ATOM     57  H   UNL A   1      41.018  31.188  35.346  1.00  0.00     0.167 HD
ATOM     58  C   UNL A   1      39.436  33.204  36.581  1.00  0.00     0.074 A 
ATOM     59  C   UNL A   1      38.379  34.166  36.817  1.00  0.00     0.031 C 
ATOM     60  C   UNL A   1      40.483  32.998  37.420  1.00  0.00     0.031 A 
BRANCH  47  61
ATOM     61  C   UNL A   1      44.485  28.682  35.464  1.00  0.00    -0.014 A 
ATOM     62  C   UNL A   1      44.456  27.470  36.178  1.00  0.00     0.010 A 
ATOM     63  C   UNL A   1      45.719  29.164  34.991  1.00  0.00     0.010 A 
ATOM     64  C   UNL A   1      45.643  26.794  36.478  1.00  0.00     0.020 A 
ATOM     65  C   UNL A   1      46.905  28.472  35.257  1.00  0.00     0.020 A 
ATOM     66  C   UNL A   1      46.861  27.306  36.023  1.00  0.00     0.054 A 
BRANCH  66  67
ATOM     67  S   UNL A   1      48.388  26.424  36.448  1.00  0.00     0.124 S 
ATOM     68  O   UNL A   1      49.367  27.089  35.591  1.00  0.00    -0.237 OA
ATOM     69  O   UNL A   1      48.524  26.689  37.878  1.00  0.00    -0.237 OA
ATOM     70  O   UNL A   1      48.097  25.036  36.099  1.00  0.00    -0.744 OA
ENDBRANCH  66  67
ENDBRANCH  47  61
BRANCH  48  71
ATOM     71  C   UNL A   1      36.071  33.677  33.314  1.00  0.00    -0.014 A 
ATOM     72  C   UNL A   1      36.171  34.998  32.839  1.00  0.00     0.010 A 
ATOM     73  C   UNL A   1      34.797  33.096  33.450  1.00  0.00     0.010 A 
ATOM     74  C   UNL A   1      35.022  35.725  32.518  1.00  0.00     0.020 A 
ATOM     75  C   UNL A   1      33.647  33.810  33.100  1.00  0.00     0.020 A 
ATOM     76  C   UNL A   1      33.766  35.124  32.643  1.00  0.00     0.054 A 
BRANCH  76  77
ATOM     77  S   UNL A   1      32.295  36.068  32.158  1.00  0.00     0.124 S 
ATOM     78  O   UNL A   1      31.213  35.187  32.587  1.00  0.00    -0.237 OA
ATOM     79  O   UNL A   1      32.447  37.303  32.925  1.00  0.00    -0.237 OA
ATOM     80  O   UNL A   1      32.444  36.218  30.713  1.00  0.00    -0.744 OA
ENDBRANCH  76  77
ENDBRANCH  48  71
BRANCH  60  81
ATOM     81  C   UNL A   1      40.571  33.873  38.645  1.00  0.00    -0.014 A 
ATOM     82  C   UNL A   1      40.039  33.471  39.883  1.00  0.00     0.010 A 
ATOM     83  C   UNL A   1      41.241  35.107  38.558  1.00  0.00     0.010 A 
ATOM     84  C   UNL A   1      40.139  34.307  41.000  1.00  0.00     0.020 A 
ATOM     85  C   UNL A   1      41.374  35.930  39.678  1.00  0.00     0.020 A 
ATOM     86  C   UNL A   1      40.806  35.532  40.889  1.00  0.00     0.054 A 
BRANCH  86  87
ATOM     87  S   UNL A   1      40.951  36.584  42.360  1.00  0.00     0.124 S 
ATOM     88  O   UNL A   1      41.278  35.612  43.399  1.00  0.00    -0.237 OA
ATOM     89  O   UNL A   1      42.029  37.499  41.994  1.00  0.00    -0.237 OA
ATOM     90  O   UNL A   1      39.632  37.200  42.477  1.00  0.00    -0.744 OA
ENDBRANCH  86  87
ENDBRANCH  60  81
ENDBRANCH  34  35
ENDBRANCH  27  29
ENDBRANCH  26  27
ENDBRANCH  25  26
ENDBRANCH   1  25
TORSDOF 21
ENDMDL
MODEL 3
REMARK VINA RESULT:      -9.5      3.518      5.199
REMARK SMILES CC(C)(C)OC(=O)N[C@H](c1ccccc1)[C@@H](O)CC(=O)OCCOC(=O)c1ccc(-c2c3nc(c(-c4ccc(S(=O)(=O)[O-])cc4)c4ccc([nH]4)c(-c4ccc(S(=O)(=O)[O-])cc4)c4nc(c(-c5ccc(S(=O)(=O)[O-])cc5)c5ccc2[nH]5)C=C4)C=C3)cc1
REMARK SMILES IDX 22 1 21 2 19 3 20 4 18 5 16 6 9 7 8 8 6 9 7 10 5 12 2 13
REMARK SMILES IDX 1 14 3 15 4 16 10 17 11 18 15 19 12 20 14 21 13 22 17 23
REMARK SMILES IDX 23 25 24 26 25 27 26 28 27 29 28 30 86 31 29 32 85 33 30 34
REMARK SMILES IDX 31 35 32 36 79 37 33 38 84 39 78 40 80 41 34 42 83 43 77 44
REMARK SMILES IDX 76 45 35 47 65 48 46 49 64 50 47 51 50 52 63 53 81 54 48 55
REMARK SMILES IDX 49 56 62 58 82 59 51 60 36 61 37 62 45 63 38 64 44 65 39 66
REMARK SMILES IDX 40 67 41 68 42 69 43 70 66 71 67 72 75 73 68 74 74 75 69 76
REMARK SMILES IDX 70 77 71 78 72 79 73 80 52 81 53 82 61 83 54 84 60 85 55 86
REMARK SMILES IDX 56 87 57 88 58 89 59 90
REMARK H PARENT 8 11 17 24 80 46 50 57
REMARK Flexibility Score: inf
ROOT
ATOM      1  C   UNL A   1      34.213  31.570  27.992  1.00  0.00     0.274 C 
ENDROOT
BRANCH   1   2
ATOM      2  O   UNL A   1      34.785  30.447  27.287  1.00  0.00    -0.462 OA
BRANCH   2   3
ATOM      3  C   UNL A   1      33.974  29.610  26.608  1.00  0.00     0.308 C 
ATOM      4  O   UNL A   1      34.110  28.394  26.579  1.00  0.00    -0.252 OA
BRANCH   3   5
ATOM      5  C   UNL A   1      32.915  30.349  25.819  1.00  0.00     0.157 C 
BRANCH   5   6
ATOM      6  C   UNL A   1      31.520  29.699  25.734  1.00  0.00     0.152 C 
BRANCH   6   7
ATOM      7  C   UNL A   1      31.167  29.118  24.315  1.00  0.00     0.145 C 
BRANCH   7   8
ATOM      8  N   UNL A   1      32.334  29.179  23.445  1.00  0.00    -0.312 N 
ATOM      9  C   UNL A   1      33.189  28.185  23.098  1.00  0.00     0.408 C 
ATOM     10  O   UNL A   1      34.123  28.402  22.334  1.00  0.00    -0.225 OA
ATOM     11  H   UNL A   1      32.528  30.063  23.055  1.00  0.00     0.167 HD
BRANCH   9  12
ATOM     12  O   UNL A   1      32.937  27.018  23.730  1.00  0.00    -0.444 OA
BRANCH  12  13
ATOM     13  C   UNL A   1      32.370  25.902  22.999  1.00  0.00     0.106 C 
ATOM     14  C   UNL A   1      33.539  24.929  22.797  1.00  0.00     0.056 C 
ATOM     15  C   UNL A   1      31.871  26.356  21.621  1.00  0.00     0.056 C 
ATOM     16  C   UNL A   1      31.268  25.190  23.793  1.00  0.00     0.056 C 
ENDBRANCH  12  13
ENDBRANCH   9  12
ENDBRANCH   7   8
BRANCH   7  17
ATOM     17  C   UNL A   1      29.983  29.814  23.616  1.00  0.00    -0.023 A 
ATOM     18  C   UNL A   1      29.394  30.992  24.122  1.00  0.00     0.006 A 
ATOM     19  C   UNL A   1      29.489  29.324  22.395  1.00  0.00     0.006 A 
ATOM     20  C   UNL A   1      28.345  31.630  23.456  1.00  0.00     0.000 A 
ATOM     21  C   UNL A   1      28.421  29.948  21.741  1.00  0.00     0.000 A 
ATOM     22  C   UNL A   1      27.850  31.101  22.271  1.00  0.00     0.000 A 
ENDBRANCH   7  17
ENDBRANCH   6   7
BRANCH   6  23
ATOM     23  O   UNL A   1      31.522  28.666  26.740  1.00  0.00    -0.390 OA
ATOM     24  H   UNL A   1      30.884  28.890  27.436  1.00  0.00     0.211 HD
ENDBRANCH   6  23
ENDBRANCH   5   6
ENDBRANCH   3   5
ENDBRANCH   2   3
ENDBRANCH   1   2
BRANCH   1  25
ATOM     25  C   UNL A   1      34.923  31.790  29.328  1.00  0.00     0.275 C 
BRANCH  25  26
ATOM     26  O   UNL A   1      35.746  30.654  29.639  1.00  0.00    -0.458 OA
BRANCH  26  27
ATOM     27  C   UNL A   1      36.575  30.822  30.694  1.00  0.00     0.338 C 
ATOM     28  O   UNL A   1      36.253  31.027  31.852  1.00  0.00    -0.246 OA
BRANCH  27  29
ATOM     29  C   UNL A   1      37.955  30.558  30.252  1.00  0.00     0.060 A 
ATOM     30  C   UNL A   1      38.222  30.468  28.882  1.00  0.00     0.016 A 
ATOM     31  C   UNL A   1      38.971  30.369  31.189  1.00  0.00     0.016 A 
ATOM     32  C   UNL A   1      39.506  30.160  28.442  1.00  0.00     0.010 A 
ATOM     33  C   UNL A   1      40.259  30.065  30.746  1.00  0.00     0.010 A 
ATOM     34  C   UNL A   1      40.527  29.931  29.372  1.00  0.00    -0.014 A 
BRANCH  34  35
ATOM     35  C   UNL A   1      41.844  29.426  28.917  1.00  0.00     0.031 A 
ATOM     36  C   UNL A   1      43.016  30.366  28.902  1.00  0.00     0.074 A 
ATOM     37  C   UNL A   1      41.993  28.142  28.544  1.00  0.00     0.049 A 
ATOM     38  N   UNL A   1      44.244  30.154  28.505  1.00  0.00    -0.248 NA
ATOM     39  C   UNL A   1      42.769  31.730  29.395  1.00  0.00     0.031 C 
ATOM     40  C   UNL A   1      40.941  27.125  28.571  1.00  0.00     0.029 A 
ATOM     41  N   UNL A   1      43.095  27.474  28.076  1.00  0.00    -0.354 N 
ATOM     42  C   UNL A   1      44.911  31.361  28.686  1.00  0.00     0.074 A 
ATOM     43  C   UNL A   1      43.940  32.310  29.186  1.00  0.00     0.031 C 
ATOM     44  C   UNL A   1      41.456  25.956  28.155  1.00  0.00     0.029 A 
ATOM     45  C   UNL A   1      42.857  26.151  27.789  1.00  0.00     0.049 A 
ATOM     46  H   UNL A   1      43.973  27.902  27.956  1.00  0.00     0.167 HD
ATOM     47  C   UNL A   1      46.217  31.651  28.467  1.00  0.00     0.031 A 
ATOM     48  C   UNL A   1      43.675  25.209  27.282  1.00  0.00     0.031 A 
ATOM     49  C   UNL A   1      47.170  30.705  27.949  1.00  0.00     0.049 A 
ATOM     50  C   UNL A   1      45.100  25.577  26.961  1.00  0.00     0.074 A 
ATOM     51  C   UNL A   1      48.514  30.893  27.679  1.00  0.00     0.029 A 
ATOM     52  N   UNL A   1      46.875  29.389  27.618  1.00  0.00    -0.354 N 
ATOM     53  N   UNL A   1      45.718  26.723  27.130  1.00  0.00    -0.248 NA
ATOM     54  C   UNL A   1      45.941  24.518  26.387  1.00  0.00     0.031 C 
ATOM     55  C   UNL A   1      49.018  29.707  27.130  1.00  0.00     0.029 A 
ATOM     56  C   UNL A   1      48.007  28.758  27.129  1.00  0.00     0.049 A 
ATOM     57  H   UNL A   1      45.992  28.965  27.717  1.00  0.00     0.167 HD
ATOM     58  C   UNL A   1      47.032  26.509  26.726  1.00  0.00     0.074 A 
ATOM     59  C   UNL A   1      47.118  25.125  26.307  1.00  0.00     0.031 C 
ATOM     60  C   UNL A   1      48.076  27.377  26.716  1.00  0.00     0.031 A 
BRANCH  47  61
ATOM     61  C   UNL A   1      46.662  33.064  28.749  1.00  0.00    -0.014 A 
ATOM     62  C   UNL A   1      46.536  34.078  27.781  1.00  0.00     0.010 A 
ATOM     63  C   UNL A   1      47.233  33.380  29.994  1.00  0.00     0.010 A 
ATOM     64  C   UNL A   1      47.038  35.359  28.025  1.00  0.00     0.020 A 
ATOM     65  C   UNL A   1      47.704  34.670  30.258  1.00  0.00     0.020 A 
ATOM     66  C   UNL A   1      47.628  35.644  29.260  1.00  0.00     0.054 A 
BRANCH  66  67
ATOM     67  S   UNL A   1      48.296  37.307  29.542  1.00  0.00     0.124 S 
ATOM     68  O   UNL A   1      48.320  37.376  31.001  1.00  0.00    -0.237 OA
ATOM     69  O   UNL A   1      49.604  37.241  28.895  1.00  0.00    -0.237 OA
ATOM     70  O   UNL A   1      47.326  38.186  28.893  1.00  0.00    -0.744 OA
ENDBRANCH  66  67
ENDBRANCH  47  61
BRANCH  48  71
ATOM     71  C   UNL A   1      43.173  23.825  27.068  1.00  0.00    -0.014 A 
ATOM     72  C   UNL A   1      42.822  23.387  25.778  1.00  0.00     0.010 A 
ATOM     73  C   UNL A   1      43.060  22.927  28.146  1.00  0.00     0.010 A 
ATOM     74  C   UNL A   1      42.358  22.085  25.571  1.00  0.00     0.020 A 
ATOM     75  C   UNL A   1      42.625  21.615  27.939  1.00  0.00     0.020 A 
ATOM     76  C   UNL A   1      42.269  21.204  26.653  1.00  0.00     0.054 A 
BRANCH  76  77
ATOM     77  S   UNL A   1      41.725  19.501  26.347  1.00  0.00     0.124 S 
ATOM     78  O   UNL A   1      42.447  19.165  25.124  1.00  0.00    -0.237 OA
ATOM     79  O   UNL A   1      42.168  18.808  27.555  1.00  0.00    -0.237 OA
ATOM     80  O   UNL A   1      40.276  19.623  26.204  1.00  0.00    -0.744 OA
ENDBRANCH  76  77
ENDBRANCH  48  71
BRANCH  60  81
ATOM     81  C   UNL A   1      49.419  26.838  26.294  1.00  0.00    -0.014 A 
ATOM     82  C   UNL A   1      49.959  27.103  25.022  1.00  0.00     0.010 A 
ATOM     83  C   UNL A   1      50.174  26.085  27.213  1.00  0.00     0.010 A 
ATOM     84  C   UNL A   1      51.209  26.589  24.665  1.00  0.00     0.020 A 
ATOM     85  C   UNL A   1      51.437  25.599  26.872  1.00  0.00     0.020 A 
ATOM     86  C   UNL A   1      51.939  25.839  25.592  1.00  0.00     0.054 A 
BRANCH  86  87
ATOM     87  S   UNL A   1      53.573  25.210  25.115  1.00  0.00     0.124 S 
ATOM     88  O   UNL A   1      54.452  25.909  26.048  1.00  0.00    -0.237 OA
ATOM     89  O   UNL A   1      53.439  23.772  25.335  1.00  0.00    -0.237 OA
ATOM     90  O   UNL A   1      53.704  25.611  23.716  1.00  0.00    -0.744 OA
ENDBRANCH  86  87
ENDBRANCH  60  81
ENDBRANCH  34  35
ENDBRANCH  27  29
ENDBRANCH  26  27
ENDBRANCH  25  26
ENDBRANCH   1  25
TORSDOF 21
ENDMDL
