MODEL 1
REMARK VINA RESULT:      -8.9      0.000      0.000
REMARK SMILES O=C(OCCOC(=O)c1cc(/C=C/c2cc(O)cc(O)c2)ccc1O)c1ccc(-c2c3nc(c(-c4ccc(S(=O)(=O)[O-])cc4)c4ccc([nH]4)c(-c4ccc(S(=O)(=O)[O-])cc4)c4nc(c(-c5ccc(S(=O)(=O)[O-])cc5)c5ccc2[nH]5)C=C4)C=C3)cc1
REMARK SMILES IDX 4 1 3 2 2 3 1 4 26 5 27 6 85 7 28 8 84 9 29 10 30 11 31 12
REMARK SMILES IDX 78 13 32 14 83 15 77 16 79 17 33 18 82 19 76 20 75 21 34 23
REMARK SMILES IDX 64 24 45 25 63 26 46 27 49 28 62 29 80 30 47 31 48 32 61 34
REMARK SMILES IDX 81 35 50 36 35 37 36 38 44 39 37 40 43 41 38 42 39 43 40 44
REMARK SMILES IDX 41 45 42 46 65 47 66 48 74 49 67 50 73 51 68 52 69 53 70 54
REMARK SMILES IDX 71 55 72 56 51 57 52 58 60 59 53 60 59 61 54 62 55 63 56 64
REMARK SMILES IDX 57 65 58 66 5 67 6 68 7 69 8 70 9 71 10 72 24 73 11 74 23 75
REMARK SMILES IDX 22 76 25 77 12 79 13 80 14 81 15 82 21 83 16 84 19 85 18 86
REMARK SMILES IDX 17 87 20 89
REMARK H PARENT 79 22 49 33 25 78 17 88 20 90
REMARK Flexibility Score: inf
ROOT
ATOM      1  C   UNL A   1      34.397  32.895  28.346  1.00  0.00     0.275 C 
ENDROOT
BRANCH   1   2
ATOM      2  O   UNL A   1      33.815  31.611  28.052  1.00  0.00    -0.458 OA
BRANCH   2   3
ATOM      3  C   UNL A   1      34.383  30.391  27.909  1.00  0.00     0.338 C 
ATOM      4  O   UNL A   1      33.676  29.465  27.507  1.00  0.00    -0.246 OA
BRANCH   3   5
ATOM      5  C   UNL A   1      35.793  30.056  28.296  1.00  0.00     0.060 A 
ATOM      6  C   UNL A   1      36.224  29.647  29.558  1.00  0.00     0.016 A 
ATOM      7  C   UNL A   1      36.766  30.178  27.283  1.00  0.00     0.016 A 
ATOM      8  C   UNL A   1      37.556  29.296  29.786  1.00  0.00     0.010 A 
ATOM      9  C   UNL A   1      38.100  29.818  27.499  1.00  0.00     0.010 A 
ATOM     10  C   UNL A   1      38.499  29.370  28.760  1.00  0.00    -0.014 A 
BRANCH  10  11
ATOM     11  C   UNL A   1      39.909  29.052  29.068  1.00  0.00     0.031 A 
ATOM     12  C   UNL A   1      40.743  30.073  29.778  1.00  0.00     0.074 A 
ATOM     13  C   UNL A   1      40.391  27.821  28.813  1.00  0.00     0.049 A 
ATOM     14  N   UNL A   1      41.944  29.945  30.272  1.00  0.00    -0.248 NA
ATOM     15  C   UNL A   1      40.132  31.394  30.000  1.00  0.00     0.031 C 
ATOM     16  C   UNL A   1      39.625  26.732  28.207  1.00  0.00     0.029 A 
ATOM     17  N   UNL A   1      41.622  27.266  29.041  1.00  0.00    -0.354 N 
ATOM     18  C   UNL A   1      42.213  31.147  30.912  1.00  0.00     0.074 A 
ATOM     19  C   UNL A   1      41.079  32.017  30.685  1.00  0.00     0.031 C 
ATOM     20  C   UNL A   1      40.413  25.653  28.071  1.00  0.00     0.029 A 
ATOM     21  C   UNL A   1      41.735  25.968  28.599  1.00  0.00     0.049 A 
ATOM     22  H   UNL A   1      42.358  27.751  29.481  1.00  0.00     0.167 HD
ATOM     23  C   UNL A   1      43.294  31.481  31.651  1.00  0.00     0.031 A 
ATOM     24  C   UNL A   1      42.785  25.127  28.628  1.00  0.00     0.031 A 
ATOM     25  C   UNL A   1      44.436  30.626  31.822  1.00  0.00     0.049 A 
ATOM     26  C   UNL A   1      44.035  25.577  29.333  1.00  0.00     0.074 A 
ATOM     27  C   UNL A   1      45.611  30.880  32.506  1.00  0.00     0.029 A 
ATOM     28  N   UNL A   1      44.549  29.348  31.289  1.00  0.00    -0.354 N 
ATOM     29  N   UNL A   1      44.259  26.710  29.957  1.00  0.00    -0.248 NA
ATOM     30  C   UNL A   1      45.154  24.629  29.374  1.00  0.00     0.031 C 
ATOM     31  C   UNL A   1      46.455  29.776  32.342  1.00  0.00     0.029 A 
ATOM     32  C   UNL A   1      45.784  28.811  31.605  1.00  0.00     0.049 A 
ATOM     33  H   UNL A   1      43.852  28.893  30.763  1.00  0.00     0.167 HD
ATOM     34  C   UNL A   1      45.535  26.598  30.494  1.00  0.00     0.074 A 
ATOM     35  C   UNL A   1      46.022  25.280  30.135  1.00  0.00     0.031 C 
ATOM     36  C   UNL A   1      46.241  27.499  31.221  1.00  0.00     0.031 A 
BRANCH  23  37
ATOM     37  C   UNL A   1      43.281  32.832  32.308  1.00  0.00    -0.014 A 
ATOM     38  C   UNL A   1      42.760  32.995  33.605  1.00  0.00     0.010 A 
ATOM     39  C   UNL A   1      43.798  33.950  31.631  1.00  0.00     0.010 A 
ATOM     40  C   UNL A   1      42.726  34.257  34.201  1.00  0.00     0.020 A 
ATOM     41  C   UNL A   1      43.785  35.212  32.233  1.00  0.00     0.020 A 
ATOM     42  C   UNL A   1      43.236  35.359  33.509  1.00  0.00     0.054 A 
BRANCH  42  43
ATOM     43  S   UNL A   1      43.195  36.984  34.314  1.00  0.00     0.124 S 
ATOM     44  O   UNL A   1      44.327  36.894  35.233  1.00  0.00    -0.237 OA
ATOM     45  O   UNL A   1      43.371  37.900  33.191  1.00  0.00    -0.237 OA
ATOM     46  O   UNL A   1      41.880  37.024  34.948  1.00  0.00    -0.744 OA
ENDBRANCH  42  43
ENDBRANCH  23  37
BRANCH  24  47
ATOM     47  C   UNL A   1      42.706  23.793  27.967  1.00  0.00    -0.014 A 
ATOM     48  C   UNL A   1      42.842  23.653  26.575  1.00  0.00     0.010 A 
ATOM     49  C   UNL A   1      42.457  22.646  28.745  1.00  0.00     0.010 A 
ATOM     50  C   UNL A   1      42.690  22.400  25.971  1.00  0.00     0.020 A 
ATOM     51  C   UNL A   1      42.332  21.388  28.148  1.00  0.00     0.020 A 
ATOM     52  C   UNL A   1      42.430  21.277  26.761  1.00  0.00     0.054 A 
BRANCH  52  53
ATOM     53  S   UNL A   1      42.240  19.659  25.959  1.00  0.00     0.124 S 
ATOM     54  O   UNL A   1      40.858  19.712  25.494  1.00  0.00    -0.237 OA
ATOM     55  O   UNL A   1      43.263  19.704  24.918  1.00  0.00    -0.237 OA
ATOM     56  O   UNL A   1      42.503  18.712  27.040  1.00  0.00    -0.744 OA
ENDBRANCH  52  53
ENDBRANCH  24  47
BRANCH  36  57
ATOM     57  C   UNL A   1      47.605  27.072  31.687  1.00  0.00    -0.014 A 
ATOM     58  C   UNL A   1      47.776  26.398  32.909  1.00  0.00     0.010 A 
ATOM     59  C   UNL A   1      48.727  27.325  30.876  1.00  0.00     0.010 A 
ATOM     60  C   UNL A   1      49.052  26.025  33.334  1.00  0.00     0.020 A 
ATOM     61  C   UNL A   1      50.000  26.925  31.284  1.00  0.00     0.020 A 
ATOM     62  C   UNL A   1      50.156  26.294  32.519  1.00  0.00     0.054 A 
BRANCH  62  63
ATOM     63  S   UNL A   1      51.800  25.778  33.081  1.00  0.00     0.124 S 
ATOM     64  O   UNL A   1      52.544  27.033  33.031  1.00  0.00    -0.237 OA
ATOM     65  O   UNL A   1      51.533  25.258  34.421  1.00  0.00    -0.237 OA
ATOM     66  O   UNL A   1      52.201  24.774  32.098  1.00  0.00    -0.744 OA
ENDBRANCH  62  63
ENDBRANCH  36  57
ENDBRANCH  10  11
ENDBRANCH   3   5
ENDBRANCH   2   3
ENDBRANCH   1   2
BRANCH   1  67
ATOM     67  C   UNL A   1      34.187  33.388  29.779  1.00  0.00     0.275 C 
BRANCH  67  68
ATOM     68  O   UNL A   1      34.746  32.514  30.765  1.00  0.00    -0.458 OA
BRANCH  68  69
ATOM     69  C   UNL A   1      34.641  32.942  32.049  1.00  0.00     0.342 C 
ATOM     70  O   UNL A   1      33.618  33.011  32.713  1.00  0.00    -0.246 OA
BRANCH  69  71
ATOM     71  C   UNL A   1      35.986  33.144  32.616  1.00  0.00     0.102 A 
ATOM     72  C   UNL A   1      36.796  32.008  32.776  1.00  0.00     0.027 A 
ATOM     73  C   UNL A   1      36.461  34.401  32.990  1.00  0.00     0.130 A 
ATOM     74  C   UNL A   1      38.114  32.131  33.237  1.00  0.00    -0.025 A 
ATOM     75  C   UNL A   1      37.756  34.531  33.485  1.00  0.00     0.048 A 
ATOM     76  C   UNL A   1      38.580  33.405  33.590  1.00  0.00     0.012 A 
BRANCH  73  77
ATOM     77  O   UNL A   1      35.662  35.504  32.882  1.00  0.00    -0.507 OA
ATOM     78  H   UNL A   1      35.692  36.170  33.541  1.00  0.00     0.293 HD
ENDBRANCH  73  77
BRANCH  74  79
ATOM     79  C   UNL A   1      39.015  30.981  33.422  1.00  0.00     0.009 C 
ATOM     80  C   UNL A   1      39.914  30.831  34.411  1.00  0.00     0.009 C 
BRANCH  80  81
ATOM     81  C   UNL A   1      40.837  29.686  34.491  1.00  0.00    -0.018 A 
ATOM     82  C   UNL A   1      41.226  29.147  35.727  1.00  0.00     0.054 A 
ATOM     83  C   UNL A   1      41.270  29.064  33.310  1.00  0.00     0.054 A 
ATOM     84  C   UNL A   1      42.045  28.021  35.772  1.00  0.00     0.119 A 
ATOM     85  C   UNL A   1      42.090  27.937  33.379  1.00  0.00     0.119 A 
ATOM     86  C   UNL A   1      42.480  27.410  34.605  1.00  0.00     0.092 A 
BRANCH  84  87
ATOM     87  O   UNL A   1      42.432  27.477  36.963  1.00  0.00    -0.508 OA
ATOM     88  H   UNL A   1      43.268  27.693  37.327  1.00  0.00     0.293 HD
ENDBRANCH  84  87
BRANCH  85  89
ATOM     89  O   UNL A   1      42.529  27.309  32.250  1.00  0.00    -0.508 OA
ATOM     90  H   UNL A   1      43.367  27.524  31.890  1.00  0.00     0.293 HD
ENDBRANCH  85  89
ENDBRANCH  80  81
ENDBRANCH  74  79
ENDBRANCH  69  71
ENDBRANCH  68  69
ENDBRANCH  67  68
ENDBRANCH   1  67
TORSDOF 19
ENDMDL
MODEL 2
REMARK VINA RESULT:      -8.9      1.329      2.349
REMARK SMILES O=C(OCCOC(=O)c1cc(/C=C/c2cc(O)cc(O)c2)ccc1O)c1ccc(-c2c3nc(c(-c4ccc(S(=O)(=O)[O-])cc4)c4ccc([nH]4)c(-c4ccc(S(=O)(=O)[O-])cc4)c4nc(c(-c5ccc(S(=O)(=O)[O-])cc5)c5ccc2[nH]5)C=C4)C=C3)cc1
REMARK SMILES IDX 4 1 3 2 2 3 1 4 26 5 27 6 85 7 28 8 84 9 29 10 30 11 31 12
REMARK SMILES IDX 78 13 32 14 83 15 77 16 79 17 33 18 82 19 76 20 75 21 34 23
REMARK SMILES IDX 64 24 45 25 63 26 46 27 49 28 62 29 80 30 47 31 48 32 61 34
REMARK SMILES IDX 81 35 50 36 35 37 36 38 44 39 37 40 43 41 38 42 39 43 40 44
REMARK SMILES IDX 41 45 42 46 65 47 66 48 74 49 67 50 73 51 68 52 69 53 70 54
REMARK SMILES IDX 71 55 72 56 51 57 52 58 60 59 53 60 59 61 54 62 55 63 56 64
REMARK SMILES IDX 57 65 58 66 5 67 6 68 7 69 8 70 9 71 10 72 24 73 11 74 23 75
REMARK SMILES IDX 22 76 25 77 12 79 13 80 14 81 15 82 21 83 16 84 19 85 18 86
REMARK SMILES IDX 17 87 20 89
REMARK H PARENT 79 22 49 33 25 78 17 88 20 90
REMARK Flexibility Score: inf
ROOT
ATOM      1  C   UNL A   1      32.984  32.638  27.485  1.00  0.00     0.275 C 
ENDROOT
BRANCH   1   2
ATOM      2  O   UNL A   1      33.641  31.586  28.218  1.00  0.00    -0.458 OA
BRANCH   2   3
ATOM      3  C   UNL A   1      34.282  30.473  27.792  1.00  0.00     0.338 C 
ATOM      4  O   UNL A   1      33.665  29.686  27.074  1.00  0.00    -0.246 OA
BRANCH   3   5
ATOM      5  C   UNL A   1      35.667  30.076  28.211  1.00  0.00     0.060 A 
ATOM      6  C   UNL A   1      36.058  29.677  29.489  1.00  0.00     0.016 A 
ATOM      7  C   UNL A   1      36.660  30.123  27.210  1.00  0.00     0.016 A 
ATOM      8  C   UNL A   1      37.367  29.264  29.746  1.00  0.00     0.010 A 
ATOM      9  C   UNL A   1      37.971  29.700  27.457  1.00  0.00     0.010 A 
ATOM     10  C   UNL A   1      38.327  29.263  28.734  1.00  0.00    -0.014 A 
BRANCH  10  11
ATOM     11  C   UNL A   1      39.714  28.881  29.072  1.00  0.00     0.031 A 
ATOM     12  C   UNL A   1      40.575  29.857  29.812  1.00  0.00     0.074 A 
ATOM     13  C   UNL A   1      40.148  27.633  28.816  1.00  0.00     0.049 A 
ATOM     14  N   UNL A   1      41.757  29.673  30.334  1.00  0.00    -0.248 NA
ATOM     15  C   UNL A   1      40.016  31.202  30.033  1.00  0.00     0.031 C 
ATOM     16  C   UNL A   1      39.350  26.584  28.180  1.00  0.00     0.029 A 
ATOM     17  N   UNL A   1      41.348  27.022  29.067  1.00  0.00    -0.354 N 
ATOM     18  C   UNL A   1      42.062  30.856  30.992  1.00  0.00     0.074 A 
ATOM     19  C   UNL A   1      40.973  31.776  30.747  1.00  0.00     0.031 C 
ATOM     20  C   UNL A   1      40.093  25.472  28.053  1.00  0.00     0.029 A 
ATOM     21  C   UNL A   1      41.415  25.725  28.615  1.00  0.00     0.049 A 
ATOM     22  H   UNL A   1      42.094  27.470  29.530  1.00  0.00     0.167 HD
ATOM     23  C   UNL A   1      43.138  31.135  31.760  1.00  0.00     0.031 A 
ATOM     24  C   UNL A   1      42.426  24.838  28.660  1.00  0.00     0.031 A 
ATOM     25  C   UNL A   1      44.237  30.229  31.949  1.00  0.00     0.049 A 
ATOM     26  C   UNL A   1      43.677  25.226  29.400  1.00  0.00     0.074 A 
ATOM     27  C   UNL A   1      45.405  30.425  32.663  1.00  0.00     0.029 A 
ATOM     28  N   UNL A   1      44.307  28.953  31.406  1.00  0.00    -0.354 N 
ATOM     29  N   UNL A   1      43.935  26.342  30.041  1.00  0.00    -0.248 NA
ATOM     30  C   UNL A   1      44.752  24.229  29.457  1.00  0.00     0.031 C 
ATOM     31  C   UNL A   1      46.204  29.286  32.508  1.00  0.00     0.029 A 
ATOM     32  C   UNL A   1      45.510  28.359  31.745  1.00  0.00     0.049 A 
ATOM     33  H   UNL A   1      43.604  28.534  30.859  1.00  0.00     0.167 HD
ATOM     34  C   UNL A   1      45.191  26.169  30.606  1.00  0.00     0.074 A 
ATOM     35  C   UNL A   1      45.629  24.835  30.246  1.00  0.00     0.031 C 
ATOM     36  C   UNL A   1      45.918  27.032  31.359  1.00  0.00     0.031 A 
BRANCH  23  37
ATOM     37  C   UNL A   1      43.169  32.479  32.431  1.00  0.00    -0.014 A 
ATOM     38  C   UNL A   1      43.801  33.575  31.812  1.00  0.00     0.010 A 
ATOM     39  C   UNL A   1      42.560  32.656  33.684  1.00  0.00     0.010 A 
ATOM     40  C   UNL A   1      43.850  34.815  32.450  1.00  0.00     0.020 A 
ATOM     41  C   UNL A   1      42.589  33.903  34.317  1.00  0.00     0.020 A 
ATOM     42  C   UNL A   1      43.246  34.971  33.701  1.00  0.00     0.054 A 
BRANCH  42  43
ATOM     43  S   UNL A   1      43.310  36.598  34.500  1.00  0.00     0.124 S 
ATOM     44  O   UNL A   1      42.054  36.618  35.246  1.00  0.00    -0.237 OA
ATOM     45  O   UNL A   1      44.521  36.508  35.311  1.00  0.00    -0.237 OA
ATOM     46  O   UNL A   1      43.383  37.532  33.379  1.00  0.00    -0.744 OA
ENDBRANCH  42  43
ENDBRANCH  23  37
BRANCH  24  47
ATOM     47  C   UNL A   1      42.304  23.515  27.984  1.00  0.00    -0.014 A 
ATOM     48  C   UNL A   1      41.699  22.417  28.620  1.00  0.00     0.010 A 
ATOM     49  C   UNL A   1      42.833  23.345  26.690  1.00  0.00     0.010 A 
ATOM     50  C   UNL A   1      41.662  21.166  27.992  1.00  0.00     0.020 A 
ATOM     51  C   UNL A   1      42.774  22.104  26.049  1.00  0.00     0.020 A 
ATOM     52  C   UNL A   1      42.206  21.017  26.714  1.00  0.00     0.054 A 
BRANCH  52  53
ATOM     53  S   UNL A   1      42.145  19.388  25.914  1.00  0.00     0.124 S 
ATOM     54  O   UNL A   1      42.681  18.519  26.957  1.00  0.00    -0.237 OA
ATOM     55  O   UNL A   1      40.722  19.233  25.626  1.00  0.00    -0.237 OA
ATOM     56  O   UNL A   1      42.997  19.556  24.739  1.00  0.00    -0.744 OA
ENDBRANCH  52  53
ENDBRANCH  24  47
BRANCH  36  57
ATOM     57  C   UNL A   1      47.250  26.541  31.853  1.00  0.00    -0.014 A 
ATOM     58  C   UNL A   1      48.425  26.762  31.112  1.00  0.00     0.010 A 
ATOM     59  C   UNL A   1      47.330  25.873  33.089  1.00  0.00     0.010 A 
ATOM     60  C   UNL A   1      49.650  26.283  31.577  1.00  0.00     0.020 A 
ATOM     61  C   UNL A   1      48.559  25.421  33.571  1.00  0.00     0.020 A 
ATOM     62  C   UNL A   1      49.708  25.612  32.803  1.00  0.00     0.054 A 
BRANCH  62  63
ATOM     63  S   UNL A   1      51.315  25.021  33.398  1.00  0.00     0.124 S 
ATOM     64  O   UNL A   1      52.243  25.870  32.656  1.00  0.00    -0.237 OA
ATOM     65  O   UNL A   1      51.240  25.279  34.835  1.00  0.00    -0.237 OA
ATOM     66  O   UNL A   1      51.324  23.609  33.023  1.00  0.00    -0.744 OA
ENDBRANCH  62  63
ENDBRANCH  36  57
ENDBRANCH  10  11
ENDBRANCH   3   5
ENDBRANCH   2   3
ENDBRANCH   1   2
BRANCH   1  67
ATOM     67  C   UNL A   1      33.213  34.048  28.031  1.00  0.00     0.275 C 
BRANCH  67  68
ATOM     68  O   UNL A   1      32.890  34.176  29.420  1.00  0.00    -0.458 OA
BRANCH  68  69
ATOM     69  C   UNL A   1      32.988  35.432  29.926  1.00  0.00     0.342 C 
ATOM     70  O   UNL A   1      32.465  36.441  29.480  1.00  0.00    -0.246 OA
BRANCH  69  71
ATOM     71  C   UNL A   1      33.675  35.389  31.229  1.00  0.00     0.102 A 
ATOM     72  C   UNL A   1      34.653  34.397  31.411  1.00  0.00     0.027 A 
ATOM     73  C   UNL A   1      33.386  36.283  32.260  1.00  0.00     0.130 A 
ATOM     74  C   UNL A   1      35.402  34.340  32.593  1.00  0.00    -0.025 A 
ATOM     75  C   UNL A   1      34.098  36.213  33.454  1.00  0.00     0.048 A 
ATOM     76  C   UNL A   1      35.110  35.260  33.611  1.00  0.00     0.012 A 
BRANCH  73  77
ATOM     77  O   UNL A   1      32.404  37.220  32.108  1.00  0.00    -0.507 OA
ATOM     78  H   UNL A   1      32.098  37.703  32.852  1.00  0.00     0.293 HD
ENDBRANCH  73  77
BRANCH  74  79
ATOM     79  C   UNL A   1      36.442  33.328  32.843  1.00  0.00     0.009 C 
ATOM     80  C   UNL A   1      36.657  32.683  34.004  1.00  0.00     0.009 C 
BRANCH  80  81
ATOM     81  C   UNL A   1      37.767  31.737  34.204  1.00  0.00    -0.018 A 
ATOM     82  C   UNL A   1      38.026  30.711  33.281  1.00  0.00     0.054 A 
ATOM     83  C   UNL A   1      38.639  31.914  35.288  1.00  0.00     0.054 A 
ATOM     84  C   UNL A   1      39.126  29.873  33.458  1.00  0.00     0.119 A 
ATOM     85  C   UNL A   1      39.734  31.062  35.445  1.00  0.00     0.119 A 
ATOM     86  C   UNL A   1      39.983  30.043  34.535  1.00  0.00     0.092 A 
BRANCH  84  87
ATOM     87  O   UNL A   1      39.398  28.872  32.572  1.00  0.00    -0.508 OA
ATOM     88  H   UNL A   1      40.266  28.523  32.510  1.00  0.00     0.293 HD
ENDBRANCH  84  87
BRANCH  85  89
ATOM     89  O   UNL A   1      40.601  31.207  36.489  1.00  0.00    -0.508 OA
ATOM     90  H   UNL A   1      41.521  31.102  36.351  1.00  0.00     0.293 HD
ENDBRANCH  85  89
ENDBRANCH  80  81
ENDBRANCH  74  79
ENDBRANCH  69  71
ENDBRANCH  68  69
ENDBRANCH  67  68
ENDBRANCH   1  67
TORSDOF 19
ENDMDL
MODEL 3
REMARK VINA RESULT:      -8.8      2.911     11.337
REMARK SMILES O=C(OCCOC(=O)c1cc(/C=C/c2cc(O)cc(O)c2)ccc1O)c1ccc(-c2c3nc(c(-c4ccc(S(=O)(=O)[O-])cc4)c4ccc([nH]4)c(-c4ccc(S(=O)(=O)[O-])cc4)c4nc(c(-c5ccc(S(=O)(=O)[O-])cc5)c5ccc2[nH]5)C=C4)C=C3)cc1
REMARK SMILES IDX 4 1 3 2 2 3 1 4 26 5 27 6 85 7 28 8 84 9 29 10 30 11 31 12
REMARK SMILES IDX 78 13 32 14 83 15 77 16 79 17 33 18 82 19 76 20 75 21 34 23
REMARK SMILES IDX 64 24 45 25 63 26 46 27 49 28 62 29 80 30 47 31 48 32 61 34
REMARK SMILES IDX 81 35 50 36 35 37 36 38 44 39 37 40 43 41 38 42 39 43 40 44
REMARK SMILES IDX 41 45 42 46 65 47 66 48 74 49 67 50 73 51 68 52 69 53 70 54
REMARK SMILES IDX 71 55 72 56 51 57 52 58 60 59 53 60 59 61 54 62 55 63 56 64
REMARK SMILES IDX 57 65 58 66 5 67 6 68 7 69 8 70 9 71 10 72 24 73 11 74 23 75
REMARK SMILES IDX 22 76 25 77 12 79 13 80 14 81 15 82 21 83 16 84 19 85 18 86
REMARK SMILES IDX 17 87 20 89
REMARK H PARENT 79 22 49 33 25 78 17 88 20 90
REMARK Flexibility Score: inf
ROOT
ATOM      1  C   UNL A   1      39.610  20.430  26.138  1.00  0.00     0.275 C 
ENDROOT
BRANCH   1   2
ATOM      2  O   UNL A   1      39.830  21.827  25.865  1.00  0.00    -0.458 OA
BRANCH   2   3
ATOM      3  C   UNL A   1      39.044  22.908  26.076  1.00  0.00     0.338 C 
ATOM      4  O   UNL A   1      37.912  22.906  25.590  1.00  0.00    -0.246 OA
BRANCH   3   5
ATOM      5  C   UNL A   1      39.485  24.157  26.779  1.00  0.00     0.060 A 
ATOM      6  C   UNL A   1      40.305  25.154  26.250  1.00  0.00     0.016 A 
ATOM      7  C   UNL A   1      39.026  24.325  28.102  1.00  0.00     0.016 A 
ATOM      8  C   UNL A   1      40.595  26.310  26.977  1.00  0.00     0.010 A 
ATOM      9  C   UNL A   1      39.303  25.486  28.833  1.00  0.00     0.010 A 
ATOM     10  C   UNL A   1      40.090  26.489  28.265  1.00  0.00    -0.014 A 
BRANCH  10  11
ATOM     11  C   UNL A   1      40.480  27.699  29.019  1.00  0.00     0.031 A 
ATOM     12  C   UNL A   1      41.835  27.751  29.655  1.00  0.00     0.074 A 
ATOM     13  C   UNL A   1      39.669  28.773  29.030  1.00  0.00     0.049 A 
ATOM     14  N   UNL A   1      42.430  28.761  30.227  1.00  0.00    -0.248 NA
ATOM     15  C   UNL A   1      42.643  26.521  29.601  1.00  0.00     0.031 C 
ATOM     16  C   UNL A   1      38.370  28.847  28.362  1.00  0.00     0.029 A 
ATOM     17  N   UNL A   1      39.813  30.010  29.601  1.00  0.00    -0.354 N 
ATOM     18  C   UNL A   1      43.701  28.309  30.552  1.00  0.00     0.074 A 
ATOM     19  C   UNL A   1      43.769  26.913  30.177  1.00  0.00     0.031 C 
ATOM     20  C   UNL A   1      37.815  30.048  28.595  1.00  0.00     0.029 A 
ATOM     21  C   UNL A   1      38.730  30.836  29.413  1.00  0.00     0.049 A 
ATOM     22  H   UNL A   1      40.618  30.282  30.100  1.00  0.00     0.167 HD
ATOM     23  C   UNL A   1      44.729  29.007  31.084  1.00  0.00     0.031 A 
ATOM     24  C   UNL A   1      38.506  32.091  29.845  1.00  0.00     0.031 A 
ATOM     25  C   UNL A   1      44.629  30.378  31.502  1.00  0.00     0.049 A 
ATOM     26  C   UNL A   1      39.619  32.801  30.567  1.00  0.00     0.074 A 
ATOM     27  C   UNL A   1      45.590  31.171  32.103  1.00  0.00     0.029 A 
ATOM     28  N   UNL A   1      43.487  31.158  31.372  1.00  0.00    -0.354 N 
ATOM     29  N   UNL A   1      40.826  32.364  30.840  1.00  0.00    -0.248 NA
ATOM     30  C   UNL A   1      39.358  34.177  31.001  1.00  0.00     0.031 C 
ATOM     31  C   UNL A   1      45.012  32.414  32.383  1.00  0.00     0.029 A 
ATOM     32  C   UNL A   1      43.710  32.415  31.905  1.00  0.00     0.049 A 
ATOM     33  H   UNL A   1      42.644  30.859  30.962  1.00  0.00     0.167 HD
ATOM     34  C   UNL A   1      41.481  33.424  31.452  1.00  0.00     0.074 A 
ATOM     35  C   UNL A   1      40.540  34.527  31.489  1.00  0.00     0.031 C 
ATOM     36  C   UNL A   1      42.746  33.486  31.936  1.00  0.00     0.031 A 
BRANCH  23  37
ATOM     37  C   UNL A   1      46.034  28.280  31.251  1.00  0.00    -0.014 A 
ATOM     38  C   UNL A   1      47.035  28.368  30.266  1.00  0.00     0.010 A 
ATOM     39  C   UNL A   1      46.269  27.507  32.400  1.00  0.00     0.010 A 
ATOM     40  C   UNL A   1      48.235  27.670  30.412  1.00  0.00     0.020 A 
ATOM     41  C   UNL A   1      47.478  26.822  32.560  1.00  0.00     0.020 A 
ATOM     42  C   UNL A   1      48.448  26.899  31.558  1.00  0.00     0.054 A 
BRANCH  42  43
ATOM     43  S   UNL A   1      50.023  26.016  31.730  1.00  0.00     0.124 S 
ATOM     44  O   UNL A   1      49.966  25.077  30.612  1.00  0.00    -0.237 OA
ATOM     45  O   UNL A   1      51.005  27.088  31.601  1.00  0.00    -0.237 OA
ATOM     46  O   UNL A   1      49.938  25.409  33.056  1.00  0.00    -0.744 OA
ENDBRANCH  42  43
ENDBRANCH  23  37
BRANCH  24  47
ATOM     47  C   UNL A   1      37.187  32.746  29.620  1.00  0.00    -0.014 A 
ATOM     48  C   UNL A   1      36.876  33.374  28.401  1.00  0.00     0.010 A 
ATOM     49  C   UNL A   1      36.236  32.767  30.657  1.00  0.00     0.010 A 
ATOM     50  C   UNL A   1      35.659  34.046  28.240  1.00  0.00     0.020 A 
ATOM     51  C   UNL A   1      35.007  33.414  30.490  1.00  0.00     0.020 A 
ATOM     52  C   UNL A   1      34.735  34.066  29.288  1.00  0.00     0.054 A 
BRANCH  52  53
ATOM     53  S   UNL A   1      33.160  34.939  29.058  1.00  0.00     0.124 S 
ATOM     54  O   UNL A   1      33.605  36.249  28.595  1.00  0.00    -0.237 OA
ATOM     55  O   UNL A   1      32.484  34.109  28.065  1.00  0.00    -0.237 OA
ATOM     56  O   UNL A   1      32.561  34.914  30.391  1.00  0.00    -0.744 OA
ENDBRANCH  52  53
ENDBRANCH  24  47
BRANCH  36  57
ATOM     57  C   UNL A   1      43.181  34.798  32.526  1.00  0.00    -0.014 A 
ATOM     58  C   UNL A   1      42.948  35.097  33.881  1.00  0.00     0.010 A 
ATOM     59  C   UNL A   1      43.855  35.734  31.720  1.00  0.00     0.010 A 
ATOM     60  C   UNL A   1      43.342  36.327  34.407  1.00  0.00     0.020 A 
ATOM     61  C   UNL A   1      44.279  36.952  32.253  1.00  0.00     0.020 A 
ATOM     62  C   UNL A   1      44.002  37.249  33.588  1.00  0.00     0.054 A 
BRANCH  62  63
ATOM     63  S   UNL A   1      44.526  38.830  34.301  1.00  0.00     0.124 S 
ATOM     64  O   UNL A   1      43.327  39.648  34.137  1.00  0.00    -0.237 OA
ATOM     65  O   UNL A   1      44.856  38.469  35.678  1.00  0.00    -0.237 OA
ATOM     66  O   UNL A   1      45.666  39.221  33.476  1.00  0.00    -0.744 OA
ENDBRANCH  62  63
ENDBRANCH  36  57
ENDBRANCH  10  11
ENDBRANCH   3   5
ENDBRANCH   2   3
ENDBRANCH   1   2
BRANCH   1  67
ATOM     67  C   UNL A   1      40.869  19.629  26.474  1.00  0.00     0.275 C 
BRANCH  67  68
ATOM     68  O   UNL A   1      41.750  19.467  25.357  1.00  0.00    -0.458 OA
BRANCH  68  69
ATOM     69  C   UNL A   1      42.958  18.916  25.644  1.00  0.00     0.342 C 
ATOM     70  O   UNL A   1      43.174  17.756  25.957  1.00  0.00    -0.246 OA
BRANCH  69  71
ATOM     71  C   UNL A   1      44.028  19.883  25.339  1.00  0.00     0.102 A 
ATOM     72  C   UNL A   1      43.699  21.247  25.389  1.00  0.00     0.027 A 
ATOM     73  C   UNL A   1      45.323  19.487  25.009  1.00  0.00     0.130 A 
ATOM     74  C   UNL A   1      44.680  22.226  25.186  1.00  0.00    -0.025 A 
ATOM     75  C   UNL A   1      46.299  20.450  24.767  1.00  0.00     0.048 A 
ATOM     76  C   UNL A   1      45.982  21.809  24.874  1.00  0.00     0.012 A 
BRANCH  73  77
ATOM     77  O   UNL A   1      45.639  18.161  24.911  1.00  0.00    -0.507 OA
ATOM     78  H   UNL A   1      45.193  17.532  25.443  1.00  0.00     0.293 HD
ENDBRANCH  73  77
BRANCH  74  79
ATOM     79  C   UNL A   1      44.401  23.671  25.229  1.00  0.00     0.009 C 
ATOM     80  C   UNL A   1      45.130  24.600  25.874  1.00  0.00     0.009 C 
BRANCH  80  81
ATOM     81  C   UNL A   1      44.747  26.020  25.937  1.00  0.00    -0.018 A 
ATOM     82  C   UNL A   1      43.637  26.509  25.230  1.00  0.00     0.054 A 
ATOM     83  C   UNL A   1      45.448  26.888  26.787  1.00  0.00     0.054 A 
ATOM     84  C   UNL A   1      43.255  27.842  25.362  1.00  0.00     0.119 A 
ATOM     85  C   UNL A   1      45.048  28.220  26.904  1.00  0.00     0.119 A 
ATOM     86  C   UNL A   1      43.954  28.703  26.197  1.00  0.00     0.092 A 
BRANCH  84  87
ATOM     87  O   UNL A   1      42.177  28.337  24.688  1.00  0.00    -0.508 OA
ATOM     88  H   UNL A   1      41.936  29.237  24.785  1.00  0.00     0.293 HD
ENDBRANCH  84  87
BRANCH  85  89
ATOM     89  O   UNL A   1      45.709  29.090  27.721  1.00  0.00    -0.508 OA
ATOM     90  H   UNL A   1      45.725  30.004  27.517  1.00  0.00     0.293 HD
ENDBRANCH  85  89
ENDBRANCH  80  81
ENDBRANCH  74  79
ENDBRANCH  69  71
ENDBRANCH  68  69
ENDBRANCH  67  68
ENDBRANCH   1  67
TORSDOF 19
ENDMDL
