MODEL 1
REMARK VINA RESULT:     -13.3      0.000      0.000
REMARK SMILES Cc1ccc(S(=O)(=O)n2cc(C(=O)C(=O)NCC(=O)N[C@@H](Cc3c[nH]c4ccccc34)C(=O)OCCOC(=O)c3ccc(-c4c5nc(c(-c6ccc(S(=O)(=O)[O-])cc6)c6ccc([nH]6)c(-c6ccc(S(=O)(=O)[O-])cc6)c6nc(c(-c7ccc(S(=O)(=O)[O-])cc7)c7ccc4[nH]7)C=C6)C=C5)cc3)c3ccccc32)cc1
REMARK SMILES IDX 32 1 33 2 21 3 20 4 18 5 19 6 17 8 16 9 14 10 15 11 12 13
REMARK SMILES IDX 13 14 11 15 9 16 10 17 105 18 100 19 104 20 101 21 103 22
REMARK SMILES IDX 102 23 6 24 7 25 8 26 5 27 1 28 2 29 3 30 107 31 4 32 106 33
REMARK SMILES IDX 22 34 23 35 24 36 31 37 25 38 26 39 30 40 27 42 29 43 28 44
REMARK SMILES IDX 34 45 35 46 36 47 37 48 38 49 39 50 40 51 41 52 99 53 42 54
REMARK SMILES IDX 98 55 43 56 44 57 45 58 92 59 46 60 97 61 91 62 93 63 47 64
REMARK SMILES IDX 96 65 90 66 89 67 48 69 78 70 59 71 77 72 60 73 63 74 76 75
REMARK SMILES IDX 94 76 61 77 62 78 75 80 95 81 64 82 49 83 50 84 58 85 51 86
REMARK SMILES IDX 57 87 52 88 53 89 54 90 55 91 56 92 79 93 80 94 88 95 81 96
REMARK SMILES IDX 87 97 82 98 83 99 84 100 85 101 86 102 65 103 66 104 74 105
REMARK SMILES IDX 67 106 73 107 68 108 69 109 70 110 71 111 72 112
REMARK H PARENT 20 7 16 12 25 41 93 68 63 79
REMARK Flexibility Score: inf
ROOT
ATOM      1  C   UNL A   1      35.529  23.607  24.076  1.00  0.00     0.329 C 
ATOM      2  O   UNL A   1      35.673  23.144  22.951  1.00  0.00    -0.250 OA
ENDROOT
BRANCH   1   3
ATOM      3  C   UNL A   1      34.335  24.495  24.438  1.00  0.00     0.196 C 
BRANCH   3   4
ATOM      4  N   UNL A   1      33.656  25.136  23.311  1.00  0.00    -0.341 N 
ATOM      5  C   UNL A   1      33.299  26.442  23.121  1.00  0.00     0.240 C 
ATOM      6  O   UNL A   1      32.850  26.733  22.006  1.00  0.00    -0.273 OA
ATOM      7  H   UNL A   1      33.418  24.530  22.572  1.00  0.00     0.164 HD
BRANCH   5   8
ATOM      8  C   UNL A   1      33.489  27.537  24.202  1.00  0.00     0.216 C 
BRANCH   8   9
ATOM      9  N   UNL A   1      32.458  28.565  24.261  1.00  0.00    -0.340 N 
ATOM     10  C   UNL A   1      32.144  29.374  25.344  1.00  0.00     0.292 C 
ATOM     11  O   UNL A   1      31.294  30.250  25.202  1.00  0.00    -0.265 OA
ATOM     12  H   UNL A   1      31.924  28.700  23.444  1.00  0.00     0.164 HD
BRANCH  10  13
ATOM     13  C   UNL A   1      32.875  29.206  26.703  1.00  0.00     0.252 C 
ATOM     14  O   UNL A   1      32.788  28.106  27.247  1.00  0.00    -0.283 OA
BRANCH  13  15
ATOM     15  C   UNL A   1      33.698  30.297  27.264  1.00  0.00     0.054 A 
ATOM     16  N   UNL A   1      34.333  32.271  28.142  1.00  0.00    -0.240 N 
ATOM     17  C   UNL A   1      33.249  31.526  27.717  1.00  0.00     0.117 A 
ATOM     18  C   UNL A   1      35.487  31.516  28.097  1.00  0.00     0.065 A 
ATOM     19  C   UNL A   1      35.127  30.309  27.462  1.00  0.00     0.012 A 
ATOM     20  C   UNL A   1      36.790  31.720  28.575  1.00  0.00     0.028 A 
ATOM     21  C   UNL A   1      36.138  29.351  27.223  1.00  0.00     0.011 A 
ATOM     22  C   UNL A   1      37.750  30.725  28.383  1.00  0.00     0.002 A 
ATOM     23  C   UNL A   1      37.438  29.567  27.688  1.00  0.00     0.001 A 
BRANCH  16  24
ATOM     24  S   UNL A   1      34.098  33.959  28.486  1.00  0.00     0.268 S 
ATOM     25  O   UNL A   1      35.499  33.946  28.916  1.00  0.00    -0.201 OA
ATOM     26  O   UNL A   1      32.728  33.602  28.767  1.00  0.00    -0.201 OA
BRANCH  24  27
ATOM     27  C   UNL A   1      33.897  35.055  29.934  1.00  0.00     0.088 A 
ATOM     28  C   UNL A   1      33.594  37.392  33.546  1.00  0.00     0.044 C 
ATOM     29  C   UNL A   1      33.717  36.578  32.292  1.00  0.00    -0.051 A 
ATOM     30  C   UNL A   1      33.181  37.057  31.089  1.00  0.00     0.005 A 
ATOM     31  C   UNL A   1      34.372  35.341  32.299  1.00  0.00     0.005 A 
ATOM     32  C   UNL A   1      33.278  36.306  29.912  1.00  0.00     0.022 A 
ATOM     33  C   UNL A   1      34.464  34.583  31.130  1.00  0.00     0.022 A 
ENDBRANCH  24  27
ENDBRANCH  16  24
ENDBRANCH  13  15
ENDBRANCH  10  13
ENDBRANCH   8   9
ENDBRANCH   5   8
ENDBRANCH   3   4
BRANCH   3  34
ATOM     34  C   UNL A   1      33.349  23.779  25.388  1.00  0.00     0.074 C 
BRANCH  34  35
ATOM     35  C   UNL A   1      33.397  22.276  25.597  1.00  0.00    -0.020 A 
ATOM     36  C   UNL A   1      33.710  21.531  26.720  1.00  0.00     0.087 A 
ATOM     37  C   UNL A   1      32.979  21.315  24.604  1.00  0.00     0.003 A 
ATOM     38  N   UNL A   1      33.334  20.228  26.509  1.00  0.00    -0.361 N 
ATOM     39  C   UNL A   1      32.934  20.060  25.211  1.00  0.00     0.046 A 
ATOM     40  C   UNL A   1      32.589  21.410  23.252  1.00  0.00     0.010 A 
ATOM     41  H   UNL A   1      33.351  19.519  27.191  1.00  0.00     0.166 HD
ATOM     42  C   UNL A   1      32.510  18.902  24.552  1.00  0.00     0.026 A 
ATOM     43  C   UNL A   1      32.198  20.253  22.563  1.00  0.00     0.001 A 
ATOM     44  C   UNL A   1      32.154  19.020  23.207  1.00  0.00     0.002 A 
ENDBRANCH  34  35
ENDBRANCH   3  34
ENDBRANCH   1   3
BRANCH   1  45
ATOM     45  O   UNL A   1      36.397  23.351  25.091  1.00  0.00    -0.461 OA
BRANCH  45  46
ATOM     46  C   UNL A   1      36.853  21.985  25.135  1.00  0.00     0.274 C 
BRANCH  46  47
ATOM     47  C   UNL A   1      38.348  21.858  25.458  1.00  0.00     0.275 C 
BRANCH  47  48
ATOM     48  O   UNL A   1      38.996  22.826  26.318  1.00  0.00    -0.458 OA
BRANCH  48  49
ATOM     49  C   UNL A   1      40.301  22.676  26.654  1.00  0.00     0.338 C 
ATOM     50  O   UNL A   1      40.938  21.661  26.419  1.00  0.00    -0.246 OA
BRANCH  49  51
ATOM     51  C   UNL A   1      40.915  23.973  27.053  1.00  0.00     0.060 A 
ATOM     52  C   UNL A   1      40.293  25.183  26.695  1.00  0.00     0.016 A 
ATOM     53  C   UNL A   1      41.931  23.967  28.001  1.00  0.00     0.016 A 
ATOM     54  C   UNL A   1      40.562  26.351  27.418  1.00  0.00     0.010 A 
ATOM     55  C   UNL A   1      42.139  25.091  28.766  1.00  0.00     0.010 A 
ATOM     56  C   UNL A   1      41.443  26.283  28.501  1.00  0.00    -0.014 A 
BRANCH  56  57
ATOM     57  C   UNL A   1      41.812  27.424  29.341  1.00  0.00     0.031 A 
ATOM     58  C   UNL A   1      40.828  28.336  29.975  1.00  0.00     0.074 A 
ATOM     59  C   UNL A   1      43.142  27.605  29.506  1.00  0.00     0.049 A 
ATOM     60  N   UNL A   1      41.055  29.581  30.237  1.00  0.00    -0.248 NA
ATOM     61  C   UNL A   1      39.483  27.933  30.370  1.00  0.00     0.031 C 
ATOM     62  C   UNL A   1      43.851  28.573  30.322  1.00  0.00     0.029 A 
ATOM     63  N   UNL A   1      44.151  27.045  28.713  1.00  0.00    -0.354 N 
ATOM     64  C   UNL A   1      40.067  30.014  31.103  1.00  0.00     0.074 A 
ATOM     65  C   UNL A   1      39.048  29.000  31.048  1.00  0.00     0.031 C 
ATOM     66  C   UNL A   1      45.043  28.809  29.738  1.00  0.00     0.029 A 
ATOM     67  C   UNL A   1      45.064  28.068  28.481  1.00  0.00     0.049 A 
ATOM     68  H   UNL A   1      44.203  26.116  28.388  1.00  0.00     0.167 HD
ATOM     69  C   UNL A   1      40.303  31.086  31.915  1.00  0.00     0.031 A 
ATOM     70  C   UNL A   1      45.237  28.583  27.226  1.00  0.00     0.031 A 
ATOM     71  C   UNL A   1      41.595  31.688  31.599  1.00  0.00     0.049 A 
ATOM     72  C   UNL A   1      44.894  30.057  27.204  1.00  0.00     0.074 A 
ATOM     73  C   UNL A   1      42.846  31.566  32.180  1.00  0.00     0.029 A 
ATOM     74  N   UNL A   1      41.788  32.250  30.345  1.00  0.00    -0.354 N 
ATOM     75  N   UNL A   1      44.086  30.633  28.057  1.00  0.00    -0.248 NA
ATOM     76  C   UNL A   1      45.488  31.010  26.273  1.00  0.00     0.031 C 
ATOM     77  C   UNL A   1      43.809  31.935  31.205  1.00  0.00     0.029 A 
ATOM     78  C   UNL A   1      43.137  32.317  30.056  1.00  0.00     0.049 A 
ATOM     79  H   UNL A   1      41.069  32.558  29.747  1.00  0.00     0.167 HD
ATOM     80  C   UNL A   1      44.164  31.994  27.909  1.00  0.00     0.074 A 
ATOM     81  C   UNL A   1      45.016  32.178  26.746  1.00  0.00     0.031 C 
ATOM     82  C   UNL A   1      43.589  32.870  28.789  1.00  0.00     0.031 A 
BRANCH  69  83
ATOM     83  C   UNL A   1      39.540  31.375  33.194  1.00  0.00    -0.014 A 
ATOM     84  C   UNL A   1      39.282  32.720  33.548  1.00  0.00     0.010 A 
ATOM     85  C   UNL A   1      39.107  30.402  34.116  1.00  0.00     0.010 A 
ATOM     86  C   UNL A   1      38.721  33.082  34.782  1.00  0.00     0.020 A 
ATOM     87  C   UNL A   1      38.559  30.752  35.367  1.00  0.00     0.020 A 
ATOM     88  C   UNL A   1      38.387  32.093  35.699  1.00  0.00     0.054 A 
BRANCH  88  89
ATOM     89  S   UNL A   1      37.731  32.587  37.316  1.00  0.00     0.124 S 
ATOM     90  O   UNL A   1      37.524  31.300  37.979  1.00  0.00    -0.237 OA
ATOM     91  O   UNL A   1      38.810  33.407  37.859  1.00  0.00    -0.237 OA
ATOM     92  O   UNL A   1      36.504  33.312  36.987  1.00  0.00    -0.744 OA
ENDBRANCH  88  89
ENDBRANCH  69  83
BRANCH  70  93
ATOM     93  C   UNL A   1      45.015  27.586  26.125  1.00  0.00    -0.014 A 
ATOM     94  C   UNL A   1      46.111  26.774  25.749  1.00  0.00     0.010 A 
ATOM     95  C   UNL A   1      43.725  27.116  25.828  1.00  0.00     0.010 A 
ATOM     96  C   UNL A   1      45.921  25.479  25.243  1.00  0.00     0.020 A 
ATOM     97  C   UNL A   1      43.535  25.821  25.308  1.00  0.00     0.020 A 
ATOM     98  C   UNL A   1      44.629  24.987  25.082  1.00  0.00     0.054 A 
BRANCH  98  99
ATOM     99  S   UNL A   1      44.419  23.201  24.776  1.00  0.00     0.124 S 
ATOM    100  O   UNL A   1      43.020  23.100  24.367  1.00  0.00    -0.237 OA
ATOM    101  O   UNL A   1      45.390  22.961  23.711  1.00  0.00    -0.237 OA
ATOM    102  O   UNL A   1      44.760  22.582  26.052  1.00  0.00    -0.744 OA
ENDBRANCH  98  99
ENDBRANCH  70  93
BRANCH  82 103
ATOM    103  C   UNL A   1      43.500  34.369  28.639  1.00  0.00    -0.014 A 
ATOM    104  C   UNL A   1      42.905  35.018  27.550  1.00  0.00     0.010 A 
ATOM    105  C   UNL A   1      43.922  35.184  29.721  1.00  0.00     0.010 A 
ATOM    106  C   UNL A   1      42.798  36.417  27.515  1.00  0.00     0.020 A 
ATOM    107  C   UNL A   1      43.776  36.570  29.719  1.00  0.00     0.020 A 
ATOM    108  C   UNL A   1      43.238  37.182  28.597  1.00  0.00     0.054 A 
BRANCH 108 109
ATOM    109  S   UNL A   1      43.044  38.980  28.568  1.00  0.00     0.124 S 
ATOM    110  O   UNL A   1      41.592  39.123  28.525  1.00  0.00    -0.237 OA
ATOM    111  O   UNL A   1      43.678  39.397  29.818  1.00  0.00    -0.237 OA
ATOM    112  O   UNL A   1      43.753  39.382  27.355  1.00  0.00    -0.744 OA
ENDBRANCH 108 109
ENDBRANCH  82 103
ENDBRANCH  56  57
ENDBRANCH  49  51
ENDBRANCH  48  49
ENDBRANCH  47  48
ENDBRANCH  46  47
ENDBRANCH  45  46
ENDBRANCH   1  45
TORSDOF 23
ENDMDL
MODEL 2
REMARK VINA RESULT:     -13.1      2.375      3.995
REMARK SMILES Cc1ccc(S(=O)(=O)n2cc(C(=O)C(=O)NCC(=O)N[C@@H](Cc3c[nH]c4ccccc34)C(=O)OCCOC(=O)c3ccc(-c4c5nc(c(-c6ccc(S(=O)(=O)[O-])cc6)c6ccc([nH]6)c(-c6ccc(S(=O)(=O)[O-])cc6)c6nc(c(-c7ccc(S(=O)(=O)[O-])cc7)c7ccc4[nH]7)C=C6)C=C5)cc3)c3ccccc32)cc1
REMARK SMILES IDX 32 1 33 2 21 3 20 4 18 5 19 6 17 8 16 9 14 10 15 11 12 13
REMARK SMILES IDX 13 14 11 15 9 16 10 17 105 18 100 19 104 20 101 21 103 22
REMARK SMILES IDX 102 23 6 24 7 25 8 26 5 27 1 28 2 29 3 30 107 31 4 32 106 33
REMARK SMILES IDX 22 34 23 35 24 36 31 37 25 38 26 39 30 40 27 42 29 43 28 44
REMARK SMILES IDX 34 45 35 46 36 47 37 48 38 49 39 50 40 51 41 52 99 53 42 54
REMARK SMILES IDX 98 55 43 56 44 57 45 58 92 59 46 60 97 61 91 62 93 63 47 64
REMARK SMILES IDX 96 65 90 66 89 67 48 69 78 70 59 71 77 72 60 73 63 74 76 75
REMARK SMILES IDX 94 76 61 77 62 78 75 80 95 81 64 82 49 83 50 84 58 85 51 86
REMARK SMILES IDX 57 87 52 88 53 89 54 90 55 91 56 92 79 93 80 94 88 95 81 96
REMARK SMILES IDX 87 97 82 98 83 99 84 100 85 101 86 102 65 103 66 104 74 105
REMARK SMILES IDX 67 106 73 107 68 108 69 109 70 110 71 111 72 112
REMARK H PARENT 20 7 16 12 25 41 93 68 63 79
REMARK Flexibility Score: inf
ROOT
ATOM      1  C   UNL A   1      37.373  22.593  25.527  1.00  0.00     0.329 C 
ATOM      2  O   UNL A   1      37.868  23.710  25.429  1.00  0.00    -0.250 OA
ENDROOT
BRANCH   1   3
ATOM      3  C   UNL A   1      36.000  22.263  24.938  1.00  0.00     0.196 C 
BRANCH   3   4
ATOM      4  N   UNL A   1      35.592  23.071  23.787  1.00  0.00    -0.341 N 
ATOM      5  C   UNL A   1      34.345  23.411  23.343  1.00  0.00     0.240 C 
ATOM      6  O   UNL A   1      34.295  24.222  22.411  1.00  0.00    -0.273 OA
ATOM      7  H   UNL A   1      36.336  23.425  23.246  1.00  0.00     0.164 HD
BRANCH   5   8
ATOM      8  C   UNL A   1      33.042  22.875  23.989  1.00  0.00     0.216 C 
BRANCH   8   9
ATOM      9  N   UNL A   1      31.810  23.130  23.252  1.00  0.00    -0.340 N 
ATOM     10  C   UNL A   1      30.734  23.903  23.665  1.00  0.00     0.292 C 
ATOM     11  O   UNL A   1      29.800  24.082  22.887  1.00  0.00    -0.265 OA
ATOM     12  H   UNL A   1      31.732  22.709  22.366  1.00  0.00     0.164 HD
BRANCH  10  13
ATOM     13  C   UNL A   1      30.719  24.563  25.070  1.00  0.00     0.252 C 
ATOM     14  O   UNL A   1      30.336  23.863  26.006  1.00  0.00    -0.283 OA
BRANCH  13  15
ATOM     15  C   UNL A   1      31.218  25.939  25.269  1.00  0.00     0.054 A 
ATOM     16  N   UNL A   1      32.425  27.701  25.983  1.00  0.00    -0.240 N 
ATOM     17  C   UNL A   1      32.303  26.326  26.039  1.00  0.00     0.117 A 
ATOM     18  C   UNL A   1      31.517  28.232  25.091  1.00  0.00     0.065 A 
ATOM     19  C   UNL A   1      30.690  27.157  24.704  1.00  0.00     0.012 A 
ATOM     20  C   UNL A   1      31.346  29.510  24.537  1.00  0.00     0.028 A 
ATOM     21  C   UNL A   1      29.616  27.421  23.825  1.00  0.00     0.011 A 
ATOM     22  C   UNL A   1      30.317  29.723  23.620  1.00  0.00     0.002 A 
ATOM     23  C   UNL A   1      29.442  28.700  23.289  1.00  0.00     0.001 A 
BRANCH  16  24
ATOM     24  S   UNL A   1      33.518  28.483  27.087  1.00  0.00     0.268 S 
ATOM     25  O   UNL A   1      32.307  28.956  27.765  1.00  0.00    -0.201 OA
ATOM     26  O   UNL A   1      34.411  28.593  25.960  1.00  0.00    -0.201 OA
BRANCH  24  27
ATOM     27  C   UNL A   1      34.119  30.165  27.470  1.00  0.00     0.088 A 
ATOM     28  C   UNL A   1      35.207  34.254  28.303  1.00  0.00     0.044 C 
ATOM     29  C   UNL A   1      34.815  32.833  28.025  1.00  0.00    -0.051 A 
ATOM     30  C   UNL A   1      35.769  31.811  28.121  1.00  0.00     0.005 A 
ATOM     31  C   UNL A   1      33.500  32.505  27.677  1.00  0.00     0.005 A 
ATOM     32  C   UNL A   1      35.423  30.481  27.856  1.00  0.00     0.022 A 
ATOM     33  C   UNL A   1      33.151  31.181  27.401  1.00  0.00     0.022 A 
ENDBRANCH  24  27
ENDBRANCH  16  24
ENDBRANCH  13  15
ENDBRANCH  10  13
ENDBRANCH   8   9
ENDBRANCH   5   8
ENDBRANCH   3   4
BRANCH   3  34
ATOM     34  C   UNL A   1      35.828  20.748  24.683  1.00  0.00     0.074 C 
BRANCH  34  35
ATOM     35  C   UNL A   1      34.670  19.970  25.281  1.00  0.00    -0.020 A 
ATOM     36  C   UNL A   1      33.716  20.343  26.210  1.00  0.00     0.087 A 
ATOM     37  C   UNL A   1      34.287  18.646  24.849  1.00  0.00     0.003 A 
ATOM     38  N   UNL A   1      32.712  19.409  26.218  1.00  0.00    -0.361 N 
ATOM     39  C   UNL A   1      33.058  18.341  25.436  1.00  0.00     0.046 A 
ATOM     40  C   UNL A   1      34.855  17.698  23.972  1.00  0.00     0.010 A 
ATOM     41  H   UNL A   1      31.865  19.494  26.713  1.00  0.00     0.166 HD
ATOM     42  C   UNL A   1      32.362  17.154  25.187  1.00  0.00     0.026 A 
ATOM     43  C   UNL A   1      34.191  16.486  23.741  1.00  0.00     0.001 A 
ATOM     44  C   UNL A   1      32.959  16.223  24.336  1.00  0.00     0.002 A 
ENDBRANCH  34  35
ENDBRANCH   3  34
ENDBRANCH   1   3
BRANCH   1  45
ATOM     45  O   UNL A   1      38.011  21.560  26.141  1.00  0.00    -0.461 OA
BRANCH  45  46
ATOM     46  C   UNL A   1      39.378  21.389  25.719  1.00  0.00     0.274 C 
BRANCH  46  47
ATOM     47  C   UNL A   1      40.395  21.717  26.821  1.00  0.00     0.275 C 
BRANCH  47  48
ATOM     48  O   UNL A   1      40.823  23.082  27.039  1.00  0.00    -0.458 OA
BRANCH  48  49
ATOM     49  C   UNL A   1      42.023  23.505  26.570  1.00  0.00     0.338 C 
ATOM     50  O   UNL A   1      42.572  23.009  25.598  1.00  0.00    -0.246 OA
BRANCH  49  51
ATOM     51  C   UNL A   1      42.422  24.803  27.182  1.00  0.00     0.060 A 
ATOM     52  C   UNL A   1      42.483  25.963  26.389  1.00  0.00     0.016 A 
ATOM     53  C   UNL A   1      42.458  24.905  28.569  1.00  0.00     0.016 A 
ATOM     54  C   UNL A   1      42.393  27.226  26.986  1.00  0.00     0.010 A 
ATOM     55  C   UNL A   1      42.287  26.138  29.153  1.00  0.00     0.010 A 
ATOM     56  C   UNL A   1      42.229  27.305  28.372  1.00  0.00    -0.014 A 
BRANCH  56  57
ATOM     57  C   UNL A   1      42.120  28.557  29.123  1.00  0.00     0.031 A 
ATOM     58  C   UNL A   1      40.909  29.414  29.130  1.00  0.00     0.074 A 
ATOM     59  C   UNL A   1      43.224  28.897  29.827  1.00  0.00     0.049 A 
ATOM     60  N   UNL A   1      40.928  30.696  29.291  1.00  0.00    -0.248 NA
ATOM     61  C   UNL A   1      39.553  28.907  28.948  1.00  0.00     0.031 C 
ATOM     62  C   UNL A   1      43.439  30.014  30.729  1.00  0.00     0.029 A 
ATOM     63  N   UNL A   1      44.509  28.375  29.640  1.00  0.00    -0.354 N 
ATOM     64  C   UNL A   1      39.634  31.102  29.568  1.00  0.00     0.074 A 
ATOM     65  C   UNL A   1      38.805  29.983  29.214  1.00  0.00     0.031 C 
ATOM     66  C   UNL A   1      44.752  30.320  30.698  1.00  0.00     0.029 A 
ATOM     67  C   UNL A   1      45.374  29.464  29.693  1.00  0.00     0.049 A 
ATOM     68  H   UNL A   1      44.751  27.431  29.501  1.00  0.00     0.167 HD
ATOM     69  C   UNL A   1      39.424  32.269  30.246  1.00  0.00     0.031 A 
ATOM     70  C   UNL A   1      46.062  29.868  28.583  1.00  0.00     0.031 A 
ATOM     71  C   UNL A   1      40.686  32.974  30.448  1.00  0.00     0.049 A 
ATOM     72  C   UNL A   1      45.686  31.287  28.210  1.00  0.00     0.074 A 
ATOM     73  C   UNL A   1      41.549  33.048  31.528  1.00  0.00     0.029 A 
ATOM     74  N   UNL A   1      41.390  33.427  29.341  1.00  0.00    -0.354 N 
ATOM     75  N   UNL A   1      44.553  31.852  28.535  1.00  0.00    -0.248 NA
ATOM     76  C   UNL A   1      46.582  32.201  27.512  1.00  0.00     0.031 C 
ATOM     77  C   UNL A   1      42.825  33.422  31.033  1.00  0.00     0.029 A 
ATOM     78  C   UNL A   1      42.719  33.612  29.665  1.00  0.00     0.049 A 
ATOM     79  H   UNL A   1      40.999  33.593  28.453  1.00  0.00     0.167 HD
ATOM     80  C   UNL A   1      44.614  33.192  28.251  1.00  0.00     0.074 A 
ATOM     81  C   UNL A   1      45.886  33.352  27.565  1.00  0.00     0.031 C 
ATOM     82  C   UNL A   1      43.661  34.082  28.661  1.00  0.00     0.031 A 
BRANCH  69  83
ATOM     83  C   UNL A   1      38.155  32.598  31.010  1.00  0.00    -0.014 A 
ATOM     84  C   UNL A   1      37.721  33.943  31.067  1.00  0.00     0.010 A 
ATOM     85  C   UNL A   1      37.383  31.670  31.735  1.00  0.00     0.010 A 
ATOM     86  C   UNL A   1      36.649  34.356  31.874  1.00  0.00     0.020 A 
ATOM     87  C   UNL A   1      36.316  32.074  32.563  1.00  0.00     0.020 A 
ATOM     88  C   UNL A   1      35.967  33.420  32.641  1.00  0.00     0.054 A 
BRANCH  88  89
ATOM     89  S   UNL A   1      34.634  33.987  33.731  1.00  0.00     0.124 S 
ATOM     90  O   UNL A   1      33.533  33.094  33.374  1.00  0.00    -0.237 OA
ATOM     91  O   UNL A   1      35.202  33.785  35.060  1.00  0.00    -0.237 OA
ATOM     92  O   UNL A   1      34.439  35.384  33.345  1.00  0.00    -0.744 OA
ENDBRANCH  88  89
ENDBRANCH  69  83
BRANCH  70  93
ATOM     93  C   UNL A   1      46.410  28.748  27.644  1.00  0.00    -0.014 A 
ATOM     94  C   UNL A   1      45.578  28.560  26.515  1.00  0.00     0.010 A 
ATOM     95  C   UNL A   1      47.720  28.244  27.579  1.00  0.00     0.010 A 
ATOM     96  C   UNL A   1      46.082  28.034  25.315  1.00  0.00     0.020 A 
ATOM     97  C   UNL A   1      48.222  27.705  26.379  1.00  0.00     0.020 A 
ATOM     98  C   UNL A   1      47.421  27.664  25.237  1.00  0.00     0.054 A 
BRANCH  98  99
ATOM     99  S   UNL A   1      48.129  27.333  23.589  1.00  0.00     0.124 S 
ATOM    100  O   UNL A   1      47.330  28.184  22.711  1.00  0.00    -0.237 OA
ATOM    101  O   UNL A   1      49.516  27.761  23.765  1.00  0.00    -0.237 OA
ATOM    102  O   UNL A   1      47.961  25.894  23.415  1.00  0.00    -0.744 OA
ENDBRANCH  98  99
ENDBRANCH  70  93
BRANCH  82 103
ATOM    103  C   UNL A   1      43.567  35.541  28.282  1.00  0.00    -0.014 A 
ATOM    104  C   UNL A   1      44.550  36.495  28.571  1.00  0.00     0.010 A 
ATOM    105  C   UNL A   1      42.483  35.961  27.468  1.00  0.00     0.010 A 
ATOM    106  C   UNL A   1      44.424  37.819  28.125  1.00  0.00     0.020 A 
ATOM    107  C   UNL A   1      42.372  37.260  26.977  1.00  0.00     0.020 A 
ATOM    108  C   UNL A   1      43.334  38.193  27.335  1.00  0.00     0.054 A 
BRANCH 108 109
ATOM    109  S   UNL A   1      43.207  39.888  26.717  1.00  0.00     0.124 S 
ATOM    110  O   UNL A   1      43.249  40.661  27.954  1.00  0.00    -0.237 OA
ATOM    111  O   UNL A   1      44.386  40.011  25.860  1.00  0.00    -0.237 OA
ATOM    112  O   UNL A   1      41.929  39.900  26.010  1.00  0.00    -0.744 OA
ENDBRANCH 108 109
ENDBRANCH  82 103
ENDBRANCH  56  57
ENDBRANCH  49  51
ENDBRANCH  48  49
ENDBRANCH  47  48
ENDBRANCH  46  47
ENDBRANCH  45  46
ENDBRANCH   1  45
TORSDOF 23
ENDMDL
MODEL 3
REMARK VINA RESULT:     -13.1      1.957      2.710
REMARK SMILES Cc1ccc(S(=O)(=O)n2cc(C(=O)C(=O)NCC(=O)N[C@@H](Cc3c[nH]c4ccccc34)C(=O)OCCOC(=O)c3ccc(-c4c5nc(c(-c6ccc(S(=O)(=O)[O-])cc6)c6ccc([nH]6)c(-c6ccc(S(=O)(=O)[O-])cc6)c6nc(c(-c7ccc(S(=O)(=O)[O-])cc7)c7ccc4[nH]7)C=C6)C=C5)cc3)c3ccccc32)cc1
REMARK SMILES IDX 32 1 33 2 21 3 20 4 18 5 19 6 17 8 16 9 14 10 15 11 12 13
REMARK SMILES IDX 13 14 11 15 9 16 10 17 105 18 100 19 104 20 101 21 103 22
REMARK SMILES IDX 102 23 6 24 7 25 8 26 5 27 1 28 2 29 3 30 107 31 4 32 106 33
REMARK SMILES IDX 22 34 23 35 24 36 31 37 25 38 26 39 30 40 27 42 29 43 28 44
REMARK SMILES IDX 34 45 35 46 36 47 37 48 38 49 39 50 40 51 41 52 99 53 42 54
REMARK SMILES IDX 98 55 43 56 44 57 45 58 92 59 46 60 97 61 91 62 93 63 47 64
REMARK SMILES IDX 96 65 90 66 89 67 48 69 78 70 59 71 77 72 60 73 63 74 76 75
REMARK SMILES IDX 94 76 61 77 62 78 75 80 95 81 64 82 49 83 50 84 58 85 51 86
REMARK SMILES IDX 57 87 52 88 53 89 54 90 55 91 56 92 79 93 80 94 88 95 81 96
REMARK SMILES IDX 87 97 82 98 83 99 84 100 85 101 86 102 65 103 66 104 74 105
REMARK SMILES IDX 67 106 73 107 68 108 69 109 70 110 71 111 72 112
REMARK H PARENT 20 7 16 12 25 41 93 68 63 79
REMARK Flexibility Score: inf
ROOT
ATOM      1  C   UNL A   1      35.225  23.588  25.268  1.00  0.00     0.329 C 
ATOM      2  O   UNL A   1      36.072  24.441  25.505  1.00  0.00    -0.250 OA
ENDROOT
BRANCH   1   3
ATOM      3  C   UNL A   1      33.780  23.957  24.922  1.00  0.00     0.196 C 
BRANCH   3   4
ATOM      4  N   UNL A   1      33.581  24.584  23.614  1.00  0.00    -0.341 N 
ATOM      5  C   UNL A   1      33.389  25.896  23.283  1.00  0.00     0.240 C 
ATOM      6  O   UNL A   1      33.380  26.164  22.076  1.00  0.00    -0.273 OA
ATOM      7  H   UNL A   1      33.585  23.961  22.851  1.00  0.00     0.164 HD
BRANCH   5   8
ATOM      8  C   UNL A   1      33.246  27.023  24.339  1.00  0.00     0.216 C 
BRANCH   8   9
ATOM      9  N   UNL A   1      32.265  28.059  24.041  1.00  0.00    -0.340 N 
ATOM     10  C   UNL A   1      31.757  29.007  24.918  1.00  0.00     0.292 C 
ATOM     11  O   UNL A   1      30.992  29.864  24.486  1.00  0.00    -0.265 OA
ATOM     12  H   UNL A   1      31.925  28.090  23.117  1.00  0.00     0.164 HD
BRANCH  10  13
ATOM     13  C   UNL A   1      32.173  29.012  26.414  1.00  0.00     0.252 C 
ATOM     14  O   UNL A   1      31.834  28.039  27.087  1.00  0.00    -0.283 OA
BRANCH  13  15
ATOM     15  C   UNL A   1      33.003  30.101  26.969  1.00  0.00     0.054 A 
ATOM     16  N   UNL A   1      33.667  32.100  27.765  1.00  0.00    -0.240 N 
ATOM     17  C   UNL A   1      32.584  31.378  27.300  1.00  0.00     0.117 A 
ATOM     18  C   UNL A   1      34.780  31.291  27.866  1.00  0.00     0.065 A 
ATOM     19  C   UNL A   1      34.411  30.060  27.285  1.00  0.00     0.012 A 
ATOM     20  C   UNL A   1      36.049  31.468  28.439  1.00  0.00     0.028 A 
ATOM     21  C   UNL A   1      35.386  29.042  27.197  1.00  0.00     0.011 A 
ATOM     22  C   UNL A   1      36.968  30.418  28.394  1.00  0.00     0.002 A 
ATOM     23  C   UNL A   1      36.653  29.230  27.754  1.00  0.00     0.001 A 
BRANCH  16  24
ATOM     24  S   UNL A   1      33.493  33.818  27.974  1.00  0.00     0.268 S 
ATOM     25  O   UNL A   1      34.947  33.823  28.160  1.00  0.00    -0.201 OA
ATOM     26  O   UNL A   1      32.191  33.512  28.517  1.00  0.00    -0.201 OA
BRANCH  24  27
ATOM     27  C   UNL A   1      33.540  35.052  29.320  1.00  0.00     0.088 A 
ATOM     28  C   UNL A   1      33.776  37.707  32.710  1.00  0.00     0.044 C 
ATOM     29  C   UNL A   1      33.711  36.779  31.533  1.00  0.00    -0.051 A 
ATOM     30  C   UNL A   1      33.252  37.248  30.295  1.00  0.00     0.005 A 
ATOM     31  C   UNL A   1      34.113  35.444  31.648  1.00  0.00     0.005 A 
ATOM     32  C   UNL A   1      33.176  36.393  29.189  1.00  0.00     0.022 A 
ATOM     33  C   UNL A   1      34.031  34.584  30.550  1.00  0.00     0.022 A 
ENDBRANCH  24  27
ENDBRANCH  16  24
ENDBRANCH  13  15
ENDBRANCH  10  13
ENDBRANCH   8   9
ENDBRANCH   5   8
ENDBRANCH   3   4
BRANCH   3  34
ATOM     34  C   UNL A   1      32.809  22.779  25.163  1.00  0.00     0.074 C 
BRANCH  34  35
ATOM     35  C   UNL A   1      32.354  21.880  24.028  1.00  0.00    -0.020 A 
ATOM     36  C   UNL A   1      31.773  22.188  22.810  1.00  0.00     0.087 A 
ATOM     37  C   UNL A   1      32.581  20.455  23.993  1.00  0.00     0.003 A 
ATOM     38  N   UNL A   1      31.811  21.078  22.005  1.00  0.00    -0.361 N 
ATOM     39  C   UNL A   1      32.251  19.996  22.718  1.00  0.00     0.046 A 
ATOM     40  C   UNL A   1      33.084  19.520  24.922  1.00  0.00     0.010 A 
ATOM     41  H   UNL A   1      31.558  21.062  21.054  1.00  0.00     0.166 HD
ATOM     42  C   UNL A   1      32.407  18.666  22.315  1.00  0.00     0.026 A 
ATOM     43  C   UNL A   1      33.211  18.175  24.549  1.00  0.00     0.001 A 
ATOM     44  C   UNL A   1      32.882  17.758  23.262  1.00  0.00     0.002 A 
ENDBRANCH  34  35
ENDBRANCH   3  34
ENDBRANCH   1   3
BRANCH   1  45
ATOM     45  O   UNL A   1      35.505  22.256  25.267  1.00  0.00    -0.461 OA
BRANCH  45  46
ATOM     46  C   UNL A   1      36.441  21.861  24.246  1.00  0.00     0.274 C 
BRANCH  46  47
ATOM     47  C   UNL A   1      37.387  20.738  24.697  1.00  0.00     0.275 C 
BRANCH  47  48
ATOM     48  O   UNL A   1      38.098  20.840  25.953  1.00  0.00    -0.458 OA
BRANCH  48  49
ATOM     49  C   UNL A   1      39.391  20.440  26.041  1.00  0.00     0.338 C 
ATOM     50  O   UNL A   1      39.787  19.367  25.611  1.00  0.00    -0.246 OA
BRANCH  49  51
ATOM     51  C   UNL A   1      40.286  21.563  26.435  1.00  0.00     0.060 A 
ATOM     52  C   UNL A   1      40.173  22.809  25.792  1.00  0.00     0.016 A 
ATOM     53  C   UNL A   1      41.020  21.450  27.610  1.00  0.00     0.016 A 
ATOM     54  C   UNL A   1      40.639  23.968  26.422  1.00  0.00     0.010 A 
ATOM     55  C   UNL A   1      41.407  22.594  28.269  1.00  0.00     0.010 A 
ATOM     56  C   UNL A   1      41.200  23.861  27.698  1.00  0.00    -0.014 A 
BRANCH  56  57
ATOM     57  C   UNL A   1      41.725  24.989  28.469  1.00  0.00     0.031 A 
ATOM     58  C   UNL A   1      40.910  26.158  28.882  1.00  0.00     0.074 A 
ATOM     59  C   UNL A   1      43.036  24.901  28.789  1.00  0.00     0.049 A 
ATOM     60  N   UNL A   1      41.383  27.349  29.054  1.00  0.00    -0.248 NA
ATOM     61  C   UNL A   1      39.474  26.101  29.133  1.00  0.00     0.031 C 
ATOM     62  C   UNL A   1      43.854  25.787  29.597  1.00  0.00     0.029 A 
ATOM     63  N   UNL A   1      43.971  24.049  28.190  1.00  0.00    -0.354 N 
ATOM     64  C   UNL A   1      40.431  28.083  29.740  1.00  0.00     0.074 A 
ATOM     65  C   UNL A   1      39.222  27.310  29.647  1.00  0.00     0.031 C 
ATOM     66  C   UNL A   1      45.124  25.693  29.154  1.00  0.00     0.029 A 
ATOM     67  C   UNL A   1      45.112  24.819  27.985  1.00  0.00     0.049 A 
ATOM     68  H   UNL A   1      43.847  23.099  27.962  1.00  0.00     0.167 HD
ATOM     69  C   UNL A   1      40.815  29.169  30.472  1.00  0.00     0.031 A 
ATOM     70  C   UNL A   1      45.529  25.132  26.721  1.00  0.00     0.031 A 
ATOM     71  C   UNL A   1      42.235  29.440  30.274  1.00  0.00     0.049 A 
ATOM     72  C   UNL A   1      45.532  26.632  26.517  1.00  0.00     0.074 A 
ATOM     73  C   UNL A   1      43.357  29.125  31.021  1.00  0.00     0.029 A 
ATOM     74  N   UNL A   1      42.684  29.794  29.008  1.00  0.00    -0.354 N 
ATOM     75  N   UNL A   1      44.788  27.464  27.200  1.00  0.00    -0.248 NA
ATOM     76  C   UNL A   1      46.421  27.318  25.588  1.00  0.00     0.031 C 
ATOM     77  C   UNL A   1      44.477  29.162  30.151  1.00  0.00     0.029 A 
ATOM     78  C   UNL A   1      44.035  29.538  28.894  1.00  0.00     0.049 A 
ATOM     79  H   UNL A   1      42.120  30.174  28.296  1.00  0.00     0.167 HD
ATOM     80  C   UNL A   1      45.186  28.750  26.939  1.00  0.00     0.074 A 
ATOM     81  C   UNL A   1      46.178  28.608  25.885  1.00  0.00     0.031 C 
ATOM     82  C   UNL A   1      44.734  29.826  27.650  1.00  0.00     0.031 A 
BRANCH  69  83
ATOM     83  C   UNL A   1      40.005  29.764  31.609  1.00  0.00    -0.014 A 
ATOM     84  C   UNL A   1      39.155  30.862  31.341  1.00  0.00     0.010 A 
ATOM     85  C   UNL A   1      40.070  29.349  32.953  1.00  0.00     0.010 A 
ATOM     86  C   UNL A   1      38.490  31.567  32.357  1.00  0.00     0.020 A 
ATOM     87  C   UNL A   1      39.422  30.058  33.985  1.00  0.00     0.020 A 
ATOM     88  C   UNL A   1      38.650  31.177  33.680  1.00  0.00     0.054 A 
BRANCH  88  89
ATOM     89  S   UNL A   1      37.840  32.146  34.981  1.00  0.00     0.124 S 
ATOM     90  O   UNL A   1      37.783  31.197  36.092  1.00  0.00    -0.237 OA
ATOM     91  O   UNL A   1      38.758  33.268  35.160  1.00  0.00    -0.237 OA
ATOM     92  O   UNL A   1      36.543  32.492  34.401  1.00  0.00    -0.744 OA
ENDBRANCH  88  89
ENDBRANCH  69  83
BRANCH  70  93
ATOM     93  C   UNL A   1      45.206  24.081  25.697  1.00  0.00    -0.014 A 
ATOM     94  C   UNL A   1      46.280  23.562  24.935  1.00  0.00     0.010 A 
ATOM     95  C   UNL A   1      44.050  23.292  25.815  1.00  0.00     0.010 A 
ATOM     96  C   UNL A   1      46.259  22.247  24.445  1.00  0.00     0.020 A 
ATOM     97  C   UNL A   1      44.024  21.977  25.312  1.00  0.00     0.020 A 
ATOM     98  C   UNL A   1      45.151  21.441  24.689  1.00  0.00     0.054 A 
BRANCH  98  99
ATOM     99  S   UNL A   1      45.299  19.652  24.365  1.00  0.00     0.124 S 
ATOM    100  O   UNL A   1      46.744  19.448  24.300  1.00  0.00    -0.237 OA
ATOM    101  O   UNL A   1      44.650  19.077  25.543  1.00  0.00    -0.237 OA
ATOM    102  O   UNL A   1      44.567  19.457  23.119  1.00  0.00    -0.744 OA
ENDBRANCH  98  99
ENDBRANCH  70  93
BRANCH  82 103
ATOM    103  C   UNL A   1      45.001  31.281  27.351  1.00  0.00    -0.014 A 
ATOM    104  C   UNL A   1      44.113  32.123  26.671  1.00  0.00     0.010 A 
ATOM    105  C   UNL A   1      46.163  31.883  27.901  1.00  0.00     0.010 A 
ATOM    106  C   UNL A   1      44.402  33.484  26.491  1.00  0.00     0.020 A 
ATOM    107  C   UNL A   1      46.436  33.244  27.772  1.00  0.00     0.020 A 
ATOM    108  C   UNL A   1      45.563  34.033  27.039  1.00  0.00     0.054 A 
BRANCH 108 109
ATOM    109  S   UNL A   1      45.900  35.800  26.852  1.00  0.00     0.124 S 
ATOM    110  O   UNL A   1      44.554  36.363  26.858  1.00  0.00    -0.237 OA
ATOM    111  O   UNL A   1      46.711  36.104  28.030  1.00  0.00    -0.237 OA
ATOM    112  O   UNL A   1      46.611  35.880  25.579  1.00  0.00    -0.744 OA
ENDBRANCH 108 109
ENDBRANCH  82 103
ENDBRANCH  56  57
ENDBRANCH  49  51
ENDBRANCH  48  49
ENDBRANCH  47  48
ENDBRANCH  46  47
ENDBRANCH  45  46
ENDBRANCH   1  45
TORSDOF 23
ENDMDL
