MODEL 1
REMARK VINA RESULT:     -12.7      0.000      0.000
REMARK SMILES O=C(OCCOC(=O)[C@H]1[C@H]2CC[C@H](CC2)[C@H]1C(=O)Nc1ccc(C(=O)N2CCCC2)cc1)c1ccc(-c2c3nc(c(-c4ccc(S(=O)(=O)[O-])cc4)c4ccc([nH]4)c(-c4ccc(S(=O)(=O)[O-])cc4)c4nc(c(-c5ccc(S(=O)(=O)[O-])cc5)c5ccc2[nH]5)C=C4)C=C3)cc1
REMARK SMILES IDX 4 1 3 2 2 3 1 4 33 5 34 6 92 7 35 8 91 9 36 10 37 11 38 12
REMARK SMILES IDX 85 13 39 14 90 15 84 16 86 17 40 18 89 19 83 20 82 21 41 23
REMARK SMILES IDX 71 24 52 25 70 26 53 27 56 28 69 29 87 30 54 31 55 32 68 34
REMARK SMILES IDX 88 35 57 36 42 37 43 38 51 39 44 40 50 41 45 42 46 43 47 44
REMARK SMILES IDX 48 45 49 46 72 47 73 48 81 49 74 50 80 51 75 52 76 53 77 54
REMARK SMILES IDX 78 55 79 56 58 57 59 58 67 59 60 60 66 61 61 62 62 63 63 64
REMARK SMILES IDX 64 65 65 66 5 67 6 68 7 69 8 70 9 71 10 72 16 73 15 74 11 75
REMARK SMILES IDX 13 76 14 77 12 78 17 79 18 80 19 81 20 83 21 84 32 85 22 86
REMARK SMILES IDX 31 87 23 88 24 89 25 90 26 91 27 92 30 93 28 94 29 95
REMARK H PARENT 86 22 56 33 19 82
REMARK Flexibility Score: inf
ROOT
ATOM      1  C   UNL A   1      35.255  29.314  27.590  1.00  0.00     0.275 C 
ENDROOT
BRANCH   1   2
ATOM      2  O   UNL A   1      35.411  30.324  28.627  1.00  0.00    -0.458 OA
BRANCH   2   3
ATOM      3  C   UNL A   1      36.422  30.840  29.383  1.00  0.00     0.338 C 
ATOM      4  O   UNL A   1      36.257  31.940  29.903  1.00  0.00    -0.246 OA
BRANCH   3   5
ATOM      5  C   UNL A   1      37.804  30.255  29.463  1.00  0.00     0.060 A 
ATOM      6  C   UNL A   1      38.418  29.941  28.307  1.00  0.00     0.016 A 
ATOM      7  C   UNL A   1      38.696  30.338  30.549  1.00  0.00     0.016 A 
ATOM      8  C   UNL A   1      39.811  29.721  28.243  1.00  0.00     0.010 A 
ATOM      9  C   UNL A   1      40.138  30.061  30.430  1.00  0.00     0.010 A 
ATOM     10  C   UNL A   1      40.759  29.703  29.219  1.00  0.00    -0.014 A 
BRANCH  10  11
ATOM     11  C   UNL A   1      42.247  29.367  28.743  1.00  0.00     0.031 A 
ATOM     12  C   UNL A   1      42.568  27.919  28.496  1.00  0.00     0.074 A 
ATOM     13  C   UNL A   1      43.279  30.189  28.285  1.00  0.00     0.049 A 
ATOM     14  N   UNL A   1      43.658  27.414  27.972  1.00  0.00    -0.248 NA
ATOM     15  C   UNL A   1      41.503  26.946  28.736  1.00  0.00     0.031 C 
ATOM     16  C   UNL A   1      43.254  31.612  27.996  1.00  0.00     0.029 A 
ATOM     17  N   UNL A   1      44.628  29.945  27.957  1.00  0.00    -0.354 N 
ATOM     18  C   UNL A   1      43.368  26.088  27.732  1.00  0.00     0.074 A 
ATOM     19  C   UNL A   1      42.040  25.845  28.249  1.00  0.00     0.031 C 
ATOM     20  C   UNL A   1      44.449  32.145  27.732  1.00  0.00     0.029 A 
ATOM     21  C   UNL A   1      45.412  31.087  27.743  1.00  0.00     0.049 A 
ATOM     22  H   UNL A   1      44.995  29.035  27.884  1.00  0.00     0.167 HD
ATOM     23  C   UNL A   1      44.100  25.145  27.103  1.00  0.00     0.031 A 
ATOM     24  C   UNL A   1      46.726  31.355  27.544  1.00  0.00     0.031 A 
ATOM     25  C   UNL A   1      45.466  25.255  26.692  1.00  0.00     0.049 A 
ATOM     26  C   UNL A   1      47.650  30.216  27.307  1.00  0.00     0.074 A 
ATOM     27  C   UNL A   1      46.277  24.250  26.194  1.00  0.00     0.029 A 
ATOM     28  N   UNL A   1      46.251  26.387  26.794  1.00  0.00    -0.354 N 
ATOM     29  N   UNL A   1      47.322  28.967  27.124  1.00  0.00    -0.248 NA
ATOM     30  C   UNL A   1      49.089  30.499  27.190  1.00  0.00     0.031 C 
ATOM     31  C   UNL A   1      47.584  24.740  26.115  1.00  0.00     0.029 A 
ATOM     32  C   UNL A   1      47.566  26.075  26.475  1.00  0.00     0.049 A 
ATOM     33  H   UNL A   1      45.927  27.280  27.053  1.00  0.00     0.167 HD
ATOM     34  C   UNL A   1      48.506  28.315  26.836  1.00  0.00     0.074 A 
ATOM     35  C   UNL A   1      49.563  29.302  26.867  1.00  0.00     0.031 C 
ATOM     36  C   UNL A   1      48.662  27.004  26.548  1.00  0.00     0.031 A 
BRANCH  23  37
ATOM     37  C   UNL A   1      43.404  23.835  26.957  1.00  0.00    -0.014 A 
ATOM     38  C   UNL A   1      43.228  22.985  28.064  1.00  0.00     0.010 A 
ATOM     39  C   UNL A   1      43.053  23.408  25.668  1.00  0.00     0.010 A 
ATOM     40  C   UNL A   1      42.730  21.699  27.869  1.00  0.00     0.020 A 
ATOM     41  C   UNL A   1      42.543  22.131  25.476  1.00  0.00     0.020 A 
ATOM     42  C   UNL A   1      42.396  21.281  26.576  1.00  0.00     0.054 A 
BRANCH  42  43
ATOM     43  S   UNL A   1      41.750  19.607  26.346  1.00  0.00     0.124 S 
ATOM     44  O   UNL A   1      42.171  18.946  27.579  1.00  0.00    -0.237 OA
ATOM     45  O   UNL A   1      40.314  19.839  26.213  1.00  0.00    -0.237 OA
ATOM     46  O   UNL A   1      42.419  19.143  25.133  1.00  0.00    -0.744 OA
ENDBRANCH  42  43
ENDBRANCH  23  37
BRANCH  24  47
ATOM     47  C   UNL A   1      47.284  32.759  27.589  1.00  0.00    -0.014 A 
ATOM     48  C   UNL A   1      47.606  33.485  26.424  1.00  0.00     0.010 A 
ATOM     49  C   UNL A   1      47.584  33.343  28.836  1.00  0.00     0.010 A 
ATOM     50  C   UNL A   1      48.225  34.746  26.507  1.00  0.00     0.020 A 
ATOM     51  C   UNL A   1      48.190  34.607  28.925  1.00  0.00     0.020 A 
ATOM     52  C   UNL A   1      48.518  35.298  27.758  1.00  0.00     0.054 A 
BRANCH  52  53
ATOM     53  S   UNL A   1      49.291  36.945  27.853  1.00  0.00     0.124 S 
ATOM     54  O   UNL A   1      48.663  37.644  26.737  1.00  0.00    -0.237 OA
ATOM     55  O   UNL A   1      48.903  37.402  29.185  1.00  0.00    -0.237 OA
ATOM     56  O   UNL A   1      50.715  36.661  27.692  1.00  0.00    -0.744 OA
ENDBRANCH  52  53
ENDBRANCH  24  47
BRANCH  36  57
ATOM     57  C   UNL A   1      50.049  26.523  26.256  1.00  0.00    -0.014 A 
ATOM     58  C   UNL A   1      50.583  26.601  24.958  1.00  0.00     0.010 A 
ATOM     59  C   UNL A   1      50.845  26.023  27.301  1.00  0.00     0.010 A 
ATOM     60  C   UNL A   1      51.886  26.169  24.706  1.00  0.00     0.020 A 
ATOM     61  C   UNL A   1      52.157  25.615  27.059  1.00  0.00     0.020 A 
ATOM     62  C   UNL A   1      52.665  25.679  25.760  1.00  0.00     0.054 A 
BRANCH  62  63
ATOM     63  S   UNL A   1      54.372  25.174  25.420  1.00  0.00     0.124 S 
ATOM     64  O   UNL A   1      54.207  23.769  25.064  1.00  0.00    -0.237 OA
ATOM     65  O   UNL A   1      54.761  26.062  24.329  1.00  0.00    -0.237 OA
ATOM     66  O   UNL A   1      55.061  25.419  26.690  1.00  0.00    -0.744 OA
ENDBRANCH  62  63
ENDBRANCH  36  57
ENDBRANCH  10  11
ENDBRANCH   3   5
ENDBRANCH   2   3
ENDBRANCH   1   2
BRANCH   1  67
ATOM     67  C   UNL A   1      34.054  29.439  26.634  1.00  0.00     0.274 C 
BRANCH  67  68
ATOM     68  O   UNL A   1      33.261  28.317  26.251  1.00  0.00    -0.462 OA
BRANCH  68  69
ATOM     69  C   UNL A   1      31.943  28.324  26.491  1.00  0.00     0.310 C 
ATOM     70  O   UNL A   1      31.537  28.198  27.645  1.00  0.00    -0.252 OA
BRANCH  69  71
ATOM     71  C   UNL A   1      31.042  28.080  25.278  1.00  0.00     0.115 C 
ATOM     72  C   UNL A   1      31.463  29.079  24.090  1.00  0.00     0.004 C 
ATOM     73  C   UNL A   1      30.361  26.730  24.746  1.00  0.00     0.096 C 
ATOM     74  C   UNL A   1      32.061  28.480  22.809  1.00  0.00     0.005 C 
ATOM     75  C   UNL A   1      30.160  29.722  23.604  1.00  0.00     0.005 C 
ATOM     76  C   UNL A   1      29.941  27.202  23.191  1.00  0.00     0.002 C 
ATOM     77  C   UNL A   1      31.053  27.546  22.171  1.00  0.00     0.005 C 
ATOM     78  C   UNL A   1      29.189  28.587  23.240  1.00  0.00     0.005 C 
BRANCH  73  79
ATOM     79  C   UNL A   1      30.508  25.192  25.724  1.00  0.00     0.228 C 
ATOM     80  O   UNL A   1      29.815  25.165  26.758  1.00  0.00    -0.274 OA
ATOM     81  N   UNL A   1      31.154  23.942  25.405  1.00  0.00    -0.326 N 
ATOM     82  H   UNL A   1      30.600  23.327  24.874  1.00  0.00     0.169 HD
BRANCH  81  83
ATOM     83  C   UNL A   1      32.519  23.411  25.736  1.00  0.00     0.041 A 
ATOM     84  C   UNL A   1      32.619  22.326  26.630  1.00  0.00     0.027 A 
ATOM     85  C   UNL A   1      33.692  23.660  25.023  1.00  0.00     0.027 A 
ATOM     86  C   UNL A   1      33.611  21.312  26.431  1.00  0.00     0.016 A 
ATOM     87  C   UNL A   1      34.700  22.648  24.832  1.00  0.00     0.016 A 
ATOM     88  C   UNL A   1      34.560  21.382  25.390  1.00  0.00     0.040 A 
BRANCH  88  89
ATOM     89  C   UNL A   1      35.151  20.055  24.890  1.00  0.00     0.253 C 
ATOM     90  O   UNL A   1      36.371  19.920  25.039  1.00  0.00    -0.269 OA
ATOM     91  N   UNL A   1      34.406  18.929  24.484  1.00  0.00    -0.339 N 
ATOM     92  C   UNL A   1      33.121  18.804  23.824  1.00  0.00     0.120 C 
ATOM     93  C   UNL A   1      35.049  17.608  24.539  1.00  0.00     0.120 C 
ATOM     94  C   UNL A   1      32.703  17.344  23.987  1.00  0.00     0.023 C 
ATOM     95  C   UNL A   1      33.978  16.562  24.238  1.00  0.00     0.023 C 
ENDBRANCH  88  89
ENDBRANCH  81  83
ENDBRANCH  73  79
ENDBRANCH  69  71
ENDBRANCH  68  69
ENDBRANCH  67  68
ENDBRANCH   1  67
TORSDOF 17
ENDMDL
MODEL 2
REMARK VINA RESULT:     -12.7      1.923      9.106
REMARK SMILES O=C(OCCOC(=O)[C@H]1[C@H]2CC[C@H](CC2)[C@H]1C(=O)Nc1ccc(C(=O)N2CCCC2)cc1)c1ccc(-c2c3nc(c(-c4ccc(S(=O)(=O)[O-])cc4)c4ccc([nH]4)c(-c4ccc(S(=O)(=O)[O-])cc4)c4nc(c(-c5ccc(S(=O)(=O)[O-])cc5)c5ccc2[nH]5)C=C4)C=C3)cc1
REMARK SMILES IDX 4 1 3 2 2 3 1 4 33 5 34 6 92 7 35 8 91 9 36 10 37 11 38 12
REMARK SMILES IDX 85 13 39 14 90 15 84 16 86 17 40 18 89 19 83 20 82 21 41 23
REMARK SMILES IDX 71 24 52 25 70 26 53 27 56 28 69 29 87 30 54 31 55 32 68 34
REMARK SMILES IDX 88 35 57 36 42 37 43 38 51 39 44 40 50 41 45 42 46 43 47 44
REMARK SMILES IDX 48 45 49 46 72 47 73 48 81 49 74 50 80 51 75 52 76 53 77 54
REMARK SMILES IDX 78 55 79 56 58 57 59 58 67 59 60 60 66 61 61 62 62 63 63 64
REMARK SMILES IDX 64 65 65 66 5 67 6 68 7 69 8 70 9 71 10 72 16 73 15 74 11 75
REMARK SMILES IDX 13 76 14 77 12 78 17 79 18 80 19 81 20 83 21 84 32 85 22 86
REMARK SMILES IDX 31 87 23 88 24 89 25 90 26 91 27 92 30 93 28 94 29 95
REMARK H PARENT 86 22 56 33 19 82
REMARK Flexibility Score: inf
ROOT
ATOM      1  C   UNL A   1      39.312  19.860  25.547  1.00  0.00     0.275 C 
ENDROOT
BRANCH   1   2
ATOM      2  O   UNL A   1      40.473  19.006  25.753  1.00  0.00    -0.458 OA
BRANCH   2   3
ATOM      3  C   UNL A   1      41.820  19.159  25.896  1.00  0.00     0.338 C 
ATOM      4  O   UNL A   1      42.544  18.198  25.649  1.00  0.00    -0.246 OA
BRANCH   3   5
ATOM      5  C   UNL A   1      42.475  20.353  26.530  1.00  0.00     0.060 A 
ATOM      6  C   UNL A   1      43.326  21.074  25.775  1.00  0.00     0.016 A 
ATOM      7  C   UNL A   1      42.040  21.048  27.675  1.00  0.00     0.016 A 
ATOM      8  C   UNL A   1      43.717  22.380  26.141  1.00  0.00     0.010 A 
ATOM      9  C   UNL A   1      42.512  22.398  28.026  1.00  0.00     0.010 A 
ATOM     10  C   UNL A   1      43.428  23.125  27.242  1.00  0.00    -0.014 A 
BRANCH  10  11
ATOM     11  C   UNL A   1      44.111  24.568  27.311  1.00  0.00     0.031 A 
ATOM     12  C   UNL A   1      43.206  25.732  27.606  1.00  0.00     0.074 A 
ATOM     13  C   UNL A   1      45.452  24.954  27.373  1.00  0.00     0.049 A 
ATOM     14  N   UNL A   1      43.547  26.974  27.852  1.00  0.00    -0.248 NA
ATOM     15  C   UNL A   1      41.782  25.448  27.778  1.00  0.00     0.031 C 
ATOM     16  C   UNL A   1      46.636  24.124  27.509  1.00  0.00     0.029 A 
ATOM     17  N   UNL A   1      46.094  26.208  27.331  1.00  0.00    -0.354 N 
ATOM     18  C   UNL A   1      42.395  27.586  28.299  1.00  0.00     0.074 A 
ATOM     19  C   UNL A   1      41.333  26.611  28.204  1.00  0.00     0.031 C 
ATOM     20  C   UNL A   1      47.792  24.779  27.369  1.00  0.00     0.029 A 
ATOM     21  C   UNL A   1      47.489  26.167  27.198  1.00  0.00     0.049 A 
ATOM     22  H   UNL A   1      45.597  27.055  27.392  1.00  0.00     0.167 HD
ATOM     23  C   UNL A   1      42.216  28.830  28.789  1.00  0.00     0.031 A 
ATOM     24  C   UNL A   1      48.484  27.064  26.989  1.00  0.00     0.031 A 
ATOM     25  C   UNL A   1      43.167  29.898  28.786  1.00  0.00     0.049 A 
ATOM     26  C   UNL A   1      48.157  28.512  27.073  1.00  0.00     0.074 A 
ATOM     27  C   UNL A   1      42.949  31.219  29.136  1.00  0.00     0.029 A 
ATOM     28  N   UNL A   1      44.476  29.812  28.351  1.00  0.00    -0.354 N 
ATOM     29  N   UNL A   1      47.032  29.038  27.469  1.00  0.00    -0.248 NA
ATOM     30  C   UNL A   1      49.214  29.483  26.751  1.00  0.00     0.031 C 
ATOM     31  C   UNL A   1      44.086  31.957  28.794  1.00  0.00     0.029 A 
ATOM     32  C   UNL A   1      45.042  31.079  28.317  1.00  0.00     0.049 A 
ATOM     33  H   UNL A   1      44.936  28.978  28.103  1.00  0.00     0.167 HD
ATOM     34  C   UNL A   1      47.248  30.403  27.477  1.00  0.00     0.074 A 
ATOM     35  C   UNL A   1      48.612  30.627  27.048  1.00  0.00     0.031 C 
ATOM     36  C   UNL A   1      46.371  31.363  27.844  1.00  0.00     0.031 A 
BRANCH  23  37
ATOM     37  C   UNL A   1      40.827  29.101  29.260  1.00  0.00    -0.014 A 
ATOM     38  C   UNL A   1      39.819  29.475  28.354  1.00  0.00     0.010 A 
ATOM     39  C   UNL A   1      40.582  29.109  30.641  1.00  0.00     0.010 A 
ATOM     40  C   UNL A   1      38.579  29.886  28.837  1.00  0.00     0.020 A 
ATOM     41  C   UNL A   1      39.341  29.506  31.123  1.00  0.00     0.020 A 
ATOM     42  C   UNL A   1      38.352  29.902  30.217  1.00  0.00     0.054 A 
BRANCH  42  43
ATOM     43  S   UNL A   1      36.735  30.440  30.823  1.00  0.00     0.124 S 
ATOM     44  O   UNL A   1      37.045  31.742  31.406  1.00  0.00    -0.237 OA
ATOM     45  O   UNL A   1      35.935  30.469  29.601  1.00  0.00    -0.237 OA
ATOM     46  O   UNL A   1      36.364  29.402  31.783  1.00  0.00    -0.744 OA
ENDBRANCH  42  43
ENDBRANCH  23  37
BRANCH  24  47
ATOM     47  C   UNL A   1      49.895  26.646  26.645  1.00  0.00    -0.014 A 
ATOM     48  C   UNL A   1      50.331  26.464  25.317  1.00  0.00     0.010 A 
ATOM     49  C   UNL A   1      50.795  26.335  27.684  1.00  0.00     0.010 A 
ATOM     50  C   UNL A   1      51.619  25.969  25.040  1.00  0.00     0.020 A 
ATOM     51  C   UNL A   1      52.086  25.853  27.414  1.00  0.00     0.020 A 
ATOM     52  C   UNL A   1      52.488  25.662  26.092  1.00  0.00     0.054 A 
BRANCH  52  53
ATOM     53  S   UNL A   1      54.163  25.052  25.720  1.00  0.00     0.124 S 
ATOM     54  O   UNL A   1      53.976  23.605  25.745  1.00  0.00    -0.237 OA
ATOM     55  O   UNL A   1      54.428  25.632  24.405  1.00  0.00    -0.237 OA
ATOM     56  O   UNL A   1      54.973  25.598  26.806  1.00  0.00    -0.744 OA
ENDBRANCH  52  53
ENDBRANCH  24  47
BRANCH  36  57
ATOM     57  C   UNL A   1      46.837  32.784  27.781  1.00  0.00    -0.014 A 
ATOM     58  C   UNL A   1      47.496  33.377  28.873  1.00  0.00     0.010 A 
ATOM     59  C   UNL A   1      46.651  33.524  26.601  1.00  0.00     0.010 A 
ATOM     60  C   UNL A   1      47.944  34.696  28.791  1.00  0.00     0.020 A 
ATOM     61  C   UNL A   1      47.121  34.834  26.506  1.00  0.00     0.020 A 
ATOM     62  C   UNL A   1      47.755  35.416  27.607  1.00  0.00     0.054 A 
BRANCH  62  63
ATOM     63  S   UNL A   1      48.393  37.109  27.505  1.00  0.00     0.124 S 
ATOM     64  O   UNL A   1      49.434  37.103  28.527  1.00  0.00    -0.237 OA
ATOM     65  O   UNL A   1      48.862  37.195  26.125  1.00  0.00    -0.237 OA
ATOM     66  O   UNL A   1      47.222  37.935  27.811  1.00  0.00    -0.744 OA
ENDBRANCH  62  63
ENDBRANCH  36  57
ENDBRANCH  10  11
ENDBRANCH   3   5
ENDBRANCH   2   3
ENDBRANCH   1   2
BRANCH   1  67
ATOM     67  C   UNL A   1      37.921  19.198  25.528  1.00  0.00     0.274 C 
BRANCH  67  68
ATOM     68  O   UNL A   1      36.946  19.495  24.531  1.00  0.00    -0.462 OA
BRANCH  68  69
ATOM     69  C   UNL A   1      35.782  20.053  24.888  1.00  0.00     0.310 C 
ATOM     70  O   UNL A   1      35.764  20.899  25.780  1.00  0.00    -0.252 OA
BRANCH  69  71
ATOM     71  C   UNL A   1      34.521  19.306  24.448  1.00  0.00     0.115 C 
ATOM     72  C   UNL A   1      34.792  17.722  24.500  1.00  0.00     0.004 C 
ATOM     73  C   UNL A   1      32.974  19.679  24.637  1.00  0.00     0.096 C 
ATOM     74  C   UNL A   1      34.014  16.879  25.520  1.00  0.00     0.005 C 
ATOM     75  C   UNL A   1      34.316  17.172  23.152  1.00  0.00     0.005 C 
ATOM     76  C   UNL A   1      32.266  18.194  24.301  1.00  0.00     0.002 C 
ATOM     77  C   UNL A   1      32.530  16.993  25.241  1.00  0.00     0.005 C 
ATOM     78  C   UNL A   1      32.856  17.615  22.959  1.00  0.00     0.005 C 
BRANCH  73  79
ATOM     79  C   UNL A   1      32.511  21.288  25.372  1.00  0.00     0.228 C 
ATOM     80  O   UNL A   1      31.301  21.410  25.636  1.00  0.00    -0.274 OA
ATOM     81  N   UNL A   1      33.340  22.365  25.857  1.00  0.00    -0.326 N 
ATOM     82  H   UNL A   1      33.651  22.246  26.783  1.00  0.00     0.169 HD
BRANCH  81  83
ATOM     83  C   UNL A   1      33.813  23.632  25.206  1.00  0.00     0.041 A 
ATOM     84  C   UNL A   1      33.379  23.915  23.894  1.00  0.00     0.027 A 
ATOM     85  C   UNL A   1      34.386  24.725  25.855  1.00  0.00     0.027 A 
ATOM     86  C   UNL A   1      33.093  25.262  23.501  1.00  0.00     0.016 A 
ATOM     87  C   UNL A   1      34.112  26.082  25.455  1.00  0.00     0.016 A 
ATOM     88  C   UNL A   1      33.288  26.357  24.369  1.00  0.00     0.040 A 
BRANCH  88  89
ATOM     89  C   UNL A   1      32.436  27.610  24.119  1.00  0.00     0.253 C 
ATOM     90  O   UNL A   1      33.063  28.650  23.889  1.00  0.00    -0.269 OA
ATOM     91  N   UNL A   1      31.039  27.625  23.926  1.00  0.00    -0.339 N 
ATOM     92  C   UNL A   1      29.978  26.799  24.470  1.00  0.00     0.120 C 
ATOM     93  C   UNL A   1      30.445  28.755  23.198  1.00  0.00     0.120 C 
ATOM     94  C   UNL A   1      28.747  27.074  23.609  1.00  0.00     0.023 C 
ATOM     95  C   UNL A   1      28.971  28.429  22.964  1.00  0.00     0.023 C 
ENDBRANCH  88  89
ENDBRANCH  81  83
ENDBRANCH  73  79
ENDBRANCH  69  71
ENDBRANCH  68  69
ENDBRANCH  67  68
ENDBRANCH   1  67
TORSDOF 17
ENDMDL
MODEL 3
REMARK VINA RESULT:     -12.5      3.015      9.727
REMARK SMILES O=C(OCCOC(=O)[C@H]1[C@H]2CC[C@H](CC2)[C@H]1C(=O)Nc1ccc(C(=O)N2CCCC2)cc1)c1ccc(-c2c3nc(c(-c4ccc(S(=O)(=O)[O-])cc4)c4ccc([nH]4)c(-c4ccc(S(=O)(=O)[O-])cc4)c4nc(c(-c5ccc(S(=O)(=O)[O-])cc5)c5ccc2[nH]5)C=C4)C=C3)cc1
REMARK SMILES IDX 4 1 3 2 2 3 1 4 33 5 34 6 92 7 35 8 91 9 36 10 37 11 38 12
REMARK SMILES IDX 85 13 39 14 90 15 84 16 86 17 40 18 89 19 83 20 82 21 41 23
REMARK SMILES IDX 71 24 52 25 70 26 53 27 56 28 69 29 87 30 54 31 55 32 68 34
REMARK SMILES IDX 88 35 57 36 42 37 43 38 51 39 44 40 50 41 45 42 46 43 47 44
REMARK SMILES IDX 48 45 49 46 72 47 73 48 81 49 74 50 80 51 75 52 76 53 77 54
REMARK SMILES IDX 78 55 79 56 58 57 59 58 67 59 60 60 66 61 61 62 62 63 63 64
REMARK SMILES IDX 64 65 65 66 5 67 6 68 7 69 8 70 9 71 10 72 16 73 15 74 11 75
REMARK SMILES IDX 13 76 14 77 12 78 17 79 18 80 19 81 20 83 21 84 32 85 22 86
REMARK SMILES IDX 31 87 23 88 24 89 25 90 26 91 27 92 30 93 28 94 29 95
REMARK H PARENT 86 22 56 33 19 82
REMARK Flexibility Score: inf
ROOT
ATOM      1  C   UNL A   1      39.356  19.482  25.378  1.00  0.00     0.275 C 
ENDROOT
BRANCH   1   2
ATOM      2  O   UNL A   1      40.426  20.191  26.066  1.00  0.00    -0.458 OA
BRANCH   2   3
ATOM      3  C   UNL A   1      40.648  20.721  27.303  1.00  0.00     0.338 C 
ATOM      4  O   UNL A   1      40.797  19.951  28.248  1.00  0.00    -0.246 OA
BRANCH   3   5
ATOM      5  C   UNL A   1      40.519  22.181  27.634  1.00  0.00     0.060 A 
ATOM      6  C   UNL A   1      41.539  22.765  28.292  1.00  0.00     0.016 A 
ATOM      7  C   UNL A   1      39.657  23.114  27.026  1.00  0.00     0.016 A 
ATOM      8  C   UNL A   1      41.680  24.168  28.344  1.00  0.00     0.010 A 
ATOM      9  C   UNL A   1      39.834  24.571  27.146  1.00  0.00     0.010 A 
ATOM     10  C   UNL A   1      40.888  25.165  27.865  1.00  0.00    -0.014 A 
BRANCH  10  11
ATOM     11  C   UNL A   1      41.376  26.656  28.171  1.00  0.00     0.031 A 
ATOM     12  C   UNL A   1      42.785  27.001  27.775  1.00  0.00     0.074 A 
ATOM     13  C   UNL A   1      40.670  27.803  28.542  1.00  0.00     0.049 A 
ATOM     14  N   UNL A   1      43.360  28.180  27.791  1.00  0.00    -0.248 NA
ATOM     15  C   UNL A   1      43.591  25.941  27.171  1.00  0.00     0.031 C 
ATOM     16  C   UNL A   1      39.235  27.996  28.648  1.00  0.00     0.029 A 
ATOM     17  N   UNL A   1      41.073  29.100  28.918  1.00  0.00    -0.354 N 
ATOM     18  C   UNL A   1      44.549  28.015  27.112  1.00  0.00     0.074 A 
ATOM     19  C   UNL A   1      44.656  26.613  26.780  1.00  0.00     0.031 C 
ATOM     20  C   UNL A   1      38.872  29.162  29.191  1.00  0.00     0.029 A 
ATOM     21  C   UNL A   1      40.061  29.919  29.438  1.00  0.00     0.049 A 
ATOM     22  H   UNL A   1      42.002  29.410  28.822  1.00  0.00     0.167 HD
ATOM     23  C   UNL A   1      45.466  28.934  26.747  1.00  0.00     0.031 A 
ATOM     24  C   UNL A   1      39.987  31.136  30.029  1.00  0.00     0.031 A 
ATOM     25  C   UNL A   1      45.515  30.305  27.152  1.00  0.00     0.049 A 
ATOM     26  C   UNL A   1      41.201  31.993  30.033  1.00  0.00     0.074 A 
ATOM     27  C   UNL A   1      46.531  31.215  26.919  1.00  0.00     0.029 A 
ATOM     28  N   UNL A   1      44.572  30.951  27.928  1.00  0.00    -0.354 N 
ATOM     29  N   UNL A   1      42.319  31.768  29.401  1.00  0.00    -0.248 NA
ATOM     30  C   UNL A   1      41.148  33.270  30.760  1.00  0.00     0.031 C 
ATOM     31  C   UNL A   1      46.263  32.371  27.659  1.00  0.00     0.029 A 
ATOM     32  C   UNL A   1      45.036  32.212  28.277  1.00  0.00     0.049 A 
ATOM     33  H   UNL A   1      43.702  30.574  28.193  1.00  0.00     0.167 HD
ATOM     34  C   UNL A   1      43.097  32.889  29.622  1.00  0.00     0.074 A 
ATOM     35  C   UNL A   1      42.326  33.795  30.446  1.00  0.00     0.031 C 
ATOM     36  C   UNL A   1      44.337  33.125  29.141  1.00  0.00     0.031 A 
BRANCH  23  37
ATOM     37  C   UNL A   1      46.589  28.380  25.937  1.00  0.00    -0.014 A 
ATOM     38  C   UNL A   1      47.855  28.165  26.511  1.00  0.00     0.010 A 
ATOM     39  C   UNL A   1      46.393  28.208  24.558  1.00  0.00     0.010 A 
ATOM     40  C   UNL A   1      48.927  27.810  25.696  1.00  0.00     0.020 A 
ATOM     41  C   UNL A   1      47.459  27.840  23.748  1.00  0.00     0.020 A 
ATOM     42  C   UNL A   1      48.721  27.654  24.321  1.00  0.00     0.054 A 
BRANCH  42  43
ATOM     43  S   UNL A   1      50.127  27.193  23.281  1.00  0.00     0.124 S 
ATOM     44  O   UNL A   1      50.639  28.495  22.864  1.00  0.00    -0.237 OA
ATOM     45  O   UNL A   1      50.974  26.449  24.210  1.00  0.00    -0.237 OA
ATOM     46  O   UNL A   1      49.522  26.394  22.217  1.00  0.00    -0.744 OA
ENDBRANCH  42  43
ENDBRANCH  23  37
BRANCH  24  47
ATOM     47  C   UNL A   1      38.732  31.634  30.707  1.00  0.00    -0.014 A 
ATOM     48  C   UNL A   1      37.767  32.417  30.040  1.00  0.00     0.010 A 
ATOM     49  C   UNL A   1      38.547  31.391  32.084  1.00  0.00     0.010 A 
ATOM     50  C   UNL A   1      36.667  32.954  30.734  1.00  0.00     0.020 A 
ATOM     51  C   UNL A   1      37.444  31.913  32.777  1.00  0.00     0.020 A 
ATOM     52  C   UNL A   1      36.514  32.702  32.101  1.00  0.00     0.054 A 
BRANCH  52  53
ATOM     53  S   UNL A   1      35.069  33.376  32.980  1.00  0.00     0.124 S 
ATOM     54  O   UNL A   1      35.363  33.031  34.366  1.00  0.00    -0.237 OA
ATOM     55  O   UNL A   1      35.135  34.799  32.655  1.00  0.00    -0.237 OA
ATOM     56  O   UNL A   1      33.943  32.663  32.382  1.00  0.00    -0.744 OA
ENDBRANCH  52  53
ENDBRANCH  24  47
BRANCH  36  57
ATOM     57  C   UNL A   1      44.983  34.425  29.507  1.00  0.00    -0.014 A 
ATOM     58  C   UNL A   1      45.896  34.503  30.573  1.00  0.00     0.010 A 
ATOM     59  C   UNL A   1      44.705  35.576  28.750  1.00  0.00     0.010 A 
ATOM     60  C   UNL A   1      46.507  35.718  30.888  1.00  0.00     0.020 A 
ATOM     61  C   UNL A   1      45.333  36.786  29.045  1.00  0.00     0.020 A 
ATOM     62  C   UNL A   1      46.222  36.852  30.121  1.00  0.00     0.054 A 
BRANCH  62  63
ATOM     63  S   UNL A   1      47.067  38.406  30.515  1.00  0.00     0.124 S 
ATOM     64  O   UNL A   1      45.947  39.324  30.690  1.00  0.00    -0.237 OA
ATOM     65  O   UNL A   1      47.808  38.072  31.727  1.00  0.00    -0.237 OA
ATOM     66  O   UNL A   1      47.898  38.653  29.333  1.00  0.00    -0.744 OA
ENDBRANCH  62  63
ENDBRANCH  36  57
ENDBRANCH  10  11
ENDBRANCH   3   5
ENDBRANCH   2   3
ENDBRANCH   1   2
BRANCH   1  67
ATOM     67  C   UNL A   1      37.975  20.159  25.299  1.00  0.00     0.274 C 
BRANCH  67  68
ATOM     68  O   UNL A   1      36.814  19.474  24.836  1.00  0.00    -0.462 OA
BRANCH  68  69
ATOM     69  C   UNL A   1      35.612  20.055  24.951  1.00  0.00     0.310 C 
ATOM     70  O   UNL A   1      35.465  20.994  25.731  1.00  0.00    -0.252 OA
BRANCH  69  71
ATOM     71  C   UNL A   1      34.427  19.251  24.411  1.00  0.00     0.115 C 
ATOM     72  C   UNL A   1      34.677  17.685  24.679  1.00  0.00     0.004 C 
ATOM     73  C   UNL A   1      32.872  19.626  24.322  1.00  0.00     0.096 C 
ATOM     74  C   UNL A   1      33.749  16.953  25.658  1.00  0.00     0.005 C 
ATOM     75  C   UNL A   1      34.407  16.983  23.345  1.00  0.00     0.005 C 
ATOM     76  C   UNL A   1      32.213  18.106  24.051  1.00  0.00     0.002 C 
ATOM     77  C   UNL A   1      32.325  17.019  25.147  1.00  0.00     0.005 C 
ATOM     78  C   UNL A   1      32.996  17.387  22.885  1.00  0.00     0.005 C 
BRANCH  73  79
ATOM     79  C   UNL A   1      32.313  21.301  24.795  1.00  0.00     0.228 C 
ATOM     80  O   UNL A   1      31.416  21.327  25.658  1.00  0.00    -0.274 OA
ATOM     81  N   UNL A   1      32.860  22.595  24.464  1.00  0.00    -0.326 N 
ATOM     82  H   UNL A   1      33.597  22.881  25.050  1.00  0.00     0.169 HD
BRANCH  81  83
ATOM     83  C   UNL A   1      32.511  23.582  23.388  1.00  0.00     0.041 A 
ATOM     84  C   UNL A   1      31.154  23.914  23.197  1.00  0.00     0.027 A 
ATOM     85  C   UNL A   1      33.396  24.454  22.754  1.00  0.00     0.027 A 
ATOM     86  C   UNL A   1      30.777  25.250  22.847  1.00  0.00     0.016 A 
ATOM     87  C   UNL A   1      33.017  25.795  22.388  1.00  0.00     0.016 A 
ATOM     88  C   UNL A   1      31.730  26.265  22.619  1.00  0.00     0.040 A 
BRANCH  88  89
ATOM     89  C   UNL A   1      31.277  27.715  22.845  1.00  0.00     0.253 C 
ATOM     90  O   UNL A   1      30.321  28.094  22.157  1.00  0.00    -0.269 OA
ATOM     91  N   UNL A   1      31.710  28.555  23.892  1.00  0.00    -0.339 N 
ATOM     92  C   UNL A   1      32.980  28.660  24.585  1.00  0.00     0.120 C 
ATOM     93  C   UNL A   1      30.847  29.674  24.295  1.00  0.00     0.120 C 
ATOM     94  C   UNL A   1      32.708  29.490  25.838  1.00  0.00     0.023 C 
ATOM     95  C   UNL A   1      31.451  30.291  25.555  1.00  0.00     0.023 C 
ENDBRANCH  88  89
ENDBRANCH  81  83
ENDBRANCH  73  79
ENDBRANCH  69  71
ENDBRANCH  68  69
ENDBRANCH  67  68
ENDBRANCH   1  67
TORSDOF 17
ENDMDL
