MODEL 1
REMARK VINA RESULT:     -11.4      0.000      0.000
REMARK SMILES O=C(OCCOC(=O)c1cccc(S(=O)(=O)Nc2ccccc2N2CCOCC2)c1)c1ccc(-c2c3nc(c(-c4ccc(S(=O)(=O)[O-])cc4)c4ccc([nH]4)c(-c4ccc(S(=O)(=O)[O-])cc4)c4nc(c(-c5ccc(S(=O)(=O)[O-])cc5)c5ccc2[nH]5)C=C4)C=C3)cc1
REMARK SMILES IDX 5 1 4 2 3 3 2 4 1 5 31 6 32 7 90 8 33 9 89 10 34 11 35 12
REMARK SMILES IDX 36 13 83 14 37 15 88 16 82 17 84 18 38 19 87 20 81 21 80 22
REMARK SMILES IDX 39 24 69 25 50 26 68 27 51 28 54 29 67 30 85 31 52 32 53 33
REMARK SMILES IDX 66 35 86 36 55 37 40 38 41 39 49 40 42 41 48 42 43 43 44 44
REMARK SMILES IDX 45 45 46 46 47 47 70 48 71 49 79 50 72 51 78 52 73 53 74 54
REMARK SMILES IDX 75 55 76 56 77 57 56 58 57 59 65 60 58 61 64 62 59 63 60 64
REMARK SMILES IDX 61 65 62 66 63 67 6 68 7 69 8 70 9 71 10 72 30 73 11 74
REMARK SMILES IDX 13 75 12 76 14 77 15 78 16 79 17 80 18 82 19 83 23 84 20 85
REMARK SMILES IDX 22 86 21 87 24 88 25 89 29 90 26 91 28 92 27 93
REMARK H PARENT 84 23 54 34 17 81
REMARK Flexibility Score: inf
ROOT
ATOM      1  C   UNL A   1      36.106  23.151  23.556  1.00  0.00     0.275 C 
ENDROOT
BRANCH   1   2
ATOM      2  C   UNL A   1      36.861  22.108  24.377  1.00  0.00     0.275 C 
BRANCH   2   3
ATOM      3  O   UNL A   1      37.341  22.562  25.658  1.00  0.00    -0.458 OA
BRANCH   3   4
ATOM      4  C   UNL A   1      38.612  22.678  26.112  1.00  0.00     0.338 C 
ATOM      5  O   UNL A   1      39.300  21.669  26.257  1.00  0.00    -0.246 OA
BRANCH   4   6
ATOM      6  C   UNL A   1      39.184  23.978  26.564  1.00  0.00     0.060 A 
ATOM      7  C   UNL A   1      39.933  24.836  25.758  1.00  0.00     0.016 A 
ATOM      8  C   UNL A   1      39.004  24.316  27.916  1.00  0.00     0.016 A 
ATOM      9  C   UNL A   1      40.413  26.051  26.264  1.00  0.00     0.010 A 
ATOM     10  C   UNL A   1      39.482  25.527  28.425  1.00  0.00     0.010 A 
ATOM     11  C   UNL A   1      40.197  26.403  27.601  1.00  0.00    -0.014 A 
BRANCH  11  12
ATOM     12  C   UNL A   1      40.861  27.598  28.174  1.00  0.00     0.031 A 
ATOM     13  C   UNL A   1      42.349  27.592  28.348  1.00  0.00     0.074 A 
ATOM     14  C   UNL A   1      40.179  28.713  28.492  1.00  0.00     0.049 A 
ATOM     15  N   UNL A   1      43.124  28.572  28.732  1.00  0.00    -0.248 NA
ATOM     16  C   UNL A   1      43.060  26.354  27.992  1.00  0.00     0.031 C 
ATOM     17  C   UNL A   1      38.751  28.919  28.294  1.00  0.00     0.029 A 
ATOM     18  N   UNL A   1      40.608  29.878  29.088  1.00  0.00    -0.354 N 
ATOM     19  C   UNL A   1      44.415  28.114  28.542  1.00  0.00     0.074 A 
ATOM     20  C   UNL A   1      44.323  26.726  28.140  1.00  0.00     0.031 C 
ATOM     21  C   UNL A   1      38.411  30.090  28.859  1.00  0.00     0.029 A 
ATOM     22  C   UNL A   1      39.577  30.697  29.469  1.00  0.00     0.049 A 
ATOM     23  H   UNL A   1      41.557  30.099  29.226  1.00  0.00     0.167 HD
ATOM     24  C   UNL A   1      45.569  28.816  28.607  1.00  0.00     0.031 A 
ATOM     25  C   UNL A   1      39.543  31.798  30.243  1.00  0.00     0.031 A 
ATOM     26  C   UNL A   1      45.673  30.172  29.070  1.00  0.00     0.049 A 
ATOM     27  C   UNL A   1      40.838  32.440  30.619  1.00  0.00     0.074 A 
ATOM     28  C   UNL A   1      46.797  30.973  29.154  1.00  0.00     0.029 A 
ATOM     29  N   UNL A   1      44.613  30.917  29.566  1.00  0.00    -0.354 N 
ATOM     30  N   UNL A   1      42.052  32.040  30.337  1.00  0.00    -0.248 NA
ATOM     31  C   UNL A   1      40.763  33.725  31.323  1.00  0.00     0.031 C 
ATOM     32  C   UNL A   1      46.424  32.190  29.742  1.00  0.00     0.029 A 
ATOM     33  C   UNL A   1      45.062  32.157  29.990  1.00  0.00     0.049 A 
ATOM     34  H   UNL A   1      43.679  30.610  29.610  1.00  0.00     0.167 HD
ATOM     35  C   UNL A   1      42.887  33.068  30.746  1.00  0.00     0.074 A 
ATOM     36  C   UNL A   1      42.040  34.087  31.335  1.00  0.00     0.031 C 
ATOM     37  C   UNL A   1      44.227  33.170  30.585  1.00  0.00     0.031 A 
BRANCH  24  38
ATOM     38  C   UNL A   1      46.789  28.113  28.095  1.00  0.00    -0.014 A 
ATOM     39  C   UNL A   1      47.602  27.396  28.993  1.00  0.00     0.010 A 
ATOM     40  C   UNL A   1      47.151  28.191  26.742  1.00  0.00     0.010 A 
ATOM     41  C   UNL A   1      48.784  26.802  28.555  1.00  0.00     0.020 A 
ATOM     42  C   UNL A   1      48.328  27.584  26.297  1.00  0.00     0.020 A 
ATOM     43  C   UNL A   1      49.146  26.909  27.210  1.00  0.00     0.054 A 
BRANCH  43  44
ATOM     44  S   UNL A   1      50.695  26.142  26.668  1.00  0.00     0.124 S 
ATOM     45  O   UNL A   1      50.572  24.795  27.218  1.00  0.00    -0.237 OA
ATOM     46  O   UNL A   1      50.608  26.234  25.213  1.00  0.00    -0.237 OA
ATOM     47  O   UNL A   1      51.726  26.975  27.282  1.00  0.00    -0.744 OA
ENDBRANCH  43  44
ENDBRANCH  24  38
BRANCH  25  48
ATOM     48  C   UNL A   1      38.244  32.363  30.699  1.00  0.00    -0.014 A 
ATOM     49  C   UNL A   1      37.528  33.283  29.917  1.00  0.00     0.010 A 
ATOM     50  C   UNL A   1      37.723  31.977  31.950  1.00  0.00     0.010 A 
ATOM     51  C   UNL A   1      36.325  33.822  30.386  1.00  0.00     0.020 A 
ATOM     52  C   UNL A   1      36.511  32.500  32.414  1.00  0.00     0.020 A 
ATOM     53  C   UNL A   1      35.826  33.432  31.633  1.00  0.00     0.054 A 
BRANCH  53  54
ATOM     54  S   UNL A   1      34.248  34.127  32.202  1.00  0.00     0.124 S 
ATOM     55  O   UNL A   1      34.689  35.243  33.031  1.00  0.00    -0.237 OA
ATOM     56  O   UNL A   1      33.596  34.490  30.946  1.00  0.00    -0.237 OA
ATOM     57  O   UNL A   1      33.623  33.018  32.918  1.00  0.00    -0.744 OA
ENDBRANCH  53  54
ENDBRANCH  25  48
BRANCH  37  58
ATOM     58  C   UNL A   1      44.852  34.472  30.989  1.00  0.00    -0.014 A 
ATOM     59  C   UNL A   1      45.435  34.644  32.255  1.00  0.00     0.010 A 
ATOM     60  C   UNL A   1      44.836  35.547  30.081  1.00  0.00     0.010 A 
ATOM     61  C   UNL A   1      45.958  35.886  32.623  1.00  0.00     0.020 A 
ATOM     62  C   UNL A   1      45.379  36.782  30.437  1.00  0.00     0.020 A 
ATOM     63  C   UNL A   1      45.919  36.949  31.715  1.00  0.00     0.054 A 
BRANCH  63  64
ATOM     64  S   UNL A   1      46.619  38.549  32.200  1.00  0.00     0.124 S 
ATOM     65  O   UNL A   1      46.156  38.676  33.579  1.00  0.00    -0.237 OA
ATOM     66  O   UNL A   1      48.056  38.340  32.036  1.00  0.00    -0.237 OA
ATOM     67  O   UNL A   1      46.022  39.486  31.251  1.00  0.00    -0.744 OA
ENDBRANCH  63  64
ENDBRANCH  37  58
ENDBRANCH  11  12
ENDBRANCH   4   6
ENDBRANCH   3   4
ENDBRANCH   2   3
ENDBRANCH   1   2
BRANCH   1  68
ATOM     68  O   UNL A   1      34.696  22.905  23.507  1.00  0.00    -0.458 OA
BRANCH  68  69
ATOM     69  C   UNL A   1      33.976  23.896  22.934  1.00  0.00     0.338 C 
ATOM     70  O   UNL A   1      33.561  23.910  21.774  1.00  0.00    -0.246 OA
BRANCH  69  71
ATOM     71  C   UNL A   1      33.705  24.999  23.877  1.00  0.00     0.061 A 
ATOM     72  C   UNL A   1      33.271  24.649  25.164  1.00  0.00     0.016 A 
ATOM     73  C   UNL A   1      33.747  26.343  23.476  1.00  0.00     0.038 A 
ATOM     74  C   UNL A   1      32.866  25.637  26.051  1.00  0.00     0.002 A 
ATOM     75  C   UNL A   1      33.183  27.309  24.304  1.00  0.00     0.088 A 
ATOM     76  C   UNL A   1      32.794  26.957  25.611  1.00  0.00     0.022 A 
BRANCH  75  77
ATOM     77  S   UNL A   1      32.722  28.959  23.801  1.00  0.00     0.261 S 
ATOM     78  O   UNL A   1      32.465  29.684  25.032  1.00  0.00    -0.201 OA
ATOM     79  O   UNL A   1      33.816  29.402  22.967  1.00  0.00    -0.201 OA
BRANCH  77  80
ATOM     80  N   UNL A   1      31.334  29.085  22.849  1.00  0.00    -0.278 N 
ATOM     81  H   UNL A   1      31.357  29.725  22.102  1.00  0.00     0.180 HD
BRANCH  80  82
ATOM     82  C   UNL A   1      30.125  28.339  23.038  1.00  0.00     0.072 A 
ATOM     83  C   UNL A   1      30.247  26.962  23.265  1.00  0.00     0.029 A 
ATOM     84  C   UNL A   1      28.849  28.944  23.046  1.00  0.00     0.061 A 
ATOM     85  C   UNL A   1      29.156  26.207  23.684  1.00  0.00     0.002 A 
ATOM     86  C   UNL A   1      27.764  28.169  23.490  1.00  0.00     0.028 A 
ATOM     87  C   UNL A   1      27.921  26.821  23.832  1.00  0.00     0.002 A 
BRANCH  84  88
ATOM     88  N   UNL A   1      28.693  30.251  22.612  1.00  0.00    -0.365 N 
ATOM     89  C   UNL A   1      28.029  30.386  21.294  1.00  0.00     0.145 C 
ATOM     90  C   UNL A   1      28.435  31.370  23.516  1.00  0.00     0.145 C 
ATOM     91  C   UNL A   1      28.316  31.765  20.679  1.00  0.00     0.181 C 
ATOM     92  C   UNL A   1      28.839  32.664  22.797  1.00  0.00     0.181 C 
ATOM     93  O   UNL A   1      28.054  32.842  21.605  1.00  0.00    -0.378 OA
ENDBRANCH  84  88
ENDBRANCH  80  82
ENDBRANCH  77  80
ENDBRANCH  75  77
ENDBRANCH  69  71
ENDBRANCH  68  69
ENDBRANCH   1  68
TORSDOF 18
ENDMDL
MODEL 2
REMARK VINA RESULT:     -11.3      5.111      6.357
REMARK SMILES O=C(OCCOC(=O)c1cccc(S(=O)(=O)Nc2ccccc2N2CCOCC2)c1)c1ccc(-c2c3nc(c(-c4ccc(S(=O)(=O)[O-])cc4)c4ccc([nH]4)c(-c4ccc(S(=O)(=O)[O-])cc4)c4nc(c(-c5ccc(S(=O)(=O)[O-])cc5)c5ccc2[nH]5)C=C4)C=C3)cc1
REMARK SMILES IDX 5 1 4 2 3 3 2 4 1 5 31 6 32 7 90 8 33 9 89 10 34 11 35 12
REMARK SMILES IDX 36 13 83 14 37 15 88 16 82 17 84 18 38 19 87 20 81 21 80 22
REMARK SMILES IDX 39 24 69 25 50 26 68 27 51 28 54 29 67 30 85 31 52 32 53 33
REMARK SMILES IDX 66 35 86 36 55 37 40 38 41 39 49 40 42 41 48 42 43 43 44 44
REMARK SMILES IDX 45 45 46 46 47 47 70 48 71 49 79 50 72 51 78 52 73 53 74 54
REMARK SMILES IDX 75 55 76 56 77 57 56 58 57 59 65 60 58 61 64 62 59 63 60 64
REMARK SMILES IDX 61 65 62 66 63 67 6 68 7 69 8 70 9 71 10 72 30 73 11 74
REMARK SMILES IDX 13 75 12 76 14 77 15 78 16 79 17 80 18 82 19 83 23 84 20 85
REMARK SMILES IDX 22 86 21 87 24 88 25 89 29 90 26 91 28 92 27 93
REMARK H PARENT 84 23 54 34 17 81
REMARK Flexibility Score: inf
ROOT
ATOM      1  C   UNL A   1      38.595  22.269  26.322  1.00  0.00     0.275 C 
ENDROOT
BRANCH   1   2
ATOM      2  C   UNL A   1      39.724  23.295  26.381  1.00  0.00     0.275 C 
BRANCH   2   3
ATOM      3  O   UNL A   1      39.403  24.526  27.060  1.00  0.00    -0.458 OA
BRANCH   3   4
ATOM      4  C   UNL A   1      40.008  25.736  26.987  1.00  0.00     0.338 C 
ATOM      5  O   UNL A   1      40.665  26.027  25.989  1.00  0.00    -0.246 OA
BRANCH   4   6
ATOM      6  C   UNL A   1      40.013  26.697  28.126  1.00  0.00     0.060 A 
ATOM      7  C   UNL A   1      40.889  27.777  28.246  1.00  0.00     0.016 A 
ATOM      8  C   UNL A   1      39.112  26.445  29.174  1.00  0.00     0.016 A 
ATOM      9  C   UNL A   1      40.806  28.643  29.343  1.00  0.00     0.010 A 
ATOM     10  C   UNL A   1      39.026  27.307  30.272  1.00  0.00     0.010 A 
ATOM     11  C   UNL A   1      39.879  28.412  30.367  1.00  0.00    -0.014 A 
BRANCH  11  12
ATOM     12  C   UNL A   1      39.921  29.223  31.607  1.00  0.00     0.031 A 
ATOM     13  C   UNL A   1      40.857  28.826  32.706  1.00  0.00     0.074 A 
ATOM     14  C   UNL A   1      39.185  30.339  31.757  1.00  0.00     0.049 A 
ATOM     15  N   UNL A   1      41.115  29.462  33.819  1.00  0.00    -0.248 NA
ATOM     16  C   UNL A   1      41.643  27.599  32.506  1.00  0.00     0.031 C 
ATOM     17  C   UNL A   1      38.302  30.915  30.752  1.00  0.00     0.029 A 
ATOM     18  N   UNL A   1      39.043  31.170  32.846  1.00  0.00    -0.354 N 
ATOM     19  C   UNL A   1      42.179  28.785  34.389  1.00  0.00     0.074 A 
ATOM     20  C   UNL A   1      42.429  27.615  33.573  1.00  0.00     0.031 C 
ATOM     21  C   UNL A   1      37.635  31.938  31.313  1.00  0.00     0.029 A 
ATOM     22  C   UNL A   1      38.022  32.074  32.702  1.00  0.00     0.049 A 
ATOM     23  H   UNL A   1      39.617  31.121  33.645  1.00  0.00     0.167 HD
ATOM     24  C   UNL A   1      42.938  29.158  35.444  1.00  0.00     0.031 A 
ATOM     25  C   UNL A   1      37.428  32.905  33.579  1.00  0.00     0.031 A 
ATOM     26  C   UNL A   1      42.654  30.278  36.298  1.00  0.00     0.049 A 
ATOM     27  C   UNL A   1      38.069  33.106  34.913  1.00  0.00     0.074 A 
ATOM     28  C   UNL A   1      43.376  30.745  37.380  1.00  0.00     0.029 A 
ATOM     29  N   UNL A   1      41.533  31.088  36.185  1.00  0.00    -0.354 N 
ATOM     30  N   UNL A   1      39.141  32.525  35.391  1.00  0.00    -0.248 NA
ATOM     31  C   UNL A   1      37.492  34.137  35.781  1.00  0.00     0.031 C 
ATOM     32  C   UNL A   1      42.668  31.813  37.950  1.00  0.00     0.029 A 
ATOM     33  C   UNL A   1      41.525  32.031  37.199  1.00  0.00     0.049 A 
ATOM     34  H   UNL A   1      40.845  31.005  35.486  1.00  0.00     0.167 HD
ATOM     35  C   UNL A   1      39.424  33.184  36.576  1.00  0.00     0.074 A 
ATOM     36  C   UNL A   1      38.382  34.176  36.764  1.00  0.00     0.031 C 
ATOM     37  C   UNL A   1      40.488  33.013  37.396  1.00  0.00     0.031 A 
BRANCH  24  38
ATOM     38  C   UNL A   1      44.182  28.355  35.668  1.00  0.00    -0.014 A 
ATOM     39  C   UNL A   1      44.148  27.255  36.546  1.00  0.00     0.010 A 
ATOM     40  C   UNL A   1      45.388  28.706  35.043  1.00  0.00     0.010 A 
ATOM     41  C   UNL A   1      45.311  26.542  36.831  1.00  0.00     0.020 A 
ATOM     42  C   UNL A   1      46.553  27.984  35.315  1.00  0.00     0.020 A 
ATOM     43  C   UNL A   1      46.511  26.919  36.222  1.00  0.00     0.054 A 
BRANCH  43  44
ATOM     44  S   UNL A   1      48.013  25.987  36.621  1.00  0.00     0.124 S 
ATOM     45  O   UNL A   1      48.277  26.417  37.991  1.00  0.00    -0.237 OA
ATOM     46  O   UNL A   1      47.579  24.600  36.473  1.00  0.00    -0.237 OA
ATOM     47  O   UNL A   1      48.978  26.445  35.626  1.00  0.00    -0.744 OA
ENDBRANCH  43  44
ENDBRANCH  24  38
BRANCH  25  48
ATOM     48  C   UNL A   1      36.169  33.613  33.218  1.00  0.00    -0.014 A 
ATOM     49  C   UNL A   1      34.945  32.932  33.124  1.00  0.00     0.010 A 
ATOM     50  C   UNL A   1      36.205  34.996  32.953  1.00  0.00     0.010 A 
ATOM     51  C   UNL A   1      33.783  33.618  32.752  1.00  0.00     0.020 A 
ATOM     52  C   UNL A   1      35.043  35.689  32.599  1.00  0.00     0.020 A 
ATOM     53  C   UNL A   1      33.839  34.991  32.487  1.00  0.00     0.054 A 
BRANCH  53  54
ATOM     54  S   UNL A   1      32.310  35.858  32.034  1.00  0.00     0.124 S 
ATOM     55  O   UNL A   1      32.252  35.639  30.593  1.00  0.00    -0.237 OA
ATOM     56  O   UNL A   1      31.305  35.151  32.824  1.00  0.00    -0.237 OA
ATOM     57  O   UNL A   1      32.560  37.235  32.453  1.00  0.00    -0.744 OA
ENDBRANCH  53  54
ENDBRANCH  25  48
BRANCH  37  58
ATOM     58  C   UNL A   1      40.618  33.979  38.535  1.00  0.00    -0.014 A 
ATOM     59  C   UNL A   1      41.316  35.189  38.393  1.00  0.00     0.010 A 
ATOM     60  C   UNL A   1      40.039  33.654  39.775  1.00  0.00     0.010 A 
ATOM     61  C   UNL A   1      41.469  36.043  39.488  1.00  0.00     0.020 A 
ATOM     62  C   UNL A   1      40.169  34.515  40.865  1.00  0.00     0.020 A 
ATOM     63  C   UNL A   1      40.901  35.696  40.719  1.00  0.00     0.054 A 
BRANCH  63  64
ATOM     64  S   UNL A   1      41.091  36.823  42.127  1.00  0.00     0.124 S 
ATOM     65  O   UNL A   1      41.726  37.981  41.504  1.00  0.00    -0.237 OA
ATOM     66  O   UNL A   1      39.713  37.024  42.571  1.00  0.00    -0.237 OA
ATOM     67  O   UNL A   1      41.933  36.072  43.055  1.00  0.00    -0.744 OA
ENDBRANCH  63  64
ENDBRANCH  37  58
ENDBRANCH  11  12
ENDBRANCH   4   6
ENDBRANCH   3   4
ENDBRANCH   2   3
ENDBRANCH   1   2
BRANCH   1  68
ATOM     68  O   UNL A   1      38.112  22.049  24.992  1.00  0.00    -0.458 OA
BRANCH  68  69
ATOM     69  C   UNL A   1      36.785  21.807  24.913  1.00  0.00     0.338 C 
ATOM     70  O   UNL A   1      36.245  20.703  24.998  1.00  0.00    -0.246 OA
BRANCH  69  71
ATOM     71  C   UNL A   1      36.007  23.048  24.727  1.00  0.00     0.061 A 
ATOM     72  C   UNL A   1      35.752  23.822  25.869  1.00  0.00     0.016 A 
ATOM     73  C   UNL A   1      35.427  23.381  23.493  1.00  0.00     0.038 A 
ATOM     74  C   UNL A   1      34.910  24.922  25.786  1.00  0.00     0.002 A 
ATOM     75  C   UNL A   1      34.457  24.377  23.453  1.00  0.00     0.088 A 
ATOM     76  C   UNL A   1      34.243  25.179  24.591  1.00  0.00     0.022 A 
BRANCH  75  77
ATOM     77  S   UNL A   1      33.293  24.633  22.124  1.00  0.00     0.261 S 
ATOM     78  O   UNL A   1      33.583  25.956  21.600  1.00  0.00    -0.201 OA
ATOM     79  O   UNL A   1      33.488  23.499  21.249  1.00  0.00    -0.201 OA
BRANCH  77  80
ATOM     80  N   UNL A   1      31.660  24.612  22.551  1.00  0.00    -0.278 N 
ATOM     81  H   UNL A   1      31.007  24.806  21.841  1.00  0.00     0.180 HD
BRANCH  80  82
ATOM     82  C   UNL A   1      31.147  24.337  23.860  1.00  0.00     0.072 A 
ATOM     83  C   UNL A   1      31.149  23.002  24.285  1.00  0.00     0.029 A 
ATOM     84  C   UNL A   1      30.691  25.352  24.729  1.00  0.00     0.061 A 
ATOM     85  C   UNL A   1      30.888  22.673  25.611  1.00  0.00     0.002 A 
ATOM     86  C   UNL A   1      30.451  25.002  26.069  1.00  0.00     0.028 A 
ATOM     87  C   UNL A   1      30.574  23.679  26.512  1.00  0.00     0.002 A 
BRANCH  84  88
ATOM     88  N   UNL A   1      30.480  26.636  24.253  1.00  0.00    -0.365 N 
ATOM     89  C   UNL A   1      29.096  26.903  23.795  1.00  0.00     0.145 C 
ATOM     90  C   UNL A   1      31.155  27.813  24.798  1.00  0.00     0.145 C 
ATOM     91  C   UNL A   1      29.056  28.130  22.871  1.00  0.00     0.181 C 
ATOM     92  C   UNL A   1      31.101  28.923  23.740  1.00  0.00     0.181 C 
ATOM     93  O   UNL A   1      29.737  29.268  23.442  1.00  0.00    -0.378 OA
ENDBRANCH  84  88
ENDBRANCH  80  82
ENDBRANCH  77  80
ENDBRANCH  75  77
ENDBRANCH  69  71
ENDBRANCH  68  69
ENDBRANCH   1  68
TORSDOF 18
ENDMDL
MODEL 3
REMARK VINA RESULT:     -11.1      4.817      6.639
REMARK SMILES O=C(OCCOC(=O)c1cccc(S(=O)(=O)Nc2ccccc2N2CCOCC2)c1)c1ccc(-c2c3nc(c(-c4ccc(S(=O)(=O)[O-])cc4)c4ccc([nH]4)c(-c4ccc(S(=O)(=O)[O-])cc4)c4nc(c(-c5ccc(S(=O)(=O)[O-])cc5)c5ccc2[nH]5)C=C4)C=C3)cc1
REMARK SMILES IDX 5 1 4 2 3 3 2 4 1 5 31 6 32 7 90 8 33 9 89 10 34 11 35 12
REMARK SMILES IDX 36 13 83 14 37 15 88 16 82 17 84 18 38 19 87 20 81 21 80 22
REMARK SMILES IDX 39 24 69 25 50 26 68 27 51 28 54 29 67 30 85 31 52 32 53 33
REMARK SMILES IDX 66 35 86 36 55 37 40 38 41 39 49 40 42 41 48 42 43 43 44 44
REMARK SMILES IDX 45 45 46 46 47 47 70 48 71 49 79 50 72 51 78 52 73 53 74 54
REMARK SMILES IDX 75 55 76 56 77 57 56 58 57 59 65 60 58 61 64 62 59 63 60 64
REMARK SMILES IDX 61 65 62 66 63 67 6 68 7 69 8 70 9 71 10 72 30 73 11 74
REMARK SMILES IDX 13 75 12 76 14 77 15 78 16 79 17 80 18 82 19 83 23 84 20 85
REMARK SMILES IDX 22 86 21 87 24 88 25 89 29 90 26 91 28 92 27 93
REMARK H PARENT 84 23 54 34 17 81
REMARK Flexibility Score: inf
ROOT
ATOM      1  C   UNL A   1      42.658  19.920  26.097  1.00  0.00     0.275 C 
ENDROOT
BRANCH   1   2
ATOM      2  C   UNL A   1      43.747  20.585  25.257  1.00  0.00     0.275 C 
BRANCH   2   3
ATOM      3  O   UNL A   1      43.369  21.828  24.633  1.00  0.00    -0.458 OA
BRANCH   3   4
ATOM      4  C   UNL A   1      43.972  23.040  24.687  1.00  0.00     0.338 C 
ATOM      5  O   UNL A   1      44.857  23.315  23.878  1.00  0.00    -0.246 OA
BRANCH   4   6
ATOM      6  C   UNL A   1      43.693  24.024  25.770  1.00  0.00     0.060 A 
ATOM      7  C   UNL A   1      44.000  25.384  25.703  1.00  0.00     0.016 A 
ATOM      8  C   UNL A   1      43.144  23.520  26.961  1.00  0.00     0.016 A 
ATOM      9  C   UNL A   1      43.681  26.240  26.764  1.00  0.00     0.010 A 
ATOM     10  C   UNL A   1      42.824  24.370  28.024  1.00  0.00     0.010 A 
ATOM     11  C   UNL A   1      43.096  25.741  27.934  1.00  0.00    -0.014 A 
BRANCH  11  12
ATOM     12  C   UNL A   1      42.929  26.617  29.118  1.00  0.00     0.031 A 
ATOM     13  C   UNL A   1      43.783  26.381  30.325  1.00  0.00     0.074 A 
ATOM     14  C   UNL A   1      42.075  27.655  29.125  1.00  0.00     0.049 A 
ATOM     15  N   UNL A   1      43.862  27.099  31.415  1.00  0.00    -0.248 NA
ATOM     16  C   UNL A   1      44.704  25.234  30.281  1.00  0.00     0.031 C 
ATOM     17  C   UNL A   1      41.246  28.081  28.005  1.00  0.00     0.029 A 
ATOM     18  N   UNL A   1      41.741  28.525  30.139  1.00  0.00    -0.354 N 
ATOM     19  C   UNL A   1      44.923  26.570  32.126  1.00  0.00     0.074 A 
ATOM     20  C   UNL A   1      45.371  25.390  31.415  1.00  0.00     0.031 C 
ATOM     21  C   UNL A   1      40.428  29.057  28.432  1.00  0.00     0.029 A 
ATOM     22  C   UNL A   1      40.655  29.307  29.840  1.00  0.00     0.049 A 
ATOM     23  H   UNL A   1      42.232  28.579  30.991  1.00  0.00     0.167 HD
ATOM     24  C   UNL A   1      45.530  27.076  33.224  1.00  0.00     0.031 A 
ATOM     25  C   UNL A   1      39.895  30.117  30.600  1.00  0.00     0.031 A 
ATOM     26  C   UNL A   1      45.050  28.205  33.972  1.00  0.00     0.049 A 
ATOM     27  C   UNL A   1      40.374  30.456  31.974  1.00  0.00     0.074 A 
ATOM     28  C   UNL A   1      45.608  28.803  35.087  1.00  0.00     0.029 A 
ATOM     29  N   UNL A   1      43.872  28.885  33.700  1.00  0.00    -0.354 N 
ATOM     30  N   UNL A   1      41.443  30.018  32.590  1.00  0.00    -0.248 NA
ATOM     31  C   UNL A   1      39.610  31.466  32.715  1.00  0.00     0.031 C 
ATOM     32  C   UNL A   1      44.743  29.819  35.517  1.00  0.00     0.029 A 
ATOM     33  C   UNL A   1      43.666  29.875  34.647  1.00  0.00     0.049 A 
ATOM     34  H   UNL A   1      43.271  28.693  32.945  1.00  0.00     0.167 HD
ATOM     35  C   UNL A   1      41.536  30.766  33.752  1.00  0.00     0.074 A 
ATOM     36  C   UNL A   1      40.388  31.652  33.774  1.00  0.00     0.031 C 
ATOM     37  C   UNL A   1      42.523  30.752  34.679  1.00  0.00     0.031 A 
BRANCH  24  38
ATOM     38  C   UNL A   1      46.819  26.421  33.617  1.00  0.00    -0.014 A 
ATOM     39  C   UNL A   1      48.022  26.858  33.032  1.00  0.00     0.010 A 
ATOM     40  C   UNL A   1      46.837  25.357  34.530  1.00  0.00     0.010 A 
ATOM     41  C   UNL A   1      49.223  26.211  33.321  1.00  0.00     0.020 A 
ATOM     42  C   UNL A   1      48.041  24.717  34.834  1.00  0.00     0.020 A 
ATOM     43  C   UNL A   1      49.223  25.136  34.213  1.00  0.00     0.054 A 
BRANCH  43  44
ATOM     44  S   UNL A   1      50.794  24.302  34.560  1.00  0.00     0.124 S 
ATOM     45  O   UNL A   1      50.490  23.594  35.800  1.00  0.00    -0.237 OA
ATOM     46  O   UNL A   1      50.975  23.455  33.384  1.00  0.00    -0.237 OA
ATOM     47  O   UNL A   1      51.748  25.400  34.686  1.00  0.00    -0.744 OA
ENDBRANCH  43  44
ENDBRANCH  24  38
BRANCH  25  48
ATOM     48  C   UNL A   1      38.616  30.668  30.076  1.00  0.00    -0.014 A 
ATOM     49  C   UNL A   1      37.399  29.990  30.247  1.00  0.00     0.010 A 
ATOM     50  C   UNL A   1      38.624  31.893  29.380  1.00  0.00     0.010 A 
ATOM     51  C   UNL A   1      36.216  30.517  29.716  1.00  0.00     0.020 A 
ATOM     52  C   UNL A   1      37.442  32.432  28.862  1.00  0.00     0.020 A 
ATOM     53  C   UNL A   1      36.245  31.732  29.022  1.00  0.00     0.054 A 
BRANCH  53  54
ATOM     54  S   UNL A   1      34.690  32.404  28.369  1.00  0.00     0.124 S 
ATOM     55  O   UNL A   1      35.152  33.573  27.627  1.00  0.00    -0.237 OA
ATOM     56  O   UNL A   1      34.189  31.297  27.558  1.00  0.00    -0.237 OA
ATOM     57  O   UNL A   1      33.908  32.688  29.569  1.00  0.00    -0.744 OA
ENDBRANCH  53  54
ENDBRANCH  25  48
BRANCH  37  58
ATOM     58  C   UNL A   1      42.439  31.786  35.762  1.00  0.00    -0.014 A 
ATOM     59  C   UNL A   1      41.803  31.517  36.984  1.00  0.00     0.010 A 
ATOM     60  C   UNL A   1      42.997  33.058  35.536  1.00  0.00     0.010 A 
ATOM     61  C   UNL A   1      41.690  32.518  37.952  1.00  0.00     0.020 A 
ATOM     62  C   UNL A   1      42.907  34.053  36.510  1.00  0.00     0.020 A 
ATOM     63  C   UNL A   1      42.236  33.782  37.705  1.00  0.00     0.054 A 
BRANCH  63  64
ATOM     64  S   UNL A   1      42.099  35.066  38.976  1.00  0.00     0.124 S 
ATOM     65  O   UNL A   1      43.482  35.516  39.102  1.00  0.00    -0.237 OA
ATOM     66  O   UNL A   1      41.178  36.027  38.372  1.00  0.00    -0.237 OA
ATOM     67  O   UNL A   1      41.566  34.349  40.132  1.00  0.00    -0.744 OA
ENDBRANCH  63  64
ENDBRANCH  37  58
ENDBRANCH  11  12
ENDBRANCH   4   6
ENDBRANCH   3   4
ENDBRANCH   2   3
ENDBRANCH   1   2
BRANCH   1  68
ATOM     68  O   UNL A   1      41.344  20.388  25.774  1.00  0.00    -0.458 OA
BRANCH  68  69
ATOM     69  C   UNL A   1      40.635  20.835  26.834  1.00  0.00     0.338 C 
ATOM     70  O   UNL A   1      40.767  20.464  28.001  1.00  0.00    -0.246 OA
BRANCH  69  71
ATOM     71  C   UNL A   1      39.658  21.873  26.448  1.00  0.00     0.061 A 
ATOM     72  C   UNL A   1      39.844  23.158  26.979  1.00  0.00     0.016 A 
ATOM     73  C   UNL A   1      38.515  21.569  25.692  1.00  0.00     0.038 A 
ATOM     74  C   UNL A   1      38.885  24.140  26.769  1.00  0.00     0.002 A 
ATOM     75  C   UNL A   1      37.485  22.501  25.628  1.00  0.00     0.088 A 
ATOM     76  C   UNL A   1      37.699  23.803  26.122  1.00  0.00     0.022 A 
BRANCH  75  77
ATOM     77  S   UNL A   1      35.806  22.153  25.131  1.00  0.00     0.261 S 
ATOM     78  O   UNL A   1      35.002  23.222  25.696  1.00  0.00    -0.201 OA
ATOM     79  O   UNL A   1      35.871  22.040  23.692  1.00  0.00    -0.201 OA
BRANCH  77  80
ATOM     80  N   UNL A   1      35.155  20.695  25.681  1.00  0.00    -0.278 N 
ATOM     81  H   UNL A   1      35.244  20.495  26.640  1.00  0.00     0.180 HD
BRANCH  80  82
ATOM     82  C   UNL A   1      34.484  19.725  24.867  1.00  0.00     0.072 A 
ATOM     83  C   UNL A   1      35.149  18.515  24.628  1.00  0.00     0.029 A 
ATOM     84  C   UNL A   1      33.187  19.930  24.348  1.00  0.00     0.061 A 
ATOM     85  C   UNL A   1      34.486  17.437  24.050  1.00  0.00     0.002 A 
ATOM     86  C   UNL A   1      32.529  18.824  23.785  1.00  0.00     0.028 A 
ATOM     87  C   UNL A   1      33.163  17.582  23.661  1.00  0.00     0.002 A 
BRANCH  84  88
ATOM     88  N   UNL A   1      32.610  21.190  24.390  1.00  0.00    -0.365 N 
ATOM     89  C   UNL A   1      32.423  21.824  23.064  1.00  0.00     0.145 C 
ATOM     90  C   UNL A   1      31.599  21.575  25.373  1.00  0.00     0.145 C 
ATOM     91  C   UNL A   1      32.239  23.343  23.210  1.00  0.00     0.181 C 
ATOM     92  C   UNL A   1      31.585  23.107  25.464  1.00  0.00     0.181 C 
ATOM     93  O   UNL A   1      31.237  23.682  24.192  1.00  0.00    -0.378 OA
ENDBRANCH  84  88
ENDBRANCH  80  82
ENDBRANCH  77  80
ENDBRANCH  75  77
ENDBRANCH  69  71
ENDBRANCH  68  69
ENDBRANCH   1  68
TORSDOF 18
ENDMDL
