MODEL 1
REMARK VINA RESULT:     -11.3      0.000      0.000
REMARK SMILES CC1(C)[C@H](C(=O)Nc2cccc3[nH]ccc23)[C@H]1C(=O)OCCOC(=O)c1ccc(-c2c3nc(c(-c4ccc(S(=O)(=O)[O-])cc4)c4ccc([nH]4)c(-c4ccc(S(=O)(=O)[O-])cc4)c4nc(c(-c5ccc(S(=O)(=O)[O-])cc5)c5ccc2[nH]5)C=C4)C=C3)cc1
REMARK SMILES IDX 22 1 21 2 20 3 18 4 19 5 17 6 1 7 2 8 3 9 4 10 5 11 6 12
REMARK SMILES IDX 7 13 8 15 9 16 16 17 10 18 12 19 15 20 11 21 13 22 14 23
REMARK SMILES IDX 23 25 24 26 25 27 26 28 27 29 85 30 28 31 84 32 29 33 30 34
REMARK SMILES IDX 31 35 78 36 32 37 83 38 77 39 79 40 33 41 82 42 76 43 75 44
REMARK SMILES IDX 34 46 64 47 45 48 63 49 46 50 49 51 62 52 80 53 47 54 48 55
REMARK SMILES IDX 61 57 81 58 50 59 35 60 36 61 44 62 37 63 43 64 38 65 39 66
REMARK SMILES IDX 40 67 41 68 42 69 65 70 66 71 74 72 67 73 73 74 68 75 69 76
REMARK SMILES IDX 70 77 71 78 72 79 51 80 52 81 60 82 53 83 59 84 54 85 55 86
REMARK SMILES IDX 56 87 57 88 58 89
REMARK H PARENT 7 14 13 24 79 45 49 56
REMARK Flexibility Score: inf
ROOT
ATOM      1  C   UNL A   1      32.192  30.478  26.732  1.00  0.00     0.275 C 
ENDROOT
BRANCH   1   2
ATOM      2  C   UNL A   1      31.743  29.582  25.579  1.00  0.00     0.274 C 
BRANCH   2   3
ATOM      3  O   UNL A   1      32.448  28.332  25.654  1.00  0.00    -0.462 OA
BRANCH   3   4
ATOM      4  C   UNL A   1      31.743  27.248  26.062  1.00  0.00     0.310 C 
ATOM      5  O   UNL A   1      31.056  27.168  27.068  1.00  0.00    -0.252 OA
BRANCH   4   6
ATOM      6  C   UNL A   1      31.788  26.147  25.076  1.00  0.00     0.118 C 
ATOM      7  C   UNL A   1      29.970  27.182  23.457  1.00  0.00     0.013 C 
ATOM      8  C   UNL A   1      30.906  26.061  23.840  1.00  0.00    -0.009 C 
ATOM      9  C   UNL A   1      30.293  24.706  23.588  1.00  0.00     0.013 C 
ATOM     10  C   UNL A   1      32.405  26.368  23.725  1.00  0.00     0.100 C 
BRANCH  10  11
ATOM     11  C   UNL A   1      33.444  25.483  23.117  1.00  0.00     0.228 C 
ATOM     12  O   UNL A   1      33.920  25.806  22.034  1.00  0.00    -0.274 OA
ATOM     13  N   UNL A   1      34.042  24.546  23.930  1.00  0.00    -0.325 N 
ATOM     14  H   UNL A   1      34.847  24.825  24.423  1.00  0.00     0.169 HD
BRANCH  13  15
ATOM     15  C   UNL A   1      33.599  23.218  24.116  1.00  0.00     0.050 A 
ATOM     16  C   UNL A   1      33.030  22.482  23.071  1.00  0.00     0.027 A 
ATOM     17  C   UNL A   1      33.745  22.582  25.373  1.00  0.00     0.023 A 
ATOM     18  C   UNL A   1      32.470  21.225  23.282  1.00  0.00     0.004 A 
ATOM     19  C   UNL A   1      33.189  21.309  25.553  1.00  0.00     0.047 A 
ATOM     20  C   UNL A   1      34.343  22.939  26.619  1.00  0.00     0.030 A 
ATOM     21  C   UNL A   1      32.510  20.627  24.538  1.00  0.00     0.027 A 
ATOM     22  N   UNL A   1      33.425  20.930  26.857  1.00  0.00    -0.361 N 
ATOM     23  C   UNL A   1      34.150  21.898  27.499  1.00  0.00     0.083 A 
ATOM     24  H   UNL A   1      33.118  20.089  27.266  1.00  0.00     0.166 HD
ENDBRANCH  13  15
ENDBRANCH  10  11
ENDBRANCH   4   6
ENDBRANCH   3   4
ENDBRANCH   2   3
ENDBRANCH   1   2
BRANCH   1  25
ATOM     25  O   UNL A   1      33.585  30.253  27.023  1.00  0.00    -0.458 OA
BRANCH  25  26
ATOM     26  C   UNL A   1      34.218  31.288  27.623  1.00  0.00     0.338 C 
ATOM     27  O   UNL A   1      33.756  32.382  27.903  1.00  0.00    -0.246 OA
BRANCH  26  28
ATOM     28  C   UNL A   1      35.575  30.880  28.001  1.00  0.00     0.060 A 
ATOM     29  C   UNL A   1      35.798  29.540  28.298  1.00  0.00     0.016 A 
ATOM     30  C   UNL A   1      36.580  31.824  28.209  1.00  0.00     0.016 A 
ATOM     31  C   UNL A   1      36.988  29.153  28.901  1.00  0.00     0.010 A 
ATOM     32  C   UNL A   1      37.810  31.414  28.744  1.00  0.00     0.010 A 
ATOM     33  C   UNL A   1      38.010  30.081  29.145  1.00  0.00    -0.014 A 
BRANCH  33  34
ATOM     34  C   UNL A   1      39.240  29.646  29.871  1.00  0.00     0.031 A 
ATOM     35  C   UNL A   1      39.610  30.274  31.193  1.00  0.00     0.074 A 
ATOM     36  C   UNL A   1      39.998  28.640  29.389  1.00  0.00     0.049 A 
ATOM     37  N   UNL A   1      40.672  30.070  31.934  1.00  0.00    -0.248 NA
ATOM     38  C   UNL A   1      38.674  31.261  31.752  1.00  0.00     0.031 C 
ATOM     39  C   UNL A   1      39.744  27.906  28.147  1.00  0.00     0.029 A 
ATOM     40  N   UNL A   1      41.127  28.042  29.898  1.00  0.00    -0.354 N 
ATOM     41  C   UNL A   1      40.562  30.947  33.009  1.00  0.00     0.074 A 
ATOM     42  C   UNL A   1      39.328  31.681  32.826  1.00  0.00     0.031 C 
ATOM     43  C   UNL A   1      40.653  26.927  28.018  1.00  0.00     0.029 A 
ATOM     44  C   UNL A   1      41.604  27.012  29.120  1.00  0.00     0.049 A 
ATOM     45  H   UNL A   1      41.553  28.323  30.740  1.00  0.00     0.167 HD
ATOM     46  C   UNL A   1      41.410  31.130  34.051  1.00  0.00     0.031 A 
ATOM     47  C   UNL A   1      42.698  26.236  29.253  1.00  0.00     0.031 A 
ATOM     48  C   UNL A   1      42.620  30.379  34.258  1.00  0.00     0.049 A 
ATOM     49  C   UNL A   1      43.631  26.466  30.409  1.00  0.00     0.074 A 
ATOM     50  C   UNL A   1      43.536  30.492  35.292  1.00  0.00     0.029 A 
ATOM     51  N   UNL A   1      43.083  29.372  33.427  1.00  0.00    -0.354 N 
ATOM     52  N   UNL A   1      43.522  27.327  31.393  1.00  0.00    -0.248 NA
ATOM     53  C   UNL A   1      44.837  25.628  30.466  1.00  0.00     0.031 C 
ATOM     54  C   UNL A   1      44.570  29.577  35.065  1.00  0.00     0.029 A 
ATOM     55  C   UNL A   1      44.272  28.860  33.919  1.00  0.00     0.049 A 
ATOM     56  H   UNL A   1      42.631  29.064  32.608  1.00  0.00     0.167 HD
ATOM     57  C   UNL A   1      44.645  27.128  32.190  1.00  0.00     0.074 A 
ATOM     58  C   UNL A   1      45.401  26.048  31.590  1.00  0.00     0.031 C 
ATOM     59  C   UNL A   1      45.018  27.787  33.314  1.00  0.00     0.031 A 
BRANCH  46  60
ATOM     60  C   UNL A   1      41.079  32.222  35.036  1.00  0.00    -0.014 A 
ATOM     61  C   UNL A   1      41.526  33.542  34.849  1.00  0.00     0.010 A 
ATOM     62  C   UNL A   1      40.268  31.924  36.148  1.00  0.00     0.010 A 
ATOM     63  C   UNL A   1      41.200  34.535  35.778  1.00  0.00     0.020 A 
ATOM     64  C   UNL A   1      39.918  32.919  37.063  1.00  0.00     0.020 A 
ATOM     65  C   UNL A   1      40.403  34.217  36.882  1.00  0.00     0.054 A 
BRANCH  65  66
ATOM     66  S   UNL A   1      39.980  35.527  38.063  1.00  0.00     0.124 S 
ATOM     67  O   UNL A   1      41.184  35.586  38.889  1.00  0.00    -0.237 OA
ATOM     68  O   UNL A   1      39.755  36.680  37.197  1.00  0.00    -0.237 OA
ATOM     69  O   UNL A   1      38.788  35.015  38.736  1.00  0.00    -0.744 OA
ENDBRANCH  65  66
ENDBRANCH  46  60
BRANCH  47  70
ATOM     70  C   UNL A   1      42.988  25.184  28.241  1.00  0.00    -0.014 A 
ATOM     71  C   UNL A   1      43.821  25.459  27.142  1.00  0.00     0.010 A 
ATOM     72  C   UNL A   1      42.443  23.894  28.381  1.00  0.00     0.010 A 
ATOM     73  C   UNL A   1      44.097  24.465  26.198  1.00  0.00     0.020 A 
ATOM     74  C   UNL A   1      42.741  22.891  27.456  1.00  0.00     0.020 A 
ATOM     75  C   UNL A   1      43.557  23.187  26.363  1.00  0.00     0.054 A 
BRANCH  75  76
ATOM     76  S   UNL A   1      43.977  21.892  25.164  1.00  0.00     0.124 S 
ATOM     77  O   UNL A   1      42.955  20.886  25.436  1.00  0.00    -0.237 OA
ATOM     78  O   UNL A   1      43.854  22.590  23.886  1.00  0.00    -0.237 OA
ATOM     79  O   UNL A   1      45.340  21.517  25.531  1.00  0.00    -0.744 OA
ENDBRANCH  75  76
ENDBRANCH  47  70
BRANCH  59  80
ATOM     80  C   UNL A   1      46.285  27.338  33.990  1.00  0.00    -0.014 A 
ATOM     81  C   UNL A   1      47.524  27.930  33.688  1.00  0.00     0.010 A 
ATOM     82  C   UNL A   1      46.228  26.332  34.973  1.00  0.00     0.010 A 
ATOM     83  C   UNL A   1      48.689  27.499  34.329  1.00  0.00     0.020 A 
ATOM     84  C   UNL A   1      47.386  25.916  35.634  1.00  0.00     0.020 A 
ATOM     85  C   UNL A   1      48.613  26.491  35.296  1.00  0.00     0.054 A 
BRANCH  85  86
ATOM     86  S   UNL A   1      50.133  25.968  36.136  1.00  0.00     0.124 S 
ATOM     87  O   UNL A   1      50.260  26.975  37.187  1.00  0.00    -0.237 OA
ATOM     88  O   UNL A   1      49.801  24.621  36.594  1.00  0.00    -0.237 OA
ATOM     89  O   UNL A   1      51.147  26.031  35.086  1.00  0.00    -0.744 OA
ENDBRANCH  85  86
ENDBRANCH  59  80
ENDBRANCH  33  34
ENDBRANCH  26  28
ENDBRANCH  25  26
ENDBRANCH   1  25
TORSDOF 16
ENDMDL
MODEL 2
REMARK VINA RESULT:     -11.3      4.484      9.846
REMARK SMILES CC1(C)[C@H](C(=O)Nc2cccc3[nH]ccc23)[C@H]1C(=O)OCCOC(=O)c1ccc(-c2c3nc(c(-c4ccc(S(=O)(=O)[O-])cc4)c4ccc([nH]4)c(-c4ccc(S(=O)(=O)[O-])cc4)c4nc(c(-c5ccc(S(=O)(=O)[O-])cc5)c5ccc2[nH]5)C=C4)C=C3)cc1
REMARK SMILES IDX 22 1 21 2 20 3 18 4 19 5 17 6 1 7 2 8 3 9 4 10 5 11 6 12
REMARK SMILES IDX 7 13 8 15 9 16 16 17 10 18 12 19 15 20 11 21 13 22 14 23
REMARK SMILES IDX 23 25 24 26 25 27 26 28 27 29 85 30 28 31 84 32 29 33 30 34
REMARK SMILES IDX 31 35 78 36 32 37 83 38 77 39 79 40 33 41 82 42 76 43 75 44
REMARK SMILES IDX 34 46 64 47 45 48 63 49 46 50 49 51 62 52 80 53 47 54 48 55
REMARK SMILES IDX 61 57 81 58 50 59 35 60 36 61 44 62 37 63 43 64 38 65 39 66
REMARK SMILES IDX 40 67 41 68 42 69 65 70 66 71 74 72 67 73 73 74 68 75 69 76
REMARK SMILES IDX 70 77 71 78 72 79 51 80 52 81 60 82 53 83 59 84 54 85 55 86
REMARK SMILES IDX 56 87 57 88 58 89
REMARK H PARENT 7 14 13 24 79 45 49 56
REMARK Flexibility Score: inf
ROOT
ATOM      1  C   UNL A   1      37.421  21.078  25.106  1.00  0.00     0.275 C 
ENDROOT
BRANCH   1   2
ATOM      2  C   UNL A   1      35.996  21.375  24.644  1.00  0.00     0.274 C 
BRANCH   2   3
ATOM      3  O   UNL A   1      35.496  22.514  25.364  1.00  0.00    -0.462 OA
BRANCH   3   4
ATOM      4  C   UNL A   1      34.449  22.307  26.199  1.00  0.00     0.310 C 
ATOM      5  O   UNL A   1      34.487  21.745  27.283  1.00  0.00    -0.252 OA
BRANCH   4   6
ATOM      6  C   UNL A   1      33.209  22.950  25.713  1.00  0.00     0.118 C 
ATOM      7  C   UNL A   1      32.307  20.822  24.426  1.00  0.00     0.013 C 
ATOM      8  C   UNL A   1      32.185  22.277  24.812  1.00  0.00    -0.009 C 
ATOM      9  C   UNL A   1      31.693  23.124  23.666  1.00  0.00     0.013 C 
ATOM     10  C   UNL A   1      31.879  22.556  26.290  1.00  0.00     0.100 C 
BRANCH  10  11
ATOM     11  C   UNL A   1      30.868  23.524  26.815  1.00  0.00     0.228 C 
ATOM     12  O   UNL A   1      29.904  23.078  27.428  1.00  0.00    -0.274 OA
ATOM     13  N   UNL A   1      31.223  24.853  26.872  1.00  0.00    -0.325 N 
ATOM     14  H   UNL A   1      31.664  25.167  27.694  1.00  0.00     0.169 HD
BRANCH  13  15
ATOM     15  C   UNL A   1      31.008  25.805  25.851  1.00  0.00     0.050 A 
ATOM     16  C   UNL A   1      29.801  25.860  25.144  1.00  0.00     0.027 A 
ATOM     17  C   UNL A   1      32.009  26.754  25.532  1.00  0.00     0.023 A 
ATOM     18  C   UNL A   1      29.633  26.704  24.049  1.00  0.00     0.004 A 
ATOM     19  C   UNL A   1      31.807  27.605  24.438  1.00  0.00     0.047 A 
ATOM     20  C   UNL A   1      33.290  27.084  26.066  1.00  0.00     0.030 A 
ATOM     21  C   UNL A   1      30.648  27.572  23.654  1.00  0.00     0.027 A 
ATOM     22  N   UNL A   1      32.929  28.395  24.309  1.00  0.00    -0.361 N 
ATOM     23  C   UNL A   1      33.817  28.107  25.310  1.00  0.00     0.083 A 
ATOM     24  H   UNL A   1      33.070  29.067  23.603  1.00  0.00     0.166 HD
ENDBRANCH  13  15
ENDBRANCH  10  11
ENDBRANCH   4   6
ENDBRANCH   3   4
ENDBRANCH   2   3
ENDBRANCH   1   2
BRANCH   1  25
ATOM     25  O   UNL A   1      38.005  22.254  25.700  1.00  0.00    -0.458 OA
BRANCH  25  26
ATOM     26  C   UNL A   1      39.218  22.064  26.269  1.00  0.00     0.338 C 
ATOM     27  O   UNL A   1      39.928  21.074  26.198  1.00  0.00    -0.246 OA
BRANCH  26  28
ATOM     28  C   UNL A   1      39.644  23.297  26.941  1.00  0.00     0.060 A 
ATOM     29  C   UNL A   1      39.107  24.501  26.501  1.00  0.00     0.016 A 
ATOM     30  C   UNL A   1      40.668  23.285  27.887  1.00  0.00     0.016 A 
ATOM     31  C   UNL A   1      39.661  25.703  26.925  1.00  0.00     0.010 A 
ATOM     32  C   UNL A   1      41.170  24.501  28.372  1.00  0.00     0.010 A 
ATOM     33  C   UNL A   1      40.707  25.726  27.859  1.00  0.00    -0.014 A 
BRANCH  33  34
ATOM     34  C   UNL A   1      41.334  27.030  28.227  1.00  0.00     0.031 A 
ATOM     35  C   UNL A   1      42.805  27.267  27.984  1.00  0.00     0.074 A 
ATOM     36  C   UNL A   1      40.581  28.036  28.718  1.00  0.00     0.049 A 
ATOM     37  N   UNL A   1      43.534  28.310  28.298  1.00  0.00    -0.248 NA
ATOM     38  C   UNL A   1      43.555  26.197  27.310  1.00  0.00     0.031 C 
ATOM     39  C   UNL A   1      39.139  27.972  28.966  1.00  0.00     0.029 A 
ATOM     40  N   UNL A   1      40.919  29.320  29.074  1.00  0.00    -0.354 N 
ATOM     41  C   UNL A   1      44.836  27.994  27.918  1.00  0.00     0.074 A 
ATOM     42  C   UNL A   1      44.794  26.665  27.346  1.00  0.00     0.031 C 
ATOM     43  C   UNL A   1      38.709  29.173  29.383  1.00  0.00     0.029 A 
ATOM     44  C   UNL A   1      39.851  30.071  29.511  1.00  0.00     0.049 A 
ATOM     45  H   UNL A   1      41.838  29.670  29.022  1.00  0.00     0.167 HD
ATOM     46  C   UNL A   1      45.964  28.737  28.037  1.00  0.00     0.031 A 
ATOM     47  C   UNL A   1      39.791  31.328  29.991  1.00  0.00     0.031 A 
ATOM     48  C   UNL A   1      46.007  30.073  28.571  1.00  0.00     0.049 A 
ATOM     49  C   UNL A   1      41.057  32.129  30.126  1.00  0.00     0.074 A 
ATOM     50  C   UNL A   1      47.105  30.904  28.721  1.00  0.00     0.029 A 
ATOM     51  N   UNL A   1      44.909  30.780  29.034  1.00  0.00    -0.354 N 
ATOM     52  N   UNL A   1      42.280  31.793  29.793  1.00  0.00    -0.248 NA
ATOM     53  C   UNL A   1      40.934  33.471  30.711  1.00  0.00     0.031 C 
ATOM     54  C   UNL A   1      46.675  32.099  29.309  1.00  0.00     0.029 A 
ATOM     55  C   UNL A   1      45.303  32.032  29.476  1.00  0.00     0.049 A 
ATOM     56  H   UNL A   1      43.984  30.441  29.046  1.00  0.00     0.167 HD
ATOM     57  C   UNL A   1      43.071  32.888  30.123  1.00  0.00     0.074 A 
ATOM     58  C   UNL A   1      42.185  33.904  30.653  1.00  0.00     0.031 C 
ATOM     59  C   UNL A   1      44.414  33.034  30.004  1.00  0.00     0.031 A 
BRANCH  46  60
ATOM     60  C   UNL A   1      47.264  28.103  27.617  1.00  0.00    -0.014 A 
ATOM     61  C   UNL A   1      48.034  27.338  28.511  1.00  0.00     0.010 A 
ATOM     62  C   UNL A   1      47.700  28.243  26.285  1.00  0.00     0.010 A 
ATOM     63  C   UNL A   1      49.235  26.758  28.091  1.00  0.00     0.020 A 
ATOM     64  C   UNL A   1      48.886  27.643  25.854  1.00  0.00     0.020 A 
ATOM     65  C   UNL A   1      49.656  26.918  26.767  1.00  0.00     0.054 A 
BRANCH  65  66
ATOM     66  S   UNL A   1      51.210  26.142  26.242  1.00  0.00     0.124 S 
ATOM     67  O   UNL A   1      51.117  24.829  26.877  1.00  0.00    -0.237 OA
ATOM     68  O   UNL A   1      51.096  26.145  24.787  1.00  0.00    -0.237 OA
ATOM     69  O   UNL A   1      52.239  27.025  26.786  1.00  0.00    -0.744 OA
ENDBRANCH  65  66
ENDBRANCH  46  60
BRANCH  47  70
ATOM     70  C   UNL A   1      38.482  31.900  30.410  1.00  0.00    -0.014 A 
ATOM     71  C   UNL A   1      38.054  31.802  31.746  1.00  0.00     0.010 A 
ATOM     72  C   UNL A   1      37.664  32.560  29.475  1.00  0.00     0.010 A 
ATOM     73  C   UNL A   1      36.827  32.347  32.137  1.00  0.00     0.020 A 
ATOM     74  C   UNL A   1      36.452  33.133  29.869  1.00  0.00     0.020 A 
ATOM     75  C   UNL A   1      36.036  33.012  31.196  1.00  0.00     0.054 A 
BRANCH  75  76
ATOM     76  S   UNL A   1      34.477  33.769  31.733  1.00  0.00     0.124 S 
ATOM     77  O   UNL A   1      34.949  34.905  32.518  1.00  0.00    -0.237 OA
ATOM     78  O   UNL A   1      33.831  34.100  30.465  1.00  0.00    -0.237 OA
ATOM     79  O   UNL A   1      33.828  32.705  32.495  1.00  0.00    -0.744 OA
ENDBRANCH  75  76
ENDBRANCH  47  70
BRANCH  59  80
ATOM     80  C   UNL A   1      45.005  34.354  30.423  1.00  0.00    -0.014 A 
ATOM     81  C   UNL A   1      45.474  34.560  31.732  1.00  0.00     0.010 A 
ATOM     82  C   UNL A   1      45.128  35.390  29.480  1.00  0.00     0.010 A 
ATOM     83  C   UNL A   1      46.022  35.792  32.101  1.00  0.00     0.020 A 
ATOM     84  C   UNL A   1      45.698  36.614  29.837  1.00  0.00     0.020 A 
ATOM     85  C   UNL A   1      46.126  36.813  31.151  1.00  0.00     0.054 A 
BRANCH  85  86
ATOM     86  S   UNL A   1      46.867  38.394  31.643  1.00  0.00     0.124 S 
ATOM     87  O   UNL A   1      46.082  39.352  30.868  1.00  0.00    -0.237 OA
ATOM     88  O   UNL A   1      46.642  38.420  33.086  1.00  0.00    -0.237 OA
ATOM     89  O   UNL A   1      48.265  38.261  31.239  1.00  0.00    -0.744 OA
ENDBRANCH  85  86
ENDBRANCH  59  80
ENDBRANCH  33  34
ENDBRANCH  26  28
ENDBRANCH  25  26
ENDBRANCH   1  25
TORSDOF 16
ENDMDL
MODEL 3
REMARK VINA RESULT:     -11.2      2.527      3.098
REMARK SMILES CC1(C)[C@H](C(=O)Nc2cccc3[nH]ccc23)[C@H]1C(=O)OCCOC(=O)c1ccc(-c2c3nc(c(-c4ccc(S(=O)(=O)[O-])cc4)c4ccc([nH]4)c(-c4ccc(S(=O)(=O)[O-])cc4)c4nc(c(-c5ccc(S(=O)(=O)[O-])cc5)c5ccc2[nH]5)C=C4)C=C3)cc1
REMARK SMILES IDX 22 1 21 2 20 3 18 4 19 5 17 6 1 7 2 8 3 9 4 10 5 11 6 12
REMARK SMILES IDX 7 13 8 15 9 16 16 17 10 18 12 19 15 20 11 21 13 22 14 23
REMARK SMILES IDX 23 25 24 26 25 27 26 28 27 29 85 30 28 31 84 32 29 33 30 34
REMARK SMILES IDX 31 35 78 36 32 37 83 38 77 39 79 40 33 41 82 42 76 43 75 44
REMARK SMILES IDX 34 46 64 47 45 48 63 49 46 50 49 51 62 52 80 53 47 54 48 55
REMARK SMILES IDX 61 57 81 58 50 59 35 60 36 61 44 62 37 63 43 64 38 65 39 66
REMARK SMILES IDX 40 67 41 68 42 69 65 70 66 71 74 72 67 73 73 74 68 75 69 76
REMARK SMILES IDX 70 77 71 78 72 79 51 80 52 81 60 82 53 83 59 84 54 85 55 86
REMARK SMILES IDX 56 87 57 88 58 89
REMARK H PARENT 7 14 13 24 79 45 49 56
REMARK Flexibility Score: inf
ROOT
ATOM      1  C   UNL A   1      32.398  30.371  26.866  1.00  0.00     0.275 C 
ENDROOT
BRANCH   1   2
ATOM      2  C   UNL A   1      31.838  28.981  27.162  1.00  0.00     0.274 C 
BRANCH   2   3
ATOM      3  O   UNL A   1      31.392  28.383  25.933  1.00  0.00    -0.462 OA
BRANCH   3   4
ATOM      4  C   UNL A   1      31.181  27.044  25.937  1.00  0.00     0.310 C 
ATOM      5  O   UNL A   1      30.626  26.401  26.813  1.00  0.00    -0.252 OA
BRANCH   4   6
ATOM      6  C   UNL A   1      31.605  26.407  24.671  1.00  0.00     0.118 C 
ATOM      7  C   UNL A   1      34.177  26.314  25.281  1.00  0.00     0.013 C 
ATOM      8  C   UNL A   1      33.047  26.093  24.304  1.00  0.00    -0.009 C 
ATOM      9  C   UNL A   1      33.440  26.463  22.896  1.00  0.00     0.013 C 
ATOM     10  C   UNL A   1      32.059  24.975  24.662  1.00  0.00     0.100 C 
BRANCH  10  11
ATOM     11  C   UNL A   1      31.533  23.930  23.732  1.00  0.00     0.228 C 
ATOM     12  O   UNL A   1      30.371  24.023  23.353  1.00  0.00    -0.274 OA
ATOM     13  N   UNL A   1      32.447  23.116  23.101  1.00  0.00    -0.325 N 
ATOM     14  H   UNL A   1      32.805  23.426  22.238  1.00  0.00     0.169 HD
BRANCH  13  15
ATOM     15  C   UNL A   1      32.914  21.874  23.585  1.00  0.00     0.050 A 
ATOM     16  C   UNL A   1      32.248  20.678  23.295  1.00  0.00     0.027 A 
ATOM     17  C   UNL A   1      34.094  21.806  24.364  1.00  0.00     0.023 A 
ATOM     18  C   UNL A   1      32.624  19.471  23.879  1.00  0.00     0.004 A 
ATOM     19  C   UNL A   1      34.462  20.575  24.924  1.00  0.00     0.047 A 
ATOM     20  C   UNL A   1      35.082  22.748  24.781  1.00  0.00     0.030 A 
ATOM     21  C   UNL A   1      33.722  19.403  24.733  1.00  0.00     0.027 A 
ATOM     22  N   UNL A   1      35.607  20.777  25.663  1.00  0.00    -0.361 N 
ATOM     23  C   UNL A   1      36.005  22.082  25.556  1.00  0.00     0.083 A 
ATOM     24  H   UNL A   1      36.070  20.086  26.190  1.00  0.00     0.166 HD
ENDBRANCH  13  15
ENDBRANCH  10  11
ENDBRANCH   4   6
ENDBRANCH   3   4
ENDBRANCH   2   3
ENDBRANCH   1   2
BRANCH   1  25
ATOM     25  O   UNL A   1      33.837  30.327  26.819  1.00  0.00    -0.458 OA
BRANCH  25  26
ATOM     26  C   UNL A   1      34.460  30.853  27.899  1.00  0.00     0.338 C 
ATOM     27  O   UNL A   1      34.033  31.698  28.668  1.00  0.00    -0.246 OA
BRANCH  26  28
ATOM     28  C   UNL A   1      35.746  30.176  28.100  1.00  0.00     0.060 A 
ATOM     29  C   UNL A   1      36.090  29.793  29.392  1.00  0.00     0.016 A 
ATOM     30  C   UNL A   1      36.667  30.055  27.061  1.00  0.00     0.016 A 
ATOM     31  C   UNL A   1      37.389  29.387  29.671  1.00  0.00     0.010 A 
ATOM     32  C   UNL A   1      37.953  29.568  27.334  1.00  0.00     0.010 A 
ATOM     33  C   UNL A   1      38.346  29.276  28.653  1.00  0.00    -0.014 A 
BRANCH  33  34
ATOM     34  C   UNL A   1      39.752  28.917  29.002  1.00  0.00     0.031 A 
ATOM     35  C   UNL A   1      40.611  29.874  29.793  1.00  0.00     0.074 A 
ATOM     36  C   UNL A   1      40.251  27.707  28.675  1.00  0.00     0.049 A 
ATOM     37  N   UNL A   1      41.872  29.761  30.133  1.00  0.00    -0.248 NA
ATOM     38  C   UNL A   1      39.978  31.118  30.257  1.00  0.00     0.031 C 
ATOM     39  C   UNL A   1      39.527  26.660  27.951  1.00  0.00     0.029 A 
ATOM     40  N   UNL A   1      41.478  27.142  28.932  1.00  0.00    -0.354 N 
ATOM     41  C   UNL A   1      42.197  30.944  30.791  1.00  0.00     0.074 A 
ATOM     42  C   UNL A   1      41.000  31.757  30.807  1.00  0.00     0.031 C 
ATOM     43  C   UNL A   1      40.301  25.566  27.867  1.00  0.00     0.029 A 
ATOM     44  C   UNL A   1      41.603  25.856  28.456  1.00  0.00     0.049 A 
ATOM     45  H   UNL A   1      42.199  27.611  29.410  1.00  0.00     0.167 HD
ATOM     46  C   UNL A   1      43.383  31.323  31.330  1.00  0.00     0.031 A 
ATOM     47  C   UNL A   1      42.651  25.009  28.461  1.00  0.00     0.031 A 
ATOM     48  C   UNL A   1      44.567  30.505  31.350  1.00  0.00     0.049 A 
ATOM     49  C   UNL A   1      43.959  25.456  29.052  1.00  0.00     0.074 A 
ATOM     50  C   UNL A   1      45.810  30.805  31.883  1.00  0.00     0.029 A 
ATOM     51  N   UNL A   1      44.658  29.226  30.826  1.00  0.00    -0.354 N 
ATOM     52  N   UNL A   1      44.250  26.593  29.636  1.00  0.00    -0.248 NA
ATOM     53  C   UNL A   1      45.080  24.509  28.974  1.00  0.00     0.031 C 
ATOM     54  C   UNL A   1      46.663  29.721  31.646  1.00  0.00     0.029 A 
ATOM     55  C   UNL A   1      45.937  28.727  31.014  1.00  0.00     0.049 A 
ATOM     56  H   UNL A   1      43.922  28.743  30.384  1.00  0.00     0.167 HD
ATOM     57  C   UNL A   1      45.589  26.494  30.001  1.00  0.00     0.074 A 
ATOM     58  C   UNL A   1      46.039  25.177  29.599  1.00  0.00     0.031 C 
ATOM     59  C   UNL A   1      46.375  27.417  30.609  1.00  0.00     0.031 A 
BRANCH  46  60
ATOM     60  C   UNL A   1      43.473  32.711  31.911  1.00  0.00    -0.014 A 
ATOM     61  C   UNL A   1      43.794  33.823  31.114  1.00  0.00     0.010 A 
ATOM     62  C   UNL A   1      43.189  32.905  33.276  1.00  0.00     0.010 A 
ATOM     63  C   UNL A   1      43.867  35.100  31.680  1.00  0.00     0.020 A 
ATOM     64  C   UNL A   1      43.234  34.183  33.840  1.00  0.00     0.020 A 
ATOM     65  C   UNL A   1      43.591  35.271  33.041  1.00  0.00     0.054 A 
BRANCH  65  66
ATOM     66  S   UNL A   1      43.676  36.940  33.748  1.00  0.00     0.124 S 
ATOM     67  O   UNL A   1      42.410  37.022  34.473  1.00  0.00    -0.237 OA
ATOM     68  O   UNL A   1      44.874  36.876  34.580  1.00  0.00    -0.237 OA
ATOM     69  O   UNL A   1      43.780  37.807  32.576  1.00  0.00    -0.744 OA
ENDBRANCH  65  66
ENDBRANCH  46  60
BRANCH  47  70
ATOM     70  C   UNL A   1      42.513  23.656  27.856  1.00  0.00    -0.014 A 
ATOM     71  C   UNL A   1      42.774  23.453  26.489  1.00  0.00     0.010 A 
ATOM     72  C   UNL A   1      42.134  22.558  28.651  1.00  0.00     0.010 A 
ATOM     73  C   UNL A   1      42.650  22.179  25.927  1.00  0.00     0.020 A 
ATOM     74  C   UNL A   1      42.039  21.279  28.099  1.00  0.00     0.020 A 
ATOM     75  C   UNL A   1      42.287  21.099  26.737  1.00  0.00     0.054 A 
BRANCH  75  76
ATOM     76  S   UNL A   1      42.193  19.442  26.005  1.00  0.00     0.124 S 
ATOM     77  O   UNL A   1      40.773  19.332  25.689  1.00  0.00    -0.237 OA
ATOM     78  O   UNL A   1      43.091  19.551  24.857  1.00  0.00    -0.237 OA
ATOM     79  O   UNL A   1      42.668  18.571  27.077  1.00  0.00    -0.744 OA
ENDBRANCH  75  76
ENDBRANCH  47  70
BRANCH  59  80
ATOM     80  C   UNL A   1      47.797  27.023  30.907  1.00  0.00    -0.014 A 
ATOM     81  C   UNL A   1      48.839  27.316  30.011  1.00  0.00     0.010 A 
ATOM     82  C   UNL A   1      48.098  26.383  32.123  1.00  0.00     0.010 A 
ATOM     83  C   UNL A   1      50.154  26.944  30.309  1.00  0.00     0.020 A 
ATOM     84  C   UNL A   1      49.414  26.031  32.436  1.00  0.00     0.020 A 
ATOM     85  C   UNL A   1      50.431  26.299  31.518  1.00  0.00     0.054 A 
BRANCH  85  86
ATOM     86  S   UNL A   1      52.148  25.851  31.897  1.00  0.00     0.124 S 
ATOM     87  O   UNL A   1      52.434  26.697  33.053  1.00  0.00    -0.237 OA
ATOM     88  O   UNL A   1      52.054  24.420  32.174  1.00  0.00    -0.237 OA
ATOM     89  O   UNL A   1      52.872  26.197  30.676  1.00  0.00    -0.744 OA
ENDBRANCH  85  86
ENDBRANCH  59  80
ENDBRANCH  33  34
ENDBRANCH  26  28
ENDBRANCH  25  26
ENDBRANCH   1  25
TORSDOF 16
ENDMDL
