MODEL 1
REMARK VINA RESULT:      -9.3      0.000      0.000
REMARK SMILES O=C(OCCOC(=O)c1cc(/N=C/c2ccc([N+](=O)[O-])cc2)ccc1O)c1ccc(-c2c3nc(c(-c4ccc(S(=O)(=O)[O-])cc4)c4ccc([nH]4)c(-c4ccc(S(=O)(=O)[O-])cc4)c4nc(c(-c5ccc(S(=O)(=O)[O-])cc5)c5ccc2[nH]5)C=C4)C=C3)cc1
REMARK SMILES IDX 4 1 3 2 2 3 1 4 27 5 28 6 86 7 29 8 85 9 30 10 31 11 32 12
REMARK SMILES IDX 79 13 33 14 84 15 78 16 80 17 34 18 83 19 77 20 76 21 35 23
REMARK SMILES IDX 65 24 46 25 64 26 47 27 50 28 63 29 81 30 48 31 49 32 62 34
REMARK SMILES IDX 82 35 51 36 36 37 37 38 45 39 38 40 44 41 39 42 40 43 41 44
REMARK SMILES IDX 42 45 43 46 66 47 67 48 75 49 68 50 74 51 69 52 70 53 71 54
REMARK SMILES IDX 72 55 73 56 52 57 53 58 61 59 54 60 60 61 55 62 56 63 57 64
REMARK SMILES IDX 58 65 59 66 5 67 6 68 7 69 8 70 9 71 10 72 25 73 11 74 24 75
REMARK SMILES IDX 23 76 26 77 12 79 13 80 14 81 15 82 22 83 16 84 21 85 17 86
REMARK SMILES IDX 18 87 19 88 20 89
REMARK H PARENT 80 22 50 33 26 78
REMARK Flexibility Score: inf
ROOT
ATOM      1  C   UNL A   1      34.519  33.079  28.356  1.00  0.00     0.275 C 
ENDROOT
BRANCH   1   2
ATOM      2  O   UNL A   1      34.343  31.905  27.542  1.00  0.00    -0.458 OA
BRANCH   2   3
ATOM      3  C   UNL A   1      34.609  30.605  27.816  1.00  0.00     0.338 C 
ATOM      4  O   UNL A   1      33.678  29.800  27.798  1.00  0.00    -0.246 OA
BRANCH   3   5
ATOM      5  C   UNL A   1      35.948  30.103  28.254  1.00  0.00     0.060 A 
ATOM      6  C   UNL A   1      36.273  29.630  29.527  1.00  0.00     0.016 A 
ATOM      7  C   UNL A   1      36.974  30.151  27.292  1.00  0.00     0.016 A 
ATOM      8  C   UNL A   1      37.554  29.144  29.812  1.00  0.00     0.010 A 
ATOM      9  C   UNL A   1      38.254  29.662  27.568  1.00  0.00     0.010 A 
ATOM     10  C   UNL A   1      38.551  29.154  28.835  1.00  0.00    -0.014 A 
BRANCH  10  11
ATOM     11  C   UNL A   1      39.936  28.774  29.191  1.00  0.00     0.031 A 
ATOM     12  C   UNL A   1      40.793  29.784  29.895  1.00  0.00     0.074 A 
ATOM     13  C   UNL A   1      40.403  27.539  28.934  1.00  0.00     0.049 A 
ATOM     14  N   UNL A   1      42.006  29.648  30.359  1.00  0.00    -0.248 NA
ATOM     15  C   UNL A   1      40.193  31.106  30.138  1.00  0.00     0.031 C 
ATOM     16  C   UNL A   1      39.629  26.453  28.337  1.00  0.00     0.029 A 
ATOM     17  N   UNL A   1      41.643  26.988  29.132  1.00  0.00    -0.354 N 
ATOM     18  C   UNL A   1      42.295  30.849  30.991  1.00  0.00     0.074 A 
ATOM     19  C   UNL A   1      41.164  31.727  30.789  1.00  0.00     0.031 C 
ATOM     20  C   UNL A   1      40.428  25.387  28.153  1.00  0.00     0.029 A 
ATOM     21  C   UNL A   1      41.764  25.710  28.639  1.00  0.00     0.049 A 
ATOM     22  H   UNL A   1      42.377  27.463  29.584  1.00  0.00     0.167 HD
ATOM     23  C   UNL A   1      43.394  31.179  31.709  1.00  0.00     0.031 A 
ATOM     24  C   UNL A   1      42.835  24.893  28.589  1.00  0.00     0.031 A 
ATOM     25  C   UNL A   1      44.534  30.319  31.859  1.00  0.00     0.049 A 
ATOM     26  C   UNL A   1      44.109  25.342  29.251  1.00  0.00     0.074 A 
ATOM     27  C   UNL A   1      45.709  30.554  32.548  1.00  0.00     0.029 A 
ATOM     28  N   UNL A   1      44.646  29.060  31.286  1.00  0.00    -0.354 N 
ATOM     29  N   UNL A   1      44.347  26.462  29.892  1.00  0.00    -0.248 NA
ATOM     30  C   UNL A   1      45.240  24.406  29.223  1.00  0.00     0.031 C 
ATOM     31  C   UNL A   1      46.554  29.457  32.347  1.00  0.00     0.029 A 
ATOM     32  C   UNL A   1      45.883  28.516  31.579  1.00  0.00     0.049 A 
ATOM     33  H   UNL A   1      43.948  28.619  30.752  1.00  0.00     0.167 HD
ATOM     34  C   UNL A   1      45.640  26.345  30.388  1.00  0.00     0.074 A 
ATOM     35  C   UNL A   1      46.133  25.049  29.965  1.00  0.00     0.031 C 
ATOM     36  C   UNL A   1      46.347  27.223  31.143  1.00  0.00     0.031 A 
BRANCH  23  37
ATOM     37  C   UNL A   1      43.397  32.536  32.354  1.00  0.00    -0.014 A 
ATOM     38  C   UNL A   1      43.005  32.692  33.698  1.00  0.00     0.010 A 
ATOM     39  C   UNL A   1      43.759  33.670  31.608  1.00  0.00     0.010 A 
ATOM     40  C   UNL A   1      42.926  33.966  34.268  1.00  0.00     0.020 A 
ATOM     41  C   UNL A   1      43.703  34.943  32.182  1.00  0.00     0.020 A 
ATOM     42  C   UNL A   1      43.266  35.084  33.501  1.00  0.00     0.054 A 
BRANCH  42  43
ATOM     43  S   UNL A   1      43.137  36.728  34.258  1.00  0.00     0.124 S 
ATOM     44  O   UNL A   1      44.222  36.693  35.237  1.00  0.00    -0.237 OA
ATOM     45  O   UNL A   1      43.346  37.622  33.123  1.00  0.00    -0.237 OA
ATOM     46  O   UNL A   1      41.790  36.744  34.822  1.00  0.00    -0.744 OA
ENDBRANCH  42  43
ENDBRANCH  23  37
BRANCH  24  47
ATOM     47  C   UNL A   1      42.742  23.578  27.897  1.00  0.00    -0.014 A 
ATOM     48  C   UNL A   1      43.099  23.440  26.545  1.00  0.00     0.010 A 
ATOM     49  C   UNL A   1      42.288  22.446  28.602  1.00  0.00     0.010 A 
ATOM     50  C   UNL A   1      42.987  22.201  25.905  1.00  0.00     0.020 A 
ATOM     51  C   UNL A   1      42.194  21.202  27.971  1.00  0.00     0.020 A 
ATOM     52  C   UNL A   1      42.534  21.090  26.622  1.00  0.00     0.054 A 
BRANCH  52  53
ATOM     53  S   UNL A   1      42.434  19.484  25.781  1.00  0.00     0.124 S 
ATOM     54  O   UNL A   1      43.430  19.631  24.726  1.00  0.00    -0.237 OA
ATOM     55  O   UNL A   1      42.775  18.551  26.852  1.00  0.00    -0.237 OA
ATOM     56  O   UNL A   1      41.045  19.422  25.331  1.00  0.00    -0.744 OA
ENDBRANCH  52  53
ENDBRANCH  24  47
BRANCH  36  57
ATOM     57  C   UNL A   1      47.715  26.793  31.591  1.00  0.00    -0.014 A 
ATOM     58  C   UNL A   1      47.894  26.044  32.767  1.00  0.00     0.010 A 
ATOM     59  C   UNL A   1      48.828  27.088  30.784  1.00  0.00     0.010 A 
ATOM     60  C   UNL A   1      49.170  25.618  33.140  1.00  0.00     0.020 A 
ATOM     61  C   UNL A   1      50.102  26.640  31.140  1.00  0.00     0.020 A 
ATOM     62  C   UNL A   1      50.265  25.917  32.323  1.00  0.00     0.054 A 
BRANCH  62  63
ATOM     63  S   UNL A   1      51.902  25.302  32.799  1.00  0.00     0.124 S 
ATOM     64  O   UNL A   1      52.647  25.426  31.549  1.00  0.00    -0.237 OA
ATOM     65  O   UNL A   1      52.298  26.224  33.860  1.00  0.00    -0.237 OA
ATOM     66  O   UNL A   1      51.642  23.933  33.237  1.00  0.00    -0.744 OA
ENDBRANCH  62  63
ENDBRANCH  36  57
ENDBRANCH  10  11
ENDBRANCH   3   5
ENDBRANCH   2   3
ENDBRANCH   1   2
BRANCH   1  67
ATOM     67  C   UNL A   1      34.358  32.851  29.857  1.00  0.00     0.275 C 
BRANCH  67  68
ATOM     68  O   UNL A   1      35.054  33.815  30.653  1.00  0.00    -0.458 OA
BRANCH  68  69
ATOM     69  C   UNL A   1      34.412  34.221  31.779  1.00  0.00     0.342 C 
ATOM     70  O   UNL A   1      33.294  34.708  31.849  1.00  0.00    -0.246 OA
BRANCH  69  71
ATOM     71  C   UNL A   1      35.206  33.841  32.961  1.00  0.00     0.103 A 
ATOM     72  C   UNL A   1      35.989  32.681  32.872  1.00  0.00     0.048 A 
ATOM     73  C   UNL A   1      35.227  34.612  34.122  1.00  0.00     0.130 A 
ATOM     74  C   UNL A   1      36.872  32.340  33.900  1.00  0.00     0.064 A 
ATOM     75  C   UNL A   1      36.062  34.249  35.176  1.00  0.00     0.049 A 
ATOM     76  C   UNL A   1      36.910  33.145  35.045  1.00  0.00     0.032 A 
BRANCH  73  77
ATOM     77  O   UNL A   1      34.447  35.728  34.230  1.00  0.00    -0.507 OA
ATOM     78  H   UNL A   1      33.754  35.876  33.617  1.00  0.00     0.293 HD
ENDBRANCH  73  77
BRANCH  74  79
ATOM     79  N   UNL A   1      37.761  31.271  33.681  1.00  0.00    -0.256 NA
ATOM     80  C   UNL A   1      38.902  31.276  34.290  1.00  0.00     0.119 C 
BRANCH  80  81
ATOM     81  C   UNL A   1      39.873  30.173  34.146  1.00  0.00    -0.007 A 
ATOM     82  C   UNL A   1      40.974  30.155  35.009  1.00  0.00     0.017 A 
ATOM     83  C   UNL A   1      39.685  29.145  33.214  1.00  0.00     0.017 A 
ATOM     84  C   UNL A   1      41.870  29.085  34.974  1.00  0.00     0.086 A 
ATOM     85  C   UNL A   1      40.586  28.075  33.167  1.00  0.00     0.086 A 
ATOM     86  C   UNL A   1      41.666  28.040  34.062  1.00  0.00     0.269 A 
BRANCH  86  87
ATOM     87  N   UNL A   1      42.573  26.885  34.072  1.00  0.00     0.062 N 
ATOM     88  O   UNL A   1      43.448  26.832  33.195  1.00  0.00    -0.258 OA
ATOM     89  O   UNL A   1      42.427  26.040  34.967  1.00  0.00    -0.258 OA
ENDBRANCH  86  87
ENDBRANCH  80  81
ENDBRANCH  74  79
ENDBRANCH  69  71
ENDBRANCH  68  69
ENDBRANCH  67  68
ENDBRANCH   1  67
TORSDOF 18
ENDMDL
MODEL 2
REMARK VINA RESULT:      -9.1      4.554      7.585
REMARK SMILES O=C(OCCOC(=O)c1cc(/N=C/c2ccc([N+](=O)[O-])cc2)ccc1O)c1ccc(-c2c3nc(c(-c4ccc(S(=O)(=O)[O-])cc4)c4ccc([nH]4)c(-c4ccc(S(=O)(=O)[O-])cc4)c4nc(c(-c5ccc(S(=O)(=O)[O-])cc5)c5ccc2[nH]5)C=C4)C=C3)cc1
REMARK SMILES IDX 4 1 3 2 2 3 1 4 27 5 28 6 86 7 29 8 85 9 30 10 31 11 32 12
REMARK SMILES IDX 79 13 33 14 84 15 78 16 80 17 34 18 83 19 77 20 76 21 35 23
REMARK SMILES IDX 65 24 46 25 64 26 47 27 50 28 63 29 81 30 48 31 49 32 62 34
REMARK SMILES IDX 82 35 51 36 36 37 37 38 45 39 38 40 44 41 39 42 40 43 41 44
REMARK SMILES IDX 42 45 43 46 66 47 67 48 75 49 68 50 74 51 69 52 70 53 71 54
REMARK SMILES IDX 72 55 73 56 52 57 53 58 61 59 54 60 60 61 55 62 56 63 57 64
REMARK SMILES IDX 58 65 59 66 5 67 6 68 7 69 8 70 9 71 10 72 25 73 11 74 24 75
REMARK SMILES IDX 23 76 26 77 12 79 13 80 14 81 15 82 22 83 16 84 21 85 17 86
REMARK SMILES IDX 18 87 19 88 20 89
REMARK H PARENT 80 22 50 33 26 78
REMARK Flexibility Score: inf
ROOT
ATOM      1  C   UNL A   1      32.982  29.685  25.992  1.00  0.00     0.275 C 
ENDROOT
BRANCH   1   2
ATOM      2  O   UNL A   1      33.416  29.709  27.363  1.00  0.00    -0.458 OA
BRANCH   2   3
ATOM      3  C   UNL A   1      34.333  30.497  27.976  1.00  0.00     0.338 C 
ATOM      4  O   UNL A   1      34.058  31.683  28.157  1.00  0.00    -0.246 OA
BRANCH   3   5
ATOM      5  C   UNL A   1      35.709  30.042  28.343  1.00  0.00     0.060 A 
ATOM      6  C   UNL A   1      36.121  29.602  29.603  1.00  0.00     0.016 A 
ATOM      7  C   UNL A   1      36.676  30.102  27.322  1.00  0.00     0.016 A 
ATOM      8  C   UNL A   1      37.430  29.158  29.821  1.00  0.00     0.010 A 
ATOM      9  C   UNL A   1      37.984  29.655  27.531  1.00  0.00     0.010 A 
ATOM     10  C   UNL A   1      38.368  29.179  28.787  1.00  0.00    -0.014 A 
BRANCH  10  11
ATOM     11  C   UNL A   1      39.782  28.846  29.068  1.00  0.00     0.031 A 
ATOM     12  C   UNL A   1      40.658  29.905  29.668  1.00  0.00     0.074 A 
ATOM     13  C   UNL A   1      40.261  27.610  28.838  1.00  0.00     0.049 A 
ATOM     14  N   UNL A   1      41.902  29.818  30.057  1.00  0.00    -0.248 NA
ATOM     15  C   UNL A   1      40.043  31.225  29.890  1.00  0.00     0.031 C 
ATOM     16  C   UNL A   1      39.477  26.481  28.342  1.00  0.00     0.029 A 
ATOM     17  N   UNL A   1      41.525  27.096  28.978  1.00  0.00    -0.354 N 
ATOM     18  C   UNL A   1      42.202  31.053  30.614  1.00  0.00     0.074 A 
ATOM     19  C   UNL A   1      41.039  31.896  30.447  1.00  0.00     0.031 C 
ATOM     20  C   UNL A   1      40.288  25.425  28.155  1.00  0.00     0.029 A 
ATOM     21  C   UNL A   1      41.645  25.799  28.537  1.00  0.00     0.049 A 
ATOM     22  H   UNL A   1      42.275  27.607  29.359  1.00  0.00     0.167 HD
ATOM     23  C   UNL A   1      43.336  31.439  31.243  1.00  0.00     0.031 A 
ATOM     24  C   UNL A   1      42.729  25.003  28.453  1.00  0.00     0.031 A 
ATOM     25  C   UNL A   1      44.505  30.612  31.356  1.00  0.00     0.049 A 
ATOM     26  C   UNL A   1      44.032  25.509  29.009  1.00  0.00     0.074 A 
ATOM     27  C   UNL A   1      45.715  30.904  31.955  1.00  0.00     0.029 A 
ATOM     28  N   UNL A   1      44.610  29.329  30.835  1.00  0.00    -0.354 N 
ATOM     29  N   UNL A   1      44.285  26.663  29.582  1.00  0.00    -0.248 NA
ATOM     30  C   UNL A   1      45.181  24.598  28.950  1.00  0.00     0.031 C 
ATOM     31  C   UNL A   1      46.572  29.816  31.749  1.00  0.00     0.029 A 
ATOM     32  C   UNL A   1      45.876  28.826  31.070  1.00  0.00     0.049 A 
ATOM     33  H   UNL A   1      43.889  28.849  30.368  1.00  0.00     0.167 HD
ATOM     34  C   UNL A   1      45.609  26.598  29.997  1.00  0.00     0.074 A 
ATOM     35  C   UNL A   1      46.105  25.294  29.601  1.00  0.00     0.031 C 
ATOM     36  C   UNL A   1      46.342  27.524  30.663  1.00  0.00     0.031 A 
BRANCH  23  37
ATOM     37  C   UNL A   1      43.348  32.824  31.824  1.00  0.00    -0.014 A 
ATOM     38  C   UNL A   1      43.861  33.908  31.085  1.00  0.00     0.010 A 
ATOM     39  C   UNL A   1      42.877  33.044  33.129  1.00  0.00     0.010 A 
ATOM     40  C   UNL A   1      43.950  35.178  31.662  1.00  0.00     0.020 A 
ATOM     41  C   UNL A   1      42.943  34.318  33.700  1.00  0.00     0.020 A 
ATOM     42  C   UNL A   1      43.499  35.371  32.970  1.00  0.00     0.054 A 
BRANCH  42  43
ATOM     43  S   UNL A   1      43.642  37.025  33.703  1.00  0.00     0.124 S 
ATOM     44  O   UNL A   1      43.663  37.878  32.516  1.00  0.00    -0.237 OA
ATOM     45  O   UNL A   1      42.437  37.120  34.522  1.00  0.00    -0.237 OA
ATOM     46  O   UNL A   1      44.896  36.965  34.449  1.00  0.00    -0.744 OA
ENDBRANCH  42  43
ENDBRANCH  23  37
BRANCH  24  47
ATOM     47  C   UNL A   1      42.625  23.656  27.830  1.00  0.00    -0.014 A 
ATOM     48  C   UNL A   1      42.238  22.534  28.582  1.00  0.00     0.010 A 
ATOM     49  C   UNL A   1      42.919  23.491  26.462  1.00  0.00     0.010 A 
ATOM     50  C   UNL A   1      42.165  21.271  27.985  1.00  0.00     0.020 A 
ATOM     51  C   UNL A   1      42.827  22.234  25.857  1.00  0.00     0.020 A 
ATOM     52  C   UNL A   1      42.460  21.129  26.626  1.00  0.00     0.054 A 
BRANCH  52  53
ATOM     53  S   UNL A   1      42.320  19.487  25.863  1.00  0.00     0.124 S 
ATOM     54  O   UNL A   1      42.641  18.605  26.980  1.00  0.00    -0.237 OA
ATOM     55  O   UNL A   1      40.929  19.469  25.418  1.00  0.00    -0.237 OA
ATOM     56  O   UNL A   1      43.310  19.526  24.788  1.00  0.00    -0.744 OA
ENDBRANCH  52  53
ENDBRANCH  24  47
BRANCH  36  57
ATOM     57  C   UNL A   1      47.746  27.145  31.040  1.00  0.00    -0.014 A 
ATOM     58  C   UNL A   1      48.011  26.396  32.199  1.00  0.00     0.010 A 
ATOM     59  C   UNL A   1      48.806  27.488  30.181  1.00  0.00     0.010 A 
ATOM     60  C   UNL A   1      49.320  26.018  32.505  1.00  0.00     0.020 A 
ATOM     61  C   UNL A   1      50.111  27.087  30.470  1.00  0.00     0.020 A 
ATOM     62  C   UNL A   1      50.361  26.365  31.638  1.00  0.00     0.054 A 
BRANCH  62  63
ATOM     63  S   UNL A   1      52.043  25.810  32.027  1.00  0.00     0.124 S 
ATOM     64  O   UNL A   1      52.422  26.724  33.101  1.00  0.00    -0.237 OA
ATOM     65  O   UNL A   1      51.839  24.420  32.427  1.00  0.00    -0.237 OA
ATOM     66  O   UNL A   1      52.765  25.990  30.770  1.00  0.00    -0.744 OA
ENDBRANCH  62  63
ENDBRANCH  36  57
ENDBRANCH  10  11
ENDBRANCH   3   5
ENDBRANCH   2   3
ENDBRANCH   1   2
BRANCH   1  67
ATOM     67  C   UNL A   1      31.633  29.011  25.756  1.00  0.00     0.275 C 
BRANCH  67  68
ATOM     68  O   UNL A   1      31.551  28.336  24.495  1.00  0.00    -0.458 OA
BRANCH  68  69
ATOM     69  C   UNL A   1      31.086  27.060  24.542  1.00  0.00     0.342 C 
ATOM     70  O   UNL A   1      30.212  26.626  25.276  1.00  0.00    -0.246 OA
BRANCH  69  71
ATOM     71  C   UNL A   1      31.688  26.279  23.447  1.00  0.00     0.103 A 
ATOM     72  C   UNL A   1      32.229  25.025  23.765  1.00  0.00     0.048 A 
ATOM     73  C   UNL A   1      31.694  26.729  22.128  1.00  0.00     0.130 A 
ATOM     74  C   UNL A   1      32.687  24.172  22.757  1.00  0.00     0.064 A 
ATOM     75  C   UNL A   1      32.201  25.910  21.122  1.00  0.00     0.049 A 
ATOM     76  C   UNL A   1      32.653  24.623  21.431  1.00  0.00     0.032 A 
BRANCH  73  77
ATOM     77  O   UNL A   1      31.195  27.960  21.811  1.00  0.00    -0.507 OA
ATOM     78  H   UNL A   1      30.637  28.409  22.415  1.00  0.00     0.293 HD
ENDBRANCH  73  77
BRANCH  74  79
ATOM     79  N   UNL A   1      33.051  22.860  23.114  1.00  0.00    -0.256 NA
ATOM     80  C   UNL A   1      32.117  21.991  23.323  1.00  0.00     0.119 C 
BRANCH  80  81
ATOM     81  C   UNL A   1      32.414  20.585  23.663  1.00  0.00    -0.007 A 
ATOM     82  C   UNL A   1      32.724  20.285  24.994  1.00  0.00     0.017 A 
ATOM     83  C   UNL A   1      32.343  19.567  22.704  1.00  0.00     0.017 A 
ATOM     84  C   UNL A   1      32.922  18.959  25.382  1.00  0.00     0.086 A 
ATOM     85  C   UNL A   1      32.551  18.237  23.085  1.00  0.00     0.086 A 
ATOM     86  C   UNL A   1      32.821  17.935  24.428  1.00  0.00     0.269 A 
BRANCH  86  87
ATOM     87  N   UNL A   1      32.965  16.537  24.853  1.00  0.00     0.062 N 
ATOM     88  O   UNL A   1      32.429  16.200  25.919  1.00  0.00    -0.258 OA
ATOM     89  O   UNL A   1      33.597  15.768  24.114  1.00  0.00    -0.258 OA
ENDBRANCH  86  87
ENDBRANCH  80  81
ENDBRANCH  74  79
ENDBRANCH  69  71
ENDBRANCH  68  69
ENDBRANCH  67  68
ENDBRANCH   1  67
TORSDOF 18
ENDMDL
MODEL 3
REMARK VINA RESULT:      -9.0      3.985     12.362
REMARK SMILES O=C(OCCOC(=O)c1cc(/N=C/c2ccc([N+](=O)[O-])cc2)ccc1O)c1ccc(-c2c3nc(c(-c4ccc(S(=O)(=O)[O-])cc4)c4ccc([nH]4)c(-c4ccc(S(=O)(=O)[O-])cc4)c4nc(c(-c5ccc(S(=O)(=O)[O-])cc5)c5ccc2[nH]5)C=C4)C=C3)cc1
REMARK SMILES IDX 4 1 3 2 2 3 1 4 27 5 28 6 86 7 29 8 85 9 30 10 31 11 32 12
REMARK SMILES IDX 79 13 33 14 84 15 78 16 80 17 34 18 83 19 77 20 76 21 35 23
REMARK SMILES IDX 65 24 46 25 64 26 47 27 50 28 63 29 81 30 48 31 49 32 62 34
REMARK SMILES IDX 82 35 51 36 36 37 37 38 45 39 38 40 44 41 39 42 40 43 41 44
REMARK SMILES IDX 42 45 43 46 66 47 67 48 75 49 68 50 74 51 69 52 70 53 71 54
REMARK SMILES IDX 72 55 73 56 52 57 53 58 61 59 54 60 60 61 55 62 56 63 57 64
REMARK SMILES IDX 58 65 59 66 5 67 6 68 7 69 8 70 9 71 10 72 25 73 11 74 24 75
REMARK SMILES IDX 23 76 26 77 12 79 13 80 14 81 15 82 22 83 16 84 21 85 17 86
REMARK SMILES IDX 18 87 19 88 20 89
REMARK H PARENT 80 22 50 33 26 78
REMARK Flexibility Score: inf
ROOT
ATOM      1  C   UNL A   1      44.407  23.910  25.721  1.00  0.00     0.275 C 
ENDROOT
BRANCH   1   2
ATOM      2  O   UNL A   1      43.006  24.108  25.982  1.00  0.00    -0.458 OA
BRANCH   2   3
ATOM      3  C   UNL A   1      42.268  25.244  25.969  1.00  0.00     0.338 C 
ATOM      4  O   UNL A   1      41.931  25.712  24.882  1.00  0.00    -0.246 OA
BRANCH   3   5
ATOM      5  C   UNL A   1      41.932  26.033  27.195  1.00  0.00     0.060 A 
ATOM      6  C   UNL A   1      40.831  25.827  28.029  1.00  0.00     0.016 A 
ATOM      7  C   UNL A   1      42.796  27.100  27.503  1.00  0.00     0.016 A 
ATOM      8  C   UNL A   1      40.640  26.603  29.178  1.00  0.00     0.010 A 
ATOM      9  C   UNL A   1      42.615  27.876  28.652  1.00  0.00     0.010 A 
ATOM     10  C   UNL A   1      41.531  27.629  29.498  1.00  0.00    -0.014 A 
BRANCH  10  11
ATOM     11  C   UNL A   1      41.237  28.534  30.631  1.00  0.00     0.031 A 
ATOM     12  C   UNL A   1      42.025  28.370  31.896  1.00  0.00     0.074 A 
ATOM     13  C   UNL A   1      40.319  29.511  30.517  1.00  0.00     0.049 A 
ATOM     14  N   UNL A   1      41.984  29.089  32.986  1.00  0.00    -0.248 NA
ATOM     15  C   UNL A   1      43.011  27.277  31.925  1.00  0.00     0.031 C 
ATOM     16  C   UNL A   1      39.560  29.817  29.306  1.00  0.00     0.029 A 
ATOM     17  N   UNL A   1      39.859  30.423  31.432  1.00  0.00    -0.354 N 
ATOM     18  C   UNL A   1      42.972  28.566  33.810  1.00  0.00     0.074 A 
ATOM     19  C   UNL A   1      43.544  27.427  33.128  1.00  0.00     0.031 C 
ATOM     20  C   UNL A   1      38.680  30.799  29.570  1.00  0.00     0.029 A 
ATOM     21  C   UNL A   1      38.829  31.204  30.963  1.00  0.00     0.049 A 
ATOM     22  H   UNL A   1      40.231  30.510  32.339  1.00  0.00     0.167 HD
ATOM     23  C   UNL A   1      43.390  29.019  35.014  1.00  0.00     0.031 A 
ATOM     24  C   UNL A   1      38.091  32.142  31.589  1.00  0.00     0.031 A 
ATOM     25  C   UNL A   1      42.779  30.119  35.707  1.00  0.00     0.049 A 
ATOM     26  C   UNL A   1      38.463  32.524  32.995  1.00  0.00     0.074 A 
ATOM     27  C   UNL A   1      43.108  30.654  36.938  1.00  0.00     0.029 A 
ATOM     28  N   UNL A   1      41.694  30.840  35.229  1.00  0.00    -0.354 N 
ATOM     29  N   UNL A   1      39.437  32.054  33.741  1.00  0.00    -0.248 NA
ATOM     30  C   UNL A   1      37.673  33.586  33.629  1.00  0.00     0.031 C 
ATOM     31  C   UNL A   1      42.185  31.666  37.228  1.00  0.00     0.029 A 
ATOM     32  C   UNL A   1      41.318  31.796  36.153  1.00  0.00     0.049 A 
ATOM     33  H   UNL A   1      41.258  30.693  34.359  1.00  0.00     0.167 HD
ATOM     34  C   UNL A   1      39.408  32.799  34.913  1.00  0.00     0.074 A 
ATOM     35  C   UNL A   1      38.315  33.743  34.780  1.00  0.00     0.031 C 
ATOM     36  C   UNL A   1      40.224  32.722  35.994  1.00  0.00     0.031 A 
BRANCH  23  37
ATOM     37  C   UNL A   1      44.546  28.294  35.644  1.00  0.00    -0.014 A 
ATOM     38  C   UNL A   1      44.336  27.109  36.376  1.00  0.00     0.010 A 
ATOM     39  C   UNL A   1      45.846  28.814  35.537  1.00  0.00     0.010 A 
ATOM     40  C   UNL A   1      45.401  26.486  37.033  1.00  0.00     0.020 A 
ATOM     41  C   UNL A   1      46.917  28.181  36.173  1.00  0.00     0.020 A 
ATOM     42  C   UNL A   1      46.683  27.034  36.935  1.00  0.00     0.054 A 
BRANCH  42  43
ATOM     43  S   UNL A   1      48.046  26.217  37.812  1.00  0.00     0.124 S 
ATOM     44  O   UNL A   1      47.369  25.694  38.996  1.00  0.00    -0.237 OA
ATOM     45  O   UNL A   1      48.491  25.212  36.849  1.00  0.00    -0.237 OA
ATOM     46  O   UNL A   1      48.994  27.299  38.062  1.00  0.00    -0.744 OA
ENDBRANCH  42  43
ENDBRANCH  23  37
BRANCH  24  47
ATOM     47  C   UNL A   1      36.943  32.782  30.891  1.00  0.00    -0.014 A 
ATOM     48  C   UNL A   1      37.132  33.879  30.034  1.00  0.00     0.010 A 
ATOM     49  C   UNL A   1      35.639  32.288  31.088  1.00  0.00     0.010 A 
ATOM     50  C   UNL A   1      36.039  34.483  29.402  1.00  0.00     0.020 A 
ATOM     51  C   UNL A   1      34.547  32.875  30.442  1.00  0.00     0.020 A 
ATOM     52  C   UNL A   1      34.753  33.977  29.610  1.00  0.00     0.054 A 
BRANCH  52  53
ATOM     53  S   UNL A   1      33.355  34.750  28.748  1.00  0.00     0.124 S 
ATOM     54  O   UNL A   1      32.861  33.651  27.925  1.00  0.00    -0.237 OA
ATOM     55  O   UNL A   1      32.492  35.153  29.856  1.00  0.00    -0.237 OA
ATOM     56  O   UNL A   1      33.975  35.853  28.017  1.00  0.00    -0.744 OA
ENDBRANCH  52  53
ENDBRANCH  24  47
BRANCH  36  57
ATOM     57  C   UNL A   1      39.990  33.711  37.100  1.00  0.00    -0.014 A 
ATOM     58  C   UNL A   1      40.424  35.043  36.989  1.00  0.00     0.010 A 
ATOM     59  C   UNL A   1      39.264  33.313  38.237  1.00  0.00     0.010 A 
ATOM     60  C   UNL A   1      40.156  35.955  38.012  1.00  0.00     0.020 A 
ATOM     61  C   UNL A   1      38.971  34.229  39.249  1.00  0.00     0.020 A 
ATOM     62  C   UNL A   1      39.430  35.542  39.135  1.00  0.00     0.054 A 
BRANCH  62  63
ATOM     63  S   UNL A   1      39.043  36.760  40.420  1.00  0.00     0.124 S 
ATOM     64  O   UNL A   1      38.549  37.886  39.632  1.00  0.00    -0.237 OA
ATOM     65  O   UNL A   1      38.040  36.070  41.227  1.00  0.00    -0.237 OA
ATOM     66  O   UNL A   1      40.325  36.979  41.085  1.00  0.00    -0.744 OA
ENDBRANCH  62  63
ENDBRANCH  36  57
ENDBRANCH  10  11
ENDBRANCH   3   5
ENDBRANCH   2   3
ENDBRANCH   1   2
BRANCH   1  67
ATOM     67  C   UNL A   1      44.735  23.422  24.312  1.00  0.00     0.275 C 
BRANCH  67  68
ATOM     68  O   UNL A   1      44.378  22.053  24.090  1.00  0.00    -0.458 OA
BRANCH  68  69
ATOM     69  C   UNL A   1      45.049  21.141  24.841  1.00  0.00     0.342 C 
ATOM     70  O   UNL A   1      46.236  21.164  25.132  1.00  0.00    -0.246 OA
BRANCH  69  71
ATOM     71  C   UNL A   1      44.094  20.172  25.405  1.00  0.00     0.103 A 
ATOM     72  C   UNL A   1      42.800  20.627  25.696  1.00  0.00     0.048 A 
ATOM     73  C   UNL A   1      44.428  18.834  25.615  1.00  0.00     0.130 A 
ATOM     74  C   UNL A   1      41.805  19.732  26.099  1.00  0.00     0.064 A 
ATOM     75  C   UNL A   1      43.458  17.944  26.071  1.00  0.00     0.049 A 
ATOM     76  C   UNL A   1      42.146  18.384  26.269  1.00  0.00     0.032 A 
BRANCH  73  77
ATOM     77  O   UNL A   1      45.693  18.386  25.362  1.00  0.00    -0.507 OA
ATOM     78  H   UNL A   1      46.307  18.941  24.923  1.00  0.00     0.293 HD
ENDBRANCH  73  77
BRANCH  74  79
ATOM     79  N   UNL A   1      40.486  20.211  26.201  1.00  0.00    -0.256 NA
ATOM     80  C   UNL A   1      40.248  21.446  25.899  1.00  0.00     0.119 C 
BRANCH  80  81
ATOM     81  C   UNL A   1      38.886  22.016  25.942  1.00  0.00    -0.007 A 
ATOM     82  C   UNL A   1      38.739  23.323  26.418  1.00  0.00     0.017 A 
ATOM     83  C   UNL A   1      37.776  21.301  25.476  1.00  0.00     0.017 A 
ATOM     84  C   UNL A   1      37.487  23.939  26.391  1.00  0.00     0.086 A 
ATOM     85  C   UNL A   1      36.516  21.909  25.457  1.00  0.00     0.086 A 
ATOM     86  C   UNL A   1      36.379  23.234  25.897  1.00  0.00     0.269 A 
BRANCH  86  87
ATOM     87  N   UNL A   1      35.076  23.907  25.810  1.00  0.00     0.062 N 
ATOM     88  O   UNL A   1      34.877  24.652  24.839  1.00  0.00    -0.258 OA
ATOM     89  O   UNL A   1      34.244  23.677  26.698  1.00  0.00    -0.258 OA
ENDBRANCH  86  87
ENDBRANCH  80  81
ENDBRANCH  74  79
ENDBRANCH  69  71
ENDBRANCH  68  69
ENDBRANCH  67  68
ENDBRANCH   1  67
TORSDOF 18
ENDMDL
