MODEL 1
REMARK VINA RESULT:      -9.6      0.000      0.000
REMARK SMILES CC(C)(O)CC[C@@H](C(=O)OCCOC(=O)c1ccc(-c2c3nc(c(-c4ccc(S(=O)(=O)[O-])cc4)c4ccc([nH]4)c(-c4ccc(S(=O)(=O)[O-])cc4)c4nc(c(-c5ccc(S(=O)(=O)[O-])cc5)c5ccc2[nH]5)C=C4)C=C3)cc1)[C@@H]1CCS(=O)(=O)C1
REMARK SMILES IDX 11 1 10 2 8 3 9 4 7 5 6 6 5 7 2 8 1 9 3 10 4 11 76 13 77 14
REMARK SMILES IDX 82 15 78 16 79 17 80 18 81 19 12 20 13 21 14 22 15 23 16 24
REMARK SMILES IDX 17 25 75 26 18 27 74 28 19 29 20 30 21 31 68 32 22 33 73 34
REMARK SMILES IDX 67 35 69 36 23 37 72 38 66 39 65 40 24 42 54 43 35 44 53 45
REMARK SMILES IDX 36 46 39 47 52 48 70 49 37 50 38 51 51 53 71 54 40 55 25 56
REMARK SMILES IDX 26 57 34 58 27 59 33 60 28 61 29 62 30 63 31 64 32 65 55 66
REMARK SMILES IDX 56 67 64 68 57 69 63 70 58 71 59 72 60 73 61 74 62 75 41 76
REMARK SMILES IDX 42 77 50 78 43 79 49 80 44 81 45 82 46 83 47 84 48 85
REMARK H PARENT 4 12 69 41 39 52
REMARK Flexibility Score: inf
ROOT
ATOM      1  C   UNL A   1      31.799  27.921  26.613  1.00  0.00     0.274 C 
ENDROOT
BRANCH   1   2
ATOM      2  O   UNL A   1      32.796  26.902  26.385  1.00  0.00    -0.462 OA
BRANCH   2   3
ATOM      3  C   UNL A   1      32.380  25.620  26.233  1.00  0.00     0.309 C 
ATOM      4  O   UNL A   1      31.278  25.218  26.582  1.00  0.00    -0.252 OA
BRANCH   3   5
ATOM      5  C   UNL A   1      33.468  24.696  25.647  1.00  0.00     0.103 C 
BRANCH   5   6
ATOM      6  C   UNL A   1      34.148  25.277  24.385  1.00  0.00     0.018 C 
BRANCH   6   7
ATOM      7  C   UNL A   1      33.253  25.613  23.172  1.00  0.00     0.035 C 
BRANCH   7   8
ATOM      8  C   UNL A   1      33.155  27.081  22.701  1.00  0.00     0.059 C 
ATOM      9  C   UNL A   1      33.970  28.092  23.520  1.00  0.00     0.042 C 
ATOM     10  C   UNL A   1      31.682  27.509  22.778  1.00  0.00     0.042 C 
BRANCH   8  11
ATOM     11  O   UNL A   1      33.561  27.121  21.334  1.00  0.00    -0.390 OA
ATOM     12  H   UNL A   1      34.115  27.903  21.184  1.00  0.00     0.211 HD
ENDBRANCH   8  11
ENDBRANCH   7   8
ENDBRANCH   6   7
ENDBRANCH   5   6
BRANCH   5  13
ATOM     13  C   UNL A   1      33.027  23.209  25.394  1.00  0.00     0.019 C 
ATOM     14  C   UNL A   1      32.948  22.300  26.642  1.00  0.00     0.021 C 
ATOM     15  C   UNL A   1      34.033  22.446  24.502  1.00  0.00     0.141 C 
ATOM     16  C   UNL A   1      34.375  22.050  27.113  1.00  0.00     0.137 C 
ATOM     17  S   UNL A   1      35.314  21.856  25.605  1.00  0.00     0.150 S 
ATOM     18  O   UNL A   1      36.399  22.815  25.601  1.00  0.00    -0.229 OA
ATOM     19  O   UNL A   1      35.532  20.447  25.350  1.00  0.00    -0.229 OA
ENDBRANCH   5  13
ENDBRANCH   3   5
ENDBRANCH   2   3
ENDBRANCH   1   2
BRANCH   1  20
ATOM     20  C   UNL A   1      32.477  29.284  26.740  1.00  0.00     0.275 C 
BRANCH  20  21
ATOM     21  O   UNL A   1      33.771  29.120  27.349  1.00  0.00    -0.458 OA
BRANCH  21  22
ATOM     22  C   UNL A   1      34.314  30.241  27.884  1.00  0.00     0.338 C 
ATOM     23  O   UNL A   1      33.746  31.276  28.183  1.00  0.00    -0.246 OA
BRANCH  22  24
ATOM     24  C   UNL A   1      35.696  29.933  28.281  1.00  0.00     0.060 A 
ATOM     25  C   UNL A   1      36.648  29.983  27.271  1.00  0.00     0.016 A 
ATOM     26  C   UNL A   1      36.063  29.543  29.563  1.00  0.00     0.016 A 
ATOM     27  C   UNL A   1      37.973  29.644  27.513  1.00  0.00     0.010 A 
ATOM     28  C   UNL A   1      37.411  29.245  29.824  1.00  0.00     0.010 A 
ATOM     29  C   UNL A   1      38.378  29.303  28.801  1.00  0.00    -0.014 A 
BRANCH  29  30
ATOM     30  C   UNL A   1      39.812  29.012  29.056  1.00  0.00     0.031 A 
ATOM     31  C   UNL A   1      40.717  30.093  29.569  1.00  0.00     0.074 A 
ATOM     32  C   UNL A   1      40.296  27.766  28.869  1.00  0.00     0.049 A 
ATOM     33  N   UNL A   1      42.019  30.098  29.664  1.00  0.00    -0.248 NA
ATOM     34  C   UNL A   1      40.070  31.322  30.053  1.00  0.00     0.031 C 
ATOM     35  C   UNL A   1      39.501  26.588  28.507  1.00  0.00     0.029 A 
ATOM     36  N   UNL A   1      41.581  27.282  28.949  1.00  0.00    -0.354 N 
ATOM     37  C   UNL A   1      42.357  31.347  30.171  1.00  0.00     0.074 A 
ATOM     38  C   UNL A   1      41.119  32.065  30.386  1.00  0.00     0.031 C 
ATOM     39  C   UNL A   1      40.317  25.529  28.382  1.00  0.00     0.029 A 
ATOM     40  C   UNL A   1      41.697  25.967  28.559  1.00  0.00     0.049 A 
ATOM     41  H   UNL A   1      42.344  27.824  29.255  1.00  0.00     0.167 HD
ATOM     42  C   UNL A   1      43.590  31.849  30.411  1.00  0.00     0.031 A 
ATOM     43  C   UNL A   1      42.788  25.220  28.298  1.00  0.00     0.031 A 
ATOM     44  C   UNL A   1      44.813  31.118  30.202  1.00  0.00     0.049 A 
ATOM     45  C   UNL A   1      44.150  25.849  28.439  1.00  0.00     0.074 A 
ATOM     46  C   UNL A   1      46.114  31.547  30.405  1.00  0.00     0.029 A 
ATOM     47  N   UNL A   1      44.890  29.814  29.737  1.00  0.00    -0.354 N 
ATOM     48  N   UNL A   1      44.463  27.046  28.876  1.00  0.00    -0.248 NA
ATOM     49  C   UNL A   1      45.305  25.037  28.029  1.00  0.00     0.031 C 
ATOM     50  C   UNL A   1      46.978  30.529  29.992  1.00  0.00     0.029 A 
ATOM     51  C   UNL A   1      46.216  29.439  29.602  1.00  0.00     0.049 A 
ATOM     52  H   UNL A   1      44.117  29.240  29.534  1.00  0.00     0.167 HD
ATOM     53  C   UNL A   1      45.851  27.121  28.810  1.00  0.00     0.074 A 
ATOM     54  C   UNL A   1      46.318  25.842  28.320  1.00  0.00     0.031 C 
ATOM     55  C   UNL A   1      46.666  28.160  29.118  1.00  0.00     0.031 A 
BRANCH  42  56
ATOM     56  C   UNL A   1      43.699  33.285  30.846  1.00  0.00    -0.014 A 
ATOM     57  C   UNL A   1      43.749  33.648  32.202  1.00  0.00     0.010 A 
ATOM     58  C   UNL A   1      43.847  34.281  29.862  1.00  0.00     0.010 A 
ATOM     59  C   UNL A   1      43.937  34.986  32.565  1.00  0.00     0.020 A 
ATOM     60  C   UNL A   1      44.061  35.613  30.220  1.00  0.00     0.020 A 
ATOM     61  C   UNL A   1      44.098  35.958  31.571  1.00  0.00     0.054 A 
BRANCH  61  62
ATOM     62  S   UNL A   1      44.407  37.674  32.071  1.00  0.00     0.124 S 
ATOM     63  O   UNL A   1      43.518  37.819  33.220  1.00  0.00    -0.237 OA
ATOM     64  O   UNL A   1      45.835  37.663  32.380  1.00  0.00    -0.237 OA
ATOM     65  O   UNL A   1      44.033  38.453  30.893  1.00  0.00    -0.744 OA
ENDBRANCH  61  62
ENDBRANCH  42  56
BRANCH  43  66
ATOM     66  C   UNL A   1      42.650  23.837  27.753  1.00  0.00    -0.014 A 
ATOM     67  C   UNL A   1      42.538  23.607  26.370  1.00  0.00     0.010 A 
ATOM     68  C   UNL A   1      42.568  22.739  28.632  1.00  0.00     0.010 A 
ATOM     69  C   UNL A   1      42.308  22.317  25.881  1.00  0.00     0.020 A 
ATOM     70  C   UNL A   1      42.379  21.442  28.146  1.00  0.00     0.020 A 
ATOM     71  C   UNL A   1      42.227  21.243  26.773  1.00  0.00     0.054 A 
BRANCH  71  72
ATOM     72  S   UNL A   1      41.930  19.577  26.120  1.00  0.00     0.124 S 
ATOM     73  O   UNL A   1      42.792  19.555  24.942  1.00  0.00    -0.237 OA
ATOM     74  O   UNL A   1      42.351  18.725  27.229  1.00  0.00    -0.237 OA
ATOM     75  O   UNL A   1      40.495  19.568  25.845  1.00  0.00    -0.744 OA
ENDBRANCH  71  72
ENDBRANCH  43  66
BRANCH  55  76
ATOM     76  C   UNL A   1      48.149  27.953  28.959  1.00  0.00    -0.014 A 
ATOM     77  C   UNL A   1      48.809  28.303  27.767  1.00  0.00     0.010 A 
ATOM     78  C   UNL A   1      48.904  27.470  30.044  1.00  0.00     0.010 A 
ATOM     79  C   UNL A   1      50.193  28.152  27.656  1.00  0.00     0.020 A 
ATOM     80  C   UNL A   1      50.293  27.348  29.947  1.00  0.00     0.020 A 
ATOM     81  C   UNL A   1      50.927  27.681  28.749  1.00  0.00     0.054 A 
BRANCH  81  82
ATOM     82  S   UNL A   1      52.730  27.557  28.598  1.00  0.00     0.124 S 
ATOM     83  O   UNL A   1      52.893  27.152  27.205  1.00  0.00    -0.237 OA
ATOM     84  O   UNL A   1      53.170  28.915  28.913  1.00  0.00    -0.237 OA
ATOM     85  O   UNL A   1      53.094  26.546  29.587  1.00  0.00    -0.744 OA
ENDBRANCH  81  82
ENDBRANCH  55  76
ENDBRANCH  29  30
ENDBRANCH  22  24
ENDBRANCH  21  22
ENDBRANCH  20  21
ENDBRANCH   1  20
TORSDOF 19
ENDMDL
MODEL 2
REMARK VINA RESULT:      -9.5      4.616      9.409
REMARK SMILES CC(C)(O)CC[C@@H](C(=O)OCCOC(=O)c1ccc(-c2c3nc(c(-c4ccc(S(=O)(=O)[O-])cc4)c4ccc([nH]4)c(-c4ccc(S(=O)(=O)[O-])cc4)c4nc(c(-c5ccc(S(=O)(=O)[O-])cc5)c5ccc2[nH]5)C=C4)C=C3)cc1)[C@@H]1CCS(=O)(=O)C1
REMARK SMILES IDX 11 1 10 2 8 3 9 4 7 5 6 6 5 7 2 8 1 9 3 10 4 11 76 13 77 14
REMARK SMILES IDX 82 15 78 16 79 17 80 18 81 19 12 20 13 21 14 22 15 23 16 24
REMARK SMILES IDX 17 25 75 26 18 27 74 28 19 29 20 30 21 31 68 32 22 33 73 34
REMARK SMILES IDX 67 35 69 36 23 37 72 38 66 39 65 40 24 42 54 43 35 44 53 45
REMARK SMILES IDX 36 46 39 47 52 48 70 49 37 50 38 51 51 53 71 54 40 55 25 56
REMARK SMILES IDX 26 57 34 58 27 59 33 60 28 61 29 62 30 63 31 64 32 65 55 66
REMARK SMILES IDX 56 67 64 68 57 69 63 70 58 71 59 72 60 73 61 74 62 75 41 76
REMARK SMILES IDX 42 77 50 78 43 79 49 80 44 81 45 82 46 83 47 84 48 85
REMARK H PARENT 4 12 69 41 39 52
REMARK Flexibility Score: inf
ROOT
ATOM      1  C   UNL A   1      32.367  29.049  26.671  1.00  0.00     0.274 C 
ENDROOT
BRANCH   1   2
ATOM      2  O   UNL A   1      31.526  29.038  25.498  1.00  0.00    -0.462 OA
BRANCH   2   3
ATOM      3  C   UNL A   1      32.100  28.773  24.298  1.00  0.00     0.309 C 
ATOM      4  O   UNL A   1      33.112  29.328  23.893  1.00  0.00    -0.252 OA
BRANCH   3   5
ATOM      5  C   UNL A   1      31.300  27.757  23.455  1.00  0.00     0.103 C 
BRANCH   5   6
ATOM      6  C   UNL A   1      29.820  28.160  23.256  1.00  0.00     0.018 C 
BRANCH   6   7
ATOM      7  C   UNL A   1      29.524  29.568  22.694  1.00  0.00     0.035 C 
BRANCH   7   8
ATOM      8  C   UNL A   1      28.053  30.009  22.518  1.00  0.00     0.059 C 
ATOM      9  C   UNL A   1      27.681  31.340  23.186  1.00  0.00     0.042 C 
ATOM     10  C   UNL A   1      27.154  28.922  23.126  1.00  0.00     0.042 C 
BRANCH   8  11
ATOM     11  O   UNL A   1      27.790  30.075  21.118  1.00  0.00    -0.390 OA
ATOM     12  H   UNL A   1      28.008  29.223  20.708  1.00  0.00     0.211 HD
ENDBRANCH   8  11
ENDBRANCH   7   8
ENDBRANCH   6   7
ENDBRANCH   5   6
BRANCH   5  13
ATOM     13  C   UNL A   1      31.400  26.262  23.927  1.00  0.00     0.019 C 
ATOM     14  C   UNL A   1      32.638  25.896  24.776  1.00  0.00     0.021 C 
ATOM     15  C   UNL A   1      31.524  25.282  22.737  1.00  0.00     0.141 C 
ATOM     16  C   UNL A   1      33.850  25.937  23.854  1.00  0.00     0.137 C 
ATOM     17  S   UNL A   1      33.263  25.243  22.315  1.00  0.00     0.150 S 
ATOM     18  O   UNL A   1      33.498  26.196  21.250  1.00  0.00    -0.229 OA
ATOM     19  O   UNL A   1      33.684  23.860  22.218  1.00  0.00    -0.229 OA
ENDBRANCH   5  13
ENDBRANCH   3   5
ENDBRANCH   2   3
ENDBRANCH   1   2
BRANCH   1  20
ATOM     20  C   UNL A   1      32.606  30.489  27.119  1.00  0.00     0.275 C 
BRANCH  20  21
ATOM     21  O   UNL A   1      34.019  30.762  27.122  1.00  0.00    -0.458 OA
BRANCH  21  22
ATOM     22  C   UNL A   1      34.399  31.882  27.784  1.00  0.00     0.338 C 
ATOM     23  O   UNL A   1      33.740  32.885  27.995  1.00  0.00    -0.246 OA
BRANCH  22  24
ATOM     24  C   UNL A   1      35.688  31.610  28.438  1.00  0.00     0.060 A 
ATOM     25  C   UNL A   1      35.781  30.411  29.132  1.00  0.00     0.016 A 
ATOM     26  C   UNL A   1      36.754  32.501  28.444  1.00  0.00     0.016 A 
ATOM     27  C   UNL A   1      36.925  30.079  29.845  1.00  0.00     0.010 A 
ATOM     28  C   UNL A   1      37.931  32.148  29.125  1.00  0.00     0.010 A 
ATOM     29  C   UNL A   1      38.028  30.928  29.823  1.00  0.00    -0.014 A 
BRANCH  29  30
ATOM     30  C   UNL A   1      39.268  30.523  30.534  1.00  0.00     0.031 A 
ATOM     31  C   UNL A   1      40.136  29.438  29.969  1.00  0.00     0.074 A 
ATOM     32  C   UNL A   1      39.641  31.159  31.665  1.00  0.00     0.049 A 
ATOM     33  N   UNL A   1      41.135  28.810  30.528  1.00  0.00    -0.248 NA
ATOM     34  C   UNL A   1      39.851  29.016  28.588  1.00  0.00     0.031 C 
ATOM     35  C   UNL A   1      38.968  32.322  32.251  1.00  0.00     0.029 A 
ATOM     36  N   UNL A   1      40.678  30.909  32.533  1.00  0.00    -0.354 N 
ATOM     37  C   UNL A   1      41.570  27.882  29.591  1.00  0.00     0.074 A 
ATOM     38  C   UNL A   1      40.740  28.045  28.416  1.00  0.00     0.031 C 
ATOM     39  C   UNL A   1      39.598  32.670  33.384  1.00  0.00     0.029 A 
ATOM     40  C   UNL A   1      40.656  31.704  33.657  1.00  0.00     0.049 A 
ATOM     41  H   UNL A   1      41.368  30.227  32.367  1.00  0.00     0.167 HD
ATOM     42  C   UNL A   1      42.558  26.966  29.714  1.00  0.00     0.031 A 
ATOM     43  C   UNL A   1      41.353  31.619  34.808  1.00  0.00     0.031 A 
ATOM     44  C   UNL A   1      43.383  26.823  30.886  1.00  0.00     0.049 A 
ATOM     45  C   UNL A   1      42.349  30.501  34.973  1.00  0.00     0.074 A 
ATOM     46  C   UNL A   1      44.403  25.914  31.110  1.00  0.00     0.029 A 
ATOM     47  N   UNL A   1      43.281  27.599  32.029  1.00  0.00    -0.354 N 
ATOM     48  N   UNL A   1      42.726  29.598  34.100  1.00  0.00    -0.248 NA
ATOM     49  C   UNL A   1      42.998  30.375  36.287  1.00  0.00     0.031 C 
ATOM     50  C   UNL A   1      44.866  26.092  32.417  1.00  0.00     0.029 A 
ATOM     51  C   UNL A   1      44.186  27.160  32.980  1.00  0.00     0.049 A 
ATOM     52  H   UNL A   1      42.658  28.352  32.148  1.00  0.00     0.167 HD
ATOM     53  C   UNL A   1      43.668  28.809  34.754  1.00  0.00     0.074 A 
ATOM     54  C   UNL A   1      43.825  29.359  36.084  1.00  0.00     0.031 C 
ATOM     55  C   UNL A   1      44.336  27.721  34.298  1.00  0.00     0.031 A 
BRANCH  42  56
ATOM     56  C   UNL A   1      42.758  25.982  28.594  1.00  0.00    -0.014 A 
ATOM     57  C   UNL A   1      43.615  26.250  27.514  1.00  0.00     0.010 A 
ATOM     58  C   UNL A   1      42.135  24.722  28.681  1.00  0.00     0.010 A 
ATOM     59  C   UNL A   1      43.841  25.275  26.537  1.00  0.00     0.020 A 
ATOM     60  C   UNL A   1      42.377  23.737  27.721  1.00  0.00     0.020 A 
ATOM     61  C   UNL A   1      43.224  24.023  26.651  1.00  0.00     0.054 A 
BRANCH  61  62
ATOM     62  S   UNL A   1      43.587  22.755  25.404  1.00  0.00     0.124 S 
ATOM     63  O   UNL A   1      44.559  21.917  26.101  1.00  0.00    -0.237 OA
ATOM     64  O   UNL A   1      42.278  22.147  25.179  1.00  0.00    -0.237 OA
ATOM     65  O   UNL A   1      44.118  23.518  24.277  1.00  0.00    -0.744 OA
ENDBRANCH  61  62
ENDBRANCH  42  56
BRANCH  43  66
ATOM     66  C   UNL A   1      41.050  32.534  35.948  1.00  0.00    -0.014 A 
ATOM     67  C   UNL A   1      40.009  32.254  36.850  1.00  0.00     0.010 A 
ATOM     68  C   UNL A   1      41.775  33.733  36.100  1.00  0.00     0.010 A 
ATOM     69  C   UNL A   1      39.673  33.169  37.853  1.00  0.00     0.020 A 
ATOM     70  C   UNL A   1      41.469  34.632  37.124  1.00  0.00     0.020 A 
ATOM     71  C   UNL A   1      40.404  34.355  37.981  1.00  0.00     0.054 A 
BRANCH  71  72
ATOM     72  S   UNL A   1      39.954  35.529  39.289  1.00  0.00     0.124 S 
ATOM     73  O   UNL A   1      40.291  36.810  38.675  1.00  0.00    -0.237 OA
ATOM     74  O   UNL A   1      38.528  35.268  39.469  1.00  0.00    -0.237 OA
ATOM     75  O   UNL A   1      40.801  35.130  40.411  1.00  0.00    -0.744 OA
ENDBRANCH  71  72
ENDBRANCH  43  66
BRANCH  55  76
ATOM     76  C   UNL A   1      45.317  27.064  35.232  1.00  0.00    -0.014 A 
ATOM     77  C   UNL A   1      46.654  27.496  35.305  1.00  0.00     0.010 A 
ATOM     78  C   UNL A   1      44.878  26.048  36.101  1.00  0.00     0.010 A 
ATOM     79  C   UNL A   1      47.538  26.910  36.213  1.00  0.00     0.020 A 
ATOM     80  C   UNL A   1      45.751  25.481  37.033  1.00  0.00     0.020 A 
ATOM     81  C   UNL A   1      47.079  25.909  37.076  1.00  0.00     0.054 A 
BRANCH  81  82
ATOM     82  S   UNL A   1      48.232  25.211  38.290  1.00  0.00     0.124 S 
ATOM     83  O   UNL A   1      49.067  26.364  38.614  1.00  0.00    -0.237 OA
ATOM     84  O   UNL A   1      47.339  24.763  39.356  1.00  0.00    -0.237 OA
ATOM     85  O   UNL A   1      48.903  24.141  37.557  1.00  0.00    -0.744 OA
ENDBRANCH  81  82
ENDBRANCH  55  76
ENDBRANCH  29  30
ENDBRANCH  22  24
ENDBRANCH  21  22
ENDBRANCH  20  21
ENDBRANCH   1  20
TORSDOF 19
ENDMDL
MODEL 3
REMARK VINA RESULT:      -9.5      2.155      3.080
REMARK SMILES CC(C)(O)CC[C@@H](C(=O)OCCOC(=O)c1ccc(-c2c3nc(c(-c4ccc(S(=O)(=O)[O-])cc4)c4ccc([nH]4)c(-c4ccc(S(=O)(=O)[O-])cc4)c4nc(c(-c5ccc(S(=O)(=O)[O-])cc5)c5ccc2[nH]5)C=C4)C=C3)cc1)[C@@H]1CCS(=O)(=O)C1
REMARK SMILES IDX 11 1 10 2 8 3 9 4 7 5 6 6 5 7 2 8 1 9 3 10 4 11 76 13 77 14
REMARK SMILES IDX 82 15 78 16 79 17 80 18 81 19 12 20 13 21 14 22 15 23 16 24
REMARK SMILES IDX 17 25 75 26 18 27 74 28 19 29 20 30 21 31 68 32 22 33 73 34
REMARK SMILES IDX 67 35 69 36 23 37 72 38 66 39 65 40 24 42 54 43 35 44 53 45
REMARK SMILES IDX 36 46 39 47 52 48 70 49 37 50 38 51 51 53 71 54 40 55 25 56
REMARK SMILES IDX 26 57 34 58 27 59 33 60 28 61 29 62 30 63 31 64 32 65 55 66
REMARK SMILES IDX 56 67 64 68 57 69 63 70 58 71 59 72 60 73 61 74 62 75 41 76
REMARK SMILES IDX 42 77 50 78 43 79 49 80 44 81 45 82 46 83 47 84 48 85
REMARK H PARENT 4 12 69 41 39 52
REMARK Flexibility Score: inf
ROOT
ATOM      1  C   UNL A   1      33.159  29.911  26.905  1.00  0.00     0.274 C 
ENDROOT
BRANCH   1   2
ATOM      2  O   UNL A   1      33.661  28.584  26.638  1.00  0.00    -0.462 OA
BRANCH   2   3
ATOM      3  C   UNL A   1      33.588  28.114  25.368  1.00  0.00     0.309 C 
ATOM      4  O   UNL A   1      34.248  28.563  24.440  1.00  0.00    -0.252 OA
BRANCH   3   5
ATOM      5  C   UNL A   1      32.527  27.008  25.191  1.00  0.00     0.103 C 
BRANCH   5   6
ATOM      6  C   UNL A   1      31.086  27.557  25.072  1.00  0.00     0.018 C 
BRANCH   6   7
ATOM      7  C   UNL A   1      30.882  28.897  24.331  1.00  0.00     0.035 C 
BRANCH   7   8
ATOM      8  C   UNL A   1      30.908  28.908  22.786  1.00  0.00     0.059 C 
ATOM      9  C   UNL A   1      29.859  29.807  22.117  1.00  0.00     0.042 C 
ATOM     10  C   UNL A   1      30.666  27.474  22.295  1.00  0.00     0.042 C 
BRANCH   8  11
ATOM     11  O   UNL A   1      32.218  29.304  22.383  1.00  0.00    -0.390 OA
ATOM     12  H   UNL A   1      32.763  28.515  22.236  1.00  0.00     0.211 HD
ENDBRANCH   8  11
ENDBRANCH   7   8
ENDBRANCH   6   7
ENDBRANCH   5   6
BRANCH   5  13
ATOM     13  C   UNL A   1      32.582  25.844  26.245  1.00  0.00     0.019 C 
ATOM     14  C   UNL A   1      33.710  24.804  26.053  1.00  0.00     0.021 C 
ATOM     15  C   UNL A   1      31.316  24.958  26.203  1.00  0.00     0.141 C 
ATOM     16  C   UNL A   1      33.369  23.987  24.813  1.00  0.00     0.137 C 
ATOM     17  S   UNL A   1      31.598  23.763  24.900  1.00  0.00     0.150 S 
ATOM     18  O   UNL A   1      31.001  24.265  23.681  1.00  0.00    -0.229 OA
ATOM     19  O   UNL A   1      31.304  22.441  25.413  1.00  0.00    -0.229 OA
ENDBRANCH   5  13
ENDBRANCH   3   5
ENDBRANCH   2   3
ENDBRANCH   1   2
BRANCH   1  20
ATOM     20  C   UNL A   1      34.290  30.791  27.434  1.00  0.00     0.275 C 
BRANCH  20  21
ATOM     21  O   UNL A   1      35.219  29.981  28.178  1.00  0.00    -0.458 OA
BRANCH  21  22
ATOM     22  C   UNL A   1      36.024  30.653  29.037  1.00  0.00     0.338 C 
ATOM     23  O   UNL A   1      35.694  31.383  29.955  1.00  0.00    -0.246 OA
BRANCH  22  24
ATOM     24  C   UNL A   1      37.401  30.172  28.841  1.00  0.00     0.060 A 
ATOM     25  C   UNL A   1      38.164  30.020  29.991  1.00  0.00     0.016 A 
ATOM     26  C   UNL A   1      37.967  29.938  27.595  1.00  0.00     0.016 A 
ATOM     27  C   UNL A   1      39.498  29.639  29.924  1.00  0.00     0.010 A 
ATOM     28  C   UNL A   1      39.302  29.506  27.524  1.00  0.00     0.010 A 
ATOM     29  C   UNL A   1      40.075  29.344  28.691  1.00  0.00    -0.014 A 
BRANCH  29  30
ATOM     30  C   UNL A   1      41.482  28.871  28.645  1.00  0.00     0.031 A 
ATOM     31  C   UNL A   1      42.607  29.841  28.854  1.00  0.00     0.074 A 
ATOM     32  C   UNL A   1      41.752  27.561  28.459  1.00  0.00     0.049 A 
ATOM     33  N   UNL A   1      43.886  29.670  28.658  1.00  0.00    -0.248 NA
ATOM     34  C   UNL A   1      42.245  31.171  29.367  1.00  0.00     0.031 C 
ATOM     35  C   UNL A   1      40.756  26.488  28.380  1.00  0.00     0.029 A 
ATOM     36  N   UNL A   1      42.951  26.908  28.292  1.00  0.00    -0.354 N 
ATOM     37  C   UNL A   1      44.483  30.884  28.973  1.00  0.00     0.074 A 
ATOM     38  C   UNL A   1      43.426  31.777  29.397  1.00  0.00     0.031 C 
ATOM     39  C   UNL A   1      41.383  25.320  28.165  1.00  0.00     0.029 A 
ATOM     40  C   UNL A   1      42.811  25.571  27.996  1.00  0.00     0.049 A 
ATOM     41  H   UNL A   1      43.824  27.354  28.376  1.00  0.00     0.167 HD
ATOM     42  C   UNL A   1      45.791  31.222  28.892  1.00  0.00     0.031 A 
ATOM     43  C   UNL A   1      43.712  24.667  27.563  1.00  0.00     0.031 A 
ATOM     44  C   UNL A   1      46.832  30.318  28.478  1.00  0.00     0.049 A 
ATOM     45  C   UNL A   1      45.136  25.108  27.346  1.00  0.00     0.074 A 
ATOM     46  C   UNL A   1      48.188  30.572  28.353  1.00  0.00     0.029 A 
ATOM     47  N   UNL A   1      46.639  28.994  28.117  1.00  0.00    -0.354 N 
ATOM     48  N   UNL A   1      45.687  26.270  27.603  1.00  0.00    -0.248 NA
ATOM     49  C   UNL A   1      46.057  24.123  26.759  1.00  0.00     0.031 C 
ATOM     50  C   UNL A   1      48.801  29.424  27.844  1.00  0.00     0.029 A 
ATOM     51  C   UNL A   1      47.841  28.432  27.723  1.00  0.00     0.049 A 
ATOM     52  H   UNL A   1      45.775  28.522  28.138  1.00  0.00     0.167 HD
ATOM     53  C   UNL A   1      47.021  26.148  27.226  1.00  0.00     0.074 A 
ATOM     54  C   UNL A   1      47.201  24.793  26.751  1.00  0.00     0.031 C 
ATOM     55  C   UNL A   1      48.007  27.079  27.259  1.00  0.00     0.031 A 
BRANCH  42  56
ATOM     56  C   UNL A   1      46.173  32.649  29.173  1.00  0.00    -0.014 A 
ATOM     57  C   UNL A   1      46.796  33.029  30.373  1.00  0.00     0.010 A 
ATOM     58  C   UNL A   1      45.982  33.612  28.163  1.00  0.00     0.010 A 
ATOM     59  C   UNL A   1      47.215  34.351  30.560  1.00  0.00     0.020 A 
ATOM     60  C   UNL A   1      46.421  34.926  28.336  1.00  0.00     0.020 A 
ATOM     61  C   UNL A   1      47.029  35.289  29.537  1.00  0.00     0.054 A 
BRANCH  61  62
ATOM     62  S   UNL A   1      47.642  36.979  29.783  1.00  0.00     0.124 S 
ATOM     63  O   UNL A   1      47.728  37.471  28.410  1.00  0.00    -0.237 OA
ATOM     64  O   UNL A   1      46.593  37.581  30.602  1.00  0.00    -0.237 OA
ATOM     65  O   UNL A   1      48.924  36.790  30.457  1.00  0.00    -0.744 OA
ENDBRANCH  61  62
ENDBRANCH  42  56
BRANCH  43  66
ATOM     66  C   UNL A   1      43.282  23.290  27.177  1.00  0.00    -0.014 A 
ATOM     67  C   UNL A   1      43.002  22.315  28.151  1.00  0.00     0.010 A 
ATOM     68  C   UNL A   1      43.208  22.931  25.817  1.00  0.00     0.010 A 
ATOM     69  C   UNL A   1      42.699  21.003  27.774  1.00  0.00     0.020 A 
ATOM     70  C   UNL A   1      42.866  21.631  25.435  1.00  0.00     0.020 A 
ATOM     71  C   UNL A   1      42.636  20.669  26.417  1.00  0.00     0.054 A 
BRANCH  71  72
ATOM     72  S   UNL A   1      42.238  18.962  25.949  1.00  0.00     0.124 S 
ATOM     73  O   UNL A   1      43.041  18.784  24.743  1.00  0.00    -0.237 OA
ATOM     74  O   UNL A   1      42.675  18.205  27.119  1.00  0.00    -0.237 OA
ATOM     75  O   UNL A   1      40.792  18.993  25.739  1.00  0.00    -0.744 OA
ENDBRANCH  71  72
ENDBRANCH  43  66
BRANCH  55  76
ATOM     76  C   UNL A   1      49.376  26.660  26.794  1.00  0.00    -0.014 A 
ATOM     77  C   UNL A   1      50.316  26.122  27.691  1.00  0.00     0.010 A 
ATOM     78  C   UNL A   1      49.702  26.739  25.427  1.00  0.00     0.010 A 
ATOM     79  C   UNL A   1      51.564  25.692  27.234  1.00  0.00     0.020 A 
ATOM     80  C   UNL A   1      50.936  26.279  24.960  1.00  0.00     0.020 A 
ATOM     81  C   UNL A   1      51.863  25.767  25.870  1.00  0.00     0.054 A 
BRANCH  81  82
ATOM     82  S   UNL A   1      53.465  25.140  25.294  1.00  0.00     0.124 S 
ATOM     83  O   UNL A   1      54.378  25.662  26.307  1.00  0.00    -0.237 OA
ATOM     84  O   UNL A   1      53.266  23.693  25.314  1.00  0.00    -0.237 OA
ATOM     85  O   UNL A   1      53.610  25.725  23.964  1.00  0.00    -0.744 OA
ENDBRANCH  81  82
ENDBRANCH  55  76
ENDBRANCH  29  30
ENDBRANCH  22  24
ENDBRANCH  21  22
ENDBRANCH  20  21
ENDBRANCH   1  20
TORSDOF 19
ENDMDL
