MODEL 1
REMARK VINA RESULT:     -11.6      0.000      0.000
REMARK SMILES O=C(NC(=S)Nc1c(Cl)cc(Cl)cc1C(=O)OCCOC(=O)c1ccc(-c2c3nc(c(-c4ccc(S(=O)(=O)[O-])cc4)c4ccc([nH]4)c(-c4ccc(S(=O)(=O)[O-])cc4)c4nc(c(-c5ccc(S(=O)(=O)[O-])cc5)c5ccc2[nH]5)C=C4)C=C3)cc1)c1cccc([N+](=O)[O-])c1
REMARK SMILES IDX 18 1 17 2 15 3 16 4 14 5 7 6 8 7 9 8 10 9 13 10 11 11 12 12
REMARK SMILES IDX 6 13 4 15 5 16 3 17 1 18 2 19 83 21 84 22 91 23 85 24 87 25
REMARK SMILES IDX 86 26 88 27 89 28 90 29 19 30 20 31 21 32 22 33 23 34 24 35
REMARK SMILES IDX 82 36 25 37 81 38 26 39 27 40 28 41 75 42 29 43 80 44 74 45
REMARK SMILES IDX 76 46 30 47 79 48 73 49 72 50 31 52 61 53 42 54 60 55 43 56
REMARK SMILES IDX 46 57 59 58 77 59 44 60 45 61 58 63 78 64 47 65 32 66 33 67
REMARK SMILES IDX 41 68 34 69 40 70 35 71 36 72 37 73 38 74 39 75 62 76 63 77
REMARK SMILES IDX 71 78 64 79 70 80 65 81 66 82 67 83 68 84 69 85 48 86 49 87
REMARK SMILES IDX 57 88 50 89 56 90 51 91 52 92 53 93 54 94 55 95
REMARK H PARENT 6 14 3 20 76 51 46 62
REMARK Flexibility Score: inf
ROOT
ATOM      1  C   UNL A   1      38.675  22.050  26.042  1.00  0.00     0.275 C 
ENDROOT
BRANCH   1   2
ATOM      2  O   UNL A   1      37.749  22.480  25.023  1.00  0.00    -0.458 OA
BRANCH   2   3
ATOM      3  C   UNL A   1      36.645  23.092  25.498  1.00  0.00     0.340 C 
ATOM      4  O   UNL A   1      36.568  24.083  26.201  1.00  0.00    -0.246 OA
BRANCH   3   5
ATOM      5  C   UNL A   1      35.451  22.370  25.072  1.00  0.00     0.086 A 
ATOM      6  C   UNL A   1      33.797  23.283  24.398  1.00  0.00     0.074 A 
ATOM      7  C   UNL A   1      32.363  22.123  23.697  1.00  0.00     0.066 A 
ATOM      8  Cl  UNL A   1      30.894  22.921  23.190  1.00  0.00    -0.082 Cl
ATOM      9  C   UNL A   1      32.280  20.153  23.632  1.00  0.00     0.043 A 
ATOM     10  C   UNL A   1      35.384  20.404  24.974  1.00  0.00     0.038 A 
ATOM     11  C   UNL A   1      33.926  19.248  24.344  1.00  0.00     0.043 A 
ATOM     12  Cl  UNL A   1      33.953  17.552  24.669  1.00  0.00    -0.084 Cl
BRANCH   6  13
ATOM     13  N   UNL A   1      33.420  24.481  25.029  1.00  0.00    -0.330 N 
ATOM     14  H   UNL A   1      33.718  25.330  24.629  1.00  0.00     0.169 HD
BRANCH  13  15
ATOM     15  C   UNL A   1      32.667  24.538  26.158  1.00  0.00     0.177 C 
ATOM     16  S   UNL A   1      32.355  23.122  26.992  1.00  0.00    -0.040 S 
BRANCH  15  17
ATOM     17  N   UNL A   1      32.060  25.715  26.603  1.00  0.00    -0.299 N 
ATOM     18  O   UNL A   1      31.012  27.700  27.039  1.00  0.00    -0.269 OA
ATOM     19  C   UNL A   1      31.544  26.980  26.194  1.00  0.00     0.257 C 
ATOM     20  H   UNL A   1      31.946  25.644  27.578  1.00  0.00     0.172 HD
BRANCH  19  21
ATOM     21  C   UNL A   1      31.531  27.504  24.796  1.00  0.00     0.047 A 
ATOM     22  C   UNL A   1      31.320  28.759  24.640  1.00  0.00     0.014 A 
ATOM     23  C   UNL A   1      30.563  28.144  24.190  1.00  0.00     0.099 A 
ATOM     24  C   UNL A   1      30.214  30.394  24.111  1.00  0.00     0.008 A 
ATOM     25  C   UNL A   1      29.366  29.701  23.556  1.00  0.00     0.270 A 
ATOM     26  C   UNL A   1      29.198  30.959  23.621  1.00  0.00     0.085 A 
BRANCH  25  27
ATOM     27  N   UNL A   1      27.918  29.563  22.540  1.00  0.00     0.062 N 
ATOM     28  O   UNL A   1      26.915  29.070  23.082  1.00  0.00    -0.258 OA
ATOM     29  O   UNL A   1      28.070  29.741  21.318  1.00  0.00    -0.258 OA
ENDBRANCH  25  27
ENDBRANCH  19  21
ENDBRANCH  15  17
ENDBRANCH  13  15
ENDBRANCH   6  13
ENDBRANCH   3   5
ENDBRANCH   2   3
ENDBRANCH   1   2
BRANCH   1  30
ATOM     30  C   UNL A   1      39.171  20.627  25.776  1.00  0.00     0.275 C 
BRANCH  30  31
ATOM     31  O   UNL A   1      40.122  20.238  26.783  1.00  0.00    -0.458 OA
BRANCH  31  32
ATOM     32  C   UNL A   1      41.349  19.886  26.329  1.00  0.00     0.338 C 
ATOM     33  O   UNL A   1      41.653  18.820  25.820  1.00  0.00    -0.246 OA
BRANCH  32  34
ATOM     34  C   UNL A   1      42.313  20.995  26.523  1.00  0.00     0.060 A 
ATOM     35  C   UNL A   1      42.765  21.361  27.794  1.00  0.00     0.016 A 
ATOM     36  C   UNL A   1      42.674  21.765  25.416  1.00  0.00     0.016 A 
ATOM     37  C   UNL A   1      43.471  22.556  27.972  1.00  0.00     0.010 A 
ATOM     38  C   UNL A   1      43.447  22.918  25.586  1.00  0.00     0.010 A 
ATOM     39  C   UNL A   1      43.799  23.362  26.872  1.00  0.00    -0.014 A 
BRANCH  39  40
ATOM     40  C   UNL A   1      44.367  24.728  27.061  1.00  0.00     0.031 A 
ATOM     41  C   UNL A   1      43.511  25.807  27.682  1.00  0.00     0.074 A 
ATOM     42  C   UNL A   1      45.643  25.023  26.744  1.00  0.00     0.049 A 
ATOM     43  N   UNL A   1      43.720  27.097  27.732  1.00  0.00    -0.248 NA
ATOM     44  C   UNL A   1      42.246  25.379  28.305  1.00  0.00     0.031 C 
ATOM     45  C   UNL A   1      46.629  24.093  26.193  1.00  0.00     0.029 A 
ATOM     46  N   UNL A   1      46.337  26.201  26.880  1.00  0.00    -0.354 N 
ATOM     47  C   UNL A   1      42.569  27.644  28.288  1.00  0.00     0.074 A 
ATOM     48  C   UNL A   1      41.687  26.543  28.608  1.00  0.00     0.031 C 
ATOM     49  C   UNL A   1      47.820  24.712  26.120  1.00  0.00     0.029 A 
ATOM     50  C   UNL A   1      47.667  26.099  26.553  1.00  0.00     0.049 A 
ATOM     51  H   UNL A   1      45.921  27.039  27.184  1.00  0.00     0.167 HD
ATOM     52  C   UNL A   1      42.262  28.948  28.483  1.00  0.00     0.031 A 
ATOM     53  C   UNL A   1      48.653  27.016  26.595  1.00  0.00     0.031 A 
ATOM     54  C   UNL A   1      43.167  30.039  28.254  1.00  0.00     0.049 A 
ATOM     55  C   UNL A   1      48.343  28.433  26.983  1.00  0.00     0.074 A 
ATOM     56  C   UNL A   1      42.925  31.401  28.302  1.00  0.00     0.029 A 
ATOM     57  N   UNL A   1      44.519  29.882  27.999  1.00  0.00    -0.354 N 
ATOM     58  N   UNL A   1      47.186  28.963  27.296  1.00  0.00    -0.248 NA
ATOM     59  C   UNL A   1      49.467  29.380  26.993  1.00  0.00     0.031 C 
ATOM     60  C   UNL A   1      44.143  32.068  28.108  1.00  0.00     0.029 A 
ATOM     61  C   UNL A   1      45.137  31.118  27.944  1.00  0.00     0.049 A 
ATOM     62  H   UNL A   1      44.973  29.017  27.876  1.00  0.00     0.167 HD
ATOM     63  C   UNL A   1      47.435  30.314  27.503  1.00  0.00     0.074 A 
ATOM     64  C   UNL A   1      48.860  30.513  27.328  1.00  0.00     0.031 C 
ATOM     65  C   UNL A   1      46.553  31.306  27.777  1.00  0.00     0.031 A 
BRANCH  52  66
ATOM     66  C   UNL A   1      40.856  29.250  28.907  1.00  0.00    -0.014 A 
ATOM     67  C   UNL A   1      39.809  29.333  27.976  1.00  0.00     0.010 A 
ATOM     68  C   UNL A   1      40.589  29.485  30.268  1.00  0.00     0.010 A 
ATOM     69  C   UNL A   1      38.522  29.686  28.394  1.00  0.00     0.020 A 
ATOM     70  C   UNL A   1      39.304  29.827  30.689  1.00  0.00     0.020 A 
ATOM     71  C   UNL A   1      38.282  29.948  29.746  1.00  0.00     0.054 A 
BRANCH  71  72
ATOM     72  S   UNL A   1      36.620  30.424  30.294  1.00  0.00     0.124 S 
ATOM     73  O   UNL A   1      36.354  29.433  31.334  1.00  0.00    -0.237 OA
ATOM     74  O   UNL A   1      36.802  31.794  30.768  1.00  0.00    -0.237 OA
ATOM     75  O   UNL A   1      35.817  30.290  29.082  1.00  0.00    -0.744 OA
ENDBRANCH  71  72
ENDBRANCH  52  66
BRANCH  53  76
ATOM     76  C   UNL A   1      50.039  26.611  26.260  1.00  0.00    -0.014 A 
ATOM     77  C   UNL A   1      50.553  26.872  24.979  1.00  0.00     0.010 A 
ATOM     78  C   UNL A   1      50.863  26.008  27.223  1.00  0.00     0.010 A 
ATOM     79  C   UNL A   1      51.873  26.540  24.665  1.00  0.00     0.020 A 
ATOM     80  C   UNL A   1      52.187  25.686  26.916  1.00  0.00     0.020 A 
ATOM     81  C   UNL A   1      52.684  25.951  25.637  1.00  0.00     0.054 A 
BRANCH  81  82
ATOM     82  S   UNL A   1      54.426  25.600  25.275  1.00  0.00     0.124 S 
ATOM     83  O   UNL A   1      55.114  26.492  26.203  1.00  0.00    -0.237 OA
ATOM     84  O   UNL A   1      54.549  24.173  25.562  1.00  0.00    -0.237 OA
ATOM     85  O   UNL A   1      54.539  25.951  23.861  1.00  0.00    -0.744 OA
ENDBRANCH  81  82
ENDBRANCH  53  76
BRANCH  65  86
ATOM     86  C   UNL A   1      47.102  32.696  27.884  1.00  0.00    -0.014 A 
ATOM     87  C   UNL A   1      47.076  33.550  26.769  1.00  0.00     0.010 A 
ATOM     88  C   UNL A   1      47.619  33.164  29.103  1.00  0.00     0.010 A 
ATOM     89  C   UNL A   1      47.579  34.850  26.864  1.00  0.00     0.020 A 
ATOM     90  C   UNL A   1      48.121  34.464  29.202  1.00  0.00     0.020 A 
ATOM     91  C   UNL A   1      48.109  35.295  28.077  1.00  0.00     0.054 A 
BRANCH  91  92
ATOM     92  S   UNL A   1      48.738  36.993  28.203  1.00  0.00     0.124 S 
ATOM     93  O   UNL A   1      49.704  36.879  29.291  1.00  0.00    -0.237 OA
ATOM     94  O   UNL A   1      49.309  37.234  26.880  1.00  0.00    -0.237 OA
ATOM     95  O   UNL A   1      47.541  37.774  28.508  1.00  0.00    -0.744 OA
ENDBRANCH  91  92
ENDBRANCH  65  86
ENDBRANCH  39  40
ENDBRANCH  32  34
ENDBRANCH  31  32
ENDBRANCH  30  31
ENDBRANCH   1  30
TORSDOF 19
ENDMDL
MODEL 2
REMARK VINA RESULT:     -11.2      6.220     11.276
REMARK SMILES O=C(NC(=S)Nc1c(Cl)cc(Cl)cc1C(=O)OCCOC(=O)c1ccc(-c2c3nc(c(-c4ccc(S(=O)(=O)[O-])cc4)c4ccc([nH]4)c(-c4ccc(S(=O)(=O)[O-])cc4)c4nc(c(-c5ccc(S(=O)(=O)[O-])cc5)c5ccc2[nH]5)C=C4)C=C3)cc1)c1cccc([N+](=O)[O-])c1
REMARK SMILES IDX 18 1 17 2 15 3 16 4 14 5 7 6 8 7 9 8 10 9 13 10 11 11 12 12
REMARK SMILES IDX 6 13 4 15 5 16 3 17 1 18 2 19 83 21 84 22 91 23 85 24 87 25
REMARK SMILES IDX 86 26 88 27 89 28 90 29 19 30 20 31 21 32 22 33 23 34 24 35
REMARK SMILES IDX 82 36 25 37 81 38 26 39 27 40 28 41 75 42 29 43 80 44 74 45
REMARK SMILES IDX 76 46 30 47 79 48 73 49 72 50 31 52 61 53 42 54 60 55 43 56
REMARK SMILES IDX 46 57 59 58 77 59 44 60 45 61 58 63 78 64 47 65 32 66 33 67
REMARK SMILES IDX 41 68 34 69 40 70 35 71 36 72 37 73 38 74 39 75 62 76 63 77
REMARK SMILES IDX 71 78 64 79 70 80 65 81 66 82 67 83 68 84 69 85 48 86 49 87
REMARK SMILES IDX 57 88 50 89 56 90 51 91 52 92 53 93 54 94 55 95
REMARK H PARENT 6 14 3 20 76 51 46 62
REMARK Flexibility Score: inf
ROOT
ATOM      1  C   UNL A   1      37.696  22.615  25.995  1.00  0.00     0.275 C 
ENDROOT
BRANCH   1   2
ATOM      2  O   UNL A   1      37.784  22.151  24.631  1.00  0.00    -0.458 OA
BRANCH   2   3
ATOM      3  C   UNL A   1      36.716  22.465  23.868  1.00  0.00     0.340 C 
ATOM      4  O   UNL A   1      36.641  23.275  22.964  1.00  0.00    -0.246 OA
BRANCH   3   5
ATOM      5  C   UNL A   1      35.555  21.689  24.291  1.00  0.00     0.086 A 
ATOM      6  C   UNL A   1      33.781  22.517  24.727  1.00  0.00     0.074 A 
ATOM      7  C   UNL A   1      32.290  21.280  25.099  1.00  0.00     0.066 A 
ATOM      8  Cl  UNL A   1      30.770  22.009  25.559  1.00  0.00    -0.082 Cl
ATOM      9  C   UNL A   1      32.303  19.309  25.185  1.00  0.00     0.043 A 
ATOM     10  C   UNL A   1      35.561  19.720  24.341  1.00  0.00     0.038 A 
ATOM     11  C   UNL A   1      34.093  18.492  24.784  1.00  0.00     0.043 A 
ATOM     12  Cl  UNL A   1      34.414  16.824  25.098  1.00  0.00    -0.084 Cl
BRANCH   6  13
ATOM     13  N   UNL A   1      33.794  23.749  25.404  1.00  0.00    -0.330 N 
ATOM     14  H   UNL A   1      34.471  23.887  26.105  1.00  0.00     0.169 HD
BRANCH  13  15
ATOM     15  C   UNL A   1      32.926  24.763  25.147  1.00  0.00     0.177 C 
ATOM     16  S   UNL A   1      32.017  25.384  26.406  1.00  0.00    -0.040 S 
BRANCH  15  17
ATOM     17  N   UNL A   1      32.690  25.246  23.858  1.00  0.00    -0.299 N 
ATOM     18  O   UNL A   1      32.509  26.252  21.813  1.00  0.00    -0.269 OA
ATOM     19  C   UNL A   1      32.902  26.346  22.975  1.00  0.00     0.257 C 
ATOM     20  H   UNL A   1      32.177  24.563  23.370  1.00  0.00     0.172 HD
BRANCH  19  21
ATOM     21  C   UNL A   1      33.627  27.607  23.314  1.00  0.00     0.047 A 
ATOM     22  C   UNL A   1      34.184  27.674  24.467  1.00  0.00     0.014 A 
ATOM     23  C   UNL A   1      33.411  28.407  24.327  1.00  0.00     0.099 A 
ATOM     24  C   UNL A   1      34.367  28.330  26.394  1.00  0.00     0.008 A 
ATOM     25  C   UNL A   1      33.515  29.199  26.229  1.00  0.00     0.270 A 
ATOM     26  C   UNL A   1      34.035  29.045  27.379  1.00  0.00     0.085 A 
BRANCH  25  27
ATOM     27  N   UNL A   1      32.643  30.627  26.819  1.00  0.00     0.062 N 
ATOM     28  O   UNL A   1      31.487  30.779  26.388  1.00  0.00    -0.258 OA
ATOM     29  O   UNL A   1      33.313  31.487  27.420  1.00  0.00    -0.258 OA
ENDBRANCH  25  27
ENDBRANCH  19  21
ENDBRANCH  15  17
ENDBRANCH  13  15
ENDBRANCH   6  13
ENDBRANCH   3   5
ENDBRANCH   2   3
ENDBRANCH   1   2
BRANCH   1  30
ATOM     30  C   UNL A   1      38.038  24.104  26.097  1.00  0.00     0.275 C 
BRANCH  30  31
ATOM     31  O   UNL A   1      39.146  24.295  26.995  1.00  0.00    -0.458 OA
BRANCH  31  32
ATOM     32  C   UNL A   1      39.909  25.390  26.762  1.00  0.00     0.338 C 
ATOM     33  O   UNL A   1      40.695  25.541  25.841  1.00  0.00    -0.246 OA
BRANCH  32  34
ATOM     34  C   UNL A   1      39.661  26.425  27.793  1.00  0.00     0.060 A 
ATOM     35  C   UNL A   1      40.019  27.761  27.593  1.00  0.00     0.016 A 
ATOM     36  C   UNL A   1      39.174  26.022  29.038  1.00  0.00     0.016 A 
ATOM     37  C   UNL A   1      40.005  28.661  28.663  1.00  0.00     0.010 A 
ATOM     38  C   UNL A   1      39.085  26.943  30.087  1.00  0.00     0.010 A 
ATOM     39  C   UNL A   1      39.561  28.256  29.931  1.00  0.00    -0.014 A 
BRANCH  39  40
ATOM     40  C   UNL A   1      39.729  29.136  31.123  1.00  0.00     0.031 A 
ATOM     41  C   UNL A   1      41.022  29.088  31.903  1.00  0.00     0.074 A 
ATOM     42  C   UNL A   1      38.782  30.017  31.502  1.00  0.00     0.049 A 
ATOM     43  N   UNL A   1      41.293  29.590  33.080  1.00  0.00    -0.248 NA
ATOM     44  C   UNL A   1      42.146  28.361  31.288  1.00  0.00     0.031 C 
ATOM     45  C   UNL A   1      37.501  30.242  30.833  1.00  0.00     0.029 A 
ATOM     46  N   UNL A   1      38.779  30.919  32.538  1.00  0.00    -0.354 N 
ATOM     47  C   UNL A   1      42.573  29.148  33.393  1.00  0.00     0.074 A 
ATOM     48  C   UNL A   1      43.046  28.381  32.261  1.00  0.00     0.031 C 
ATOM     49  C   UNL A   1      36.876  31.275  31.424  1.00  0.00     0.029 A 
ATOM     50  C   UNL A   1      37.679  31.741  32.551  1.00  0.00     0.049 A 
ATOM     51  H   UNL A   1      39.499  30.973  33.208  1.00  0.00     0.167 HD
ATOM     52  C   UNL A   1      43.278  29.335  34.534  1.00  0.00     0.031 A 
ATOM     53  C   UNL A   1      37.351  32.753  33.378  1.00  0.00     0.031 A 
ATOM     54  C   UNL A   1      42.852  30.168  35.623  1.00  0.00     0.049 A 
ATOM     55  C   UNL A   1      38.229  33.077  34.552  1.00  0.00     0.074 A 
ATOM     56  C   UNL A   1      43.425  30.335  36.872  1.00  0.00     0.029 A 
ATOM     57  N   UNL A   1      41.776  31.036  35.558  1.00  0.00    -0.354 N 
ATOM     58  N   UNL A   1      39.331  32.484  34.940  1.00  0.00    -0.248 NA
ATOM     59  C   UNL A   1      37.800  34.186  35.416  1.00  0.00     0.031 C 
ATOM     60  C   UNL A   1      42.709  31.332  37.552  1.00  0.00     0.029 A 
ATOM     61  C   UNL A   1      41.697  31.782  36.720  1.00  0.00     0.049 A 
ATOM     62  H   UNL A   1      41.156  31.110  34.796  1.00  0.00     0.167 HD
ATOM     63  C   UNL A   1      39.708  33.124  36.115  1.00  0.00     0.074 A 
ATOM     64  C   UNL A   1      38.744  34.179  36.349  1.00  0.00     0.031 C 
ATOM     65  C   UNL A   1      40.742  32.834  36.942  1.00  0.00     0.031 A 
BRANCH  52  66
ATOM     66  C   UNL A   1      44.553  28.558  34.671  1.00  0.00    -0.014 A 
ATOM     67  C   UNL A   1      45.788  29.099  34.282  1.00  0.00     0.010 A 
ATOM     68  C   UNL A   1      44.502  27.246  35.175  1.00  0.00     0.010 A 
ATOM     69  C   UNL A   1      46.950  28.324  34.356  1.00  0.00     0.020 A 
ATOM     70  C   UNL A   1      45.660  26.474  35.260  1.00  0.00     0.020 A 
ATOM     71  C   UNL A   1      46.875  27.011  34.829  1.00  0.00     0.054 A 
BRANCH  71  72
ATOM     72  S   UNL A   1      48.374  25.992  34.911  1.00  0.00     0.124 S 
ATOM     73  O   UNL A   1      47.814  24.653  35.089  1.00  0.00    -0.237 OA
ATOM     74  O   UNL A   1      49.017  26.234  33.622  1.00  0.00    -0.237 OA
ATOM     75  O   UNL A   1      49.082  26.532  36.068  1.00  0.00    -0.744 OA
ENDBRANCH  71  72
ENDBRANCH  52  66
BRANCH  53  76
ATOM     76  C   UNL A   1      36.124  33.541  33.112  1.00  0.00    -0.014 A 
ATOM     77  C   UNL A   1      36.226  34.825  32.550  1.00  0.00     0.010 A 
ATOM     78  C   UNL A   1      34.855  33.004  33.377  1.00  0.00     0.010 A 
ATOM     79  C   UNL A   1      35.076  35.558  32.250  1.00  0.00     0.020 A 
ATOM     80  C   UNL A   1      33.703  33.730  33.067  1.00  0.00     0.020 A 
ATOM     81  C   UNL A   1      33.820  35.005  32.508  1.00  0.00     0.054 A 
BRANCH  81  82
ATOM     82  S   UNL A   1      32.317  35.906  32.038  1.00  0.00     0.124 S 
ATOM     83  O   UNL A   1      32.641  37.269  32.444  1.00  0.00    -0.237 OA
ATOM     84  O   UNL A   1      32.226  35.681  30.597  1.00  0.00    -0.237 OA
ATOM     85  O   UNL A   1      31.282  35.241  32.827  1.00  0.00    -0.744 OA
ENDBRANCH  81  82
ENDBRANCH  53  76
BRANCH  65  86
ATOM     86  C   UNL A   1      40.869  33.657  38.188  1.00  0.00    -0.014 A 
ATOM     87  C   UNL A   1      40.313  33.199  39.394  1.00  0.00     0.010 A 
ATOM     88  C   UNL A   1      41.567  34.875  38.165  1.00  0.00     0.010 A 
ATOM     89  C   UNL A   1      40.434  33.958  40.560  1.00  0.00     0.020 A 
ATOM     90  C   UNL A   1      41.692  35.636  39.331  1.00  0.00     0.020 A 
ATOM     91  C   UNL A   1      41.114  35.178  40.519  1.00  0.00     0.054 A 
BRANCH  91  92
ATOM     92  S   UNL A   1      41.292  36.148  42.042  1.00  0.00     0.124 S 
ATOM     93  O   UNL A   1      42.639  36.692  41.899  1.00  0.00    -0.237 OA
ATOM     94  O   UNL A   1      40.208  37.123  41.943  1.00  0.00    -0.237 OA
ATOM     95  O   UNL A   1      41.128  35.151  43.098  1.00  0.00    -0.744 OA
ENDBRANCH  91  92
ENDBRANCH  65  86
ENDBRANCH  39  40
ENDBRANCH  32  34
ENDBRANCH  31  32
ENDBRANCH  30  31
ENDBRANCH   1  30
TORSDOF 19
ENDMDL
MODEL 3
REMARK VINA RESULT:     -11.0      6.557      8.334
REMARK SMILES O=C(NC(=S)Nc1c(Cl)cc(Cl)cc1C(=O)OCCOC(=O)c1ccc(-c2c3nc(c(-c4ccc(S(=O)(=O)[O-])cc4)c4ccc([nH]4)c(-c4ccc(S(=O)(=O)[O-])cc4)c4nc(c(-c5ccc(S(=O)(=O)[O-])cc5)c5ccc2[nH]5)C=C4)C=C3)cc1)c1cccc([N+](=O)[O-])c1
REMARK SMILES IDX 18 1 17 2 15 3 16 4 14 5 7 6 8 7 9 8 10 9 13 10 11 11 12 12
REMARK SMILES IDX 6 13 4 15 5 16 3 17 1 18 2 19 83 21 84 22 91 23 85 24 87 25
REMARK SMILES IDX 86 26 88 27 89 28 90 29 19 30 20 31 21 32 22 33 23 34 24 35
REMARK SMILES IDX 82 36 25 37 81 38 26 39 27 40 28 41 75 42 29 43 80 44 74 45
REMARK SMILES IDX 76 46 30 47 79 48 73 49 72 50 31 52 61 53 42 54 60 55 43 56
REMARK SMILES IDX 46 57 59 58 77 59 44 60 45 61 58 63 78 64 47 65 32 66 33 67
REMARK SMILES IDX 41 68 34 69 40 70 35 71 36 72 37 73 38 74 39 75 62 76 63 77
REMARK SMILES IDX 71 78 64 79 70 80 65 81 66 82 67 83 68 84 69 85 48 86 49 87
REMARK SMILES IDX 57 88 50 89 56 90 51 91 52 92 53 93 54 94 55 95
REMARK H PARENT 6 14 3 20 76 51 46 62
REMARK Flexibility Score: inf
ROOT
ATOM      1  C   UNL A   1      37.567  22.558  25.870  1.00  0.00     0.275 C 
ENDROOT
BRANCH   1   2
ATOM      2  O   UNL A   1      37.604  21.992  24.543  1.00  0.00    -0.458 OA
BRANCH   2   3
ATOM      3  C   UNL A   1      36.785  22.598  23.659  1.00  0.00     0.340 C 
ATOM      4  O   UNL A   1      37.071  23.377  22.769  1.00  0.00    -0.246 OA
BRANCH   3   5
ATOM      5  C   UNL A   1      35.402  22.212  23.915  1.00  0.00     0.086 A 
ATOM      6  C   UNL A   1      33.830  23.326  23.355  1.00  0.00     0.074 A 
ATOM      7  C   UNL A   1      32.041  22.540  23.630  1.00  0.00     0.066 A 
ATOM      8  Cl  UNL A   1      30.676  23.549  23.217  1.00  0.00    -0.082 Cl
ATOM      9  C   UNL A   1      31.554  20.819  24.463  1.00  0.00     0.043 A 
ATOM     10  C   UNL A   1      34.918  20.478  24.714  1.00  0.00     0.038 A 
ATOM     11  C   UNL A   1      33.135  19.730  25.054  1.00  0.00     0.043 A 
ATOM     12  Cl  UNL A   1      32.947  18.348  26.073  1.00  0.00    -0.084 Cl
BRANCH   6  13
ATOM     13  N   UNL A   1      33.956  24.721  23.466  1.00  0.00    -0.330 N 
ATOM     14  H   UNL A   1      34.338  25.215  22.705  1.00  0.00     0.169 HD
BRANCH  13  15
ATOM     15  C   UNL A   1      33.582  25.430  24.563  1.00  0.00     0.177 C 
ATOM     16  S   UNL A   1      34.011  27.043  24.666  1.00  0.00    -0.040 S 
BRANCH  15  17
ATOM     17  N   UNL A   1      32.935  24.847  25.655  1.00  0.00    -0.299 N 
ATOM     18  O   UNL A   1      31.646  24.083  27.383  1.00  0.00    -0.269 OA
ATOM     19  C   UNL A   1      31.837  24.975  26.556  1.00  0.00     0.257 C 
ATOM     20  H   UNL A   1      33.428  24.030  25.896  1.00  0.00     0.172 HD
BRANCH  19  21
ATOM     21  C   UNL A   1      30.835  26.082  26.557  1.00  0.00     0.047 A 
ATOM     22  C   UNL A   1      29.955  26.079  25.623  1.00  0.00     0.014 A 
ATOM     23  C   UNL A   1      30.593  26.943  25.601  1.00  0.00     0.099 A 
ATOM     24  C   UNL A   1      29.090  26.753  23.899  1.00  0.00     0.008 A 
ATOM     25  C   UNL A   1      29.786  27.765  23.889  1.00  0.00     0.270 A 
ATOM     26  C   UNL A   1      28.980  27.552  22.928  1.00  0.00     0.085 A 
BRANCH  25  27
ATOM     27  N   UNL A   1      30.176  29.355  23.205  1.00  0.00     0.062 N 
ATOM     28  O   UNL A   1      31.120  29.385  22.397  1.00  0.00    -0.258 OA
ATOM     29  O   UNL A   1      29.650  30.344  23.746  1.00  0.00    -0.258 OA
ENDBRANCH  25  27
ENDBRANCH  19  21
ENDBRANCH  15  17
ENDBRANCH  13  15
ENDBRANCH   6  13
ENDBRANCH   3   5
ENDBRANCH   2   3
ENDBRANCH   1   2
BRANCH   1  30
ATOM     30  C   UNL A   1      38.367  23.860  25.942  1.00  0.00     0.275 C 
BRANCH  30  31
ATOM     31  O   UNL A   1      39.377  23.764  26.961  1.00  0.00    -0.458 OA
BRANCH  31  32
ATOM     32  C   UNL A   1      40.417  24.624  26.842  1.00  0.00     0.338 C 
ATOM     33  O   UNL A   1      41.383  24.492  26.108  1.00  0.00    -0.246 OA
BRANCH  32  34
ATOM     34  C   UNL A   1      40.232  25.791  27.735  1.00  0.00     0.060 A 
ATOM     35  C   UNL A   1      41.036  26.930  27.630  1.00  0.00     0.016 A 
ATOM     36  C   UNL A   1      39.315  25.690  28.783  1.00  0.00     0.016 A 
ATOM     37  C   UNL A   1      41.009  27.905  28.634  1.00  0.00     0.010 A 
ATOM     38  C   UNL A   1      39.233  26.704  29.743  1.00  0.00     0.010 A 
ATOM     39  C   UNL A   1      40.123  27.791  29.716  1.00  0.00    -0.014 A 
BRANCH  39  40
ATOM     40  C   UNL A   1      40.221  28.705  30.890  1.00  0.00     0.031 A 
ATOM     41  C   UNL A   1      39.202  29.808  31.057  1.00  0.00     0.074 A 
ATOM     42  C   UNL A   1      41.162  28.551  31.841  1.00  0.00     0.049 A 
ATOM     43  N   UNL A   1      39.226  30.838  31.863  1.00  0.00    -0.248 NA
ATOM     44  C   UNL A   1      38.013  29.755  30.188  1.00  0.00     0.031 C 
ATOM     45  C   UNL A   1      42.187  27.508  31.875  1.00  0.00     0.029 A 
ATOM     46  N   UNL A   1      41.380  29.268  32.994  1.00  0.00    -0.354 N 
ATOM     47  C   UNL A   1      38.122  31.610  31.522  1.00  0.00     0.074 A 
ATOM     48  C   UNL A   1      37.418  30.904  30.474  1.00  0.00     0.031 C 
ATOM     49  C   UNL A   1      42.867  27.600  33.031  1.00  0.00     0.029 A 
ATOM     50  C   UNL A   1      42.371  28.748  33.788  1.00  0.00     0.049 A 
ATOM     51  H   UNL A   1      40.871  30.077  33.228  1.00  0.00     0.167 HD
ATOM     52  C   UNL A   1      37.748  32.815  32.015  1.00  0.00     0.031 A 
ATOM     53  C   UNL A   1      42.833  29.149  34.988  1.00  0.00     0.031 A 
ATOM     54  C   UNL A   1      38.389  33.476  33.115  1.00  0.00     0.049 A 
ATOM     55  C   UNL A   1      42.291  30.397  35.622  1.00  0.00     0.074 A 
ATOM     56  C   UNL A   1      38.172  34.748  33.618  1.00  0.00     0.029 A 
ATOM     57  N   UNL A   1      39.334  32.879  33.933  1.00  0.00    -0.354 N 
ATOM     58  N   UNL A   1      41.389  31.227  35.158  1.00  0.00    -0.248 NA
ATOM     59  C   UNL A   1      42.852  30.779  36.926  1.00  0.00     0.031 C 
ATOM     60  C   UNL A   1      38.966  34.906  34.764  1.00  0.00     0.029 A 
ATOM     61  C   UNL A   1      39.670  33.731  34.969  1.00  0.00     0.049 A 
ATOM     62  H   UNL A   1      39.711  31.980  33.795  1.00  0.00     0.167 HD
ATOM     63  C   UNL A   1      41.301  32.249  36.095  1.00  0.00     0.074 A 
ATOM     64  C   UNL A   1      42.206  31.911  37.175  1.00  0.00     0.031 C 
ATOM     65  C   UNL A   1      40.563  33.385  36.043  1.00  0.00     0.031 A 
BRANCH  52  66
ATOM     66  C   UNL A   1      36.626  33.511  31.305  1.00  0.00    -0.014 A 
ATOM     67  C   UNL A   1      35.376  33.702  31.915  1.00  0.00     0.010 A 
ATOM     68  C   UNL A   1      36.825  33.957  29.986  1.00  0.00     0.010 A 
ATOM     69  C   UNL A   1      34.328  34.292  31.201  1.00  0.00     0.020 A 
ATOM     70  C   UNL A   1      35.785  34.556  29.275  1.00  0.00     0.020 A 
ATOM     71  C   UNL A   1      34.535  34.699  29.880  1.00  0.00     0.054 A 
BRANCH  71  72
ATOM     72  S   UNL A   1      33.176  35.448  28.940  1.00  0.00     0.124 S 
ATOM     73  O   UNL A   1      32.340  35.993  30.008  1.00  0.00    -0.237 OA
ATOM     74  O   UNL A   1      33.851  36.440  28.106  1.00  0.00    -0.237 OA
ATOM     75  O   UNL A   1      32.606  34.316  28.216  1.00  0.00    -0.744 OA
ENDBRANCH  71  72
ENDBRANCH  52  66
BRANCH  53  76
ATOM     76  C   UNL A   1      43.872  28.345  35.674  1.00  0.00    -0.014 A 
ATOM     77  C   UNL A   1      43.494  27.286  36.518  1.00  0.00     0.010 A 
ATOM     78  C   UNL A   1      45.236  28.600  35.458  1.00  0.00     0.010 A 
ATOM     79  C   UNL A   1      44.464  26.490  37.132  1.00  0.00     0.020 A 
ATOM     80  C   UNL A   1      46.207  27.798  36.062  1.00  0.00     0.020 A 
ATOM     81  C   UNL A   1      45.816  26.749  36.898  1.00  0.00     0.054 A 
BRANCH  81  82
ATOM     82  S   UNL A   1      47.085  25.667  37.613  1.00  0.00     0.124 S 
ATOM     83  O   UNL A   1      47.644  26.509  38.664  1.00  0.00    -0.237 OA
ATOM     84  O   UNL A   1      46.321  24.509  38.070  1.00  0.00    -0.237 OA
ATOM     85  O   UNL A   1      47.965  25.408  36.475  1.00  0.00    -0.744 OA
ENDBRANCH  81  82
ENDBRANCH  53  76
BRANCH  65  86
ATOM     86  C   UNL A   1      40.719  34.352  37.176  1.00  0.00    -0.014 A 
ATOM     87  C   UNL A   1      41.761  35.295  37.158  1.00  0.00     0.010 A 
ATOM     88  C   UNL A   1      39.811  34.343  38.247  1.00  0.00     0.010 A 
ATOM     89  C   UNL A   1      41.908  36.203  38.208  1.00  0.00     0.020 A 
ATOM     90  C   UNL A   1      39.954  35.253  39.299  1.00  0.00     0.020 A 
ATOM     91  C   UNL A   1      41.010  36.170  39.278  1.00  0.00     0.054 A 
BRANCH  91  92
ATOM     92  S   UNL A   1      41.188  37.371  40.627  1.00  0.00     0.124 S 
ATOM     93  O   UNL A   1      41.992  36.626  41.591  1.00  0.00    -0.237 OA
ATOM     94  O   UNL A   1      41.864  38.495  39.982  1.00  0.00    -0.237 OA
ATOM     95  O   UNL A   1      39.808  37.632  41.031  1.00  0.00    -0.744 OA
ENDBRANCH  91  92
ENDBRANCH  65  86
ENDBRANCH  39  40
ENDBRANCH  32  34
ENDBRANCH  31  32
ENDBRANCH  30  31
ENDBRANCH   1  30
TORSDOF 19
ENDMDL
