MODEL 1
REMARK VINA RESULT:     -10.0      0.000      0.000
REMARK SMILES O=C(C[C@H]1CN(C(=O)CSc2ccccc2F)CCO1)OCCOC(=O)c1ccc(-c2c3nc(c(-c4ccc(S(=O)(=O)[O-])cc4)c4ccc([nH]4)c(-c4ccc(S(=O)(=O)[O-])cc4)c4nc(c(-c5ccc(S(=O)(=O)[O-])cc5)c5ccc2[nH]5)C=C4)C=C3)cc1
REMARK SMILES IDX 22 1 21 2 2 3 1 4 3 5 4 6 5 7 20 8 6 9 19 10 18 11 7 12 8 13
REMARK SMILES IDX 9 14 10 15 11 16 12 17 16 18 13 19 15 20 17 21 14 22 23 23
REMARK SMILES IDX 24 24 25 25 26 26 27 27 28 28 86 29 29 30 85 31 30 32 31 33
REMARK SMILES IDX 32 34 79 35 33 36 84 37 78 38 80 39 34 40 83 41 77 42 76 43
REMARK SMILES IDX 35 45 65 46 46 47 64 48 47 49 50 50 63 51 81 52 48 53 49 54
REMARK SMILES IDX 62 56 82 57 51 58 36 59 37 60 45 61 38 62 44 63 39 64 40 65
REMARK SMILES IDX 41 66 42 67 43 68 66 69 67 70 75 71 68 72 74 73 69 74 70 75
REMARK SMILES IDX 71 76 72 77 73 78 52 79 53 80 61 81 54 82 60 83 55 84 56 85
REMARK SMILES IDX 57 86 58 87 59 88
REMARK H PARENT 80 44 50 55
REMARK Flexibility Score: inf
ROOT
ATOM      1  C   UNL A   1      35.232  22.212  25.599  1.00  0.00     0.274 C 
ENDROOT
BRANCH   1   2
ATOM      2  O   UNL A   1      34.736  21.874  24.289  1.00  0.00    -0.462 OA
BRANCH   2   3
ATOM      3  C   UNL A   1      34.446  22.765  23.311  1.00  0.00     0.308 C 
ATOM      4  O   UNL A   1      35.351  23.315  22.692  1.00  0.00    -0.252 OA
BRANCH   3   5
ATOM      5  C   UNL A   1      33.000  23.108  23.052  1.00  0.00     0.156 C 
BRANCH   5   6
ATOM      6  C   UNL A   1      32.329  23.803  24.239  1.00  0.00     0.148 C 
ATOM      7  C   UNL A   1      32.760  25.282  24.354  1.00  0.00     0.152 C 
ATOM      8  O   UNL A   1      30.894  23.713  24.183  1.00  0.00    -0.374 OA
ATOM      9  N   UNL A   1      32.185  26.099  23.287  1.00  0.00    -0.337 N 
ATOM     10  C   UNL A   1      30.304  24.493  23.128  1.00  0.00     0.182 C 
ATOM     11  C   UNL A   1      30.730  25.963  23.171  1.00  0.00     0.148 C 
BRANCH   9  12
ATOM     12  C   UNL A   1      32.828  27.109  22.589  1.00  0.00     0.233 C 
ATOM     13  O   UNL A   1      33.601  26.865  21.658  1.00  0.00    -0.274 OA
BRANCH  12  14
ATOM     14  C   UNL A   1      32.628  28.556  23.012  1.00  0.00     0.175 C 
BRANCH  14  15
ATOM     15  S   UNL A   1      31.505  28.758  24.431  1.00  0.00    -0.113 SA
BRANCH  15  16
ATOM     16  C   UNL A   1      32.671  29.296  25.669  1.00  0.00     0.044 A 
ATOM     17  C   UNL A   1      33.812  28.532  25.940  1.00  0.00     0.018 A 
ATOM     18  C   UNL A   1      32.451  30.467  26.400  1.00  0.00     0.136 A 
ATOM     19  C   UNL A   1      34.720  28.951  26.916  1.00  0.00     0.001 A 
ATOM     20  C   UNL A   1      33.356  30.894  27.366  1.00  0.00     0.040 A 
ATOM     21  F   UNL A   1      31.354  31.209  26.178  1.00  0.00    -0.206 F 
ATOM     22  C   UNL A   1      34.495  30.134  27.625  1.00  0.00     0.003 A 
ENDBRANCH  15  16
ENDBRANCH  14  15
ENDBRANCH  12  14
ENDBRANCH   9  12
ENDBRANCH   5   6
ENDBRANCH   3   5
ENDBRANCH   2   3
ENDBRANCH   1   2
BRANCH   1  23
ATOM     23  C   UNL A   1      36.729  21.932  25.742  1.00  0.00     0.275 C 
BRANCH  23  24
ATOM     24  O   UNL A   1      37.473  23.160  25.856  1.00  0.00    -0.458 OA
BRANCH  24  25
ATOM     25  C   UNL A   1      38.795  23.025  26.141  1.00  0.00     0.338 C 
ATOM     26  O   UNL A   1      39.525  22.126  25.764  1.00  0.00    -0.246 OA
BRANCH  25  27
ATOM     27  C   UNL A   1      39.280  24.253  26.819  1.00  0.00     0.060 A 
ATOM     28  C   UNL A   1      38.906  24.456  28.152  1.00  0.00     0.016 A 
ATOM     29  C   UNL A   1      40.125  25.173  26.188  1.00  0.00     0.016 A 
ATOM     30  C   UNL A   1      39.359  25.581  28.846  1.00  0.00     0.010 A 
ATOM     31  C   UNL A   1      40.599  26.286  26.895  1.00  0.00     0.010 A 
ATOM     32  C   UNL A   1      40.196  26.516  28.220  1.00  0.00    -0.014 A 
BRANCH  32  33
ATOM     33  C   UNL A   1      40.543  27.781  28.922  1.00  0.00     0.031 A 
ATOM     34  C   UNL A   1      41.905  27.930  29.547  1.00  0.00     0.074 A 
ATOM     35  C   UNL A   1      39.680  28.814  28.969  1.00  0.00     0.049 A 
ATOM     36  N   UNL A   1      42.444  28.981  30.113  1.00  0.00    -0.248 NA
ATOM     37  C   UNL A   1      42.777  26.744  29.529  1.00  0.00     0.031 C 
ATOM     38  C   UNL A   1      38.325  28.806  28.421  1.00  0.00     0.029 A 
ATOM     39  N   UNL A   1      39.817  30.073  29.500  1.00  0.00    -0.354 N 
ATOM     40  C   UNL A   1      43.721  28.592  30.495  1.00  0.00     0.074 A 
ATOM     41  C   UNL A   1      43.856  27.192  30.154  1.00  0.00     0.031 C 
ATOM     42  C   UNL A   1      37.752  30.002  28.646  1.00  0.00     0.029 A 
ATOM     43  C   UNL A   1      38.698  30.860  29.358  1.00  0.00     0.049 A 
ATOM     44  H   UNL A   1      40.640  30.383  29.941  1.00  0.00     0.167 HD
ATOM     45  C   UNL A   1      44.707  29.333  31.053  1.00  0.00     0.031 A 
ATOM     46  C   UNL A   1      38.461  32.127  29.752  1.00  0.00     0.031 A 
ATOM     47  C   UNL A   1      44.580  30.718  31.420  1.00  0.00     0.049 A 
ATOM     48  C   UNL A   1      39.557  32.918  30.420  1.00  0.00     0.074 A 
ATOM     49  C   UNL A   1      45.535  31.552  31.977  1.00  0.00     0.029 A 
ATOM     50  N   UNL A   1      43.427  31.472  31.276  1.00  0.00    -0.354 N 
ATOM     51  N   UNL A   1      40.782  32.550  30.708  1.00  0.00    -0.248 NA
ATOM     52  C   UNL A   1      39.243  34.306  30.790  1.00  0.00     0.031 C 
ATOM     53  C   UNL A   1      44.946  32.799  32.211  1.00  0.00     0.029 A 
ATOM     54  C   UNL A   1      43.640  32.756  31.752  1.00  0.00     0.049 A 
ATOM     55  H   UNL A   1      42.582  31.145  30.894  1.00  0.00     0.167 HD
ATOM     56  C   UNL A   1      41.392  33.670  31.267  1.00  0.00     0.074 A 
ATOM     57  C   UNL A   1      40.407  34.732  31.257  1.00  0.00     0.031 C 
ATOM     58  C   UNL A   1      42.654  33.806  31.745  1.00  0.00     0.031 A 
BRANCH  45  59
ATOM     59  C   UNL A   1      46.027  28.650  31.292  1.00  0.00    -0.014 A 
ATOM     60  C   UNL A   1      46.281  27.994  32.509  1.00  0.00     0.010 A 
ATOM     61  C   UNL A   1      47.004  28.630  30.282  1.00  0.00     0.010 A 
ATOM     62  C   UNL A   1      47.504  27.358  32.728  1.00  0.00     0.020 A 
ATOM     63  C   UNL A   1      48.221  27.973  30.487  1.00  0.00     0.020 A 
ATOM     64  C   UNL A   1      48.468  27.354  31.714  1.00  0.00     0.054 A 
BRANCH  64  65
ATOM     65  S   UNL A   1      50.039  26.498  32.016  1.00  0.00     0.124 S 
ATOM     66  O   UNL A   1      50.565  27.231  33.164  1.00  0.00    -0.237 OA
ATOM     67  O   UNL A   1      49.610  25.128  32.289  1.00  0.00    -0.237 OA
ATOM     68  O   UNL A   1      50.777  26.679  30.769  1.00  0.00    -0.744 OA
ENDBRANCH  64  65
ENDBRANCH  45  59
BRANCH  46  69
ATOM     69  C   UNL A   1      37.123  32.743  29.529  1.00  0.00    -0.014 A 
ATOM     70  C   UNL A   1      36.764  33.253  28.268  1.00  0.00     0.010 A 
ATOM     71  C   UNL A   1      36.215  32.858  30.597  1.00  0.00     0.010 A 
ATOM     72  C   UNL A   1      35.536  33.897  28.089  1.00  0.00     0.020 A 
ATOM     73  C   UNL A   1      34.976  33.478  30.415  1.00  0.00     0.020 A 
ATOM     74  C   UNL A   1      34.651  34.010  29.165  1.00  0.00     0.054 A 
BRANCH  74  75
ATOM     75  S   UNL A   1      33.053  34.830  28.908  1.00  0.00     0.124 S 
ATOM     76  O   UNL A   1      32.402  33.933  27.958  1.00  0.00    -0.237 OA
ATOM     77  O   UNL A   1      32.485  34.847  30.254  1.00  0.00    -0.237 OA
ATOM     78  O   UNL A   1      33.424  36.140  28.380  1.00  0.00    -0.744 OA
ENDBRANCH  74  75
ENDBRANCH  46  69
BRANCH  58  79
ATOM     79  C   UNL A   1      43.052  35.161  32.272  1.00  0.00    -0.014 A 
ATOM     80  C   UNL A   1      42.765  35.543  33.595  1.00  0.00     0.010 A 
ATOM     81  C   UNL A   1      43.746  36.057  31.438  1.00  0.00     0.010 A 
ATOM     82  C   UNL A   1      43.120  36.814  34.058  1.00  0.00     0.020 A 
ATOM     83  C   UNL A   1      44.127  37.317  31.904  1.00  0.00     0.020 A 
ATOM     84  C   UNL A   1      43.793  37.696  33.207  1.00  0.00     0.054 A 
BRANCH  84  85
ATOM     85  S   UNL A   1      44.255  39.336  33.831  1.00  0.00     0.124 S 
ATOM     86  O   UNL A   1      42.992  40.062  33.739  1.00  0.00    -0.237 OA
ATOM     87  O   UNL A   1      44.717  39.047  35.187  1.00  0.00    -0.237 OA
ATOM     88  O   UNL A   1      45.297  39.777  32.907  1.00  0.00    -0.744 OA
ENDBRANCH  84  85
ENDBRANCH  58  79
ENDBRANCH  32  33
ENDBRANCH  25  27
ENDBRANCH  24  25
ENDBRANCH  23  24
ENDBRANCH   1  23
TORSDOF 19
ENDMDL
MODEL 2
REMARK VINA RESULT:      -9.8      3.718      4.603
REMARK SMILES O=C(C[C@H]1CN(C(=O)CSc2ccccc2F)CCO1)OCCOC(=O)c1ccc(-c2c3nc(c(-c4ccc(S(=O)(=O)[O-])cc4)c4ccc([nH]4)c(-c4ccc(S(=O)(=O)[O-])cc4)c4nc(c(-c5ccc(S(=O)(=O)[O-])cc5)c5ccc2[nH]5)C=C4)C=C3)cc1
REMARK SMILES IDX 22 1 21 2 2 3 1 4 3 5 4 6 5 7 20 8 6 9 19 10 18 11 7 12 8 13
REMARK SMILES IDX 9 14 10 15 11 16 12 17 16 18 13 19 15 20 17 21 14 22 23 23
REMARK SMILES IDX 24 24 25 25 26 26 27 27 28 28 86 29 29 30 85 31 30 32 31 33
REMARK SMILES IDX 32 34 79 35 33 36 84 37 78 38 80 39 34 40 83 41 77 42 76 43
REMARK SMILES IDX 35 45 65 46 46 47 64 48 47 49 50 50 63 51 81 52 48 53 49 54
REMARK SMILES IDX 62 56 82 57 51 58 36 59 37 60 45 61 38 62 44 63 39 64 40 65
REMARK SMILES IDX 41 66 42 67 43 68 66 69 67 70 75 71 68 72 74 73 69 74 70 75
REMARK SMILES IDX 71 76 72 77 73 78 52 79 53 80 61 81 54 82 60 83 55 84 56 85
REMARK SMILES IDX 57 86 58 87 59 88
REMARK H PARENT 80 44 50 55
REMARK Flexibility Score: inf
ROOT
ATOM      1  C   UNL A   1      39.376  21.661  26.119  1.00  0.00     0.274 C 
ENDROOT
BRANCH   1   2
ATOM      2  O   UNL A   1      38.063  22.193  25.851  1.00  0.00    -0.462 OA
BRANCH   2   3
ATOM      3  C   UNL A   1      37.112  21.583  25.104  1.00  0.00     0.308 C 
ATOM      4  O   UNL A   1      37.434  20.759  24.254  1.00  0.00    -0.252 OA
BRANCH   3   5
ATOM      5  C   UNL A   1      35.673  21.987  25.298  1.00  0.00     0.156 C 
BRANCH   5   6
ATOM      6  C   UNL A   1      34.812  20.870  25.890  1.00  0.00     0.148 C 
ATOM      7  C   UNL A   1      33.820  21.409  26.944  1.00  0.00     0.152 C 
ATOM      8  O   UNL A   1      34.101  20.134  24.879  1.00  0.00    -0.374 OA
ATOM      9  N   UNL A   1      32.747  22.189  26.330  1.00  0.00    -0.337 N 
ATOM     10  C   UNL A   1      33.052  20.886  24.244  1.00  0.00     0.182 C 
ATOM     11  C   UNL A   1      32.059  21.479  25.248  1.00  0.00     0.148 C 
BRANCH   9  12
ATOM     12  C   UNL A   1      32.204  23.366  26.820  1.00  0.00     0.233 C 
ATOM     13  O   UNL A   1      31.187  23.371  27.520  1.00  0.00    -0.274 OA
BRANCH  12  14
ATOM     14  C   UNL A   1      32.836  24.696  26.441  1.00  0.00     0.175 C 
BRANCH  14  15
ATOM     15  S   UNL A   1      32.170  25.417  24.907  1.00  0.00    -0.113 SA
BRANCH  15  16
ATOM     16  C   UNL A   1      32.466  27.146  25.228  1.00  0.00     0.044 A 
ATOM     17  C   UNL A   1      33.638  27.551  25.875  1.00  0.00     0.018 A 
ATOM     18  C   UNL A   1      31.524  28.114  24.864  1.00  0.00     0.136 A 
ATOM     19  C   UNL A   1      33.865  28.906  26.134  1.00  0.00     0.001 A 
ATOM     20  C   UNL A   1      31.749  29.464  25.110  1.00  0.00     0.040 A 
ATOM     21  F   UNL A   1      30.380  27.754  24.261  1.00  0.00    -0.206 F 
ATOM     22  C   UNL A   1      32.923  29.862  25.747  1.00  0.00     0.003 A 
ENDBRANCH  15  16
ENDBRANCH  14  15
ENDBRANCH  12  14
ENDBRANCH   9  12
ENDBRANCH   5   6
ENDBRANCH   3   5
ENDBRANCH   2   3
ENDBRANCH   1   2
BRANCH   1  23
ATOM     23  C   UNL A   1      40.180  22.553  27.068  1.00  0.00     0.275 C 
BRANCH  23  24
ATOM     24  O   UNL A   1      40.038  23.941  26.713  1.00  0.00    -0.458 OA
BRANCH  24  25
ATOM     25  C   UNL A   1      41.136  24.717  26.915  1.00  0.00     0.338 C 
ATOM     26  O   UNL A   1      42.152  24.716  26.242  1.00  0.00    -0.246 OA
BRANCH  25  27
ATOM     27  C   UNL A   1      40.840  25.726  27.962  1.00  0.00     0.060 A 
ATOM     28  C   UNL A   1      41.821  26.683  28.244  1.00  0.00     0.016 A 
ATOM     29  C   UNL A   1      39.611  25.774  28.629  1.00  0.00     0.016 A 
ATOM     30  C   UNL A   1      41.582  27.673  29.202  1.00  0.00     0.010 A 
ATOM     31  C   UNL A   1      39.364  26.784  29.569  1.00  0.00     0.010 A 
ATOM     32  C   UNL A   1      40.359  27.724  29.885  1.00  0.00    -0.014 A 
BRANCH  32  33
ATOM     33  C   UNL A   1      40.179  28.687  31.005  1.00  0.00     0.031 A 
ATOM     34  C   UNL A   1      41.015  28.538  32.249  1.00  0.00     0.074 A 
ATOM     35  C   UNL A   1      39.317  29.717  30.909  1.00  0.00     0.049 A 
ATOM     36  N   UNL A   1      41.088  29.326  33.293  1.00  0.00    -0.248 NA
ATOM     37  C   UNL A   1      41.884  27.353  32.327  1.00  0.00     0.031 C 
ATOM     38  C   UNL A   1      38.435  29.976  29.772  1.00  0.00     0.029 A 
ATOM     39  N   UNL A   1      39.045  30.743  31.782  1.00  0.00    -0.354 N 
ATOM     40  C   UNL A   1      42.026  28.745  34.138  1.00  0.00     0.074 A 
ATOM     41  C   UNL A   1      42.448  27.509  33.515  1.00  0.00     0.031 C 
ATOM     42  C   UNL A   1      37.717  31.086  30.017  1.00  0.00     0.029 A 
ATOM     43  C   UNL A   1      38.083  31.615  31.330  1.00  0.00     0.049 A 
ATOM     44  H   UNL A   1      39.497  30.842  32.651  1.00  0.00     0.167 HD
ATOM     45  C   UNL A   1      42.517  29.208  35.313  1.00  0.00     0.031 A 
ATOM     46  C   UNL A   1      37.559  32.716  31.904  1.00  0.00     0.031 A 
ATOM     47  C   UNL A   1      42.089  30.420  35.956  1.00  0.00     0.049 A 
ATOM     48  C   UNL A   1      38.083  33.185  33.237  1.00  0.00     0.074 A 
ATOM     49  C   UNL A   1      42.544  30.973  37.141  1.00  0.00     0.029 A 
ATOM     50  N   UNL A   1      41.102  31.266  35.475  1.00  0.00    -0.354 N 
ATOM     51  N   UNL A   1      39.022  32.658  33.986  1.00  0.00    -0.248 NA
ATOM     52  C   UNL A   1      37.494  34.414  33.788  1.00  0.00     0.031 C 
ATOM     53  C   UNL A   1      41.802  32.130  37.399  1.00  0.00     0.029 A 
ATOM     54  C   UNL A   1      40.920  32.326  36.349  1.00  0.00     0.049 A 
ATOM     55  H   UNL A   1      40.603  31.134  34.637  1.00  0.00     0.167 HD
ATOM     56  C   UNL A   1      39.153  33.507  35.082  1.00  0.00     0.074 A 
ATOM     57  C   UNL A   1      38.213  34.591  34.887  1.00  0.00     0.031 C 
ATOM     58  C   UNL A   1      39.978  33.398  36.152  1.00  0.00     0.031 A 
BRANCH  45  59
ATOM     59  C   UNL A   1      43.591  28.389  35.976  1.00  0.00    -0.014 A 
ATOM     60  C   UNL A   1      43.253  27.298  36.797  1.00  0.00     0.010 A 
ATOM     61  C   UNL A   1      44.946  28.685  35.749  1.00  0.00     0.010 A 
ATOM     62  C   UNL A   1      44.251  26.538  37.409  1.00  0.00     0.020 A 
ATOM     63  C   UNL A   1      45.949  27.911  36.339  1.00  0.00     0.020 A 
ATOM     64  C   UNL A   1      45.594  26.851  37.178  1.00  0.00     0.054 A 
BRANCH  64  65
ATOM     65  S   UNL A   1      46.870  25.831  37.965  1.00  0.00     0.124 S 
ATOM     66  O   UNL A   1      48.053  26.677  37.837  1.00  0.00    -0.237 OA
ATOM     67  O   UNL A   1      46.358  25.670  39.324  1.00  0.00    -0.237 OA
ATOM     68  O   UNL A   1      46.885  24.613  37.160  1.00  0.00    -0.744 OA
ENDBRANCH  64  65
ENDBRANCH  45  59
BRANCH  46  69
ATOM     69  C   UNL A   1      36.467  33.468  31.223  1.00  0.00    -0.014 A 
ATOM     70  C   UNL A   1      35.261  33.751  31.889  1.00  0.00     0.010 A 
ATOM     71  C   UNL A   1      36.619  33.870  29.885  1.00  0.00     0.010 A 
ATOM     72  C   UNL A   1      34.215  34.391  31.217  1.00  0.00     0.020 A 
ATOM     73  C   UNL A   1      35.585  34.532  29.217  1.00  0.00     0.020 A 
ATOM     74  C   UNL A   1      34.382  34.774  29.884  1.00  0.00     0.054 A 
BRANCH  74  75
ATOM     75  S   UNL A   1      33.021  35.622  29.034  1.00  0.00     0.124 S 
ATOM     76  O   UNL A   1      33.730  36.648  28.277  1.00  0.00    -0.237 OA
ATOM     77  O   UNL A   1      32.423  34.549  28.243  1.00  0.00    -0.237 OA
ATOM     78  O   UNL A   1      32.190  36.114  30.131  1.00  0.00    -0.744 OA
ENDBRANCH  74  75
ENDBRANCH  46  69
BRANCH  58  79
ATOM     79  C   UNL A   1      39.923  34.495  37.184  1.00  0.00    -0.014 A 
ATOM     80  C   UNL A   1      39.152  34.360  38.353  1.00  0.00     0.010 A 
ATOM     81  C   UNL A   1      40.673  35.671  36.993  1.00  0.00     0.010 A 
ATOM     82  C   UNL A   1      39.093  35.400  39.286  1.00  0.00     0.020 A 
ATOM     83  C   UNL A   1      40.638  36.700  37.936  1.00  0.00     0.020 A 
ATOM     84  C   UNL A   1      39.831  36.567  39.068  1.00  0.00     0.054 A 
BRANCH  84  85
ATOM     85  S   UNL A   1      39.750  37.899  40.297  1.00  0.00     0.124 S 
ATOM     86  O   UNL A   1      39.086  37.237  41.417  1.00  0.00    -0.237 OA
ATOM     87  O   UNL A   1      41.157  38.231  40.508  1.00  0.00    -0.237 OA
ATOM     88  O   UNL A   1      38.965  38.936  39.632  1.00  0.00    -0.744 OA
ENDBRANCH  84  85
ENDBRANCH  58  79
ENDBRANCH  32  33
ENDBRANCH  25  27
ENDBRANCH  24  25
ENDBRANCH  23  24
ENDBRANCH   1  23
TORSDOF 19
ENDMDL
MODEL 3
REMARK VINA RESULT:      -9.7      3.483      9.328
REMARK SMILES O=C(C[C@H]1CN(C(=O)CSc2ccccc2F)CCO1)OCCOC(=O)c1ccc(-c2c3nc(c(-c4ccc(S(=O)(=O)[O-])cc4)c4ccc([nH]4)c(-c4ccc(S(=O)(=O)[O-])cc4)c4nc(c(-c5ccc(S(=O)(=O)[O-])cc5)c5ccc2[nH]5)C=C4)C=C3)cc1
REMARK SMILES IDX 22 1 21 2 2 3 1 4 3 5 4 6 5 7 20 8 6 9 19 10 18 11 7 12 8 13
REMARK SMILES IDX 9 14 10 15 11 16 12 17 16 18 13 19 15 20 17 21 14 22 23 23
REMARK SMILES IDX 24 24 25 25 26 26 27 27 28 28 86 29 29 30 85 31 30 32 31 33
REMARK SMILES IDX 32 34 79 35 33 36 84 37 78 38 80 39 34 40 83 41 77 42 76 43
REMARK SMILES IDX 35 45 65 46 46 47 64 48 47 49 50 50 63 51 81 52 48 53 49 54
REMARK SMILES IDX 62 56 82 57 51 58 36 59 37 60 45 61 38 62 44 63 39 64 40 65
REMARK SMILES IDX 41 66 42 67 43 68 66 69 67 70 75 71 68 72 74 73 69 74 70 75
REMARK SMILES IDX 71 76 72 77 73 78 52 79 53 80 61 81 54 82 60 83 55 84 56 85
REMARK SMILES IDX 57 86 58 87 59 88
REMARK H PARENT 80 44 50 55
REMARK Flexibility Score: inf
ROOT
ATOM      1  C   UNL A   1      31.781  29.453  26.537  1.00  0.00     0.274 C 
ENDROOT
BRANCH   1   2
ATOM      2  O   UNL A   1      32.685  28.341  26.690  1.00  0.00    -0.462 OA
BRANCH   2   3
ATOM      3  C   UNL A   1      32.369  27.043  26.470  1.00  0.00     0.308 C 
ATOM      4  O   UNL A   1      31.354  26.565  26.966  1.00  0.00    -0.252 OA
BRANCH   3   5
ATOM      5  C   UNL A   1      33.322  26.194  25.666  1.00  0.00     0.156 C 
BRANCH   5   6
ATOM      6  C   UNL A   1      32.823  24.762  25.464  1.00  0.00     0.148 C 
ATOM      7  C   UNL A   1      32.042  24.610  24.139  1.00  0.00     0.152 C 
ATOM      8  O   UNL A   1      33.891  23.800  25.517  1.00  0.00    -0.374 OA
ATOM      9  N   UNL A   1      32.924  24.684  22.978  1.00  0.00    -0.337 N 
ATOM     10  C   UNL A   1      34.787  23.865  24.393  1.00  0.00     0.182 C 
ATOM     11  C   UNL A   1      34.059  23.758  23.050  1.00  0.00     0.148 C 
BRANCH   9  12
ATOM     12  C   UNL A   1      32.658  25.335  21.783  1.00  0.00     0.233 C 
ATOM     13  O   UNL A   1      33.375  25.190  20.790  1.00  0.00    -0.274 OA
BRANCH  12  14
ATOM     14  C   UNL A   1      31.486  26.301  21.704  1.00  0.00     0.175 C 
BRANCH  14  15
ATOM     15  S   UNL A   1      31.730  27.833  22.658  1.00  0.00    -0.113 SA
BRANCH  15  16
ATOM     16  C   UNL A   1      30.060  28.460  22.661  1.00  0.00     0.044 A 
ATOM     17  C   UNL A   1      29.750  29.638  21.974  1.00  0.00     0.018 A 
ATOM     18  C   UNL A   1      29.049  27.801  23.369  1.00  0.00     0.136 A 
ATOM     19  C   UNL A   1      28.442  30.132  21.985  1.00  0.00     0.001 A 
ATOM     20  C   UNL A   1      27.745  28.284  23.375  1.00  0.00     0.040 A 
ATOM     21  F   UNL A   1      29.321  26.681  24.056  1.00  0.00    -0.206 F 
ATOM     22  C   UNL A   1      27.440  29.453  22.681  1.00  0.00     0.003 A 
ENDBRANCH  15  16
ENDBRANCH  14  15
ENDBRANCH  12  14
ENDBRANCH   9  12
ENDBRANCH   5   6
ENDBRANCH   3   5
ENDBRANCH   2   3
ENDBRANCH   1   2
BRANCH   1  23
ATOM     23  C   UNL A   1      32.486  30.801  26.698  1.00  0.00     0.275 C 
BRANCH  23  24
ATOM     24  O   UNL A   1      33.862  30.619  27.082  1.00  0.00    -0.458 OA
BRANCH  24  25
ATOM     25  C   UNL A   1      34.382  31.581  27.889  1.00  0.00     0.338 C 
ATOM     26  O   UNL A   1      33.810  32.585  28.274  1.00  0.00    -0.246 OA
BRANCH  25  27
ATOM     27  C   UNL A   1      35.696  31.128  28.411  1.00  0.00     0.060 A 
ATOM     28  C   UNL A   1      35.741  29.915  29.106  1.00  0.00     0.016 A 
ATOM     29  C   UNL A   1      36.877  31.845  28.188  1.00  0.00     0.016 A 
ATOM     30  C   UNL A   1      36.958  29.429  29.592  1.00  0.00     0.010 A 
ATOM     31  C   UNL A   1      38.099  31.342  28.654  1.00  0.00     0.010 A 
ATOM     32  C   UNL A   1      38.146  30.145  29.386  1.00  0.00    -0.014 A 
BRANCH  32  33
ATOM     33  C   UNL A   1      39.403  29.692  30.040  1.00  0.00     0.031 A 
ATOM     34  C   UNL A   1      39.866  30.370  31.302  1.00  0.00     0.074 A 
ATOM     35  C   UNL A   1      40.110  28.655  29.551  1.00  0.00     0.049 A 
ATOM     36  N   UNL A   1      40.872  30.063  32.083  1.00  0.00    -0.248 NA
ATOM     37  C   UNL A   1      39.095  31.541  31.747  1.00  0.00     0.031 C 
ATOM     38  C   UNL A   1      39.789  27.915  28.332  1.00  0.00     0.029 A 
ATOM     39  N   UNL A   1      41.245  28.041  30.024  1.00  0.00    -0.354 N 
ATOM     40  C   UNL A   1      40.840  30.987  33.120  1.00  0.00     0.074 A 
ATOM     41  C   UNL A   1      39.755  31.902  32.838  1.00  0.00     0.031 C 
ATOM     42  C   UNL A   1      40.707  26.948  28.149  1.00  0.00     0.029 A 
ATOM     43  C   UNL A   1      41.683  27.003  29.236  1.00  0.00     0.049 A 
ATOM     44  H   UNL A   1      41.702  28.320  30.850  1.00  0.00     0.167 HD
ATOM     45  C   UNL A   1      41.621  31.056  34.224  1.00  0.00     0.031 A 
ATOM     46  C   UNL A   1      42.747  26.187  29.373  1.00  0.00     0.031 A 
ATOM     47  C   UNL A   1      42.718  30.171  34.506  1.00  0.00     0.049 A 
ATOM     48  C   UNL A   1      43.635  26.315  30.585  1.00  0.00     0.074 A 
ATOM     49  C   UNL A   1      43.553  30.158  35.610  1.00  0.00     0.029 A 
ATOM     50  N   UNL A   1      43.140  29.144  33.676  1.00  0.00    -0.354 N 
ATOM     51  N   UNL A   1      43.543  27.152  31.590  1.00  0.00    -0.248 NA
ATOM     52  C   UNL A   1      44.755  25.368  30.691  1.00  0.00     0.031 C 
ATOM     53  C   UNL A   1      44.509  29.153  35.427  1.00  0.00     0.029 A 
ATOM     54  C   UNL A   1      44.236  28.505  34.234  1.00  0.00     0.049 A 
ATOM     55  H   UNL A   1      42.724  28.905  32.817  1.00  0.00     0.167 HD
ATOM     56  C   UNL A   1      44.576  26.813  32.460  1.00  0.00     0.074 A 
ATOM     57  C   UNL A   1      45.265  25.683  31.872  1.00  0.00     0.031 C 
ATOM     58  C   UNL A   1      44.921  27.386  33.640  1.00  0.00     0.031 A 
BRANCH  45  59
ATOM     59  C   UNL A   1      41.301  32.135  35.223  1.00  0.00    -0.014 A 
ATOM     60  C   UNL A   1      41.961  33.376  35.171  1.00  0.00     0.010 A 
ATOM     61  C   UNL A   1      40.309  31.925  36.196  1.00  0.00     0.010 A 
ATOM     62  C   UNL A   1      41.661  34.376  36.096  1.00  0.00     0.020 A 
ATOM     63  C   UNL A   1      39.986  32.933  37.109  1.00  0.00     0.020 A 
ATOM     64  C   UNL A   1      40.676  34.147  37.062  1.00  0.00     0.054 A 
BRANCH  64  65
ATOM     65  S   UNL A   1      40.287  35.475  38.236  1.00  0.00     0.124 S 
ATOM     66  O   UNL A   1      40.279  36.649  37.369  1.00  0.00    -0.237 OA
ATOM     67  O   UNL A   1      38.984  35.070  38.757  1.00  0.00    -0.237 OA
ATOM     68  O   UNL A   1      41.385  35.418  39.198  1.00  0.00    -0.744 OA
ENDBRANCH  64  65
ENDBRANCH  45  59
BRANCH  46  69
ATOM     69  C   UNL A   1      43.044  25.161  28.334  1.00  0.00    -0.014 A 
ATOM     70  C   UNL A   1      42.593  23.837  28.477  1.00  0.00     0.010 A 
ATOM     71  C   UNL A   1      43.819  25.502  27.211  1.00  0.00     0.010 A 
ATOM     72  C   UNL A   1      42.941  22.865  27.533  1.00  0.00     0.020 A 
ATOM     73  C   UNL A   1      44.148  24.539  26.253  1.00  0.00     0.020 A 
ATOM     74  C   UNL A   1      43.720  23.221  26.429  1.00  0.00     0.054 A 
BRANCH  74  75
ATOM     75  S   UNL A   1      44.144  21.952  25.204  1.00  0.00     0.124 S 
ATOM     76  O   UNL A   1      45.507  21.601  25.591  1.00  0.00    -0.237 OA
ATOM     77  O   UNL A   1      43.132  20.926  25.447  1.00  0.00    -0.237 OA
ATOM     78  O   UNL A   1      44.016  22.653  23.929  1.00  0.00    -0.744 OA
ENDBRANCH  74  75
ENDBRANCH  46  69
BRANCH  58  79
ATOM     79  C   UNL A   1      46.082  26.782  34.390  1.00  0.00    -0.014 A 
ATOM     80  C   UNL A   1      47.396  27.243  34.194  1.00  0.00     0.010 A 
ATOM     81  C   UNL A   1      45.850  25.754  35.322  1.00  0.00     0.010 A 
ATOM     82  C   UNL A   1      48.462  26.653  34.880  1.00  0.00     0.020 A 
ATOM     83  C   UNL A   1      46.909  25.181  36.030  1.00  0.00     0.020 A 
ATOM     84  C   UNL A   1      48.213  25.620  35.789  1.00  0.00     0.054 A 
BRANCH  84  85
ATOM     85  S   UNL A   1      49.609  24.877  36.677  1.00  0.00     0.124 S 
ATOM     86  O   UNL A   1      50.343  26.056  37.129  1.00  0.00    -0.237 OA
ATOM     87  O   UNL A   1      48.950  24.106  37.728  1.00  0.00    -0.237 OA
ATOM     88  O   UNL A   1      50.282  24.077  35.656  1.00  0.00    -0.744 OA
ENDBRANCH  84  85
ENDBRANCH  58  79
ENDBRANCH  32  33
ENDBRANCH  25  27
ENDBRANCH  24  25
ENDBRANCH  23  24
ENDBRANCH   1  23
TORSDOF 19
ENDMDL
