MODEL 1
REMARK VINA RESULT:     -10.1      0.000      0.000
REMARK SMILES O=C(OCCOC(=O)c1ccc(S(=O)(=O)NCC[NH+]2CCCC2)c(F)c1)c1ccc(-c2c3nc(c(-c4ccc(S(=O)(=O)[O-])cc4)c4ccc([nH]4)c(-c4ccc(S(=O)(=O)[O-])cc4)c4nc(c(-c5ccc(S(=O)(=O)[O-])cc5)c5ccc2[nH]5)C=C4)C=C3)cc1
REMARK SMILES IDX 5 1 4 2 3 3 2 4 1 5 27 6 28 7 86 8 29 9 85 10 30 11 31 12
REMARK SMILES IDX 32 13 79 14 33 15 84 16 78 17 80 18 34 19 83 20 77 21 76 22
REMARK SMILES IDX 35 24 65 25 46 26 64 27 47 28 50 29 63 30 81 31 48 32 49 33
REMARK SMILES IDX 62 35 82 36 51 37 36 38 37 39 45 40 38 41 44 42 39 43 40 44
REMARK SMILES IDX 41 45 42 46 43 47 66 48 67 49 75 50 68 51 74 52 69 53 70 54
REMARK SMILES IDX 71 55 72 56 73 57 52 58 53 59 61 60 54 61 60 62 55 63 56 64
REMARK SMILES IDX 57 65 58 66 59 67 6 68 7 69 8 70 9 71 10 72 26 73 11 74
REMARK SMILES IDX 24 75 12 76 25 77 13 78 14 79 15 80 16 81 17 83 18 84 19 85
REMARK SMILES IDX 20 86 23 87 21 89 22 90
REMARK H PARENT 80 23 50 34 16 82 19 88
REMARK Flexibility Score: inf
ROOT
ATOM      1  C   UNL A   1      36.476  20.817  25.438  1.00  0.00     0.275 C 
ENDROOT
BRANCH   1   2
ATOM      2  C   UNL A   1      37.388  21.849  24.772  1.00  0.00     0.275 C 
BRANCH   2   3
ATOM      3  O   UNL A   1      37.857  22.892  25.644  1.00  0.00    -0.458 OA
BRANCH   3   4
ATOM      4  C   UNL A   1      39.100  23.138  26.119  1.00  0.00     0.338 C 
ATOM      5  O   UNL A   1      39.918  22.217  26.127  1.00  0.00    -0.246 OA
BRANCH   4   6
ATOM      6  C   UNL A   1      39.506  24.424  26.767  1.00  0.00     0.060 A 
ATOM      7  C   UNL A   1      40.355  25.392  26.223  1.00  0.00     0.016 A 
ATOM      8  C   UNL A   1      39.003  24.650  28.062  1.00  0.00     0.016 A 
ATOM      9  C   UNL A   1      40.640  26.576  26.911  1.00  0.00     0.010 A 
ATOM     10  C   UNL A   1      39.284  25.832  28.753  1.00  0.00     0.010 A 
ATOM     11  C   UNL A   1      40.107  26.803  28.179  1.00  0.00    -0.014 A 
BRANCH  11  12
ATOM     12  C   UNL A   1      40.511  27.993  28.958  1.00  0.00     0.031 A 
ATOM     13  C   UNL A   1      41.777  27.936  29.759  1.00  0.00     0.074 A 
ATOM     14  C   UNL A   1      39.758  29.109  28.944  1.00  0.00     0.049 A 
ATOM     15  N   UNL A   1      42.333  28.867  30.485  1.00  0.00    -0.248 NA
ATOM     16  C   UNL A   1      42.533  26.673  29.710  1.00  0.00     0.031 C 
ATOM     17  C   UNL A   1      38.538  29.292  28.162  1.00  0.00     0.029 A 
ATOM     18  N   UNL A   1      39.887  30.284  29.636  1.00  0.00    -0.354 N 
ATOM     19  C   UNL A   1      43.524  28.322  30.942  1.00  0.00     0.074 A 
ATOM     20  C   UNL A   1      43.576  26.955  30.475  1.00  0.00     0.031 C 
ATOM     21  C   UNL A   1      37.972  30.465  28.495  1.00  0.00     0.029 A 
ATOM     22  C   UNL A   1      38.808  31.124  29.492  1.00  0.00     0.049 A 
ATOM     23  H   UNL A   1      40.676  30.506  30.183  1.00  0.00     0.167 HD
ATOM     24  C   UNL A   1      44.504  28.924  31.654  1.00  0.00     0.031 A 
ATOM     25  C   UNL A   1      38.522  32.286  30.108  1.00  0.00     0.031 A 
ATOM     26  C   UNL A   1      44.413  30.267  32.154  1.00  0.00     0.049 A 
ATOM     27  C   UNL A   1      39.555  32.884  31.023  1.00  0.00     0.074 A 
ATOM     28  C   UNL A   1      45.351  30.989  32.869  1.00  0.00     0.029 A 
ATOM     29  N   UNL A   1      43.299  31.083  32.010  1.00  0.00    -0.354 N 
ATOM     30  N   UNL A   1      40.727  32.399  31.363  1.00  0.00    -0.248 NA
ATOM     31  C   UNL A   1      39.259  34.204  31.592  1.00  0.00     0.031 C 
ATOM     32  C   UNL A   1      44.782  32.224  33.201  1.00  0.00     0.029 A 
ATOM     33  C   UNL A   1      43.511  32.291  32.650  1.00  0.00     0.049 A 
ATOM     34  H   UNL A   1      42.478  30.837  31.525  1.00  0.00     0.167 HD
ATOM     35  C   UNL A   1      41.330  33.378  32.143  1.00  0.00     0.074 A 
ATOM     36  C   UNL A   1      40.389  34.477  32.232  1.00  0.00     0.031 C 
ATOM     37  C   UNL A   1      42.559  33.374  32.716  1.00  0.00     0.031 A 
BRANCH  24  38
ATOM     38  C   UNL A   1      45.737  28.109  31.926  1.00  0.00    -0.014 A 
ATOM     39  C   UNL A   1      45.792  27.238  33.032  1.00  0.00     0.010 A 
ATOM     40  C   UNL A   1      46.865  28.237  31.099  1.00  0.00     0.010 A 
ATOM     41  C   UNL A   1      46.973  26.559  33.340  1.00  0.00     0.020 A 
ATOM     42  C   UNL A   1      48.042  27.541  31.391  1.00  0.00     0.020 A 
ATOM     43  C   UNL A   1      48.095  26.727  32.525  1.00  0.00     0.054 A 
BRANCH  43  44
ATOM     44  S   UNL A   1      49.628  25.863  32.968  1.00  0.00     0.124 S 
ATOM     45  O   UNL A   1      49.734  24.874  31.897  1.00  0.00    -0.237 OA
ATOM     46  O   UNL A   1      50.622  26.932  32.934  1.00  0.00    -0.237 OA
ATOM     47  O   UNL A   1      49.346  25.318  34.294  1.00  0.00    -0.744 OA
ENDBRANCH  43  44
ENDBRANCH  24  38
BRANCH  25  48
ATOM     48  C   UNL A   1      37.219  32.961  29.857  1.00  0.00    -0.014 A 
ATOM     49  C   UNL A   1      37.045  33.811  28.752  1.00  0.00     0.010 A 
ATOM     50  C   UNL A   1      36.130  32.732  30.720  1.00  0.00     0.010 A 
ATOM     51  C   UNL A   1      35.814  34.432  28.522  1.00  0.00     0.020 A 
ATOM     52  C   UNL A   1      34.891  33.337  30.483  1.00  0.00     0.020 A 
ATOM     53  C   UNL A   1      34.742  34.190  29.389  1.00  0.00     0.054 A 
BRANCH  53  54
ATOM     54  S   UNL A   1      33.141  34.970  29.035  1.00  0.00     0.124 S 
ATOM     55  O   UNL A   1      32.499  34.958  30.345  1.00  0.00    -0.237 OA
ATOM     56  O   UNL A   1      33.539  36.286  28.538  1.00  0.00    -0.237 OA
ATOM     57  O   UNL A   1      32.542  34.091  28.034  1.00  0.00    -0.744 OA
ENDBRANCH  53  54
ENDBRANCH  25  48
BRANCH  37  58
ATOM     58  C   UNL A   1      42.981  34.617  33.446  1.00  0.00    -0.014 A 
ATOM     59  C   UNL A   1      42.870  34.716  34.843  1.00  0.00     0.010 A 
ATOM     60  C   UNL A   1      43.561  35.675  32.722  1.00  0.00     0.010 A 
ATOM     61  C   UNL A   1      43.317  35.863  35.503  1.00  0.00     0.020 A 
ATOM     62  C   UNL A   1      44.033  36.811  33.381  1.00  0.00     0.020 A 
ATOM     63  C   UNL A   1      43.898  36.902  34.768  1.00  0.00     0.054 A 
BRANCH  63  64
ATOM     64  S   UNL A   1      44.532  38.352  35.652  1.00  0.00     0.124 S 
ATOM     65  O   UNL A   1      43.952  38.176  36.981  1.00  0.00    -0.237 OA
ATOM     66  O   UNL A   1      45.980  38.173  35.570  1.00  0.00    -0.237 OA
ATOM     67  O   UNL A   1      44.006  39.481  34.887  1.00  0.00    -0.744 OA
ENDBRANCH  63  64
ENDBRANCH  37  58
ENDBRANCH  11  12
ENDBRANCH   4   6
ENDBRANCH   3   4
ENDBRANCH   2   3
ENDBRANCH   1   2
BRANCH   1  68
ATOM     68  O   UNL A   1      35.092  20.958  25.088  1.00  0.00    -0.458 OA
BRANCH  68  69
ATOM     69  C   UNL A   1      34.461  22.029  25.640  1.00  0.00     0.338 C 
ATOM     70  O   UNL A   1      34.262  22.232  26.824  1.00  0.00    -0.246 OA
BRANCH  69  71
ATOM     71  C   UNL A   1      34.166  23.016  24.582  1.00  0.00     0.063 A 
ATOM     72  C   UNL A   1      34.223  24.389  24.829  1.00  0.00     0.017 A 
ATOM     73  C   UNL A   1      33.780  22.547  23.321  1.00  0.00     0.056 A 
ATOM     74  C   UNL A   1      33.827  25.281  23.828  1.00  0.00     0.026 A 
ATOM     75  C   UNL A   1      33.357  23.445  22.338  1.00  0.00     0.144 A 
ATOM     76  C   UNL A   1      33.344  24.807  22.597  1.00  0.00     0.118 A 
ATOM     77  F   UNL A   1      32.932  22.932  21.178  1.00  0.00    -0.205 F 
BRANCH  76  78
ATOM     78  S   UNL A   1      32.619  26.009  21.524  1.00  0.00     0.243 S 
ATOM     79  O   UNL A   1      33.266  25.852  20.244  1.00  0.00    -0.207 OA
ATOM     80  O   UNL A   1      31.188  25.869  21.684  1.00  0.00    -0.207 OA
BRANCH  78  81
ATOM     81  N   UNL A   1      32.978  27.539  22.088  1.00  0.00    -0.205 NA
ATOM     82  H   UNL A   1      33.412  28.041  21.313  1.00  0.00     0.141 HD
BRANCH  81  83
ATOM     83  C   UNL A   1      31.924  28.414  22.616  1.00  0.00     0.160 C 
BRANCH  83  84
ATOM     84  C   UNL A   1      31.852  28.505  24.152  1.00  0.00     0.278 C 
BRANCH  84  85
ATOM     85  N   UNL A   1      32.750  29.425  24.878  1.00  0.00    -0.334 N 
ATOM     86  C   UNL A   1      33.897  28.667  25.427  1.00  0.00     0.262 C 
ATOM     87  C   UNL A   1      32.202  30.140  26.030  1.00  0.00     0.262 C 
ATOM     88  H   UNL A   1      32.973  30.117  24.162  1.00  0.00     0.348 HD
ATOM     89  C   UNL A   1      33.412  28.195  26.791  1.00  0.00     0.067 C 
ATOM     90  C   UNL A   1      32.541  29.339  27.278  1.00  0.00     0.067 C 
ENDBRANCH  84  85
ENDBRANCH  83  84
ENDBRANCH  81  83
ENDBRANCH  78  81
ENDBRANCH  76  78
ENDBRANCH  69  71
ENDBRANCH  68  69
ENDBRANCH   1  68
TORSDOF 19
ENDMDL
MODEL 2
REMARK VINA RESULT:     -10.0      3.414      9.537
REMARK SMILES O=C(OCCOC(=O)c1ccc(S(=O)(=O)NCC[NH+]2CCCC2)c(F)c1)c1ccc(-c2c3nc(c(-c4ccc(S(=O)(=O)[O-])cc4)c4ccc([nH]4)c(-c4ccc(S(=O)(=O)[O-])cc4)c4nc(c(-c5ccc(S(=O)(=O)[O-])cc5)c5ccc2[nH]5)C=C4)C=C3)cc1
REMARK SMILES IDX 5 1 4 2 3 3 2 4 1 5 27 6 28 7 86 8 29 9 85 10 30 11 31 12
REMARK SMILES IDX 32 13 79 14 33 15 84 16 78 17 80 18 34 19 83 20 77 21 76 22
REMARK SMILES IDX 35 24 65 25 46 26 64 27 47 28 50 29 63 30 81 31 48 32 49 33
REMARK SMILES IDX 62 35 82 36 51 37 36 38 37 39 45 40 38 41 44 42 39 43 40 44
REMARK SMILES IDX 41 45 42 46 43 47 66 48 67 49 75 50 68 51 74 52 69 53 70 54
REMARK SMILES IDX 71 55 72 56 73 57 52 58 53 59 61 60 54 61 60 62 55 63 56 64
REMARK SMILES IDX 57 65 58 66 59 67 6 68 7 69 8 70 9 71 10 72 26 73 11 74
REMARK SMILES IDX 24 75 12 76 25 77 13 78 14 79 15 80 16 81 17 83 18 84 19 85
REMARK SMILES IDX 20 86 23 87 21 89 22 90
REMARK H PARENT 80 23 50 34 16 82 19 88
REMARK Flexibility Score: inf
ROOT
ATOM      1  C   UNL A   1      31.763  29.076  25.535  1.00  0.00     0.275 C 
ENDROOT
BRANCH   1   2
ATOM      2  C   UNL A   1      33.154  29.686  25.718  1.00  0.00     0.275 C 
BRANCH   2   3
ATOM      3  O   UNL A   1      33.615  29.740  27.079  1.00  0.00    -0.458 OA
BRANCH   3   4
ATOM      4  C   UNL A   1      34.477  30.597  27.674  1.00  0.00     0.338 C 
ATOM      5  O   UNL A   1      34.266  31.805  27.576  1.00  0.00    -0.246 OA
BRANCH   4   6
ATOM      6  C   UNL A   1      35.754  30.173  28.331  1.00  0.00     0.060 A 
ATOM      7  C   UNL A   1      35.889  29.661  29.624  1.00  0.00     0.016 A 
ATOM      8  C   UNL A   1      36.927  30.346  27.570  1.00  0.00     0.016 A 
ATOM      9  C   UNL A   1      37.135  29.268  30.122  1.00  0.00     0.010 A 
ATOM     10  C   UNL A   1      38.174  29.954  28.063  1.00  0.00     0.010 A 
ATOM     11  C   UNL A   1      38.284  29.411  29.345  1.00  0.00    -0.014 A 
BRANCH  11  12
ATOM     12  C   UNL A   1      39.616  29.117  29.919  1.00  0.00     0.031 A 
ATOM     13  C   UNL A   1      40.174  30.041  30.959  1.00  0.00     0.074 A 
ATOM     14  C   UNL A   1      40.310  28.037  29.517  1.00  0.00     0.049 A 
ATOM     15  N   UNL A   1      41.300  29.957  31.613  1.00  0.00    -0.248 NA
ATOM     16  C   UNL A   1      39.340  31.195  31.334  1.00  0.00     0.031 C 
ATOM     17  C   UNL A   1      39.843  27.045  28.551  1.00  0.00     0.029 A 
ATOM     18  N   UNL A   1      41.572  27.612  29.841  1.00  0.00    -0.354 N 
ATOM     19  C   UNL A   1      41.291  31.017  32.508  1.00  0.00     0.074 A 
ATOM     20  C   UNL A   1      40.084  31.774  32.263  1.00  0.00     0.031 C 
ATOM     21  C   UNL A   1      40.841  26.186  28.281  1.00  0.00     0.029 A 
ATOM     22  C   UNL A   1      42.006  26.554  29.078  1.00  0.00     0.049 A 
ATOM     23  H   UNL A   1      42.115  28.025  30.551  1.00  0.00     0.167 HD
ATOM     24  C   UNL A   1      42.191  31.307  33.476  1.00  0.00     0.031 A 
ATOM     25  C   UNL A   1      43.212  25.960  29.020  1.00  0.00     0.031 A 
ATOM     26  C   UNL A   1      43.410  30.574  33.672  1.00  0.00     0.049 A 
ATOM     27  C   UNL A   1      44.268  26.389  30.000  1.00  0.00     0.074 A 
ATOM     28  C   UNL A   1      44.388  30.762  34.631  1.00  0.00     0.029 A 
ATOM     29  N   UNL A   1      43.831  29.522  32.868  1.00  0.00    -0.354 N 
ATOM     30  N   UNL A   1      44.204  27.329  30.915  1.00  0.00    -0.248 NA
ATOM     31  C   UNL A   1      45.535  25.647  29.984  1.00  0.00     0.031 C 
ATOM     32  C   UNL A   1      45.424  29.856  34.376  1.00  0.00     0.029 A 
ATOM     33  C   UNL A   1      45.068  29.069  33.289  1.00  0.00     0.049 A 
ATOM     34  H   UNL A   1      43.322  29.153  32.111  1.00  0.00     0.167 HD
ATOM     35  C   UNL A   1      45.401  27.258  31.617  1.00  0.00     0.074 A 
ATOM     36  C   UNL A   1      46.173  26.188  31.014  1.00  0.00     0.031 C 
ATOM     37  C   UNL A   1      45.812  27.996  32.676  1.00  0.00     0.031 A 
BRANCH  24  38
ATOM     38  C   UNL A   1      41.869  32.472  34.369  1.00  0.00    -0.014 A 
ATOM     39  C   UNL A   1      42.329  33.765  34.054  1.00  0.00     0.010 A 
ATOM     40  C   UNL A   1      41.136  32.274  35.550  1.00  0.00     0.010 A 
ATOM     41  C   UNL A   1      42.115  34.827  34.936  1.00  0.00     0.020 A 
ATOM     42  C   UNL A   1      40.900  33.339  36.425  1.00  0.00     0.020 A 
ATOM     43  C   UNL A   1      41.414  34.602  36.124  1.00  0.00     0.054 A 
BRANCH  43  44
ATOM     44  S   UNL A   1      41.182  35.989  37.271  1.00  0.00     0.124 S 
ATOM     45  O   UNL A   1      42.438  36.720  37.113  1.00  0.00    -0.237 OA
ATOM     46  O   UNL A   1      39.997  36.654  36.737  1.00  0.00    -0.237 OA
ATOM     47  O   UNL A   1      40.999  35.338  38.566  1.00  0.00    -0.744 OA
ENDBRANCH  43  44
ENDBRANCH  24  38
BRANCH  25  48
ATOM     48  C   UNL A   1      43.467  24.889  28.018  1.00  0.00    -0.014 A 
ATOM     49  C   UNL A   1      43.997  25.192  26.753  1.00  0.00     0.010 A 
ATOM     50  C   UNL A   1      43.199  23.544  28.341  1.00  0.00     0.010 A 
ATOM     51  C   UNL A   1      44.240  24.176  25.823  1.00  0.00     0.020 A 
ATOM     52  C   UNL A   1      43.458  22.523  27.421  1.00  0.00     0.020 A 
ATOM     53  C   UNL A   1      43.971  22.846  26.164  1.00  0.00     0.054 A 
BRANCH  53  54
ATOM     54  S   UNL A   1      44.345  21.544  24.955  1.00  0.00     0.124 S 
ATOM     55  O   UNL A   1      45.694  21.145  25.343  1.00  0.00    -0.237 OA
ATOM     56  O   UNL A   1      43.294  20.562  25.219  1.00  0.00    -0.237 OA
ATOM     57  O   UNL A   1      44.238  22.226  23.668  1.00  0.00    -0.744 OA
ENDBRANCH  53  54
ENDBRANCH  25  48
BRANCH  37  58
ATOM     58  C   UNL A   1      47.137  27.639  33.290  1.00  0.00    -0.014 A 
ATOM     59  C   UNL A   1      47.224  26.747  34.371  1.00  0.00     0.010 A 
ATOM     60  C   UNL A   1      48.317  28.157  32.724  1.00  0.00     0.010 A 
ATOM     61  C   UNL A   1      48.471  26.392  34.889  1.00  0.00     0.020 A 
ATOM     62  C   UNL A   1      49.566  27.784  33.223  1.00  0.00     0.020 A 
ATOM     63  C   UNL A   1      49.634  26.911  34.311  1.00  0.00     0.054 A 
BRANCH  63  64
ATOM     64  S   UNL A   1      51.244  26.384  34.957  1.00  0.00     0.124 S 
ATOM     65  O   UNL A   1      51.646  27.541  35.752  1.00  0.00    -0.237 OA
ATOM     66  O   UNL A   1      50.909  25.183  35.719  1.00  0.00    -0.237 OA
ATOM     67  O   UNL A   1      52.039  26.148  33.753  1.00  0.00    -0.744 OA
ENDBRANCH  63  64
ENDBRANCH  37  58
ENDBRANCH  11  12
ENDBRANCH   4   6
ENDBRANCH   3   4
ENDBRANCH   2   3
ENDBRANCH   1   2
BRANCH   1  68
ATOM     68  O   UNL A   1      31.783  27.670  25.251  1.00  0.00    -0.458 OA
BRANCH  68  69
ATOM     69  C   UNL A   1      31.608  26.858  26.329  1.00  0.00     0.338 C 
ATOM     70  O   UNL A   1      30.946  27.094  27.323  1.00  0.00    -0.246 OA
BRANCH  69  71
ATOM     71  C   UNL A   1      32.236  25.550  26.057  1.00  0.00     0.063 A 
ATOM     72  C   UNL A   1      31.619  24.354  26.430  1.00  0.00     0.017 A 
ATOM     73  C   UNL A   1      33.496  25.528  25.449  1.00  0.00     0.056 A 
ATOM     74  C   UNL A   1      32.303  23.147  26.251  1.00  0.00     0.026 A 
ATOM     75  C   UNL A   1      34.184  24.320  25.304  1.00  0.00     0.144 A 
ATOM     76  C   UNL A   1      33.609  23.135  25.735  1.00  0.00     0.118 A 
ATOM     77  F   UNL A   1      35.414  24.372  24.782  1.00  0.00    -0.205 F 
BRANCH  76  78
ATOM     78  S   UNL A   1      34.468  21.593  25.814  1.00  0.00     0.243 S 
ATOM     79  O   UNL A   1      34.913  21.308  24.472  1.00  0.00    -0.207 OA
ATOM     80  O   UNL A   1      35.392  21.712  26.921  1.00  0.00    -0.207 OA
BRANCH  78  81
ATOM     81  N   UNL A   1      33.399  20.389  26.260  1.00  0.00    -0.205 NA
ATOM     82  H   UNL A   1      32.683  20.833  26.834  1.00  0.00     0.141 HD
BRANCH  81  83
ATOM     83  C   UNL A   1      32.692  19.598  25.245  1.00  0.00     0.160 C 
BRANCH  83  84
ATOM     84  C   UNL A   1      32.437  18.125  25.620  1.00  0.00     0.278 C 
BRANCH  84  85
ATOM     85  N   UNL A   1      32.347  17.100  24.560  1.00  0.00    -0.334 N 
ATOM     86  C   UNL A   1      33.117  15.902  24.963  1.00  0.00     0.262 C 
ATOM     87  C   UNL A   1      32.872  17.442  23.239  1.00  0.00     0.262 C 
ATOM     88  H   UNL A   1      31.339  16.975  24.468  1.00  0.00     0.348 HD
ATOM     89  C   UNL A   1      34.527  16.180  24.461  1.00  0.00     0.067 C 
ATOM     90  C   UNL A   1      34.304  16.933  23.162  1.00  0.00     0.067 C 
ENDBRANCH  84  85
ENDBRANCH  83  84
ENDBRANCH  81  83
ENDBRANCH  78  81
ENDBRANCH  76  78
ENDBRANCH  69  71
ENDBRANCH  68  69
ENDBRANCH   1  68
TORSDOF 19
ENDMDL
MODEL 3
REMARK VINA RESULT:      -9.9      5.459     10.949
REMARK SMILES O=C(OCCOC(=O)c1ccc(S(=O)(=O)NCC[NH+]2CCCC2)c(F)c1)c1ccc(-c2c3nc(c(-c4ccc(S(=O)(=O)[O-])cc4)c4ccc([nH]4)c(-c4ccc(S(=O)(=O)[O-])cc4)c4nc(c(-c5ccc(S(=O)(=O)[O-])cc5)c5ccc2[nH]5)C=C4)C=C3)cc1
REMARK SMILES IDX 5 1 4 2 3 3 2 4 1 5 27 6 28 7 86 8 29 9 85 10 30 11 31 12
REMARK SMILES IDX 32 13 79 14 33 15 84 16 78 17 80 18 34 19 83 20 77 21 76 22
REMARK SMILES IDX 35 24 65 25 46 26 64 27 47 28 50 29 63 30 81 31 48 32 49 33
REMARK SMILES IDX 62 35 82 36 51 37 36 38 37 39 45 40 38 41 44 42 39 43 40 44
REMARK SMILES IDX 41 45 42 46 43 47 66 48 67 49 75 50 68 51 74 52 69 53 70 54
REMARK SMILES IDX 71 55 72 56 73 57 52 58 53 59 61 60 54 61 60 62 55 63 56 64
REMARK SMILES IDX 57 65 58 66 59 67 6 68 7 69 8 70 9 71 10 72 26 73 11 74
REMARK SMILES IDX 24 75 12 76 25 77 13 78 14 79 15 80 16 81 17 83 18 84 19 85
REMARK SMILES IDX 20 86 23 87 21 89 22 90
REMARK H PARENT 80 23 50 34 16 82 19 88
REMARK Flexibility Score: inf
ROOT
ATOM      1  C   UNL A   1      34.163  30.205  27.143  1.00  0.00     0.275 C 
ENDROOT
BRANCH   1   2
ATOM      2  C   UNL A   1      35.555  30.482  27.714  1.00  0.00     0.275 C 
BRANCH   2   3
ATOM      3  O   UNL A   1      36.275  29.313  28.142  1.00  0.00    -0.458 OA
BRANCH   3   4
ATOM      4  C   UNL A   1      37.321  29.196  28.993  1.00  0.00     0.338 C 
ATOM      5  O   UNL A   1      37.107  29.293  30.201  1.00  0.00    -0.246 OA
BRANCH   4   6
ATOM      6  C   UNL A   1      38.748  29.093  28.553  1.00  0.00     0.060 A 
ATOM      7  C   UNL A   1      39.206  29.066  27.232  1.00  0.00     0.016 A 
ATOM      8  C   UNL A   1      39.705  28.980  29.579  1.00  0.00     0.016 A 
ATOM      9  C   UNL A   1      40.572  28.999  26.940  1.00  0.00     0.010 A 
ATOM     10  C   UNL A   1      41.071  28.914  29.292  1.00  0.00     0.010 A 
ATOM     11  C   UNL A   1      41.512  28.923  27.967  1.00  0.00    -0.014 A 
BRANCH  11  12
ATOM     12  C   UNL A   1      42.944  28.722  27.656  1.00  0.00     0.031 A 
ATOM     13  C   UNL A   1      43.865  29.904  27.700  1.00  0.00     0.074 A 
ATOM     14  C   UNL A   1      43.412  27.500  27.343  1.00  0.00     0.049 A 
ATOM     15  N   UNL A   1      45.153  29.951  27.494  1.00  0.00    -0.248 NA
ATOM     16  C   UNL A   1      43.260  31.200  28.052  1.00  0.00     0.031 C 
ATOM     17  C   UNL A   1      42.618  26.273  27.321  1.00  0.00     0.029 A 
ATOM     18  N   UNL A   1      44.659  27.093  26.949  1.00  0.00    -0.354 N 
ATOM     19  C   UNL A   1      45.521  31.267  27.737  1.00  0.00     0.074 A 
ATOM     20  C   UNL A   1      44.312  32.003  28.031  1.00  0.00     0.031 C 
ATOM     21  C   UNL A   1      43.368  25.270  26.833  1.00  0.00     0.029 A 
ATOM     22  C   UNL A   1      44.702  25.782  26.537  1.00  0.00     0.049 A 
ATOM     23  H   UNL A   1      45.448  27.682  26.959  1.00  0.00     0.167 HD
ATOM     24  C   UNL A   1      46.764  31.801  27.752  1.00  0.00     0.031 A 
ATOM     25  C   UNL A   1      45.700  25.079  25.972  1.00  0.00     0.031 A 
ATOM     26  C   UNL A   1      47.949  31.067  27.407  1.00  0.00     0.049 A 
ATOM     27  C   UNL A   1      47.051  25.729  25.849  1.00  0.00     0.074 A 
ATOM     28  C   UNL A   1      49.263  31.497  27.406  1.00  0.00     0.029 A 
ATOM     29  N   UNL A   1      47.955  29.748  26.973  1.00  0.00    -0.354 N 
ATOM     30  N   UNL A   1      47.407  26.948  26.182  1.00  0.00    -0.248 NA
ATOM     31  C   UNL A   1      48.146  24.900  25.330  1.00  0.00     0.031 C 
ATOM     32  C   UNL A   1      50.059  30.452  26.922  1.00  0.00     0.029 A 
ATOM     33  C   UNL A   1      49.247  29.355  26.671  1.00  0.00     0.049 A 
ATOM     34  H   UNL A   1      47.157  29.177  26.892  1.00  0.00     0.167 HD
ATOM     35  C   UNL A   1      48.777  27.016  25.962  1.00  0.00     0.074 A 
ATOM     36  C   UNL A   1      49.182  25.718  25.459  1.00  0.00     0.031 C 
ATOM     37  C   UNL A   1      49.624  28.052  26.178  1.00  0.00     0.031 A 
BRANCH  24  38
ATOM     38  C   UNL A   1      46.871  33.247  28.147  1.00  0.00    -0.014 A 
ATOM     39  C   UNL A   1      46.805  34.263  27.173  1.00  0.00     0.010 A 
ATOM     40  C   UNL A   1      47.076  33.599  29.491  1.00  0.00     0.010 A 
ATOM     41  C   UNL A   1      47.006  35.599  27.529  1.00  0.00     0.020 A 
ATOM     42  C   UNL A   1      47.254  34.937  29.855  1.00  0.00     0.020 A 
ATOM     43  C   UNL A   1      47.244  35.925  28.867  1.00  0.00     0.054 A 
BRANCH  43  44
ATOM     44  S   UNL A   1      47.539  37.662  29.298  1.00  0.00     0.124 S 
ATOM     45  O   UNL A   1      48.822  37.583  29.994  1.00  0.00    -0.237 OA
ATOM     46  O   UNL A   1      47.572  38.317  27.994  1.00  0.00    -0.237 OA
ATOM     47  O   UNL A   1      46.395  38.008  30.139  1.00  0.00    -0.744 OA
ENDBRANCH  43  44
ENDBRANCH  24  38
BRANCH  25  48
ATOM     48  C   UNL A   1      45.461  23.685  25.508  1.00  0.00    -0.014 A 
ATOM     49  C   UNL A   1      45.615  22.595  26.381  1.00  0.00     0.010 A 
ATOM     50  C   UNL A   1      45.049  23.444  24.183  1.00  0.00     0.010 A 
ATOM     51  C   UNL A   1      45.379  21.291  25.936  1.00  0.00     0.020 A 
ATOM     52  C   UNL A   1      44.794  22.143  23.739  1.00  0.00     0.020 A 
ATOM     53  C   UNL A   1      44.968  21.072  24.617  1.00  0.00     0.054 A 
BRANCH  53  54
ATOM     54  S   UNL A   1      44.619  19.372  24.083  1.00  0.00     0.124 S 
ATOM     55  O   UNL A   1      44.559  19.513  22.632  1.00  0.00    -0.237 OA
ATOM     56  O   UNL A   1      45.773  18.639  24.600  1.00  0.00    -0.237 OA
ATOM     57  O   UNL A   1      43.350  19.058  24.736  1.00  0.00    -0.744 OA
ENDBRANCH  53  54
ENDBRANCH  25  48
BRANCH  37  58
ATOM     58  C   UNL A   1      51.085  27.810  25.922  1.00  0.00    -0.014 A 
ATOM     59  C   UNL A   1      51.930  27.311  26.928  1.00  0.00     0.010 A 
ATOM     60  C   UNL A   1      51.600  28.025  24.630  1.00  0.00     0.010 A 
ATOM     61  C   UNL A   1      53.272  27.047  26.649  1.00  0.00     0.020 A 
ATOM     62  C   UNL A   1      52.935  27.736  24.342  1.00  0.00     0.020 A 
ATOM     63  C   UNL A   1      53.766  27.259  25.357  1.00  0.00     0.054 A 
BRANCH  63  64
ATOM     64  S   UNL A   1      55.494  26.845  25.001  1.00  0.00     0.124 S 
ATOM     65  O   UNL A   1      55.461  25.386  24.987  1.00  0.00    -0.237 OA
ATOM     66  O   UNL A   1      55.718  27.481  23.705  1.00  0.00    -0.237 OA
ATOM     67  O   UNL A   1      56.229  27.442  26.115  1.00  0.00    -0.744 OA
ENDBRANCH  63  64
ENDBRANCH  37  58
ENDBRANCH  11  12
ENDBRANCH   4   6
ENDBRANCH   3   4
ENDBRANCH   2   3
ENDBRANCH   1   2
BRANCH   1  68
ATOM     68  O   UNL A   1      34.000  28.872  26.641  1.00  0.00    -0.458 OA
BRANCH  68  69
ATOM     69  C   UNL A   1      33.138  28.746  25.596  1.00  0.00     0.338 C 
ATOM     70  O   UNL A   1      32.453  29.624  25.103  1.00  0.00    -0.246 OA
BRANCH  69  71
ATOM     71  C   UNL A   1      33.256  27.388  25.030  1.00  0.00     0.063 A 
ATOM     72  C   UNL A   1      33.364  26.263  25.850  1.00  0.00     0.017 A 
ATOM     73  C   UNL A   1      33.302  27.247  23.639  1.00  0.00     0.056 A 
ATOM     74  C   UNL A   1      33.586  25.011  25.269  1.00  0.00     0.026 A 
ATOM     75  C   UNL A   1      33.554  25.996  23.069  1.00  0.00     0.144 A 
ATOM     76  C   UNL A   1      33.733  24.885  23.878  1.00  0.00     0.118 A 
ATOM     77  F   UNL A   1      33.658  25.937  21.736  1.00  0.00    -0.205 F 
BRANCH  76  78
ATOM     78  S   UNL A   1      34.281  23.312  23.287  1.00  0.00     0.243 S 
ATOM     79  O   UNL A   1      33.316  22.891  22.301  1.00  0.00    -0.207 OA
ATOM     80  O   UNL A   1      35.683  23.477  22.969  1.00  0.00    -0.207 OA
BRANCH  78  81
ATOM     81  N   UNL A   1      34.240  22.208  24.540  1.00  0.00    -0.205 NA
ATOM     82  H   UNL A   1      34.321  22.745  25.404  1.00  0.00     0.141 HD
BRANCH  81  83
ATOM     83  C   UNL A   1      33.093  21.307  24.712  1.00  0.00     0.160 C 
BRANCH  83  84
ATOM     84  C   UNL A   1      33.446  19.869  25.138  1.00  0.00     0.278 C 
BRANCH  84  85
ATOM     85  N   UNL A   1      32.576  18.747  24.731  1.00  0.00    -0.334 N 
ATOM     86  C   UNL A   1      33.053  17.497  25.365  1.00  0.00     0.262 C 
ATOM     87  C   UNL A   1      32.504  18.427  23.306  1.00  0.00     0.262 C 
ATOM     88  H   UNL A   1      31.654  19.073  25.021  1.00  0.00     0.348 HD
ATOM     89  C   UNL A   1      34.080  16.950  24.383  1.00  0.00     0.067 C 
ATOM     90  C   UNL A   1      33.515  17.325  23.025  1.00  0.00     0.067 C 
ENDBRANCH  84  85
ENDBRANCH  83  84
ENDBRANCH  81  83
ENDBRANCH  78  81
ENDBRANCH  76  78
ENDBRANCH  69  71
ENDBRANCH  68  69
ENDBRANCH   1  68
TORSDOF 19
ENDMDL
