MODEL 1
REMARK VINA RESULT:     -11.4      0.000      0.000
REMARK SMILES COC(=O)c1sc(NC(=O)[C@H]2CC=CC[C@H]2C(=O)OCCOC(=O)c2ccc(-c3c4nc(c(-c5ccc(S(=O)(=O)[O-])cc5)c5ccc([nH]5)c(-c5ccc(S(=O)(=O)[O-])cc5)c5nc(c(-c6ccc(S(=O)(=O)[O-])cc6)c6ccc3[nH]6)C=C5)C=C4)cc2)nc1C
REMARK SMILES IDX 20 1 19 2 17 3 18 4 16 5 11 6 12 7 13 8 15 9 14 10 9 11 8 12
REMARK SMILES IDX 10 14 7 15 5 16 6 17 86 18 85 19 87 20 3 21 4 22 2 23 1 24
REMARK SMILES IDX 21 25 22 26 23 27 24 28 25 29 26 30 84 31 27 32 83 33 28 34
REMARK SMILES IDX 29 35 30 36 77 37 31 38 82 39 76 40 78 41 32 42 81 43 75 44
REMARK SMILES IDX 74 45 33 47 63 48 44 49 62 50 45 51 48 52 61 53 79 54 46 55
REMARK SMILES IDX 47 56 60 58 80 59 49 60 34 61 35 62 43 63 36 64 42 65 37 66
REMARK SMILES IDX 38 67 39 68 40 69 41 70 64 71 65 72 73 73 66 74 72 75 67 76
REMARK SMILES IDX 68 77 69 78 70 79 71 80 50 81 51 82 59 83 52 84 58 85 53 86
REMARK SMILES IDX 54 87 55 88 56 89 57 90
REMARK H PARENT 8 13 78 46 48 57
REMARK Flexibility Score: inf
ROOT
ATOM      1  C   UNL A   1      33.970  28.171  25.953  1.00  0.00     0.274 C 
ENDROOT
BRANCH   1   2
ATOM      2  O   UNL A   1      33.638  28.112  24.372  1.00  0.00    -0.462 OA
BRANCH   2   3
ATOM      3  C   UNL A   1      33.305  26.911  23.830  1.00  0.00     0.310 C 
ATOM      4  O   UNL A   1      34.120  26.037  23.558  1.00  0.00    -0.252 OA
BRANCH   3   5
ATOM      5  C   UNL A   1      31.805  26.771  23.615  1.00  0.00     0.116 C 
ATOM      6  C   UNL A   1      31.010  25.734  24.457  1.00  0.00     0.097 C 
ATOM      7  C   UNL A   1      29.521  25.730  24.029  1.00  0.00     0.041 C 
ATOM      8  C   UNL A   1      28.960  27.079  23.679  1.00  0.00    -0.030 C 
ATOM      9  C   UNL A   1      31.204  28.174  23.641  1.00  0.00     0.043 C 
ATOM     10  C   UNL A   1      29.713  28.177  23.523  1.00  0.00    -0.030 C 
BRANCH   6  11
ATOM     11  C   UNL A   1      31.100  25.847  25.990  1.00  0.00     0.230 C 
ATOM     12  N   UNL A   1      31.695  24.860  26.730  1.00  0.00    -0.302 N 
ATOM     13  H   UNL A   1      31.565  24.862  27.707  1.00  0.00     0.172 HD
ATOM     14  O   UNL A   1      30.633  26.807  26.607  1.00  0.00    -0.274 OA
BRANCH  12  15
ATOM     15  C   UNL A   1      32.460  23.876  26.179  1.00  0.00     0.190 A 
ATOM     16  C   UNL A   1      33.198  20.751  25.594  1.00  0.00     0.137 A 
ATOM     17  S   UNL A   1      31.257  21.979  25.697  1.00  0.00    -0.089 S 
ATOM     18  C   UNL A   1      34.610  21.752  25.810  1.00  0.00     0.065 A 
ATOM     19  N   UNL A   1      34.094  23.544  26.161  1.00  0.00    -0.224 NA
ATOM     20  C   UNL A   1      36.048  21.381  25.801  1.00  0.00     0.069 C 
BRANCH  16  21
ATOM     21  C   UNL A   1      33.074  19.344  25.319  1.00  0.00     0.350 C 
ATOM     22  O   UNL A   1      32.363  18.540  25.903  1.00  0.00    -0.245 OA
BRANCH  21  23
ATOM     23  O   UNL A   1      33.859  19.088  24.244  1.00  0.00    -0.465 OA
ATOM     24  C   UNL A   1      33.815  17.771  23.706  1.00  0.00     0.282 C 
ENDBRANCH  21  23
ENDBRANCH  16  21
ENDBRANCH  12  15
ENDBRANCH   6  11
ENDBRANCH   3   5
ENDBRANCH   2   3
ENDBRANCH   1   2
BRANCH   1  25
ATOM     25  C   UNL A   1      33.388  29.819  27.351  1.00  0.00     0.275 C 
BRANCH  25  26
ATOM     26  O   UNL A   1      34.134  31.232  27.478  1.00  0.00    -0.458 OA
BRANCH  26  27
ATOM     27  C   UNL A   1      34.689  31.601  28.660  1.00  0.00     0.338 C 
ATOM     28  O   UNL A   1      34.159  32.215  29.570  1.00  0.00    -0.246 OA
BRANCH  27  29
ATOM     29  C   UNL A   1      35.969  30.869  28.759  1.00  0.00     0.060 A 
ATOM     30  C   UNL A   1      36.403  30.426  30.016  1.00  0.00     0.016 A 
ATOM     31  C   UNL A   1      36.713  30.583  27.615  1.00  0.00     0.016 A 
ATOM     32  C   UNL A   1      37.633  29.777  30.146  1.00  0.00     0.010 A 
ATOM     33  C   UNL A   1      37.933  29.918  27.744  1.00  0.00     0.010 A 
ATOM     34  C   UNL A   1      38.429  29.568  29.015  1.00  0.00    -0.014 A 
BRANCH  34  35
ATOM     35  C   UNL A   1      39.860  29.190  29.152  1.00  0.00     0.031 A 
ATOM     36  C   UNL A   1      40.824  30.243  29.635  1.00  0.00     0.074 A 
ATOM     37  C   UNL A   1      40.302  27.956  28.850  1.00  0.00     0.049 A 
ATOM     38  N   UNL A   1      42.129  30.205  29.719  1.00  0.00    -0.248 NA
ATOM     39  C   UNL A   1      40.233  31.522  30.064  1.00  0.00     0.031 C 
ATOM     40  C   UNL A   1      39.466  26.832  28.431  1.00  0.00     0.029 A 
ATOM     41  N   UNL A   1      41.578  27.448  28.840  1.00  0.00    -0.354 N 
ATOM     42  C   UNL A   1      42.513  31.462  30.175  1.00  0.00     0.074 A 
ATOM     43  C   UNL A   1      41.310  32.251  30.312  1.00  0.00     0.031 C 
ATOM     44  C   UNL A   1      40.252  25.766  28.202  1.00  0.00     0.029 A 
ATOM     45  C   UNL A   1      41.649  26.145  28.408  1.00  0.00     0.049 A 
ATOM     46  H   UNL A   1      42.367  27.969  29.115  1.00  0.00     0.167 HD
ATOM     47  C   UNL A   1      43.757  31.919  30.461  1.00  0.00     0.031 A 
ATOM     48  C   UNL A   1      42.720  25.357  28.182  1.00  0.00     0.031 A 
ATOM     49  C   UNL A   1      44.949  31.126  30.317  1.00  0.00     0.049 A 
ATOM     50  C   UNL A   1      44.102  25.907  28.431  1.00  0.00     0.074 A 
ATOM     51  C   UNL A   1      46.257  31.481  30.596  1.00  0.00     0.029 A 
ATOM     52  N   UNL A   1      44.978  29.821  29.846  1.00  0.00    -0.354 N 
ATOM     53  N   UNL A   1      44.454  27.092  28.872  1.00  0.00    -0.248 NA
ATOM     54  C   UNL A   1      45.233  25.008  28.158  1.00  0.00     0.031 C 
ATOM     55  C   UNL A   1      47.084  30.417  30.222  1.00  0.00     0.029 A 
ATOM     56  C   UNL A   1      46.285  29.368  29.792  1.00  0.00     0.049 A 
ATOM     57  H   UNL A   1      44.188  29.296  29.588  1.00  0.00     0.167 HD
ATOM     58  C   UNL A   1      45.842  27.070  28.962  1.00  0.00     0.074 A 
ATOM     59  C   UNL A   1      46.264  25.749  28.540  1.00  0.00     0.031 C 
ATOM     60  C   UNL A   1      46.690  28.050  29.364  1.00  0.00     0.031 A 
BRANCH  47  61
ATOM     61  C   UNL A   1      43.884  33.355  30.908  1.00  0.00    -0.014 A 
ATOM     62  C   UNL A   1      43.829  33.715  32.267  1.00  0.00     0.010 A 
ATOM     63  C   UNL A   1      44.065  34.365  29.946  1.00  0.00     0.010 A 
ATOM     64  C   UNL A   1      43.888  35.059  32.649  1.00  0.00     0.020 A 
ATOM     65  C   UNL A   1      44.165  35.707  30.325  1.00  0.00     0.020 A 
ATOM     66  C   UNL A   1      44.052  36.048  31.674  1.00  0.00     0.054 A 
BRANCH  66  67
ATOM     67  S   UNL A   1      44.124  37.782  32.198  1.00  0.00     0.124 S 
ATOM     68  O   UNL A   1      43.200  37.794  33.330  1.00  0.00    -0.237 OA
ATOM     69  O   UNL A   1      45.533  37.955  32.536  1.00  0.00    -0.237 OA
ATOM     70  O   UNL A   1      43.672  38.520  31.021  1.00  0.00    -0.744 OA
ENDBRANCH  66  67
ENDBRANCH  47  61
BRANCH  48  71
ATOM     71  C   UNL A   1      42.525  23.965  27.687  1.00  0.00    -0.014 A 
ATOM     72  C   UNL A   1      42.549  23.685  26.309  1.00  0.00     0.010 A 
ATOM     73  C   UNL A   1      42.341  22.904  28.593  1.00  0.00     0.010 A 
ATOM     74  C   UNL A   1      42.395  22.374  25.847  1.00  0.00     0.020 A 
ATOM     75  C   UNL A   1      42.218  21.588  28.138  1.00  0.00     0.020 A 
ATOM     76  C   UNL A   1      42.241  21.331  26.766  1.00  0.00     0.054 A 
BRANCH  76  77
ATOM     77  S   UNL A   1      42.124  19.631  26.144  1.00  0.00     0.124 S 
ATOM     78  O   UNL A   1      42.506  18.849  27.316  1.00  0.00    -0.237 OA
ATOM     79  O   UNL A   1      40.720  19.538  25.751  1.00  0.00    -0.237 OA
ATOM     80  O   UNL A   1      43.077  19.604  25.037  1.00  0.00    -0.744 OA
ENDBRANCH  76  77
ENDBRANCH  48  71
BRANCH  60  81
ATOM     81  C   UNL A   1      48.162  27.725  29.411  1.00  0.00    -0.014 A 
ATOM     82  C   UNL A   1      48.767  27.206  30.570  1.00  0.00     0.010 A 
ATOM     83  C   UNL A   1      48.940  27.883  28.248  1.00  0.00     0.010 A 
ATOM     84  C   UNL A   1      50.127  26.885  30.574  1.00  0.00     0.020 A 
ATOM     85  C   UNL A   1      50.291  27.530  28.238  1.00  0.00     0.020 A 
ATOM     86  C   UNL A   1      50.880  27.046  29.407  1.00  0.00     0.054 A 
BRANCH  86  87
ATOM     87  S   UNL A   1      52.631  26.577  29.427  1.00  0.00     0.124 S 
ATOM     88  O   UNL A   1      53.295  27.878  29.453  1.00  0.00    -0.237 OA
ATOM     89  O   UNL A   1      52.738  25.793  30.655  1.00  0.00    -0.237 OA
ATOM     90  O   UNL A   1      52.804  25.816  28.191  1.00  0.00    -0.744 OA
ENDBRANCH  86  87
ENDBRANCH  60  81
ENDBRANCH  34  35
ENDBRANCH  27  29
ENDBRANCH  26  27
ENDBRANCH  25  26
ENDBRANCH   1  25
TORSDOF 18
ENDMDL
MODEL 2
REMARK VINA RESULT:     -11.1      2.381      8.570
REMARK SMILES COC(=O)c1sc(NC(=O)[C@H]2CC=CC[C@H]2C(=O)OCCOC(=O)c2ccc(-c3c4nc(c(-c5ccc(S(=O)(=O)[O-])cc5)c5ccc([nH]5)c(-c5ccc(S(=O)(=O)[O-])cc5)c5nc(c(-c6ccc(S(=O)(=O)[O-])cc6)c6ccc3[nH]6)C=C5)C=C4)cc2)nc1C
REMARK SMILES IDX 20 1 19 2 17 3 18 4 16 5 11 6 12 7 13 8 15 9 14 10 9 11 8 12
REMARK SMILES IDX 10 14 7 15 5 16 6 17 86 18 85 19 87 20 3 21 4 22 2 23 1 24
REMARK SMILES IDX 21 25 22 26 23 27 24 28 25 29 26 30 84 31 27 32 83 33 28 34
REMARK SMILES IDX 29 35 30 36 77 37 31 38 82 39 76 40 78 41 32 42 81 43 75 44
REMARK SMILES IDX 74 45 33 47 63 48 44 49 62 50 45 51 48 52 61 53 79 54 46 55
REMARK SMILES IDX 47 56 60 58 80 59 49 60 34 61 35 62 43 63 36 64 42 65 37 66
REMARK SMILES IDX 38 67 39 68 40 69 41 70 64 71 65 72 73 73 66 74 72 75 67 76
REMARK SMILES IDX 68 77 69 78 70 79 71 80 50 81 51 82 59 83 52 84 58 85 53 86
REMARK SMILES IDX 54 87 55 88 56 89 57 90
REMARK H PARENT 8 13 78 46 48 57
REMARK Flexibility Score: inf
ROOT
ATOM      1  C   UNL A   1      33.985  31.551  27.698  1.00  0.00     0.274 C 
ENDROOT
BRANCH   1   2
ATOM      2  O   UNL A   1      33.013  30.452  27.020  1.00  0.00    -0.462 OA
BRANCH   2   3
ATOM      3  C   UNL A   1      33.582  29.366  26.431  1.00  0.00     0.310 C 
ATOM      4  O   UNL A   1      34.660  28.894  26.772  1.00  0.00    -0.252 OA
BRANCH   3   5
ATOM      5  C   UNL A   1      32.719  28.799  25.313  1.00  0.00     0.116 C 
ATOM      6  C   UNL A   1      32.312  27.299  25.356  1.00  0.00     0.097 C 
ATOM      7  C   UNL A   1      31.488  26.936  24.095  1.00  0.00     0.041 C 
ATOM      8  C   UNL A   1      30.550  28.010  23.621  1.00  0.00    -0.030 C 
ATOM      9  C   UNL A   1      31.543  29.750  25.111  1.00  0.00     0.043 C 
ATOM     10  C   UNL A   1      30.564  29.266  24.089  1.00  0.00    -0.030 C 
BRANCH   6  11
ATOM     11  C   UNL A   1      31.571  26.801  26.610  1.00  0.00     0.230 C 
ATOM     12  N   UNL A   1      31.478  25.462  26.883  1.00  0.00    -0.302 N 
ATOM     13  H   UNL A   1      30.839  25.166  27.573  1.00  0.00     0.172 HD
ATOM     14  O   UNL A   1      31.023  27.575  27.401  1.00  0.00    -0.274 OA
BRANCH  12  15
ATOM     15  C   UNL A   1      32.228  24.520  26.245  1.00  0.00     0.190 A 
ATOM     16  C   UNL A   1      32.804  21.484  25.196  1.00  0.00     0.137 A 
ATOM     17  S   UNL A   1      30.955  22.846  25.322  1.00  0.00    -0.089 S 
ATOM     18  C   UNL A   1      34.250  22.306  25.722  1.00  0.00     0.065 A 
ATOM     19  N   UNL A   1      33.826  24.053  26.330  1.00  0.00    -0.224 NA
ATOM     20  C   UNL A   1      35.651  21.815  25.789  1.00  0.00     0.069 C 
BRANCH  16  21
ATOM     21  C   UNL A   1      32.612  20.160  24.668  1.00  0.00     0.350 C 
ATOM     22  O   UNL A   1      32.489  19.846  23.494  1.00  0.00    -0.245 OA
BRANCH  21  23
ATOM     23  O   UNL A   1      32.651  19.312  25.724  1.00  0.00    -0.465 OA
ATOM     24  C   UNL A   1      32.489  17.924  25.451  1.00  0.00     0.282 C 
ENDBRANCH  21  23
ENDBRANCH  16  21
ENDBRANCH  12  15
ENDBRANCH   6  11
ENDBRANCH   3   5
ENDBRANCH   2   3
ENDBRANCH   1   2
BRANCH   1  25
ATOM     25  C   UNL A   1      35.438  31.165  29.357  1.00  0.00     0.275 C 
BRANCH  25  26
ATOM     26  O   UNL A   1      36.106  29.747  29.692  1.00  0.00    -0.458 OA
BRANCH  26  27
ATOM     27  C   UNL A   1      36.920  29.620  30.770  1.00  0.00     0.338 C 
ATOM     28  O   UNL A   1      36.610  29.273  31.897  1.00  0.00    -0.246 OA
BRANCH  27  29
ATOM     29  C   UNL A   1      38.303  29.701  30.255  1.00  0.00     0.060 A 
ATOM     30  C   UNL A   1      38.506  29.851  28.876  1.00  0.00     0.016 A 
ATOM     31  C   UNL A   1      39.388  29.675  31.129  1.00  0.00     0.016 A 
ATOM     32  C   UNL A   1      39.802  29.879  28.356  1.00  0.00     0.010 A 
ATOM     33  C   UNL A   1      40.682  29.722  30.610  1.00  0.00     0.010 A 
ATOM     34  C   UNL A   1      40.897  29.760  29.219  1.00  0.00    -0.014 A 
BRANCH  34  35
ATOM     35  C   UNL A   1      42.252  29.457  28.689  1.00  0.00     0.031 A 
ATOM     36  C   UNL A   1      42.522  28.054  28.206  1.00  0.00     0.074 A 
ATOM     37  C   UNL A   1      43.223  30.386  28.643  1.00  0.00     0.049 A 
ATOM     38  N   UNL A   1      43.645  27.506  27.820  1.00  0.00    -0.248 NA
ATOM     39  C   UNL A   1      41.367  27.141  28.172  1.00  0.00     0.031 C 
ATOM     40  C   UNL A   1      43.075  31.790  29.022  1.00  0.00     0.029 A 
ATOM     41  N   UNL A   1      44.539  30.277  28.265  1.00  0.00    -0.354 N 
ATOM     42  C   UNL A   1      43.337  26.180  27.533  1.00  0.00     0.074 A 
ATOM     43  C   UNL A   1      41.934  25.996  27.827  1.00  0.00     0.031 C 
ATOM     44  C   UNL A   1      44.255  32.412  28.860  1.00  0.00     0.029 A 
ATOM     45  C   UNL A   1      45.254  31.442  28.415  1.00  0.00     0.049 A 
ATOM     46  H   UNL A   1      44.933  29.444  27.920  1.00  0.00     0.167 HD
ATOM     47  C   UNL A   1      44.147  25.202  27.061  1.00  0.00     0.031 A 
ATOM     48  C   UNL A   1      46.568  31.689  28.237  1.00  0.00     0.031 A 
ATOM     49  C   UNL A   1      45.545  25.394  26.777  1.00  0.00     0.049 A 
ATOM     50  C   UNL A   1      47.471  30.569  27.787  1.00  0.00     0.074 A 
ATOM     51  C   UNL A   1      46.455  24.479  26.277  1.00  0.00     0.029 A 
ATOM     52  N   UNL A   1      46.235  26.581  26.973  1.00  0.00    -0.354 N 
ATOM     53  N   UNL A   1      47.169  29.323  27.509  1.00  0.00    -0.248 NA
ATOM     54  C   UNL A   1      48.896  30.893  27.619  1.00  0.00     0.031 C 
ATOM     55  C   UNL A   1      47.712  25.091  26.244  1.00  0.00     0.029 A 
ATOM     56  C   UNL A   1      47.569  26.413  26.640  1.00  0.00     0.049 A 
ATOM     57  H   UNL A   1      45.837  27.419  27.301  1.00  0.00     0.167 HD
ATOM     58  C   UNL A   1      48.356  28.722  27.101  1.00  0.00     0.074 A 
ATOM     59  C   UNL A   1      49.379  29.747  27.157  1.00  0.00     0.031 C 
ATOM     60  C   UNL A   1      48.578  27.443  26.707  1.00  0.00     0.031 A 
BRANCH  47  61
ATOM     61  C   UNL A   1      43.546  23.829  26.876  1.00  0.00    -0.014 A 
ATOM     62  C   UNL A   1      43.148  23.360  25.611  1.00  0.00     0.010 A 
ATOM     63  C   UNL A   1      43.379  22.991  27.994  1.00  0.00     0.010 A 
ATOM     64  C   UNL A   1      42.538  22.109  25.477  1.00  0.00     0.020 A 
ATOM     65  C   UNL A   1      42.807  21.723  27.860  1.00  0.00     0.020 A 
ATOM     66  C   UNL A   1      42.367  21.299  26.604  1.00  0.00     0.054 A 
BRANCH  66  67
ATOM     67  S   UNL A   1      41.571  19.683  26.401  1.00  0.00     0.124 S 
ATOM     68  O   UNL A   1      42.323  19.114  25.286  1.00  0.00    -0.237 OA
ATOM     69  O   UNL A   1      41.798  19.051  27.698  1.00  0.00    -0.237 OA
ATOM     70  O   UNL A   1      40.180  20.015  26.106  1.00  0.00    -0.744 OA
ENDBRANCH  66  67
ENDBRANCH  47  61
BRANCH  48  71
ATOM     71  C   UNL A   1      47.107  33.056  28.492  1.00  0.00    -0.014 A 
ATOM     72  C   UNL A   1      47.327  33.947  27.428  1.00  0.00     0.010 A 
ATOM     73  C   UNL A   1      47.377  33.482  29.806  1.00  0.00     0.010 A 
ATOM     74  C   UNL A   1      47.806  35.239  27.671  1.00  0.00     0.020 A 
ATOM     75  C   UNL A   1      47.825  34.782  30.056  1.00  0.00     0.020 A 
ATOM     76  C   UNL A   1      48.042  35.652  28.987  1.00  0.00     0.054 A 
BRANCH  76  77
ATOM     77  S   UNL A   1      48.585  37.358  29.281  1.00  0.00     0.124 S 
ATOM     78  O   UNL A   1      48.435  37.483  30.727  1.00  0.00    -0.237 OA
ATOM     79  O   UNL A   1      49.959  37.338  28.785  1.00  0.00    -0.237 OA
ATOM     80  O   UNL A   1      47.655  38.156  28.484  1.00  0.00    -0.744 OA
ENDBRANCH  76  77
ENDBRANCH  48  71
BRANCH  60  81
ATOM     81  C   UNL A   1      49.973  27.080  26.264  1.00  0.00    -0.014 A 
ATOM     82  C   UNL A   1      50.937  26.607  27.174  1.00  0.00     0.010 A 
ATOM     83  C   UNL A   1      50.304  27.156  24.898  1.00  0.00     0.010 A 
ATOM     84  C   UNL A   1      52.213  26.250  26.729  1.00  0.00     0.020 A 
ATOM     85  C   UNL A   1      51.566  26.765  24.445  1.00  0.00     0.020 A 
ATOM     86  C   UNL A   1      52.518  26.328  25.367  1.00  0.00     0.054 A 
BRANCH  86  87
ATOM     87  S   UNL A   1      54.166  25.814  24.811  1.00  0.00     0.124 S 
ATOM     88  O   UNL A   1      55.029  26.403  25.832  1.00  0.00    -0.237 OA
ATOM     89  O   UNL A   1      54.070  24.356  24.835  1.00  0.00    -0.237 OA
ATOM     90  O   UNL A   1      54.286  26.404  23.480  1.00  0.00    -0.744 OA
ENDBRANCH  86  87
ENDBRANCH  60  81
ENDBRANCH  34  35
ENDBRANCH  27  29
ENDBRANCH  26  27
ENDBRANCH  25  26
ENDBRANCH   1  25
TORSDOF 18
ENDMDL
MODEL 3
REMARK VINA RESULT:     -11.1      4.778      9.520
REMARK SMILES COC(=O)c1sc(NC(=O)[C@H]2CC=CC[C@H]2C(=O)OCCOC(=O)c2ccc(-c3c4nc(c(-c5ccc(S(=O)(=O)[O-])cc5)c5ccc([nH]5)c(-c5ccc(S(=O)(=O)[O-])cc5)c5nc(c(-c6ccc(S(=O)(=O)[O-])cc6)c6ccc3[nH]6)C=C5)C=C4)cc2)nc1C
REMARK SMILES IDX 20 1 19 2 17 3 18 4 16 5 11 6 12 7 13 8 15 9 14 10 9 11 8 12
REMARK SMILES IDX 10 14 7 15 5 16 6 17 86 18 85 19 87 20 3 21 4 22 2 23 1 24
REMARK SMILES IDX 21 25 22 26 23 27 24 28 25 29 26 30 84 31 27 32 83 33 28 34
REMARK SMILES IDX 29 35 30 36 77 37 31 38 82 39 76 40 78 41 32 42 81 43 75 44
REMARK SMILES IDX 74 45 33 47 63 48 44 49 62 50 45 51 48 52 61 53 79 54 46 55
REMARK SMILES IDX 47 56 60 58 80 59 49 60 34 61 35 62 43 63 36 64 42 65 37 66
REMARK SMILES IDX 38 67 39 68 40 69 41 70 64 71 65 72 73 73 66 74 72 75 67 76
REMARK SMILES IDX 68 77 69 78 70 79 71 80 50 81 51 82 59 83 52 84 58 85 53 86
REMARK SMILES IDX 54 87 55 88 56 89 57 90
REMARK H PARENT 8 13 78 46 48 57
REMARK Flexibility Score: inf
ROOT
ATOM      1  C   UNL A   1      33.817  29.377  26.273  1.00  0.00     0.274 C 
ENDROOT
BRANCH   1   2
ATOM      2  O   UNL A   1      32.883  29.320  24.955  1.00  0.00    -0.462 OA
BRANCH   2   3
ATOM      3  C   UNL A   1      32.996  28.243  24.134  1.00  0.00     0.310 C 
ATOM      4  O   UNL A   1      34.067  27.782  23.759  1.00  0.00    -0.252 OA
BRANCH   3   5
ATOM      5  C   UNL A   1      31.640  27.668  23.749  1.00  0.00     0.116 C 
ATOM      6  C   UNL A   1      31.141  26.369  24.443  1.00  0.00     0.097 C 
ATOM      7  C   UNL A   1      29.772  25.944  23.855  1.00  0.00     0.041 C 
ATOM      8  C   UNL A   1      28.849  27.080  23.517  1.00  0.00    -0.030 C 
ATOM      9  C   UNL A   1      30.629  28.810  23.783  1.00  0.00     0.043 C 
ATOM     10  C   UNL A   1      29.229  28.365  23.502  1.00  0.00    -0.030 C 
BRANCH   6  11
ATOM     11  C   UNL A   1      31.056  26.375  25.980  1.00  0.00     0.230 C 
ATOM     12  N   UNL A   1      31.401  25.265  26.704  1.00  0.00    -0.302 N 
ATOM     13  H   UNL A   1      31.153  25.230  27.657  1.00  0.00     0.172 HD
ATOM     14  O   UNL A   1      30.664  27.359  26.614  1.00  0.00    -0.274 OA
BRANCH  12  15
ATOM     15  C   UNL A   1      32.073  24.207  26.168  1.00  0.00     0.190 A 
ATOM     16  C   UNL A   1      34.451  22.885  24.366  1.00  0.00     0.137 A 
ATOM     17  S   UNL A   1      34.303  24.646  25.838  1.00  0.00    -0.089 S 
ATOM     18  C   UNL A   1      32.945  22.011  24.249  1.00  0.00     0.065 A 
ATOM     19  N   UNL A   1      31.616  22.853  25.310  1.00  0.00    -0.224 NA
ATOM     20  C   UNL A   1      32.603  20.813  23.441  1.00  0.00     0.069 C 
BRANCH  16  21
ATOM     21  C   UNL A   1      35.729  22.647  23.750  1.00  0.00     0.350 C 
ATOM     22  O   UNL A   1      36.073  22.966  22.622  1.00  0.00    -0.245 OA
BRANCH  21  23
ATOM     23  O   UNL A   1      36.504  22.046  24.685  1.00  0.00    -0.465 OA
ATOM     24  C   UNL A   1      36.218  20.685  24.989  1.00  0.00     0.282 C 
ENDBRANCH  21  23
ENDBRANCH  16  21
ENDBRANCH  12  15
ENDBRANCH   6  11
ENDBRANCH   3   5
ENDBRANCH   2   3
ENDBRANCH   1   2
BRANCH   1  25
ATOM     25  C   UNL A   1      34.264  31.208  27.481  1.00  0.00     0.275 C 
BRANCH  25  26
ATOM     26  O   UNL A   1      33.183  32.293  27.953  1.00  0.00    -0.458 OA
BRANCH  26  27
ATOM     27  C   UNL A   1      33.580  33.551  28.272  1.00  0.00     0.338 C 
ATOM     28  O   UNL A   1      33.006  34.597  28.020  1.00  0.00    -0.246 OA
BRANCH  27  29
ATOM     29  C   UNL A   1      34.692  33.400  29.233  1.00  0.00     0.060 A 
ATOM     30  C   UNL A   1      35.934  33.975  28.930  1.00  0.00     0.016 A 
ATOM     31  C   UNL A   1      34.499  32.736  30.443  1.00  0.00     0.016 A 
ATOM     32  C   UNL A   1      37.017  33.805  29.795  1.00  0.00     0.010 A 
ATOM     33  C   UNL A   1      35.576  32.582  31.316  1.00  0.00     0.010 A 
ATOM     34  C   UNL A   1      36.855  33.060  30.969  1.00  0.00    -0.014 A 
BRANCH  34  35
ATOM     35  C   UNL A   1      38.036  32.583  31.735  1.00  0.00     0.031 A 
ATOM     36  C   UNL A   1      38.830  31.436  31.164  1.00  0.00     0.074 A 
ATOM     37  C   UNL A   1      38.395  33.137  32.907  1.00  0.00     0.049 A 
ATOM     38  N   UNL A   1      39.817  30.759  31.693  1.00  0.00    -0.248 NA
ATOM     39  C   UNL A   1      38.443  30.979  29.818  1.00  0.00     0.031 C 
ATOM     40  C   UNL A   1      37.750  34.287  33.537  1.00  0.00     0.029 A 
ATOM     41  N   UNL A   1      39.394  32.789  33.784  1.00  0.00    -0.354 N 
ATOM     42  C   UNL A   1      40.141  29.778  30.760  1.00  0.00     0.074 A 
ATOM     43  C   UNL A   1      39.223  29.923  29.654  1.00  0.00     0.031 C 
ATOM     44  C   UNL A   1      38.367  34.550  34.702  1.00  0.00     0.029 A 
ATOM     45  C   UNL A   1      39.417  33.556  34.925  1.00  0.00     0.049 A 
ATOM     46  H   UNL A   1      40.031  32.060  33.612  1.00  0.00     0.167 HD
ATOM     47  C   UNL A   1      41.121  28.843  30.816  1.00  0.00     0.031 A 
ATOM     48  C   UNL A   1      40.181  33.453  36.031  1.00  0.00     0.031 A 
ATOM     49  C   UNL A   1      42.027  28.705  31.925  1.00  0.00     0.049 A 
ATOM     50  C   UNL A   1      41.214  32.357  36.110  1.00  0.00     0.074 A 
ATOM     51  C   UNL A   1      43.068  27.807  32.079  1.00  0.00     0.029 A 
ATOM     52  N   UNL A   1      41.994  29.482  33.074  1.00  0.00    -0.354 N 
ATOM     53  N   UNL A   1      41.519  31.443  35.220  1.00  0.00    -0.248 NA
ATOM     54  C   UNL A   1      42.011  32.285  37.344  1.00  0.00     0.031 C 
ATOM     55  C   UNL A   1      43.616  27.991  33.352  1.00  0.00     0.029 A 
ATOM     56  C   UNL A   1      42.974  29.061  33.958  1.00  0.00     0.049 A 
ATOM     57  H   UNL A   1      41.368  30.223  33.238  1.00  0.00     0.167 HD
ATOM     58  C   UNL A   1      42.566  30.709  35.770  1.00  0.00     0.074 A 
ATOM     59  C   UNL A   1      42.848  31.295  37.065  1.00  0.00     0.031 C 
ATOM     60  C   UNL A   1      43.238  29.651  35.248  1.00  0.00     0.031 A 
BRANCH  47  61
ATOM     61  C   UNL A   1      41.221  27.871  29.666  1.00  0.00    -0.014 A 
ATOM     62  C   UNL A   1      40.357  26.766  29.554  1.00  0.00     0.010 A 
ATOM     63  C   UNL A   1      42.199  28.070  28.675  1.00  0.00     0.010 A 
ATOM     64  C   UNL A   1      40.510  25.847  28.511  1.00  0.00     0.020 A 
ATOM     65  C   UNL A   1      42.331  27.176  27.608  1.00  0.00     0.020 A 
ATOM     66  C   UNL A   1      41.501  26.056  27.546  1.00  0.00     0.054 A 
BRANCH  66  67
ATOM     67  S   UNL A   1      41.679  24.847  26.207  1.00  0.00     0.124 S 
ATOM     68  O   UNL A   1      42.908  24.154  26.588  1.00  0.00    -0.237 OA
ATOM     69  O   UNL A   1      40.454  24.061  26.322  1.00  0.00    -0.237 OA
ATOM     70  O   UNL A   1      41.779  25.671  25.005  1.00  0.00    -0.744 OA
ENDBRANCH  66  67
ENDBRANCH  47  61
BRANCH  48  71
ATOM     71  C   UNL A   1      39.991  34.413  37.156  1.00  0.00    -0.014 A 
ATOM     72  C   UNL A   1      40.623  35.668  37.139  1.00  0.00     0.010 A 
ATOM     73  C   UNL A   1      39.154  34.086  38.239  1.00  0.00     0.010 A 
ATOM     74  C   UNL A   1      40.422  36.579  38.182  1.00  0.00     0.020 A 
ATOM     75  C   UNL A   1      38.925  35.005  39.267  1.00  0.00     0.020 A 
ATOM     76  C   UNL A   1      39.564  36.245  39.235  1.00  0.00     0.054 A 
BRANCH  76  77
ATOM     77  S   UNL A   1      39.257  37.476  40.533  1.00  0.00     0.124 S 
ATOM     78  O   UNL A   1      38.929  36.635  41.680  1.00  0.00    -0.237 OA
ATOM     79  O   UNL A   1      40.536  38.178  40.606  1.00  0.00    -0.237 OA
ATOM     80  O   UNL A   1      38.150  38.266  40.000  1.00  0.00    -0.744 OA
ENDBRANCH  76  77
ENDBRANCH  48  71
BRANCH  60  81
ATOM     81  C   UNL A   1      44.376  29.079  36.055  1.00  0.00    -0.014 A 
ATOM     82  C   UNL A   1      45.687  29.575  35.937  1.00  0.00     0.010 A 
ATOM     83  C   UNL A   1      44.112  28.067  36.997  1.00  0.00     0.010 A 
ATOM     84  C   UNL A   1      46.716  29.045  36.721  1.00  0.00     0.020 A 
ATOM     85  C   UNL A   1      45.130  27.561  37.808  1.00  0.00     0.020 A 
ATOM     86  C   UNL A   1      46.431  28.044  37.654  1.00  0.00     0.054 A 
BRANCH  86  87
ATOM     87  S   UNL A   1      47.775  27.408  38.690  1.00  0.00     0.124 S 
ATOM     88  O   UNL A   1      47.070  27.044  39.917  1.00  0.00    -0.237 OA
ATOM     89  O   UNL A   1      48.283  26.287  37.902  1.00  0.00    -0.237 OA
ATOM     90  O   UNL A   1      48.689  28.542  38.812  1.00  0.00    -0.744 OA
ENDBRANCH  86  87
ENDBRANCH  60  81
ENDBRANCH  34  35
ENDBRANCH  27  29
ENDBRANCH  26  27
ENDBRANCH  25  26
ENDBRANCH   1  25
TORSDOF 18
ENDMDL
