MODEL 1
REMARK VINA RESULT:     -11.3      0.000      0.000
REMARK SMILES O=C(OCCOC(=O)[C@@H]1[C@H](C(=O)Nc2cccc(Cl)c2F)[C@@H]2C=C[C@H]1C2)c1ccc(-c2c3nc(c(-c4ccc(S(=O)(=O)[O-])cc4)c4ccc([nH]4)c(-c4ccc(S(=O)(=O)[O-])cc4)c4nc(c(-c5ccc(S(=O)(=O)[O-])cc5)c5ccc2[nH]5)C=C4)C=C3)cc1
REMARK SMILES IDX 4 1 3 2 2 3 1 4 27 5 28 6 86 7 29 8 85 9 30 10 31 11 32 12
REMARK SMILES IDX 79 13 33 14 84 15 78 16 80 17 34 18 83 19 77 20 76 21 35 23
REMARK SMILES IDX 65 24 46 25 64 26 47 27 50 28 63 29 81 30 48 31 49 32 62 34
REMARK SMILES IDX 82 35 51 36 36 37 37 38 45 39 38 40 44 41 39 42 40 43 41 44
REMARK SMILES IDX 42 45 43 46 66 47 67 48 75 49 68 50 74 51 69 52 70 53 71 54
REMARK SMILES IDX 72 55 73 56 52 57 53 58 61 59 54 60 60 61 55 62 56 63 57 64
REMARK SMILES IDX 58 65 59 66 5 67 6 68 7 69 8 70 9 71 10 72 25 73 22 74 24 75
REMARK SMILES IDX 26 76 23 77 11 78 12 79 13 80 14 82 15 83 20 84 16 85 18 86
REMARK SMILES IDX 21 87 17 88 19 89
REMARK H PARENT 80 22 50 33 13 81
REMARK Flexibility Score: inf
ROOT
ATOM      1  C   UNL A   1      33.116  29.339  26.310  1.00  0.00     0.275 C 
ENDROOT
BRANCH   1   2
ATOM      2  O   UNL A   1      33.289  29.990  27.586  1.00  0.00    -0.458 OA
BRANCH   2   3
ATOM      3  C   UNL A   1      34.292  30.806  27.996  1.00  0.00     0.338 C 
ATOM      4  O   UNL A   1      34.138  32.024  28.028  1.00  0.00    -0.246 OA
BRANCH   3   5
ATOM      5  C   UNL A   1      35.648  30.261  28.248  1.00  0.00     0.060 A 
ATOM      6  C   UNL A   1      36.054  29.760  29.484  1.00  0.00     0.016 A 
ATOM      7  C   UNL A   1      36.566  30.278  27.183  1.00  0.00     0.016 A 
ATOM      8  C   UNL A   1      37.295  29.146  29.621  1.00  0.00     0.010 A 
ATOM      9  C   UNL A   1      37.833  29.697  27.328  1.00  0.00     0.010 A 
ATOM     10  C   UNL A   1      38.190  29.110  28.548  1.00  0.00    -0.014 A 
BRANCH  10  11
ATOM     11  C   UNL A   1      39.577  28.698  28.850  1.00  0.00     0.031 A 
ATOM     12  C   UNL A   1      40.382  29.642  29.687  1.00  0.00     0.074 A 
ATOM     13  C   UNL A   1      40.032  27.466  28.556  1.00  0.00     0.049 A 
ATOM     14  N   UNL A   1      41.486  29.418  30.341  1.00  0.00    -0.248 NA
ATOM     15  C   UNL A   1      39.831  30.999  29.861  1.00  0.00     0.031 C 
ATOM     16  C   UNL A   1      39.290  26.451  27.816  1.00  0.00     0.029 A 
ATOM     17  N   UNL A   1      41.214  26.844  28.869  1.00  0.00    -0.354 N 
ATOM     18  C   UNL A   1      41.718  30.577  31.067  1.00  0.00     0.074 A 
ATOM     19  C   UNL A   1      40.687  31.527  30.717  1.00  0.00     0.031 C 
ATOM     20  C   UNL A   1      40.040  25.339  27.704  1.00  0.00     0.029 A 
ATOM     21  C   UNL A   1      41.303  25.552  28.402  1.00  0.00     0.049 A 
ATOM     22  H   UNL A   1      41.932  27.282  29.382  1.00  0.00     0.167 HD
ATOM     23  C   UNL A   1      42.687  30.815  31.975  1.00  0.00     0.031 A 
ATOM     24  C   UNL A   1      42.287  24.642  28.551  1.00  0.00     0.031 A 
ATOM     25  C   UNL A   1      43.757  29.902  32.243  1.00  0.00     0.049 A 
ATOM     26  C   UNL A   1      43.454  25.001  29.436  1.00  0.00     0.074 A 
ATOM     27  C   UNL A   1      44.857  30.075  33.059  1.00  0.00     0.029 A 
ATOM     28  N   UNL A   1      43.870  28.643  31.668  1.00  0.00    -0.354 N 
ATOM     29  N   UNL A   1      43.642  26.090  30.147  1.00  0.00    -0.248 NA
ATOM     30  C   UNL A   1      44.523  24.002  29.570  1.00  0.00     0.031 C 
ATOM     31  C   UNL A   1      45.662  28.937  32.939  1.00  0.00     0.029 A 
ATOM     32  C   UNL A   1      45.034  28.035  32.092  1.00  0.00     0.049 A 
ATOM     33  H   UNL A   1      43.216  28.244  31.049  1.00  0.00     0.167 HD
ATOM     34  C   UNL A   1      44.832  25.892  30.837  1.00  0.00     0.074 A 
ATOM     35  C   UNL A   1      45.313  24.576  30.468  1.00  0.00     0.031 C 
ATOM     36  C   UNL A   1      45.473  26.718  31.702  1.00  0.00     0.031 A 
BRANCH  23  37
ATOM     37  C   UNL A   1      42.616  32.130  32.690  1.00  0.00    -0.014 A 
ATOM     38  C   UNL A   1      43.266  33.262  32.163  1.00  0.00     0.010 A 
ATOM     39  C   UNL A   1      41.963  32.223  33.930  1.00  0.00     0.010 A 
ATOM     40  C   UNL A   1      43.300  34.456  32.886  1.00  0.00     0.020 A 
ATOM     41  C   UNL A   1      41.980  33.422  34.648  1.00  0.00     0.020 A 
ATOM     42  C   UNL A   1      42.665  34.524  34.129  1.00  0.00     0.054 A 
BRANCH  42  43
ATOM     43  S   UNL A   1      42.740  36.079  35.057  1.00  0.00     0.124 S 
ATOM     44  O   UNL A   1      43.688  35.752  36.118  1.00  0.00    -0.237 OA
ATOM     45  O   UNL A   1      43.222  37.028  34.056  1.00  0.00    -0.237 OA
ATOM     46  O   UNL A   1      41.362  36.287  35.495  1.00  0.00    -0.744 OA
ENDBRANCH  42  43
ENDBRANCH  23  37
BRANCH  24  47
ATOM     47  C   UNL A   1      42.225  23.319  27.864  1.00  0.00    -0.014 A 
ATOM     48  C   UNL A   1      41.486  22.248  28.398  1.00  0.00     0.010 A 
ATOM     49  C   UNL A   1      42.964  23.107  26.685  1.00  0.00     0.010 A 
ATOM     50  C   UNL A   1      41.524  20.984  27.794  1.00  0.00     0.020 A 
ATOM     51  C   UNL A   1      42.987  21.854  26.064  1.00  0.00     0.020 A 
ATOM     52  C   UNL A   1      42.281  20.793  26.635  1.00  0.00     0.054 A 
BRANCH  52  53
ATOM     53  S   UNL A   1      42.325  19.147  25.869  1.00  0.00     0.124 S 
ATOM     54  O   UNL A   1      42.977  18.348  26.901  1.00  0.00    -0.237 OA
ATOM     55  O   UNL A   1      40.909  18.863  25.647  1.00  0.00    -0.237 OA
ATOM     56  O   UNL A   1      43.108  19.357  24.653  1.00  0.00    -0.744 OA
ENDBRANCH  52  53
ENDBRANCH  24  47
BRANCH  36  57
ATOM     57  C   UNL A   1      46.743  26.211  32.324  1.00  0.00    -0.014 A 
ATOM     58  C   UNL A   1      47.991  26.471  31.734  1.00  0.00     0.010 A 
ATOM     59  C   UNL A   1      46.686  25.535  33.556  1.00  0.00     0.010 A 
ATOM     60  C   UNL A   1      49.164  26.042  32.357  1.00  0.00     0.020 A 
ATOM     61  C   UNL A   1      47.858  25.128  34.194  1.00  0.00     0.020 A 
ATOM     62  C   UNL A   1      49.090  25.373  33.583  1.00  0.00     0.054 A 
BRANCH  62  63
ATOM     63  S   UNL A   1      50.629  24.878  34.404  1.00  0.00     0.124 S 
ATOM     64  O   UNL A   1      51.546  25.934  33.987  1.00  0.00    -0.237 OA
ATOM     65  O   UNL A   1      50.258  24.890  35.818  1.00  0.00    -0.237 OA
ATOM     66  O   UNL A   1      50.906  23.556  33.851  1.00  0.00    -0.744 OA
ENDBRANCH  62  63
ENDBRANCH  36  57
ENDBRANCH  10  11
ENDBRANCH   3   5
ENDBRANCH   2   3
ENDBRANCH   1   2
BRANCH   1  67
ATOM     67  C   UNL A   1      33.286  27.813  26.263  1.00  0.00     0.274 C 
BRANCH  67  68
ATOM     68  O   UNL A   1      32.089  27.045  26.056  1.00  0.00    -0.462 OA
BRANCH  68  69
ATOM     69  C   UNL A   1      32.270  25.712  26.271  1.00  0.00     0.310 C 
ATOM     70  O   UNL A   1      31.520  25.049  26.981  1.00  0.00    -0.252 OA
BRANCH  69  71
ATOM     71  C   UNL A   1      33.382  25.120  25.427  1.00  0.00     0.119 C 
ATOM     72  C   UNL A   1      32.990  24.869  23.964  1.00  0.00     0.100 C 
ATOM     73  C   UNL A   1      34.335  23.926  25.719  1.00  0.00     0.027 C 
ATOM     74  C   UNL A   1      34.005  23.795  23.499  1.00  0.00     0.025 C 
ATOM     75  C   UNL A   1      33.818  22.540  25.385  1.00  0.00    -0.027 C 
ATOM     76  C   UNL A   1      35.203  24.052  24.440  1.00  0.00     0.017 C 
ATOM     77  C   UNL A   1      33.614  22.465  24.062  1.00  0.00    -0.027 C 
BRANCH  72  78
ATOM     78  C   UNL A   1      31.537  24.615  23.575  1.00  0.00     0.229 C 
ATOM     79  O   UNL A   1      31.160  23.427  23.622  1.00  0.00    -0.274 OA
ATOM     80  N   UNL A   1      30.524  25.477  23.315  1.00  0.00    -0.323 N 
ATOM     81  H   UNL A   1      29.687  24.963  23.235  1.00  0.00     0.170 HD
BRANCH  80  82
ATOM     82  C   UNL A   1      30.231  26.848  23.116  1.00  0.00     0.078 A 
ATOM     83  C   UNL A   1      31.347  27.606  22.714  1.00  0.00     0.029 A 
ATOM     84  C   UNL A   1      29.039  27.560  23.278  1.00  0.00     0.165 A 
ATOM     85  C   UNL A   1      31.249  28.965  22.387  1.00  0.00     0.004 A 
ATOM     86  C   UNL A   1      28.930  28.918  22.951  1.00  0.00     0.078 A 
ATOM     87  F   UNL A   1      27.942  27.009  23.789  1.00  0.00    -0.203 F 
ATOM     88  C   UNL A   1      30.030  29.621  22.485  1.00  0.00     0.024 A 
ATOM     89  Cl  UNL A   1      27.419  29.738  23.121  1.00  0.00    -0.081 Cl
ENDBRANCH  80  82
ENDBRANCH  72  78
ENDBRANCH  69  71
ENDBRANCH  68  69
ENDBRANCH  67  68
ENDBRANCH   1  67
TORSDOF 16
ENDMDL
MODEL 2
REMARK VINA RESULT:     -11.3      2.711      3.520
REMARK SMILES O=C(OCCOC(=O)[C@@H]1[C@H](C(=O)Nc2cccc(Cl)c2F)[C@@H]2C=C[C@H]1C2)c1ccc(-c2c3nc(c(-c4ccc(S(=O)(=O)[O-])cc4)c4ccc([nH]4)c(-c4ccc(S(=O)(=O)[O-])cc4)c4nc(c(-c5ccc(S(=O)(=O)[O-])cc5)c5ccc2[nH]5)C=C4)C=C3)cc1
REMARK SMILES IDX 4 1 3 2 2 3 1 4 27 5 28 6 86 7 29 8 85 9 30 10 31 11 32 12
REMARK SMILES IDX 79 13 33 14 84 15 78 16 80 17 34 18 83 19 77 20 76 21 35 23
REMARK SMILES IDX 65 24 46 25 64 26 47 27 50 28 63 29 81 30 48 31 49 32 62 34
REMARK SMILES IDX 82 35 51 36 36 37 37 38 45 39 38 40 44 41 39 42 40 43 41 44
REMARK SMILES IDX 42 45 43 46 66 47 67 48 75 49 68 50 74 51 69 52 70 53 71 54
REMARK SMILES IDX 72 55 73 56 52 57 53 58 61 59 54 60 60 61 55 62 56 63 57 64
REMARK SMILES IDX 58 65 59 66 5 67 6 68 7 69 8 70 9 71 10 72 25 73 22 74 24 75
REMARK SMILES IDX 26 76 23 77 11 78 12 79 13 80 14 82 15 83 20 84 16 85 18 86
REMARK SMILES IDX 21 87 17 88 19 89
REMARK H PARENT 80 22 50 33 13 81
REMARK Flexibility Score: inf
ROOT
ATOM      1  C   UNL A   1      32.295  30.822  26.929  1.00  0.00     0.275 C 
ENDROOT
BRANCH   1   2
ATOM      2  O   UNL A   1      33.733  30.884  27.023  1.00  0.00    -0.458 OA
BRANCH   2   3
ATOM      3  C   UNL A   1      34.501  31.660  27.830  1.00  0.00     0.338 C 
ATOM      4  O   UNL A   1      34.226  32.843  28.009  1.00  0.00    -0.246 OA
BRANCH   3   5
ATOM      5  C   UNL A   1      35.781  31.144  28.372  1.00  0.00     0.060 A 
ATOM      6  C   UNL A   1      35.933  29.856  28.881  1.00  0.00     0.016 A 
ATOM      7  C   UNL A   1      36.883  32.017  28.385  1.00  0.00     0.016 A 
ATOM      8  C   UNL A   1      37.189  29.389  29.255  1.00  0.00     0.010 A 
ATOM      9  C   UNL A   1      38.143  31.565  28.800  1.00  0.00     0.010 A 
ATOM     10  C   UNL A   1      38.299  30.238  29.217  1.00  0.00    -0.014 A 
BRANCH  10  11
ATOM     11  C   UNL A   1      39.527  29.761  29.889  1.00  0.00     0.031 A 
ATOM     12  C   UNL A   1      39.761  30.265  31.279  1.00  0.00     0.074 A 
ATOM     13  C   UNL A   1      40.290  28.785  29.364  1.00  0.00     0.049 A 
ATOM     14  N   UNL A   1      40.564  29.801  32.193  1.00  0.00    -0.248 NA
ATOM     15  C   UNL A   1      38.931  31.405  31.712  1.00  0.00     0.031 C 
ATOM     16  C   UNL A   1      40.090  28.175  28.054  1.00  0.00     0.029 A 
ATOM     17  N   UNL A   1      41.367  28.110  29.878  1.00  0.00    -0.354 N 
ATOM     18  C   UNL A   1      40.278  30.537  33.333  1.00  0.00     0.074 A 
ATOM     19  C   UNL A   1      39.286  31.526  32.979  1.00  0.00     0.031 C 
ATOM     20  C   UNL A   1      41.029  27.234  27.848  1.00  0.00     0.029 A 
ATOM     21  C   UNL A   1      41.875  27.148  29.034  1.00  0.00     0.049 A 
ATOM     22  H   UNL A   1      41.743  28.296  30.769  1.00  0.00     0.167 HD
ATOM     23  C   UNL A   1      40.773  30.377  34.578  1.00  0.00     0.031 A 
ATOM     24  C   UNL A   1      42.890  26.280  29.219  1.00  0.00     0.031 A 
ATOM     25  C   UNL A   1      41.824  29.457  34.895  1.00  0.00     0.049 A 
ATOM     26  C   UNL A   1      43.551  26.242  30.575  1.00  0.00     0.074 A 
ATOM     27  C   UNL A   1      42.485  29.281  36.094  1.00  0.00     0.029 A 
ATOM     28  N   UNL A   1      42.386  28.572  33.985  1.00  0.00    -0.354 N 
ATOM     29  N   UNL A   1      43.244  26.920  31.657  1.00  0.00    -0.248 NA
ATOM     30  C   UNL A   1      44.666  25.303  30.748  1.00  0.00     0.031 C 
ATOM     31  C   UNL A   1      43.483  28.320  35.896  1.00  0.00     0.029 A 
ATOM     32  C   UNL A   1      43.404  27.861  34.588  1.00  0.00     0.049 A 
ATOM     33  H   UNL A   1      42.101  28.467  33.048  1.00  0.00     0.167 HD
ATOM     34  C   UNL A   1      44.107  26.466  32.647  1.00  0.00     0.074 A 
ATOM     35  C   UNL A   1      44.937  25.446  32.039  1.00  0.00     0.031 C 
ATOM     36  C   UNL A   1      44.205  26.849  33.945  1.00  0.00     0.031 A 
BRANCH  23  37
ATOM     37  C   UNL A   1      40.186  31.253  35.642  1.00  0.00    -0.014 A 
ATOM     38  C   UNL A   1      40.962  32.266  36.238  1.00  0.00     0.010 A 
ATOM     39  C   UNL A   1      38.881  31.020  36.106  1.00  0.00     0.010 A 
ATOM     40  C   UNL A   1      40.456  33.004  37.310  1.00  0.00     0.020 A 
ATOM     41  C   UNL A   1      38.365  31.769  37.166  1.00  0.00     0.020 A 
ATOM     42  C   UNL A   1      39.164  32.743  37.773  1.00  0.00     0.054 A 
BRANCH  42  43
ATOM     43  S   UNL A   1      38.536  33.701  39.178  1.00  0.00     0.124 S 
ATOM     44  O   UNL A   1      38.644  35.070  38.681  1.00  0.00    -0.237 OA
ATOM     45  O   UNL A   1      37.174  33.195  39.329  1.00  0.00    -0.237 OA
ATOM     46  O   UNL A   1      39.448  33.358  40.266  1.00  0.00    -0.744 OA
ENDBRANCH  42  43
ENDBRANCH  23  37
BRANCH  24  47
ATOM     47  C   UNL A   1      43.348  25.382  28.119  1.00  0.00    -0.014 A 
ATOM     48  C   UNL A   1      42.746  24.131  27.892  1.00  0.00     0.010 A 
ATOM     49  C   UNL A   1      44.444  25.757  27.319  1.00  0.00     0.010 A 
ATOM     50  C   UNL A   1      43.256  23.258  26.922  1.00  0.00     0.020 A 
ATOM     51  C   UNL A   1      44.944  24.900  26.333  1.00  0.00     0.020 A 
ATOM     52  C   UNL A   1      44.358  23.645  26.154  1.00  0.00     0.054 A 
BRANCH  52  53
ATOM     53  S   UNL A   1      45.012  22.499  24.906  1.00  0.00     0.124 S 
ATOM     54  O   UNL A   1      45.380  23.405  23.824  1.00  0.00    -0.237 OA
ATOM     55  O   UNL A   1      46.125  21.866  25.610  1.00  0.00    -0.237 OA
ATOM     56  O   UNL A   1      43.881  21.617  24.627  1.00  0.00    -0.744 OA
ENDBRANCH  52  53
ENDBRANCH  24  47
BRANCH  36  57
ATOM     57  C   UNL A   1      45.226  26.146  34.794  1.00  0.00    -0.014 A 
ATOM     58  C   UNL A   1      46.526  26.658  34.934  1.00  0.00     0.010 A 
ATOM     59  C   UNL A   1      44.849  25.003  35.522  1.00  0.00     0.010 A 
ATOM     60  C   UNL A   1      47.444  26.023  35.773  1.00  0.00     0.020 A 
ATOM     61  C   UNL A   1      45.755  24.381  36.381  1.00  0.00     0.020 A 
ATOM     62  C   UNL A   1      47.052  24.888  36.491  1.00  0.00     0.054 A 
BRANCH  62  63
ATOM     63  S   UNL A   1      48.240  24.115  37.621  1.00  0.00     0.124 S 
ATOM     64  O   UNL A   1      47.526  24.170  38.894  1.00  0.00    -0.237 OA
ATOM     65  O   UNL A   1      48.406  22.780  37.051  1.00  0.00    -0.237 OA
ATOM     66  O   UNL A   1      49.416  24.976  37.528  1.00  0.00    -0.744 OA
ENDBRANCH  62  63
ENDBRANCH  36  57
ENDBRANCH  10  11
ENDBRANCH   3   5
ENDBRANCH   2   3
ENDBRANCH   1   2
BRANCH   1  67
ATOM     67  C   UNL A   1      31.694  29.956  25.811  1.00  0.00     0.274 C 
BRANCH  67  68
ATOM     68  O   UNL A   1      32.625  29.395  24.871  1.00  0.00    -0.462 OA
BRANCH  68  69
ATOM     69  C   UNL A   1      32.715  28.038  24.960  1.00  0.00     0.310 C 
ATOM     70  O   UNL A   1      32.627  27.438  26.027  1.00  0.00    -0.252 OA
BRANCH  69  71
ATOM     71  C   UNL A   1      32.773  27.357  23.606  1.00  0.00     0.119 C 
ATOM     72  C   UNL A   1      31.472  27.462  22.798  1.00  0.00     0.100 C 
ATOM     73  C   UNL A   1      33.286  25.941  23.217  1.00  0.00     0.027 C 
ATOM     74  C   UNL A   1      31.570  26.277  21.804  1.00  0.00     0.025 C 
ATOM     75  C   UNL A   1      32.305  24.794  23.363  1.00  0.00    -0.027 C 
ATOM     76  C   UNL A   1      33.097  26.079  21.685  1.00  0.00     0.017 C 
ATOM     77  C   UNL A   1      31.278  24.998  22.526  1.00  0.00    -0.027 C 
BRANCH  72  78
ATOM     78  C   UNL A   1      30.126  27.626  23.497  1.00  0.00     0.229 C 
ATOM     79  O   UNL A   1      29.818  26.726  24.304  1.00  0.00    -0.274 OA
ATOM     80  N   UNL A   1      29.251  28.661  23.506  1.00  0.00    -0.323 N 
ATOM     81  H   UNL A   1      28.554  28.477  24.177  1.00  0.00     0.170 HD
BRANCH  80  82
ATOM     82  C   UNL A   1      28.974  29.910  22.899  1.00  0.00     0.078 A 
ATOM     83  C   UNL A   1      28.460  29.796  21.594  1.00  0.00     0.029 A 
ATOM     84  C   UNL A   1      29.150  31.213  23.372  1.00  0.00     0.165 A 
ATOM     85  C   UNL A   1      28.046  30.912  20.854  1.00  0.00     0.004 A 
ATOM     86  C   UNL A   1      28.736  32.335  22.641  1.00  0.00     0.078 A 
ATOM     87  F   UNL A   1      29.757  31.479  24.525  1.00  0.00    -0.203 F 
ATOM     88  C   UNL A   1      28.165  32.188  21.388  1.00  0.00     0.024 A 
ATOM     89  Cl  UNL A   1      28.931  33.922  23.294  1.00  0.00    -0.081 Cl
ENDBRANCH  80  82
ENDBRANCH  72  78
ENDBRANCH  69  71
ENDBRANCH  68  69
ENDBRANCH  67  68
ENDBRANCH   1  67
TORSDOF 16
ENDMDL
MODEL 3
REMARK VINA RESULT:     -11.1      1.775      3.221
REMARK SMILES O=C(OCCOC(=O)[C@@H]1[C@H](C(=O)Nc2cccc(Cl)c2F)[C@@H]2C=C[C@H]1C2)c1ccc(-c2c3nc(c(-c4ccc(S(=O)(=O)[O-])cc4)c4ccc([nH]4)c(-c4ccc(S(=O)(=O)[O-])cc4)c4nc(c(-c5ccc(S(=O)(=O)[O-])cc5)c5ccc2[nH]5)C=C4)C=C3)cc1
REMARK SMILES IDX 4 1 3 2 2 3 1 4 27 5 28 6 86 7 29 8 85 9 30 10 31 11 32 12
REMARK SMILES IDX 79 13 33 14 84 15 78 16 80 17 34 18 83 19 77 20 76 21 35 23
REMARK SMILES IDX 65 24 46 25 64 26 47 27 50 28 63 29 81 30 48 31 49 32 62 34
REMARK SMILES IDX 82 35 51 36 36 37 37 38 45 39 38 40 44 41 39 42 40 43 41 44
REMARK SMILES IDX 42 45 43 46 66 47 67 48 75 49 68 50 74 51 69 52 70 53 71 54
REMARK SMILES IDX 72 55 73 56 52 57 53 58 61 59 54 60 60 61 55 62 56 63 57 64
REMARK SMILES IDX 58 65 59 66 5 67 6 68 7 69 8 70 9 71 10 72 25 73 22 74 24 75
REMARK SMILES IDX 26 76 23 77 11 78 12 79 13 80 14 82 15 83 20 84 16 85 18 86
REMARK SMILES IDX 21 87 17 88 19 89
REMARK H PARENT 80 22 50 33 13 81
REMARK Flexibility Score: inf
ROOT
ATOM      1  C   UNL A   1      32.344  30.874  26.884  1.00  0.00     0.275 C 
ENDROOT
BRANCH   1   2
ATOM      2  O   UNL A   1      33.719  30.553  27.181  1.00  0.00    -0.458 OA
BRANCH   2   3
ATOM      3  C   UNL A   1      34.497  30.997  28.201  1.00  0.00     0.338 C 
ATOM      4  O   UNL A   1      34.161  31.971  28.867  1.00  0.00    -0.246 OA
BRANCH   3   5
ATOM      5  C   UNL A   1      35.848  30.425  28.419  1.00  0.00     0.060 A 
ATOM      6  C   UNL A   1      36.291  29.960  29.656  1.00  0.00     0.016 A 
ATOM      7  C   UNL A   1      36.722  30.378  27.318  1.00  0.00     0.016 A 
ATOM      8  C   UNL A   1      37.520  29.318  29.767  1.00  0.00     0.010 A 
ATOM      9  C   UNL A   1      37.979  29.769  27.435  1.00  0.00     0.010 A 
ATOM     10  C   UNL A   1      38.370  29.218  28.661  1.00  0.00    -0.014 A 
BRANCH  10  11
ATOM     11  C   UNL A   1      39.757  28.781  28.923  1.00  0.00     0.031 A 
ATOM     12  C   UNL A   1      40.604  29.712  29.733  1.00  0.00     0.074 A 
ATOM     13  C   UNL A   1      40.180  27.540  28.620  1.00  0.00     0.049 A 
ATOM     14  N   UNL A   1      41.723  29.469  30.354  1.00  0.00    -0.248 NA
ATOM     15  C   UNL A   1      40.085  31.080  29.918  1.00  0.00     0.031 C 
ATOM     16  C   UNL A   1      39.397  26.536  27.907  1.00  0.00     0.029 A 
ATOM     17  N   UNL A   1      41.358  26.896  28.900  1.00  0.00    -0.354 N 
ATOM     18  C   UNL A   1      41.998  30.626  31.068  1.00  0.00     0.074 A 
ATOM     19  C   UNL A   1      40.976  31.594  30.746  1.00  0.00     0.031 C 
ATOM     20  C   UNL A   1      40.122  25.411  27.776  1.00  0.00     0.029 A 
ATOM     21  C   UNL A   1      41.409  25.602  28.435  1.00  0.00     0.049 A 
ATOM     22  H   UNL A   1      42.099  27.322  29.390  1.00  0.00     0.167 HD
ATOM     23  C   UNL A   1      42.998  30.847  31.947  1.00  0.00     0.031 A 
ATOM     24  C   UNL A   1      42.379  24.673  28.558  1.00  0.00     0.031 A 
ATOM     25  C   UNL A   1      44.059  29.915  32.186  1.00  0.00     0.049 A 
ATOM     26  C   UNL A   1      43.580  25.013  29.407  1.00  0.00     0.074 A 
ATOM     27  C   UNL A   1      45.186  30.070  32.968  1.00  0.00     0.029 A 
ATOM     28  N   UNL A   1      44.130  28.653  31.612  1.00  0.00    -0.354 N 
ATOM     29  N   UNL A   1      43.809  26.099  30.108  1.00  0.00    -0.248 NA
ATOM     30  C   UNL A   1      44.632  23.994  29.512  1.00  0.00     0.031 C 
ATOM     31  C   UNL A   1      45.965  28.916  32.829  1.00  0.00     0.029 A 
ATOM     32  C   UNL A   1      45.295  28.024  32.003  1.00  0.00     0.049 A 
ATOM     33  H   UNL A   1      43.451  28.264  31.014  1.00  0.00     0.167 HD
ATOM     34  C   UNL A   1      45.015  25.881  30.763  1.00  0.00     0.074 A 
ATOM     35  C   UNL A   1      45.460  24.555  30.385  1.00  0.00     0.031 C 
ATOM     36  C   UNL A   1      45.697  26.698  31.605  1.00  0.00     0.031 A 
BRANCH  23  37
ATOM     37  C   UNL A   1      42.974  32.166  32.659  1.00  0.00    -0.014 A 
ATOM     38  C   UNL A   1      43.644  33.279  32.117  1.00  0.00     0.010 A 
ATOM     39  C   UNL A   1      42.345  32.279  33.910  1.00  0.00     0.010 A 
ATOM     40  C   UNL A   1      43.722  34.474  32.836  1.00  0.00     0.020 A 
ATOM     41  C   UNL A   1      42.405  33.479  34.623  1.00  0.00     0.020 A 
ATOM     42  C   UNL A   1      43.110  34.562  34.089  1.00  0.00     0.054 A 
BRANCH  42  43
ATOM     43  S   UNL A   1      43.241  36.117  35.011  1.00  0.00     0.124 S 
ATOM     44  O   UNL A   1      44.663  36.153  35.340  1.00  0.00    -0.237 OA
ATOM     45  O   UNL A   1      42.798  37.109  34.033  1.00  0.00    -0.237 OA
ATOM     46  O   UNL A   1      42.342  35.923  36.146  1.00  0.00    -0.744 OA
ENDBRANCH  42  43
ENDBRANCH  23  37
BRANCH  24  47
ATOM     47  C   UNL A   1      42.272  23.350  27.878  1.00  0.00    -0.014 A 
ATOM     48  C   UNL A   1      41.732  22.228  28.534  1.00  0.00     0.010 A 
ATOM     49  C   UNL A   1      42.772  23.191  26.572  1.00  0.00     0.010 A 
ATOM     50  C   UNL A   1      41.734  20.970  27.915  1.00  0.00     0.020 A 
ATOM     51  C   UNL A   1      42.756  21.943  25.941  1.00  0.00     0.020 A 
ATOM     52  C   UNL A   1      42.254  20.834  26.626  1.00  0.00     0.054 A 
BRANCH  52  53
ATOM     53  S   UNL A   1      42.257  19.196  25.842  1.00  0.00     0.124 S 
ATOM     54  O   UNL A   1      40.844  19.003  25.534  1.00  0.00    -0.237 OA
ATOM     55  O   UNL A   1      43.135  19.396  24.692  1.00  0.00    -0.237 OA
ATOM     56  O   UNL A   1      42.795  18.321  26.882  1.00  0.00    -0.744 OA
ENDBRANCH  52  53
ENDBRANCH  24  47
BRANCH  36  57
ATOM     57  C   UNL A   1      46.975  26.168  32.191  1.00  0.00    -0.014 A 
ATOM     58  C   UNL A   1      46.975  25.463  33.406  1.00  0.00     0.010 A 
ATOM     59  C   UNL A   1      48.176  26.313  31.474  1.00  0.00     0.010 A 
ATOM     60  C   UNL A   1      48.164  24.929  33.907  1.00  0.00     0.020 A 
ATOM     61  C   UNL A   1      49.361  25.758  31.958  1.00  0.00     0.020 A 
ATOM     62  C   UNL A   1      49.349  25.080  33.179  1.00  0.00     0.054 A 
BRANCH  62  63
ATOM     63  S   UNL A   1      50.869  24.326  33.817  1.00  0.00     0.124 S 
ATOM     64  O   UNL A   1      50.827  24.706  35.226  1.00  0.00    -0.237 OA
ATOM     65  O   UNL A   1      50.664  22.905  33.543  1.00  0.00    -0.237 OA
ATOM     66  O   UNL A   1      51.925  24.959  33.031  1.00  0.00    -0.744 OA
ENDBRANCH  62  63
ENDBRANCH  36  57
ENDBRANCH  10  11
ENDBRANCH   3   5
ENDBRANCH   2   3
ENDBRANCH   1   2
BRANCH   1  67
ATOM     67  C   UNL A   1      31.640  30.045  25.800  1.00  0.00     0.274 C 
BRANCH  67  68
ATOM     68  O   UNL A   1      32.417  28.999  25.194  1.00  0.00    -0.462 OA
BRANCH  68  69
ATOM     69  C   UNL A   1      32.206  27.781  25.768  1.00  0.00     0.310 C 
ATOM     70  O   UNL A   1      32.603  27.505  26.896  1.00  0.00    -0.252 OA
BRANCH  69  71
ATOM     71  C   UNL A   1      31.311  26.881  24.940  1.00  0.00     0.119 C 
ATOM     72  C   UNL A   1      32.030  25.662  24.344  1.00  0.00     0.100 C 
ATOM     73  C   UNL A   1      30.289  27.236  23.822  1.00  0.00     0.027 C 
ATOM     74  C   UNL A   1      31.128  25.262  23.149  1.00  0.00     0.025 C 
ATOM     75  C   UNL A   1      30.840  27.394  22.417  1.00  0.00    -0.027 C 
ATOM     76  C   UNL A   1      29.750  25.802  23.588  1.00  0.00     0.017 C 
ATOM     77  C   UNL A   1      31.347  26.220  22.020  1.00  0.00    -0.027 C 
BRANCH  72  78
ATOM     78  C   UNL A   1      33.528  25.700  24.056  1.00  0.00     0.229 C 
ATOM     79  O   UNL A   1      34.003  26.822  23.792  1.00  0.00    -0.274 OA
ATOM     80  N   UNL A   1      34.478  24.741  24.173  1.00  0.00    -0.323 N 
ATOM     81  H   UNL A   1      35.361  25.156  24.036  1.00  0.00     0.170 HD
BRANCH  80  82
ATOM     82  C   UNL A   1      34.663  23.359  24.419  1.00  0.00     0.078 A 
ATOM     83  C   UNL A   1      35.933  23.048  24.940  1.00  0.00     0.029 A 
ATOM     84  C   UNL A   1      33.810  22.272  24.206  1.00  0.00     0.165 A 
ATOM     85  C   UNL A   1      36.285  21.747  25.326  1.00  0.00     0.004 A 
ATOM     86  C   UNL A   1      34.152  20.969  24.592  1.00  0.00     0.078 A 
ATOM     87  F   UNL A   1      32.639  22.393  23.589  1.00  0.00    -0.203 F 
ATOM     88  C   UNL A   1      35.382  20.704  25.172  1.00  0.00     0.024 A 
ATOM     89  Cl  UNL A   1      33.039  19.669  24.353  1.00  0.00    -0.081 Cl
ENDBRANCH  80  82
ENDBRANCH  72  78
ENDBRANCH  69  71
ENDBRANCH  68  69
ENDBRANCH  67  68
ENDBRANCH   1  67
TORSDOF 16
ENDMDL
