MODEL 1
REMARK VINA RESULT:     -10.9      0.000      0.000
REMARK SMILES O=C(CC1CC[NH+](C[C@H]2Cc3ccccc3O2)CC1)OCCOC(=O)c1ccc(-c2c3nc(c(-c4ccc(S(=O)(=O)[O-])cc4)c4ccc([nH]4)c(-c4ccc(S(=O)(=O)[O-])cc4)c4nc(c(-c5ccc(S(=O)(=O)[O-])cc5)c5ccc2[nH]5)C=C4)C=C3)cc1
REMARK SMILES IDX 21 1 20 2 2 3 1 4 3 5 4 6 5 7 19 8 6 9 18 10 7 11 8 13 9 14
REMARK SMILES IDX 10 15 17 16 11 17 16 18 12 19 15 20 13 21 14 22 22 23 23 24
REMARK SMILES IDX 24 25 25 26 26 27 27 28 85 29 28 30 84 31 29 32 30 33 31 34
REMARK SMILES IDX 78 35 32 36 83 37 77 38 79 39 33 40 82 41 76 42 75 43 34 45
REMARK SMILES IDX 64 46 45 47 63 48 46 49 49 50 62 51 80 52 47 53 48 54 61 56
REMARK SMILES IDX 81 57 50 58 35 59 36 60 44 61 37 62 43 63 38 64 39 65 40 66
REMARK SMILES IDX 41 67 42 68 65 69 66 70 74 71 67 72 73 73 68 74 69 75 70 76
REMARK SMILES IDX 71 77 72 78 51 79 52 80 60 81 53 82 59 83 54 84 55 85 56 86
REMARK SMILES IDX 57 87 58 88
REMARK H PARENT 7 12 79 44 49 55
REMARK Flexibility Score: inf
ROOT
ATOM      1  C   UNL A   1      31.723  29.459  26.231  1.00  0.00     0.274 C 
ENDROOT
BRANCH   1   2
ATOM      2  O   UNL A   1      31.185  29.809  24.943  1.00  0.00    -0.462 OA
BRANCH   2   3
ATOM      3  C   UNL A   1      30.901  28.911  23.971  1.00  0.00     0.306 C 
ATOM      4  O   UNL A   1      30.475  29.283  22.882  1.00  0.00    -0.252 OA
BRANCH   3   5
ATOM      5  C   UNL A   1      31.179  27.453  24.207  1.00  0.00     0.126 C 
BRANCH   5   6
ATOM      6  C   UNL A   1      30.823  26.511  23.044  1.00  0.00     0.011 C 
ATOM      7  C   UNL A   1      30.285  25.139  23.468  1.00  0.00     0.066 C 
ATOM      8  C   UNL A   1      31.942  26.339  22.005  1.00  0.00     0.066 C 
ATOM      9  C   UNL A   1      31.376  24.111  23.796  1.00  0.00     0.262 C 
ATOM     10  C   UNL A   1      32.968  25.257  22.351  1.00  0.00     0.262 C 
ATOM     11  N   UNL A   1      32.350  23.984  22.715  1.00  0.00    -0.332 N 
ATOM     12  H   UNL A   1      31.820  23.701  21.890  1.00  0.00     0.348 HD
BRANCH  11  13
ATOM     13  C   UNL A   1      33.323  22.894  22.941  1.00  0.00     0.308 C 
BRANCH  13  14
ATOM     14  C   UNL A   1      33.971  22.559  24.318  1.00  0.00     0.232 C 
ATOM     15  C   UNL A   1      34.781  21.254  24.408  1.00  0.00     0.090 C 
ATOM     16  O   UNL A   1      34.741  23.671  24.847  1.00  0.00    -0.484 OA
ATOM     17  C   UNL A   1      36.050  21.767  24.967  1.00  0.00    -0.002 A 
ATOM     18  C   UNL A   1      35.944  23.125  25.209  1.00  0.00     0.123 A 
ATOM     19  C   UNL A   1      37.232  21.089  25.221  1.00  0.00     0.007 A 
ATOM     20  C   UNL A   1      36.996  23.854  25.731  1.00  0.00     0.047 A 
ATOM     21  C   UNL A   1      38.314  21.812  25.730  1.00  0.00     0.001 A 
ATOM     22  C   UNL A   1      38.197  23.187  25.986  1.00  0.00     0.004 A 
ENDBRANCH  13  14
ENDBRANCH  11  13
ENDBRANCH   5   6
ENDBRANCH   3   5
ENDBRANCH   2   3
ENDBRANCH   1   2
BRANCH   1  23
ATOM     23  C   UNL A   1      32.612  30.576  26.779  1.00  0.00     0.275 C 
BRANCH  23  24
ATOM     24  O   UNL A   1      33.739  30.023  27.476  1.00  0.00    -0.458 OA
BRANCH  24  25
ATOM     25  C   UNL A   1      34.522  30.933  28.119  1.00  0.00     0.338 C 
ATOM     26  O   UNL A   1      34.181  32.022  28.549  1.00  0.00    -0.246 OA
BRANCH  25  27
ATOM     27  C   UNL A   1      35.848  30.328  28.350  1.00  0.00     0.060 A 
ATOM     28  C   UNL A   1      36.173  29.902  29.644  1.00  0.00     0.016 A 
ATOM     29  C   UNL A   1      36.761  30.176  27.305  1.00  0.00     0.016 A 
ATOM     30  C   UNL A   1      37.411  29.315  29.901  1.00  0.00     0.010 A 
ATOM     31  C   UNL A   1      38.009  29.613  27.566  1.00  0.00     0.010 A 
ATOM     32  C   UNL A   1      38.344  29.197  28.867  1.00  0.00    -0.014 A 
BRANCH  32  33
ATOM     33  C   UNL A   1      39.740  28.798  29.146  1.00  0.00     0.031 A 
ATOM     34  C   UNL A   1      40.691  29.854  29.627  1.00  0.00     0.074 A 
ATOM     35  C   UNL A   1      40.166  27.547  28.911  1.00  0.00     0.049 A 
ATOM     36  N   UNL A   1      41.992  29.817  29.720  1.00  0.00    -0.248 NA
ATOM     37  C   UNL A   1      40.085  31.130  30.041  1.00  0.00     0.031 C 
ATOM     38  C   UNL A   1      39.320  26.427  28.503  1.00  0.00     0.029 A 
ATOM     39  N   UNL A   1      41.433  27.020  28.947  1.00  0.00    -0.354 N 
ATOM     40  C   UNL A   1      42.369  31.079  30.164  1.00  0.00     0.074 A 
ATOM     41  C   UNL A   1      41.157  31.854  30.323  1.00  0.00     0.031 C 
ATOM     42  C   UNL A   1      40.098  25.352  28.289  1.00  0.00     0.029 A 
ATOM     43  C   UNL A   1      41.497  25.725  28.494  1.00  0.00     0.049 A 
ATOM     44  H   UNL A   1      42.218  27.522  29.266  1.00  0.00     0.167 HD
ATOM     45  C   UNL A   1      43.615  31.552  30.398  1.00  0.00     0.031 A 
ATOM     46  C   UNL A   1      42.566  24.949  28.224  1.00  0.00     0.031 A 
ATOM     47  C   UNL A   1      44.810  30.776  30.212  1.00  0.00     0.049 A 
ATOM     48  C   UNL A   1      43.949  25.505  28.440  1.00  0.00     0.074 A 
ATOM     49  C   UNL A   1      46.124  31.153  30.416  1.00  0.00     0.029 A 
ATOM     50  N   UNL A   1      44.831  29.460  29.769  1.00  0.00    -0.354 N 
ATOM     51  N   UNL A   1      44.299  26.700  28.851  1.00  0.00    -0.248 NA
ATOM     52  C   UNL A   1      45.079  24.611  28.150  1.00  0.00     0.031 C 
ATOM     53  C   UNL A   1      46.944  30.079  30.049  1.00  0.00     0.029 A 
ATOM     54  C   UNL A   1      46.138  29.016  29.671  1.00  0.00     0.049 A 
ATOM     55  H   UNL A   1      44.035  28.923  29.556  1.00  0.00     0.167 HD
ATOM     56  C   UNL A   1      45.690  26.698  28.891  1.00  0.00     0.074 A 
ATOM     57  C   UNL A   1      46.116  25.379  28.465  1.00  0.00     0.031 C 
ATOM     58  C   UNL A   1      46.536  27.696  29.249  1.00  0.00     0.031 A 
BRANCH  45  59
ATOM     59  C   UNL A   1      43.730  32.998  30.797  1.00  0.00    -0.014 A 
ATOM     60  C   UNL A   1      43.757  34.028  29.839  1.00  0.00     0.010 A 
ATOM     61  C   UNL A   1      43.854  33.327  32.159  1.00  0.00     0.010 A 
ATOM     62  C   UNL A   1      43.976  35.351  30.231  1.00  0.00     0.020 A 
ATOM     63  C   UNL A   1      44.044  34.652  32.557  1.00  0.00     0.020 A 
ATOM     64  C   UNL A   1      44.133  35.653  31.587  1.00  0.00     0.054 A 
BRANCH  64  65
ATOM     65  S   UNL A   1      44.456  37.371  32.071  1.00  0.00     0.124 S 
ATOM     66  O   UNL A   1      44.257  38.079  30.809  1.00  0.00    -0.237 OA
ATOM     67  O   UNL A   1      43.443  37.614  33.095  1.00  0.00    -0.237 OA
ATOM     68  O   UNL A   1      45.834  37.339  32.557  1.00  0.00    -0.744 OA
ENDBRANCH  64  65
ENDBRANCH  45  59
BRANCH  46  69
ATOM     69  C   UNL A   1      42.353  23.583  27.675  1.00  0.00    -0.014 A 
ATOM     70  C   UNL A   1      42.259  23.372  26.289  1.00  0.00     0.010 A 
ATOM     71  C   UNL A   1      42.310  22.474  28.541  1.00  0.00     0.010 A 
ATOM     72  C   UNL A   1      42.140  22.075  25.779  1.00  0.00     0.020 A 
ATOM     73  C   UNL A   1      42.215  21.175  28.033  1.00  0.00     0.020 A 
ATOM     74  C   UNL A   1      42.131  20.984  26.653  1.00  0.00     0.054 A 
BRANCH  74  75
ATOM     75  S   UNL A   1      42.087  19.305  25.963  1.00  0.00     0.124 S 
ATOM     76  O   UNL A   1      42.973  19.427  24.810  1.00  0.00    -0.237 OA
ATOM     77  O   UNL A   1      42.593  18.496  27.069  1.00  0.00    -0.237 OA
ATOM     78  O   UNL A   1      40.675  19.101  25.650  1.00  0.00    -0.744 OA
ENDBRANCH  74  75
ENDBRANCH  46  69
BRANCH  58  79
ATOM     79  C   UNL A   1      48.011  27.399  29.237  1.00  0.00    -0.014 A 
ATOM     80  C   UNL A   1      48.792  27.629  28.092  1.00  0.00     0.010 A 
ATOM     81  C   UNL A   1      48.639  26.984  30.426  1.00  0.00     0.010 A 
ATOM     82  C   UNL A   1      50.176  27.441  28.134  1.00  0.00     0.020 A 
ATOM     83  C   UNL A   1      50.024  26.816  30.477  1.00  0.00     0.020 A 
ATOM     84  C   UNL A   1      50.784  27.039  29.328  1.00  0.00     0.054 A 
BRANCH  84  85
ATOM     85  S   UNL A   1      52.591  26.881  29.380  1.00  0.00     0.124 S 
ATOM     86  O   UNL A   1      53.012  28.269  29.547  1.00  0.00    -0.237 OA
ATOM     87  O   UNL A   1      52.805  26.016  30.537  1.00  0.00    -0.237 OA
ATOM     88  O   UNL A   1      52.923  26.280  28.090  1.00  0.00    -0.744 OA
ENDBRANCH  84  85
ENDBRANCH  58  79
ENDBRANCH  32  33
ENDBRANCH  25  27
ENDBRANCH  24  25
ENDBRANCH  23  24
ENDBRANCH   1  23
TORSDOF 17
ENDMDL
MODEL 2
REMARK VINA RESULT:     -10.5      3.460      6.501
REMARK SMILES O=C(CC1CC[NH+](C[C@H]2Cc3ccccc3O2)CC1)OCCOC(=O)c1ccc(-c2c3nc(c(-c4ccc(S(=O)(=O)[O-])cc4)c4ccc([nH]4)c(-c4ccc(S(=O)(=O)[O-])cc4)c4nc(c(-c5ccc(S(=O)(=O)[O-])cc5)c5ccc2[nH]5)C=C4)C=C3)cc1
REMARK SMILES IDX 21 1 20 2 2 3 1 4 3 5 4 6 5 7 19 8 6 9 18 10 7 11 8 13 9 14
REMARK SMILES IDX 10 15 17 16 11 17 16 18 12 19 15 20 13 21 14 22 22 23 23 24
REMARK SMILES IDX 24 25 25 26 26 27 27 28 85 29 28 30 84 31 29 32 30 33 31 34
REMARK SMILES IDX 78 35 32 36 83 37 77 38 79 39 33 40 82 41 76 42 75 43 34 45
REMARK SMILES IDX 64 46 45 47 63 48 46 49 49 50 62 51 80 52 47 53 48 54 61 56
REMARK SMILES IDX 81 57 50 58 35 59 36 60 44 61 37 62 43 63 38 64 39 65 40 66
REMARK SMILES IDX 41 67 42 68 65 69 66 70 74 71 67 72 73 73 68 74 69 75 70 76
REMARK SMILES IDX 71 77 72 78 51 79 52 80 60 81 53 82 59 83 54 84 55 85 56 86
REMARK SMILES IDX 57 87 58 88
REMARK H PARENT 7 12 79 44 49 55
REMARK Flexibility Score: inf
ROOT
ATOM      1  C   UNL A   1      34.054  34.079  29.082  1.00  0.00     0.274 C 
ENDROOT
BRANCH   1   2
ATOM      2  O   UNL A   1      33.657  35.313  28.458  1.00  0.00    -0.462 OA
BRANCH   2   3
ATOM      3  C   UNL A   1      32.995  36.307  29.096  1.00  0.00     0.306 C 
ATOM      4  O   UNL A   1      31.828  36.560  28.816  1.00  0.00    -0.252 OA
BRANCH   3   5
ATOM      5  C   UNL A   1      33.679  37.057  30.205  1.00  0.00     0.126 C 
BRANCH   5   6
ATOM      6  C   UNL A   1      33.048  36.901  31.600  1.00  0.00     0.011 C 
ATOM      7  C   UNL A   1      33.978  37.247  32.769  1.00  0.00     0.066 C 
ATOM      8  C   UNL A   1      32.382  35.537  31.843  1.00  0.00     0.066 C 
ATOM      9  C   UNL A   1      34.900  36.098  33.200  1.00  0.00     0.262 C 
ATOM     10  C   UNL A   1      33.336  34.444  32.331  1.00  0.00     0.262 C 
ATOM     11  N   UNL A   1      34.155  34.869  33.463  1.00  0.00    -0.332 N 
ATOM     12  H   UNL A   1      33.489  35.096  34.202  1.00  0.00     0.348 HD
BRANCH  11  13
ATOM     13  C   UNL A   1      35.001  33.793  34.024  1.00  0.00     0.308 C 
BRANCH  13  14
ATOM     14  C   UNL A   1      36.185  33.117  33.270  1.00  0.00     0.232 C 
ATOM     15  C   UNL A   1      35.914  32.638  31.833  1.00  0.00     0.090 C 
ATOM     16  O   UNL A   1      37.395  33.918  33.318  1.00  0.00    -0.484 OA
ATOM     17  C   UNL A   1      37.032  33.292  31.120  1.00  0.00    -0.002 A 
ATOM     18  C   UNL A   1      37.834  33.971  32.021  1.00  0.00     0.123 A 
ATOM     19  C   UNL A   1      37.313  33.310  29.763  1.00  0.00     0.007 A 
ATOM     20  C   UNL A   1      38.951  34.673  31.612  1.00  0.00     0.047 A 
ATOM     21  C   UNL A   1      38.428  34.032  29.327  1.00  0.00     0.001 A 
ATOM     22  C   UNL A   1      39.244  34.709  30.247  1.00  0.00     0.004 A 
ENDBRANCH  13  14
ENDBRANCH  11  13
ENDBRANCH   5   6
ENDBRANCH   3   5
ENDBRANCH   2   3
ENDBRANCH   1   2
BRANCH   1  23
ATOM     23  C   UNL A   1      34.332  32.997  28.039  1.00  0.00     0.275 C 
BRANCH  23  24
ATOM     24  O   UNL A   1      34.260  31.694  28.638  1.00  0.00    -0.458 OA
BRANCH  24  25
ATOM     25  C   UNL A   1      34.520  30.657  27.795  1.00  0.00     0.338 C 
ATOM     26  O   UNL A   1      33.859  30.311  26.830  1.00  0.00    -0.246 OA
BRANCH  25  27
ATOM     27  C   UNL A   1      35.833  30.084  28.148  1.00  0.00     0.060 A 
ATOM     28  C   UNL A   1      36.043  29.652  29.464  1.00  0.00     0.016 A 
ATOM     29  C   UNL A   1      36.846  29.967  27.195  1.00  0.00     0.016 A 
ATOM     30  C   UNL A   1      37.265  29.094  29.835  1.00  0.00     0.010 A 
ATOM     31  C   UNL A   1      38.078  29.433  27.571  1.00  0.00     0.010 A 
ATOM     32  C   UNL A   1      38.297  29.011  28.895  1.00  0.00    -0.014 A 
BRANCH  32  33
ATOM     33  C   UNL A   1      39.669  28.645  29.305  1.00  0.00     0.031 A 
ATOM     34  C   UNL A   1      40.503  29.692  29.983  1.00  0.00     0.074 A 
ATOM     35  C   UNL A   1      40.182  27.438  29.017  1.00  0.00     0.049 A 
ATOM     36  N   UNL A   1      41.785  29.699  30.228  1.00  0.00    -0.248 NA
ATOM     37  C   UNL A   1      39.790  30.900  30.428  1.00  0.00     0.031 C 
ATOM     38  C   UNL A   1      39.446  26.327  28.418  1.00  0.00     0.029 A 
ATOM     39  N   UNL A   1      41.461  26.962  29.161  1.00  0.00    -0.354 N 
ATOM     40  C   UNL A   1      42.044  30.930  30.819  1.00  0.00     0.074 A 
ATOM     41  C   UNL A   1      40.785  31.639  30.896  1.00  0.00     0.031 C 
ATOM     42  C   UNL A   1      40.297  25.308  28.209  1.00  0.00     0.029 A 
ATOM     43  C   UNL A   1      41.643  25.717  28.611  1.00  0.00     0.049 A 
ATOM     44  H   UNL A   1      42.177  27.464  29.612  1.00  0.00     0.167 HD
ATOM     45  C   UNL A   1      43.229  31.430  31.239  1.00  0.00     0.031 A 
ATOM     46  C   UNL A   1      42.773  25.011  28.407  1.00  0.00     0.031 A 
ATOM     47  C   UNL A   1      44.475  30.721  31.133  1.00  0.00     0.049 A 
ATOM     48  C   UNL A   1      44.092  25.600  28.832  1.00  0.00     0.074 A 
ATOM     49  C   UNL A   1      45.736  31.131  31.524  1.00  0.00     0.029 A 
ATOM     50  N   UNL A   1      44.614  29.453  30.587  1.00  0.00    -0.354 N 
ATOM     51  N   UNL A   1      44.332  26.768  29.382  1.00  0.00    -0.248 NA
ATOM     52  C   UNL A   1      45.292  24.783  28.606  1.00  0.00     0.031 C 
ATOM     53  C   UNL A   1      46.646  30.129  31.169  1.00  0.00     0.029 A 
ATOM     54  C   UNL A   1      45.944  29.072  30.609  1.00  0.00     0.049 A 
ATOM     55  H   UNL A   1      43.876  28.906  30.235  1.00  0.00     0.167 HD
ATOM     56  C   UNL A   1      45.707  26.817  29.588  1.00  0.00     0.074 A 
ATOM     57  C   UNL A   1      46.245  25.560  29.107  1.00  0.00     0.031 C 
ATOM     58  C   UNL A   1      46.455  27.812  30.128  1.00  0.00     0.031 A 
BRANCH  45  59
ATOM     59  C   UNL A   1      43.224  32.838  31.770  1.00  0.00    -0.014 A 
ATOM     60  C   UNL A   1      43.353  33.948  30.916  1.00  0.00     0.010 A 
ATOM     61  C   UNL A   1      43.130  33.048  33.157  1.00  0.00     0.010 A 
ATOM     62  C   UNL A   1      43.456  35.237  31.445  1.00  0.00     0.020 A 
ATOM     63  C   UNL A   1      43.204  34.338  33.689  1.00  0.00     0.020 A 
ATOM     64  C   UNL A   1      43.396  35.422  32.830  1.00  0.00     0.054 A 
BRANCH  64  65
ATOM     65  S   UNL A   1      43.573  37.099  33.498  1.00  0.00     0.124 S 
ATOM     66  O   UNL A   1      42.321  37.262  34.233  1.00  0.00    -0.237 OA
ATOM     67  O   UNL A   1      44.775  36.995  34.320  1.00  0.00    -0.237 OA
ATOM     68  O   UNL A   1      43.708  37.933  32.305  1.00  0.00    -0.744 OA
ENDBRANCH  64  65
ENDBRANCH  45  59
BRANCH  46  69
ATOM     69  C   UNL A   1      42.694  23.693  27.723  1.00  0.00    -0.014 A 
ATOM     70  C   UNL A   1      42.993  23.573  26.355  1.00  0.00     0.010 A 
ATOM     71  C   UNL A   1      42.383  22.534  28.459  1.00  0.00     0.010 A 
ATOM     72  C   UNL A   1      42.995  22.317  25.740  1.00  0.00     0.020 A 
ATOM     73  C   UNL A   1      42.407  21.274  27.853  1.00  0.00     0.020 A 
ATOM     74  C   UNL A   1      42.713  21.175  26.495  1.00  0.00     0.054 A 
BRANCH  74  75
ATOM     75  S   UNL A   1      42.830  19.545  25.701  1.00  0.00     0.124 S 
ATOM     76  O   UNL A   1      41.446  19.296  25.314  1.00  0.00    -0.237 OA
ATOM     77  O   UNL A   1      43.761  19.795  24.604  1.00  0.00    -0.237 OA
ATOM     78  O   UNL A   1      43.349  18.686  26.762  1.00  0.00    -0.744 OA
ENDBRANCH  74  75
ENDBRANCH  46  69
BRANCH  58  79
ATOM     79  C   UNL A   1      47.934  27.577  30.268  1.00  0.00    -0.014 A 
ATOM     80  C   UNL A   1      48.466  26.926  31.393  1.00  0.00     0.010 A 
ATOM     81  C   UNL A   1      48.789  27.922  29.205  1.00  0.00     0.010 A 
ATOM     82  C   UNL A   1      49.830  26.630  31.457  1.00  0.00     0.020 A 
ATOM     83  C   UNL A   1      50.149  27.609  29.256  1.00  0.00     0.020 A 
ATOM     84  C   UNL A   1      50.663  26.970  30.386  1.00  0.00     0.054 A 
BRANCH  84  85
ATOM     85  S   UNL A   1      52.415  26.503  30.455  1.00  0.00     0.124 S 
ATOM     86  O   UNL A   1      53.036  27.731  30.944  1.00  0.00    -0.237 OA
ATOM     87  O   UNL A   1      52.412  25.383  31.393  1.00  0.00    -0.237 OA
ATOM     88  O   UNL A   1      52.733  26.150  29.073  1.00  0.00    -0.744 OA
ENDBRANCH  84  85
ENDBRANCH  58  79
ENDBRANCH  32  33
ENDBRANCH  25  27
ENDBRANCH  24  25
ENDBRANCH  23  24
ENDBRANCH   1  23
TORSDOF 17
ENDMDL
MODEL 3
REMARK VINA RESULT:     -10.4      4.379      7.115
REMARK SMILES O=C(CC1CC[NH+](C[C@H]2Cc3ccccc3O2)CC1)OCCOC(=O)c1ccc(-c2c3nc(c(-c4ccc(S(=O)(=O)[O-])cc4)c4ccc([nH]4)c(-c4ccc(S(=O)(=O)[O-])cc4)c4nc(c(-c5ccc(S(=O)(=O)[O-])cc5)c5ccc2[nH]5)C=C4)C=C3)cc1
REMARK SMILES IDX 21 1 20 2 2 3 1 4 3 5 4 6 5 7 19 8 6 9 18 10 7 11 8 13 9 14
REMARK SMILES IDX 10 15 17 16 11 17 16 18 12 19 15 20 13 21 14 22 22 23 23 24
REMARK SMILES IDX 24 25 25 26 26 27 27 28 85 29 28 30 84 31 29 32 30 33 31 34
REMARK SMILES IDX 78 35 32 36 83 37 77 38 79 39 33 40 82 41 76 42 75 43 34 45
REMARK SMILES IDX 64 46 45 47 63 48 46 49 49 50 62 51 80 52 47 53 48 54 61 56
REMARK SMILES IDX 81 57 50 58 35 59 36 60 44 61 37 62 43 63 38 64 39 65 40 66
REMARK SMILES IDX 41 67 42 68 65 69 66 70 74 71 67 72 73 73 68 74 69 75 70 76
REMARK SMILES IDX 71 77 72 78 51 79 52 80 60 81 53 82 59 83 54 84 55 85 56 86
REMARK SMILES IDX 57 87 58 88
REMARK H PARENT 7 12 79 44 49 55
REMARK Flexibility Score: inf
ROOT
ATOM      1  C   UNL A   1      34.137  33.909  28.895  1.00  0.00     0.274 C 
ENDROOT
BRANCH   1   2
ATOM      2  O   UNL A   1      32.922  34.572  29.287  1.00  0.00    -0.462 OA
BRANCH   2   3
ATOM      3  C   UNL A   1      32.760  35.916  29.294  1.00  0.00     0.306 C 
ATOM      4  O   UNL A   1      31.936  36.449  28.558  1.00  0.00    -0.252 OA
BRANCH   3   5
ATOM      5  C   UNL A   1      33.549  36.750  30.263  1.00  0.00     0.126 C 
BRANCH   5   6
ATOM      6  C   UNL A   1      33.015  36.775  31.706  1.00  0.00     0.011 C 
ATOM      7  C   UNL A   1      34.031  37.231  32.760  1.00  0.00     0.066 C 
ATOM      8  C   UNL A   1      32.344  35.467  32.154  1.00  0.00     0.066 C 
ATOM      9  C   UNL A   1      34.961  36.117  33.260  1.00  0.00     0.262 C 
ATOM     10  C   UNL A   1      33.310  34.414  32.702  1.00  0.00     0.262 C 
ATOM     11  N   UNL A   1      34.215  34.947  33.718  1.00  0.00    -0.332 N 
ATOM     12  H   UNL A   1      33.607  35.277  34.468  1.00  0.00     0.348 HD
BRANCH  11  13
ATOM     13  C   UNL A   1      35.078  33.923  34.344  1.00  0.00     0.308 C 
BRANCH  13  14
ATOM     14  C   UNL A   1      36.236  33.177  33.614  1.00  0.00     0.232 C 
ATOM     15  C   UNL A   1      35.929  32.615  32.214  1.00  0.00     0.090 C 
ATOM     16  O   UNL A   1      37.461  33.957  33.590  1.00  0.00    -0.484 OA
ATOM     17  C   UNL A   1      37.047  33.201  31.443  1.00  0.00    -0.002 A 
ATOM     18  C   UNL A   1      37.877  33.919  32.285  1.00  0.00     0.123 A 
ATOM     19  C   UNL A   1      37.302  33.129  30.082  1.00  0.00     0.007 A 
ATOM     20  C   UNL A   1      38.999  34.573  31.814  1.00  0.00     0.047 A 
ATOM     21  C   UNL A   1      38.422  33.801  29.583  1.00  0.00     0.001 A 
ATOM     22  C   UNL A   1      39.268  34.517  30.444  1.00  0.00     0.004 A 
ENDBRANCH  13  14
ENDBRANCH  11  13
ENDBRANCH   5   6
ENDBRANCH   3   5
ENDBRANCH   2   3
ENDBRANCH   1   2
BRANCH   1  23
ATOM     23  C   UNL A   1      33.843  32.676  28.040  1.00  0.00     0.275 C 
BRANCH  23  24
ATOM     24  O   UNL A   1      35.062  31.989  27.717  1.00  0.00    -0.458 OA
BRANCH  24  25
ATOM     25  C   UNL A   1      34.985  30.630  27.759  1.00  0.00     0.338 C 
ATOM     26  O   UNL A   1      34.082  29.931  27.330  1.00  0.00    -0.246 OA
BRANCH  25  27
ATOM     27  C   UNL A   1      36.258  30.106  28.290  1.00  0.00     0.060 A 
ATOM     28  C   UNL A   1      36.260  29.508  29.557  1.00  0.00     0.016 A 
ATOM     29  C   UNL A   1      37.437  30.195  27.548  1.00  0.00     0.016 A 
ATOM     30  C   UNL A   1      37.440  28.990  30.088  1.00  0.00     0.010 A 
ATOM     31  C   UNL A   1      38.623  29.700  28.090  1.00  0.00     0.010 A 
ATOM     32  C   UNL A   1      38.631  29.112  29.367  1.00  0.00    -0.014 A 
BRANCH  32  33
ATOM     33  C   UNL A   1      39.932  28.788  29.990  1.00  0.00     0.031 A 
ATOM     34  C   UNL A   1      40.411  29.661  31.112  1.00  0.00     0.074 A 
ATOM     35  C   UNL A   1      40.697  27.789  29.523  1.00  0.00     0.049 A 
ATOM     36  N   UNL A   1      41.594  29.731  31.661  1.00  0.00    -0.248 NA
ATOM     37  C   UNL A   1      39.421  30.593  31.677  1.00  0.00     0.031 C 
ATOM     38  C   UNL A   1      40.308  26.841  28.481  1.00  0.00     0.029 A 
ATOM     39  N   UNL A   1      41.982  27.432  29.846  1.00  0.00    -0.354 N 
ATOM     40  C   UNL A   1      41.504  30.743  32.609  1.00  0.00     0.074 A 
ATOM     41  C   UNL A   1      40.152  31.255  32.559  1.00  0.00     0.031 C 
ATOM     42  C   UNL A   1      41.349  26.031  28.222  1.00  0.00     0.029 A 
ATOM     43  C   UNL A   1      42.489  26.440  29.041  1.00  0.00     0.049 A 
ATOM     44  H   UNL A   1      42.491  27.846  30.580  1.00  0.00     0.167 HD
ATOM     45  C   UNL A   1      42.471  31.216  33.430  1.00  0.00     0.031 A 
ATOM     46  C   UNL A   1      43.744  25.956  28.942  1.00  0.00     0.031 A 
ATOM     47  C   UNL A   1      43.817  30.712  33.449  1.00  0.00     0.049 A 
ATOM     48  C   UNL A   1      44.822  26.525  29.825  1.00  0.00     0.074 A 
ATOM     49  C   UNL A   1      44.878  31.116  34.237  1.00  0.00     0.029 A 
ATOM     50  N   UNL A   1      44.286  29.693  32.631  1.00  0.00    -0.354 N 
ATOM     51  N   UNL A   1      44.734  27.488  30.712  1.00  0.00    -0.248 NA
ATOM     52  C   UNL A   1      46.167  25.949  29.691  1.00  0.00     0.031 C 
ATOM     53  C   UNL A   1      46.003  30.373  33.861  1.00  0.00     0.029 A 
ATOM     54  C   UNL A   1      45.628  29.468  32.879  1.00  0.00     0.049 A 
ATOM     55  H   UNL A   1      43.744  29.202  31.972  1.00  0.00     0.167 HD
ATOM     56  C   UNL A   1      46.007  27.620  31.259  1.00  0.00     0.074 A 
ATOM     57  C   UNL A   1      46.845  26.635  30.605  1.00  0.00     0.031 C 
ATOM     58  C   UNL A   1      46.441  28.477  32.217  1.00  0.00     0.031 A 
BRANCH  45  59
ATOM     59  C   UNL A   1      42.109  32.386  34.304  1.00  0.00    -0.014 A 
ATOM     60  C   UNL A   1      41.597  32.205  35.601  1.00  0.00     0.010 A 
ATOM     61  C   UNL A   1      42.247  33.690  33.797  1.00  0.00     0.010 A 
ATOM     62  C   UNL A   1      41.166  33.304  36.349  1.00  0.00     0.020 A 
ATOM     63  C   UNL A   1      41.844  34.794  34.552  1.00  0.00     0.020 A 
ATOM     64  C   UNL A   1      41.278  34.591  35.813  1.00  0.00     0.054 A 
BRANCH  64  65
ATOM     65  S   UNL A   1      40.676  36.000  36.784  1.00  0.00     0.124 S 
ATOM     66  O   UNL A   1      40.005  35.332  37.897  1.00  0.00    -0.237 OA
ATOM     67  O   UNL A   1      41.907  36.707  37.126  1.00  0.00    -0.237 OA
ATOM     68  O   UNL A   1      39.793  36.705  35.857  1.00  0.00    -0.744 OA
ENDBRANCH  64  65
ENDBRANCH  45  59
BRANCH  46  69
ATOM     69  C   UNL A   1      44.040  24.909  27.928  1.00  0.00    -0.014 A 
ATOM     70  C   UNL A   1      44.005  23.546  28.270  1.00  0.00     0.010 A 
ATOM     71  C   UNL A   1      44.295  25.272  26.592  1.00  0.00     0.010 A 
ATOM     72  C   UNL A   1      44.206  22.567  27.291  1.00  0.00     0.020 A 
ATOM     73  C   UNL A   1      44.472  24.296  25.607  1.00  0.00     0.020 A 
ATOM     74  C   UNL A   1      44.426  22.947  25.965  1.00  0.00     0.054 A 
BRANCH  74  75
ATOM     75  S   UNL A   1      44.573  21.659  24.693  1.00  0.00     0.124 S 
ATOM     76  O   UNL A   1      44.408  22.425  23.463  1.00  0.00    -0.237 OA
ATOM     77  O   UNL A   1      45.913  21.128  24.936  1.00  0.00    -0.237 OA
ATOM     78  O   UNL A   1      43.483  20.740  25.012  1.00  0.00    -0.744 OA
ENDBRANCH  74  75
ENDBRANCH  46  69
BRANCH  58  79
ATOM     79  C   UNL A   1      47.877  28.371  32.651  1.00  0.00    -0.014 A 
ATOM     80  C   UNL A   1      48.273  27.460  33.645  1.00  0.00     0.010 A 
ATOM     81  C   UNL A   1      48.857  29.123  31.977  1.00  0.00     0.010 A 
ATOM     82  C   UNL A   1      49.626  27.308  33.962  1.00  0.00     0.020 A 
ATOM     83  C   UNL A   1      50.210  28.958  32.278  1.00  0.00     0.020 A 
ATOM     84  C   UNL A   1      50.586  28.056  33.274  1.00  0.00     0.054 A 
BRANCH  84  85
ATOM     85  S   UNL A   1      52.341  27.782  33.646  1.00  0.00     0.124 S 
ATOM     86  O   UNL A   1      52.369  27.927  35.099  1.00  0.00    -0.237 OA
ATOM     87  O   UNL A   1      52.569  26.429  33.145  1.00  0.00    -0.237 OA
ATOM     88  O   UNL A   1      53.021  28.839  32.901  1.00  0.00    -0.744 OA
ENDBRANCH  84  85
ENDBRANCH  58  79
ENDBRANCH  32  33
ENDBRANCH  25  27
ENDBRANCH  24  25
ENDBRANCH  23  24
ENDBRANCH   1  23
TORSDOF 17
ENDMDL
