MODEL 1
REMARK VINA RESULT:     -12.0      0.000      0.000
REMARK SMILES COc1cccc([C@@H]2[NH2+][C@@](C)(C(=O)OCCOC(=O)c3ccc(-c4c5nc(c(-c6ccc(S(=O)(=O)[O-])cc6)c6ccc([nH]6)c(-c6ccc(S(=O)(=O)[O-])cc6)c6nc(c(-c7ccc(S(=O)(=O)[O-])cc7)c7ccc4[nH]7)C=C6)C=C5)cc3)[C@@H]3C(=O)N(C)C(=O)[C@@H]32)c1O
REMARK SMILES IDX 16 1 15 2 14 3 12 4 13 5 10 6 8 7 9 8 87 9 80 12 85 13 11 14
REMARK SMILES IDX 81 15 83 16 86 17 82 18 84 19 7 20 3 21 4 22 88 23 5 24 6 25
REMARK SMILES IDX 2 26 1 27 89 28 17 30 18 31 19 32 20 33 21 34 79 35 22 36
REMARK SMILES IDX 78 37 23 38 24 39 25 40 72 41 26 42 77 43 71 44 73 45 27 46
REMARK SMILES IDX 76 47 70 48 69 49 28 51 58 52 39 53 57 54 40 55 43 56 56 57
REMARK SMILES IDX 74 58 41 59 42 60 55 62 75 63 44 64 29 65 30 66 38 67 31 68
REMARK SMILES IDX 37 69 32 70 33 71 34 72 35 73 36 74 59 75 60 76 68 77 61 78
REMARK SMILES IDX 67 79 62 80 63 81 64 82 65 83 66 84 45 85 46 86 54 87 47 88
REMARK SMILES IDX 53 89 48 90 49 91 50 92 51 93 52 94
REMARK H PARENT 9 10 9 11 89 29 73 50 43 61
REMARK Flexibility Score: inf
ROOT
ATOM      1  C   UNL A   1      33.149  28.766  26.244  1.00  0.00     0.275 C 
ENDROOT
BRANCH   1   2
ATOM      2  C   UNL A   1      31.798  28.052  26.242  1.00  0.00     0.274 C 
BRANCH   2   3
ATOM      3  O   UNL A   1      31.777  27.004  25.251  1.00  0.00    -0.457 OA
BRANCH   3   4
ATOM      4  C   UNL A   1      31.532  25.752  25.725  1.00  0.00     0.368 C 
ATOM      5  O   UNL A   1      31.070  25.527  26.842  1.00  0.00    -0.245 OA
BRANCH   4   6
ATOM      6  C   UNL A   1      31.908  24.605  24.744  1.00  0.00     0.204 C 
ATOM      7  C   UNL A   1      32.258  22.382  25.656  1.00  0.00     0.232 C 
ATOM      8  N   UNL A   1      31.241  23.312  25.097  1.00  0.00    -0.325 N 
ATOM      9  C   UNL A   1      33.506  23.228  25.902  1.00  0.00     0.161 C 
ATOM     10  H   UNL A   1      30.514  23.481  25.792  1.00  0.00     0.347 HD
ATOM     11  H   UNL A   1      30.819  22.901  24.265  1.00  0.00     0.347 HD
ATOM     12  C   UNL A   1      33.401  24.377  24.916  1.00  0.00     0.170 C 
ATOM     13  C   UNL A   1      34.837  22.624  25.559  1.00  0.00     0.239 C 
ATOM     14  C   UNL A   1      31.448  25.123  23.377  1.00  0.00     0.093 C 
ATOM     15  C   UNL A   1      34.280  23.932  23.777  1.00  0.00     0.240 C 
ATOM     16  N   UNL A   1      35.184  23.044  24.303  1.00  0.00    -0.285 N 
ATOM     17  O   UNL A   1      35.467  21.874  26.289  1.00  0.00    -0.274 OA
ATOM     18  O   UNL A   1      34.262  24.373  22.639  1.00  0.00    -0.274 OA
ATOM     19  C   UNL A   1      36.375  22.586  23.629  1.00  0.00     0.156 C 
BRANCH   7  20
ATOM     20  C   UNL A   1      32.495  21.109  24.854  1.00  0.00     0.056 A 
ATOM     21  C   UNL A   1      32.781  18.691  24.656  1.00  0.00     0.161 A 
ATOM     22  C   UNL A   1      32.543  18.741  23.289  1.00  0.00     0.050 A 
ATOM     23  C   UNL A   1      32.817  19.868  25.413  1.00  0.00     0.166 A 
ATOM     24  C   UNL A   1      32.289  19.972  22.692  1.00  0.00     0.005 A 
ATOM     25  C   UNL A   1      32.248  21.138  23.467  1.00  0.00     0.014 A 
BRANCH  21  26
ATOM     26  O   UNL A   1      33.009  17.477  25.251  1.00  0.00    -0.493 OA
ATOM     27  C   UNL A   1      33.288  16.466  24.272  1.00  0.00     0.278 C 
ENDBRANCH  21  26
BRANCH  23  28
ATOM     28  O   UNL A   1      33.177  19.786  26.726  1.00  0.00    -0.504 OA
ATOM     29  H   UNL A   1      32.569  19.460  27.360  1.00  0.00     0.293 HD
ENDBRANCH  23  28
ENDBRANCH   7  20
ENDBRANCH   4   6
ENDBRANCH   3   4
ENDBRANCH   2   3
ENDBRANCH   1   2
BRANCH   1  30
ATOM     30  O   UNL A   1      33.603  28.917  27.599  1.00  0.00    -0.458 OA
BRANCH  30  31
ATOM     31  C   UNL A   1      34.171  30.106  27.906  1.00  0.00     0.338 C 
ATOM     32  O   UNL A   1      33.585  31.178  28.012  1.00  0.00    -0.246 OA
BRANCH  31  33
ATOM     33  C   UNL A   1      35.623  29.937  28.164  1.00  0.00     0.060 A 
ATOM     34  C   UNL A   1      36.566  30.112  27.150  1.00  0.00     0.016 A 
ATOM     35  C   UNL A   1      36.053  29.494  29.415  1.00  0.00     0.016 A 
ATOM     36  C   UNL A   1      37.894  29.724  27.344  1.00  0.00     0.010 A 
ATOM     37  C   UNL A   1      37.411  29.231  29.643  1.00  0.00     0.010 A 
ATOM     38  C   UNL A   1      38.352  29.304  28.600  1.00  0.00    -0.014 A 
BRANCH  38  39
ATOM     39  C   UNL A   1      39.785  28.935  28.836  1.00  0.00     0.031 A 
ATOM     40  C   UNL A   1      40.754  29.946  29.408  1.00  0.00     0.074 A 
ATOM     41  C   UNL A   1      40.257  27.708  28.522  1.00  0.00     0.049 A 
ATOM     42  N   UNL A   1      42.064  29.940  29.383  1.00  0.00    -0.248 NA
ATOM     43  C   UNL A   1      40.175  31.128  30.064  1.00  0.00     0.031 C 
ATOM     44  C   UNL A   1      39.466  26.589  28.004  1.00  0.00     0.029 A 
ATOM     45  N   UNL A   1      41.532  27.194  28.598  1.00  0.00    -0.354 N 
ATOM     46  C   UNL A   1      42.460  31.160  29.922  1.00  0.00     0.074 A 
ATOM     47  C   UNL A   1      41.252  31.869  30.289  1.00  0.00     0.031 C 
ATOM     48  C   UNL A   1      40.253  25.511  27.872  1.00  0.00     0.029 A 
ATOM     49  C   UNL A   1      41.628  25.890  28.170  1.00  0.00     0.049 A 
ATOM     50  H   UNL A   1      42.302  27.712  28.926  1.00  0.00     0.167 HD
ATOM     51  C   UNL A   1      43.715  31.650  30.085  1.00  0.00     0.031 A 
ATOM     52  C   UNL A   1      42.697  25.094  27.971  1.00  0.00     0.031 A 
ATOM     53  C   UNL A   1      44.920  30.908  29.812  1.00  0.00     0.049 A 
ATOM     54  C   UNL A   1      44.078  25.644  28.171  1.00  0.00     0.074 A 
ATOM     55  C   UNL A   1      46.235  31.313  29.967  1.00  0.00     0.029 A 
ATOM     56  N   UNL A   1      44.958  29.597  29.366  1.00  0.00    -0.354 N 
ATOM     57  N   UNL A   1      44.436  26.842  28.563  1.00  0.00    -0.248 NA
ATOM     58  C   UNL A   1      45.199  24.744  27.865  1.00  0.00     0.031 C 
ATOM     59  C   UNL A   1      47.069  30.253  29.593  1.00  0.00     0.029 A 
ATOM     60  C   UNL A   1      46.272  29.176  29.241  1.00  0.00     0.049 A 
ATOM     61  H   UNL A   1      44.167  29.044  29.167  1.00  0.00     0.167 HD
ATOM     62  C   UNL A   1      45.825  26.845  28.539  1.00  0.00     0.074 A 
ATOM     63  C   UNL A   1      46.242  25.521  28.126  1.00  0.00     0.031 C 
ATOM     64  C   UNL A   1      46.676  27.861  28.820  1.00  0.00     0.031 A 
BRANCH  51  65
ATOM     65  C   UNL A   1      43.858  33.079  30.540  1.00  0.00    -0.014 A 
ATOM     66  C   UNL A   1      43.992  33.417  31.896  1.00  0.00     0.010 A 
ATOM     67  C   UNL A   1      43.914  34.101  29.571  1.00  0.00     0.010 A 
ATOM     68  C   UNL A   1      44.143  34.755  32.278  1.00  0.00     0.020 A 
ATOM     69  C   UNL A   1      44.089  35.435  29.947  1.00  0.00     0.020 A 
ATOM     70  C   UNL A   1      44.184  35.756  31.302  1.00  0.00     0.054 A 
BRANCH  70  71
ATOM     71  S   UNL A   1      44.407  37.481  31.818  1.00  0.00     0.124 S 
ATOM     72  O   UNL A   1      43.492  37.576  32.953  1.00  0.00    -0.237 OA
ATOM     73  O   UNL A   1      45.828  37.538  32.153  1.00  0.00    -0.237 OA
ATOM     74  O   UNL A   1      44.019  38.249  30.637  1.00  0.00    -0.744 OA
ENDBRANCH  70  71
ENDBRANCH  51  65
BRANCH  52  75
ATOM     75  C   UNL A   1      42.493  23.704  27.482  1.00  0.00    -0.014 A 
ATOM     76  C   UNL A   1      42.639  23.403  26.118  1.00  0.00     0.010 A 
ATOM     77  C   UNL A   1      42.202  22.667  28.388  1.00  0.00     0.010 A 
ATOM     78  C   UNL A   1      42.509  22.085  25.669  1.00  0.00     0.020 A 
ATOM     79  C   UNL A   1      42.100  21.346  27.947  1.00  0.00     0.020 A 
ATOM     80  C   UNL A   1      42.249  21.064  26.588  1.00  0.00     0.054 A 
BRANCH  80  81
ATOM     81  S   UNL A   1      42.187  19.346  26.008  1.00  0.00     0.124 S 
ATOM     82  O   UNL A   1      43.065  19.388  24.844  1.00  0.00    -0.237 OA
ATOM     83  O   UNL A   1      42.694  18.599  27.158  1.00  0.00    -0.237 OA
ATOM     84  O   UNL A   1      40.769  19.139  25.720  1.00  0.00    -0.744 OA
ENDBRANCH  80  81
ENDBRANCH  52  75
BRANCH  64  85
ATOM     85  C   UNL A   1      48.146  27.572  28.702  1.00  0.00    -0.014 A 
ATOM     86  C   UNL A   1      48.854  26.996  29.771  1.00  0.00     0.010 A 
ATOM     87  C   UNL A   1      48.820  27.853  27.500  1.00  0.00     0.010 A 
ATOM     88  C   UNL A   1      50.221  26.733  29.652  1.00  0.00     0.020 A 
ATOM     89  C   UNL A   1      50.183  27.574  27.371  1.00  0.00     0.020 A 
ATOM     90  C   UNL A   1      50.878  27.030  28.454  1.00  0.00     0.054 A 
BRANCH  90  91
ATOM     91  S   UNL A   1      52.648  26.656  28.308  1.00  0.00     0.124 S 
ATOM     92  O   UNL A   1      53.194  27.938  27.873  1.00  0.00    -0.237 OA
ATOM     93  O   UNL A   1      53.006  26.247  29.664  1.00  0.00    -0.237 OA
ATOM     94  O   UNL A   1      52.693  25.589  27.311  1.00  0.00    -0.744 OA
ENDBRANCH  90  91
ENDBRANCH  64  85
ENDBRANCH  38  39
ENDBRANCH  31  33
ENDBRANCH  30  31
ENDBRANCH   1  30
TORSDOF 17
ENDMDL
MODEL 2
REMARK VINA RESULT:     -11.7      3.783      9.965
REMARK SMILES COc1cccc([C@@H]2[NH2+][C@@](C)(C(=O)OCCOC(=O)c3ccc(-c4c5nc(c(-c6ccc(S(=O)(=O)[O-])cc6)c6ccc([nH]6)c(-c6ccc(S(=O)(=O)[O-])cc6)c6nc(c(-c7ccc(S(=O)(=O)[O-])cc7)c7ccc4[nH]7)C=C6)C=C5)cc3)[C@@H]3C(=O)N(C)C(=O)[C@@H]32)c1O
REMARK SMILES IDX 16 1 15 2 14 3 12 4 13 5 10 6 8 7 9 8 87 9 80 12 85 13 11 14
REMARK SMILES IDX 81 15 83 16 86 17 82 18 84 19 7 20 3 21 4 22 88 23 5 24 6 25
REMARK SMILES IDX 2 26 1 27 89 28 17 30 18 31 19 32 20 33 21 34 79 35 22 36
REMARK SMILES IDX 78 37 23 38 24 39 25 40 72 41 26 42 77 43 71 44 73 45 27 46
REMARK SMILES IDX 76 47 70 48 69 49 28 51 58 52 39 53 57 54 40 55 43 56 56 57
REMARK SMILES IDX 74 58 41 59 42 60 55 62 75 63 44 64 29 65 30 66 38 67 31 68
REMARK SMILES IDX 37 69 32 70 33 71 34 72 35 73 36 74 59 75 60 76 68 77 61 78
REMARK SMILES IDX 67 79 62 80 63 81 64 82 65 83 66 84 45 85 46 86 54 87 47 88
REMARK SMILES IDX 53 89 48 90 49 91 50 92 51 93 52 94
REMARK H PARENT 9 10 9 11 89 29 73 50 43 61
REMARK Flexibility Score: inf
ROOT
ATOM      1  C   UNL A   1      36.816  21.949  25.525  1.00  0.00     0.275 C 
ENDROOT
BRANCH   1   2
ATOM      2  C   UNL A   1      35.830  21.876  24.361  1.00  0.00     0.274 C 
BRANCH   2   3
ATOM      3  O   UNL A   1      34.620  22.597  24.671  1.00  0.00    -0.457 OA
BRANCH   3   4
ATOM      4  C   UNL A   1      34.276  23.573  23.787  1.00  0.00     0.368 C 
ATOM      5  O   UNL A   1      34.968  23.889  22.820  1.00  0.00    -0.245 OA
BRANCH   4   6
ATOM      6  C   UNL A   1      32.933  24.290  24.107  1.00  0.00     0.204 C 
ATOM      7  C   UNL A   1      32.493  26.430  23.048  1.00  0.00     0.232 C 
ATOM      8  N   UNL A   1      32.343  24.958  22.905  1.00  0.00    -0.325 N 
ATOM      9  C   UNL A   1      33.439  26.639  24.228  1.00  0.00     0.161 C 
ATOM     10  H   UNL A   1      32.832  24.645  22.066  1.00  0.00     0.347 HD
ATOM     11  H   UNL A   1      31.355  24.718  22.826  1.00  0.00     0.347 HD
ATOM     12  C   UNL A   1      33.274  25.401  25.089  1.00  0.00     0.170 C 
ATOM     13  C   UNL A   1      33.122  27.749  25.188  1.00  0.00     0.239 C 
ATOM     14  C   UNL A   1      32.032  23.168  24.631  1.00  0.00     0.093 C 
ATOM     15  C   UNL A   1      32.310  25.851  26.156  1.00  0.00     0.240 C 
ATOM     16  N   UNL A   1      32.433  27.214  26.244  1.00  0.00    -0.285 N 
ATOM     17  O   UNL A   1      33.424  28.921  25.019  1.00  0.00    -0.274 OA
ATOM     18  O   UNL A   1      31.646  25.125  26.877  1.00  0.00    -0.274 OA
ATOM     19  C   UNL A   1      31.902  28.020  27.317  1.00  0.00     0.156 C 
BRANCH   7  20
ATOM     20  C   UNL A   1      31.192  27.219  23.123  1.00  0.00     0.056 A 
ATOM     21  C   UNL A   1      29.735  29.069  22.473  1.00  0.00     0.161 A 
ATOM     22  C   UNL A   1      28.624  28.424  22.998  1.00  0.00     0.050 A 
ATOM     23  C   UNL A   1      31.008  28.499  22.590  1.00  0.00     0.166 A 
ATOM     24  C   UNL A   1      28.787  27.178  23.598  1.00  0.00     0.005 A 
ATOM     25  C   UNL A   1      30.051  26.576  23.644  1.00  0.00     0.014 A 
BRANCH  21  26
ATOM     26  O   UNL A   1      29.575  30.286  21.861  1.00  0.00    -0.493 OA
ATOM     27  C   UNL A   1      28.200  30.516  21.521  1.00  0.00     0.278 C 
ENDBRANCH  21  26
BRANCH  23  28
ATOM     28  O   UNL A   1      32.086  29.223  22.172  1.00  0.00    -0.504 OA
ATOM     29  H   UNL A   1      32.952  28.956  22.413  1.00  0.00     0.293 HD
ENDBRANCH  23  28
ENDBRANCH   7  20
ENDBRANCH   4   6
ENDBRANCH   3   4
ENDBRANCH   2   3
ENDBRANCH   1   2
BRANCH   1  30
ATOM     30  O   UNL A   1      37.788  22.974  25.261  1.00  0.00    -0.458 OA
BRANCH  30  31
ATOM     31  C   UNL A   1      38.936  22.902  25.973  1.00  0.00     0.338 C 
ATOM     32  O   UNL A   1      39.709  21.951  25.999  1.00  0.00    -0.246 OA
BRANCH  31  33
ATOM     33  C   UNL A   1      39.181  24.177  26.693  1.00  0.00     0.060 A 
ATOM     34  C   UNL A   1      40.009  25.165  26.159  1.00  0.00     0.016 A 
ATOM     35  C   UNL A   1      38.659  24.354  27.975  1.00  0.00     0.016 A 
ATOM     36  C   UNL A   1      40.416  26.248  26.943  1.00  0.00     0.010 A 
ATOM     37  C   UNL A   1      38.967  25.509  28.709  1.00  0.00     0.010 A 
ATOM     38  C   UNL A   1      39.882  26.460  28.221  1.00  0.00    -0.014 A 
BRANCH  38  39
ATOM     39  C   UNL A   1      40.269  27.645  29.053  1.00  0.00     0.031 A 
ATOM     40  C   UNL A   1      41.579  27.657  29.809  1.00  0.00     0.074 A 
ATOM     41  C   UNL A   1      39.454  28.717  29.174  1.00  0.00     0.049 A 
ATOM     42  N   UNL A   1      41.945  28.412  30.815  1.00  0.00    -0.248 NA
ATOM     43  C   UNL A   1      42.594  26.674  29.400  1.00  0.00     0.031 C 
ATOM     44  C   UNL A   1      38.175  28.907  28.486  1.00  0.00     0.029 A 
ATOM     45  N   UNL A   1      39.589  29.861  29.926  1.00  0.00    -0.354 N 
ATOM     46  C   UNL A   1      43.183  27.926  31.225  1.00  0.00     0.074 A 
ATOM     47  C   UNL A   1      43.517  26.829  30.341  1.00  0.00     0.031 C 
ATOM     48  C   UNL A   1      37.678  30.112  28.795  1.00  0.00     0.029 A 
ATOM     49  C   UNL A   1      38.532  30.733  29.800  1.00  0.00     0.049 A 
ATOM     50  H   UNL A   1      40.368  30.038  30.501  1.00  0.00     0.167 HD
ATOM     51  C   UNL A   1      43.964  28.349  32.251  1.00  0.00     0.031 A 
ATOM     52  C   UNL A   1      38.233  31.873  30.455  1.00  0.00     0.031 A 
ATOM     53  C   UNL A   1      43.680  29.501  33.068  1.00  0.00     0.049 A 
ATOM     54  C   UNL A   1      39.115  32.336  31.575  1.00  0.00     0.074 A 
ATOM     55  C   UNL A   1      44.425  30.018  34.117  1.00  0.00     0.029 A 
ATOM     56  N   UNL A   1      42.589  30.338  32.905  1.00  0.00    -0.354 N 
ATOM     57  N   UNL A   1      40.217  31.793  32.031  1.00  0.00    -0.248 NA
ATOM     58  C   UNL A   1      38.690  33.545  32.295  1.00  0.00     0.031 C 
ATOM     59  C   UNL A   1      43.769  31.156  34.601  1.00  0.00     0.029 A 
ATOM     60  C   UNL A   1      42.638  31.368  33.831  1.00  0.00     0.049 A 
ATOM     61  H   UNL A   1      41.881  30.220  32.230  1.00  0.00     0.167 HD
ATOM     62  C   UNL A   1      40.612  32.588  33.100  1.00  0.00     0.074 A 
ATOM     63  C   UNL A   1      39.651  33.666  33.202  1.00  0.00     0.031 C 
ATOM     64  C   UNL A   1      41.671  32.428  33.931  1.00  0.00     0.031 A 
BRANCH  51  65
ATOM     65  C   UNL A   1      45.185  27.533  32.586  1.00  0.00    -0.014 A 
ATOM     66  C   UNL A   1      46.426  27.764  31.969  1.00  0.00     0.010 A 
ATOM     67  C   UNL A   1      45.092  26.546  33.587  1.00  0.00     0.010 A 
ATOM     68  C   UNL A   1      47.543  26.998  32.322  1.00  0.00     0.020 A 
ATOM     69  C   UNL A   1      46.211  25.795  33.959  1.00  0.00     0.020 A 
ATOM     70  C   UNL A   1      47.427  26.015  33.309  1.00  0.00     0.054 A 
BRANCH  70  71
ATOM     71  S   UNL A   1      48.894  25.052  33.770  1.00  0.00     0.124 S 
ATOM     72  O   UNL A   1      49.428  25.832  34.884  1.00  0.00    -0.237 OA
ATOM     73  O   UNL A   1      48.331  23.753  34.128  1.00  0.00    -0.237 OA
ATOM     74  O   UNL A   1      49.708  25.059  32.556  1.00  0.00    -0.744 OA
ENDBRANCH  70  71
ENDBRANCH  51  65
BRANCH  52  75
ATOM     75  C   UNL A   1      36.991  32.612  30.106  1.00  0.00    -0.014 A 
ATOM     76  C   UNL A   1      35.817  32.423  30.854  1.00  0.00     0.010 A 
ATOM     77  C   UNL A   1      36.992  33.547  29.053  1.00  0.00     0.010 A 
ATOM     78  C   UNL A   1      34.669  33.165  30.565  1.00  0.00     0.020 A 
ATOM     79  C   UNL A   1      35.855  34.311  28.780  1.00  0.00     0.020 A 
ATOM     80  C   UNL A   1      34.698  34.110  29.535  1.00  0.00     0.054 A 
BRANCH  80  81
ATOM     81  S   UNL A   1      33.234  35.141  29.238  1.00  0.00     0.124 S 
ATOM     82  O   UNL A   1      32.627  35.193  30.564  1.00  0.00    -0.237 OA
ATOM     83  O   UNL A   1      33.814  36.393  28.757  1.00  0.00    -0.237 OA
ATOM     84  O   UNL A   1      32.488  34.386  28.233  1.00  0.00    -0.744 OA
ENDBRANCH  80  81
ENDBRANCH  52  75
BRANCH  64  85
ATOM     85  C   UNL A   1      41.849  33.454  35.015  1.00  0.00    -0.014 A 
ATOM     86  C   UNL A   1      42.582  34.630  34.780  1.00  0.00     0.010 A 
ATOM     87  C   UNL A   1      41.252  33.252  36.272  1.00  0.00     0.010 A 
ATOM     88  C   UNL A   1      42.742  35.575  35.795  1.00  0.00     0.020 A 
ATOM     89  C   UNL A   1      41.395  34.205  37.284  1.00  0.00     0.020 A 
ATOM     90  C   UNL A   1      42.153  35.353  37.044  1.00  0.00     0.054 A 
BRANCH  90  91
ATOM     91  S   UNL A   1      42.350  36.606  38.342  1.00  0.00     0.124 S 
ATOM     92  O   UNL A   1      40.989  37.115  38.482  1.00  0.00    -0.237 OA
ATOM     93  O   UNL A   1      42.850  35.828  39.472  1.00  0.00    -0.237 OA
ATOM     94  O   UNL A   1      43.311  37.547  37.769  1.00  0.00    -0.744 OA
ENDBRANCH  90  91
ENDBRANCH  64  85
ENDBRANCH  38  39
ENDBRANCH  31  33
ENDBRANCH  30  31
ENDBRANCH   1  30
TORSDOF 17
ENDMDL
MODEL 3
REMARK VINA RESULT:     -11.3      3.110      9.615
REMARK SMILES COc1cccc([C@@H]2[NH2+][C@@](C)(C(=O)OCCOC(=O)c3ccc(-c4c5nc(c(-c6ccc(S(=O)(=O)[O-])cc6)c6ccc([nH]6)c(-c6ccc(S(=O)(=O)[O-])cc6)c6nc(c(-c7ccc(S(=O)(=O)[O-])cc7)c7ccc4[nH]7)C=C6)C=C5)cc3)[C@@H]3C(=O)N(C)C(=O)[C@@H]32)c1O
REMARK SMILES IDX 16 1 15 2 14 3 12 4 13 5 10 6 8 7 9 8 87 9 80 12 85 13 11 14
REMARK SMILES IDX 81 15 83 16 86 17 82 18 84 19 7 20 3 21 4 22 88 23 5 24 6 25
REMARK SMILES IDX 2 26 1 27 89 28 17 30 18 31 19 32 20 33 21 34 79 35 22 36
REMARK SMILES IDX 78 37 23 38 24 39 25 40 72 41 26 42 77 43 71 44 73 45 27 46
REMARK SMILES IDX 76 47 70 48 69 49 28 51 58 52 39 53 57 54 40 55 43 56 56 57
REMARK SMILES IDX 74 58 41 59 42 60 55 62 75 63 44 64 29 65 30 66 38 67 31 68
REMARK SMILES IDX 37 69 32 70 33 71 34 72 35 73 36 74 59 75 60 76 68 77 61 78
REMARK SMILES IDX 67 79 62 80 63 81 64 82 65 83 66 84 45 85 46 86 54 87 47 88
REMARK SMILES IDX 53 89 48 90 49 91 50 92 51 93 52 94
REMARK H PARENT 9 10 9 11 89 29 73 50 43 61
REMARK Flexibility Score: inf
ROOT
ATOM      1  C   UNL A   1      36.636  22.424  24.917  1.00  0.00     0.275 C 
ENDROOT
BRANCH   1   2
ATOM      2  C   UNL A   1      36.168  23.417  23.855  1.00  0.00     0.274 C 
BRANCH   2   3
ATOM      3  O   UNL A   1      34.920  24.027  24.243  1.00  0.00    -0.457 OA
BRANCH   3   4
ATOM      4  C   UNL A   1      33.935  23.995  23.305  1.00  0.00     0.368 C 
ATOM      5  O   UNL A   1      34.060  23.459  22.205  1.00  0.00    -0.245 OA
BRANCH   4   6
ATOM      6  C   UNL A   1      32.623  24.722  23.721  1.00  0.00     0.204 C 
ATOM      7  C   UNL A   1      32.139  26.880  22.720  1.00  0.00     0.232 C 
ATOM      8  N   UNL A   1      31.964  25.411  22.568  1.00  0.00    -0.325 N 
ATOM      9  C   UNL A   1      33.161  27.064  23.839  1.00  0.00     0.161 C 
ATOM     10  H   UNL A   1      32.394  25.104  21.695  1.00  0.00     0.347 HD
ATOM     11  H   UNL A   1      30.970  25.182  22.550  1.00  0.00     0.347 HD
ATOM     12  C   UNL A   1      33.038  25.815  24.693  1.00  0.00     0.170 C 
ATOM     13  C   UNL A   1      32.918  28.163  24.832  1.00  0.00     0.239 C 
ATOM     14  C   UNL A   1      31.745  23.601  24.287  1.00  0.00     0.093 C 
ATOM     15  C   UNL A   1      32.150  26.260  25.825  1.00  0.00     0.240 C 
ATOM     16  N   UNL A   1      32.293  27.621  25.923  1.00  0.00    -0.285 N 
ATOM     17  O   UNL A   1      33.221  29.334  24.659  1.00  0.00    -0.274 OA
ATOM     18  O   UNL A   1      31.526  25.531  26.579  1.00  0.00    -0.274 OA
ATOM     19  C   UNL A   1      31.841  28.417  27.038  1.00  0.00     0.156 C 
BRANCH   7  20
ATOM     20  C   UNL A   1      30.853  27.680  22.889  1.00  0.00     0.056 A 
ATOM     21  C   UNL A   1      29.383  29.560  22.368  1.00  0.00     0.161 A 
ATOM     22  C   UNL A   1      28.297  28.915  22.943  1.00  0.00     0.050 A 
ATOM     23  C   UNL A   1      30.654  28.974  22.397  1.00  0.00     0.166 A 
ATOM     24  C   UNL A   1      28.480  27.653  23.503  1.00  0.00     0.005 A 
ATOM     25  C   UNL A   1      29.737  27.038  23.462  1.00  0.00     0.014 A 
BRANCH  21  26
ATOM     26  O   UNL A   1      29.202  30.792  21.794  1.00  0.00    -0.493 OA
ATOM     27  C   UNL A   1      28.032  30.809  20.964  1.00  0.00     0.278 C 
ENDBRANCH  21  26
BRANCH  23  28
ATOM     28  O   UNL A   1      31.714  29.696  21.934  1.00  0.00    -0.504 OA
ATOM     29  H   UNL A   1      32.018  29.573  21.056  1.00  0.00     0.293 HD
ENDBRANCH  23  28
ENDBRANCH   7  20
ENDBRANCH   4   6
ENDBRANCH   3   4
ENDBRANCH   2   3
ENDBRANCH   1   2
BRANCH   1  30
ATOM     30  O   UNL A   1      37.211  23.144  26.020  1.00  0.00    -0.458 OA
BRANCH  30  31
ATOM     31  C   UNL A   1      38.521  22.910  26.265  1.00  0.00     0.338 C 
ATOM     32  O   UNL A   1      39.135  21.888  25.979  1.00  0.00    -0.246 OA
BRANCH  31  33
ATOM     33  C   UNL A   1      39.154  24.101  26.886  1.00  0.00     0.060 A 
ATOM     34  C   UNL A   1      38.943  24.418  28.229  1.00  0.00     0.016 A 
ATOM     35  C   UNL A   1      39.890  24.981  26.092  1.00  0.00     0.016 A 
ATOM     36  C   UNL A   1      39.348  25.655  28.736  1.00  0.00     0.010 A 
ATOM     37  C   UNL A   1      40.407  26.163  26.642  1.00  0.00     0.010 A 
ATOM     38  C   UNL A   1      40.113  26.541  27.965  1.00  0.00    -0.014 A 
BRANCH  38  39
ATOM     39  C   UNL A   1      40.599  27.849  28.512  1.00  0.00     0.031 A 
ATOM     40  C   UNL A   1      42.046  28.022  28.916  1.00  0.00     0.074 A 
ATOM     41  C   UNL A   1      39.759  28.894  28.686  1.00  0.00     0.049 A 
ATOM     42  N   UNL A   1      42.585  28.929  29.693  1.00  0.00    -0.248 NA
ATOM     43  C   UNL A   1      43.004  27.030  28.404  1.00  0.00     0.031 C 
ATOM     44  C   UNL A   1      38.343  28.932  28.315  1.00  0.00     0.029 A 
ATOM     45  N   UNL A   1      39.985  30.140  29.225  1.00  0.00    -0.354 N 
ATOM     46  C   UNL A   1      43.916  28.557  29.847  1.00  0.00     0.074 A 
ATOM     47  C   UNL A   1      44.110  27.356  29.061  1.00  0.00     0.031 C 
ATOM     48  C   UNL A   1      37.847  30.149  28.574  1.00  0.00     0.029 A 
ATOM     49  C   UNL A   1      38.868  30.943  29.247  1.00  0.00     0.049 A 
ATOM     50  H   UNL A   1      40.863  30.430  29.563  1.00  0.00     0.167 HD
ATOM     51  C   UNL A   1      44.886  29.154  30.585  1.00  0.00     0.031 A 
ATOM     52  C   UNL A   1      38.650  32.153  29.799  1.00  0.00     0.031 A 
ATOM     53  C   UNL A   1      44.720  30.402  31.287  1.00  0.00     0.049 A 
ATOM     54  C   UNL A   1      39.736  32.809  30.598  1.00  0.00     0.074 A 
ATOM     55  C   UNL A   1      45.652  31.095  32.043  1.00  0.00     0.029 A 
ATOM     56  N   UNL A   1      43.563  31.163  31.287  1.00  0.00    -0.354 N 
ATOM     57  N   UNL A   1      40.952  32.382  30.837  1.00  0.00    -0.248 NA
ATOM     58  C   UNL A   1      39.407  34.093  31.233  1.00  0.00     0.031 C 
ATOM     59  C   UNL A   1      45.049  32.265  32.519  1.00  0.00     0.029 A 
ATOM     60  C   UNL A   1      43.755  32.319  32.028  1.00  0.00     0.049 A 
ATOM     61  H   UNL A   1      42.726  30.920  30.828  1.00  0.00     0.167 HD
ATOM     62  C   UNL A   1      41.530  33.339  31.662  1.00  0.00     0.074 A 
ATOM     63  C   UNL A   1      40.544  34.382  31.853  1.00  0.00     0.031 C 
ATOM     64  C   UNL A   1      42.764  33.343  32.221  1.00  0.00     0.031 A 
BRANCH  51  65
ATOM     65  C   UNL A   1      46.207  28.444  30.715  1.00  0.00    -0.014 A 
ATOM     66  C   UNL A   1      47.273  28.690  29.834  1.00  0.00     0.010 A 
ATOM     67  C   UNL A   1      46.398  27.549  31.786  1.00  0.00     0.010 A 
ATOM     68  C   UNL A   1      48.493  28.025  29.999  1.00  0.00     0.020 A 
ATOM     69  C   UNL A   1      47.623  26.901  31.969  1.00  0.00     0.020 A 
ATOM     70  C   UNL A   1      48.658  27.130  31.061  1.00  0.00     0.054 A 
BRANCH  70  71
ATOM     71  S   UNL A   1      50.258  26.300  31.273  1.00  0.00     0.124 S 
ATOM     72  O   UNL A   1      49.965  25.353  32.346  1.00  0.00    -0.237 OA
ATOM     73  O   UNL A   1      50.490  25.704  29.959  1.00  0.00    -0.237 OA
ATOM     74  O   UNL A   1      51.168  27.386  31.629  1.00  0.00    -0.744 OA
ENDBRANCH  70  71
ENDBRANCH  51  65
BRANCH  52  75
ATOM     75  C   UNL A   1      37.310  32.785  29.671  1.00  0.00    -0.014 A 
ATOM     76  C   UNL A   1      36.400  32.745  30.740  1.00  0.00     0.010 A 
ATOM     77  C   UNL A   1      36.958  33.474  28.494  1.00  0.00     0.010 A 
ATOM     78  C   UNL A   1      35.166  33.393  30.641  1.00  0.00     0.020 A 
ATOM     79  C   UNL A   1      35.738  34.147  28.403  1.00  0.00     0.020 A 
ATOM     80  C   UNL A   1      34.846  34.097  29.476  1.00  0.00     0.054 A 
BRANCH  80  81
ATOM     81  S   UNL A   1      33.287  35.022  29.400  1.00  0.00     0.124 S 
ATOM     82  O   UNL A   1      33.740  36.347  28.990  1.00  0.00    -0.237 OA
ATOM     83  O   UNL A   1      32.520  34.278  28.403  1.00  0.00    -0.237 OA
ATOM     84  O   UNL A   1      32.772  34.926  30.765  1.00  0.00    -0.744 OA
ENDBRANCH  80  81
ENDBRANCH  52  75
BRANCH  64  85
ATOM     85  C   UNL A   1      43.119  34.522  33.083  1.00  0.00    -0.014 A 
ATOM     86  C   UNL A   1      42.868  34.504  34.467  1.00  0.00     0.010 A 
ATOM     87  C   UNL A   1      43.735  35.648  32.509  1.00  0.00     0.010 A 
ATOM     88  C   UNL A   1      43.200  35.606  35.258  1.00  0.00     0.020 A 
ATOM     89  C   UNL A   1      44.085  36.745  33.301  1.00  0.00     0.020 A 
ATOM     90  C   UNL A   1      43.801  36.723  34.668  1.00  0.00     0.054 A 
BRANCH  90  91
ATOM     91  S   UNL A   1      44.249  38.134  35.717  1.00  0.00     0.124 S 
ATOM     92  O   UNL A   1      43.602  37.790  36.980  1.00  0.00    -0.237 OA
ATOM     93  O   UNL A   1      45.709  38.083  35.724  1.00  0.00    -0.237 OA
ATOM     94  O   UNL A   1      43.676  39.280  35.015  1.00  0.00    -0.744 OA
ENDBRANCH  90  91
ENDBRANCH  64  85
ENDBRANCH  38  39
ENDBRANCH  31  33
ENDBRANCH  30  31
ENDBRANCH   1  30
TORSDOF 17
ENDMDL
