MODEL 1
REMARK VINA RESULT:      -9.3      0.000      0.000
REMARK SMILES CC[C@@H](CNC(=O)NCc1c(C)noc1C)C(=O)OCCOC(=O)c1ccc(-c2c3nc(c(-c4ccc(S(=O)(=O)[O-])cc4)c4ccc([nH]4)c(-c4ccc(S(=O)(=O)[O-])cc4)c4nc(c(-c5ccc(S(=O)(=O)[O-])cc5)c5ccc2[nH]5)C=C4)C=C3)cc1
REMARK SMILES IDX 20 1 19 2 17 3 18 4 3 5 2 6 1 7 4 8 5 9 6 10 7 12 8 13 9 15
REMARK SMILES IDX 10 16 11 17 15 18 12 19 13 20 14 21 16 22 21 23 22 24 23 25
REMARK SMILES IDX 24 26 25 27 26 28 84 29 27 30 83 31 28 32 29 33 30 34 77 35
REMARK SMILES IDX 31 36 82 37 76 38 78 39 32 40 81 41 75 42 74 43 33 45 63 46
REMARK SMILES IDX 44 47 62 48 45 49 48 50 61 51 79 52 46 53 47 54 60 56 80 57
REMARK SMILES IDX 49 58 34 59 35 60 43 61 36 62 42 63 37 64 38 65 39 66 40 67
REMARK SMILES IDX 41 68 64 69 65 70 73 71 66 72 72 73 67 74 68 75 69 76 70 77
REMARK SMILES IDX 71 78 50 79 51 80 59 81 52 82 58 83 53 84 54 85 55 86 56 87
REMARK SMILES IDX 57 88
REMARK H PARENT 5 11 8 14 78 44 48 55
REMARK Flexibility Score: inf
ROOT
ATOM      1  C   UNL A   1      40.828  19.781  26.302  1.00  0.00     0.274 C 
ENDROOT
BRANCH   1   2
ATOM      2  O   UNL A   1      41.914  20.025  25.386  1.00  0.00    -0.462 OA
BRANCH   2   3
ATOM      3  C   UNL A   1      43.001  19.221  25.521  1.00  0.00     0.310 C 
ATOM      4  O   UNL A   1      42.953  18.003  25.659  1.00  0.00    -0.252 OA
BRANCH   3   5
ATOM      5  C   UNL A   1      44.312  19.989  25.522  1.00  0.00     0.118 C 
BRANCH   5   6
ATOM      6  C   UNL A   1      45.296  19.519  24.438  1.00  0.00     0.014 C 
ATOM      7  C   UNL A   1      46.643  19.092  25.011  1.00  0.00     0.005 C 
ENDBRANCH   5   6
BRANCH   5   8
ATOM      8  C   UNL A   1      44.058  21.498  25.517  1.00  0.00     0.133 C 
BRANCH   8   9
ATOM      9  N   UNL A   1      43.569  22.018  26.777  1.00  0.00    -0.337 N 
ATOM     10  C   UNL A   1      43.258  23.236  27.231  1.00  0.00     0.315 C 
ATOM     11  H   UNL A   1      43.434  21.314  27.452  1.00  0.00     0.165 HD
ATOM     12  O   UNL A   1      42.840  23.319  28.388  1.00  0.00    -0.249 OA
ATOM     13  N   UNL A   1      43.354  24.363  26.523  1.00  0.00    -0.334 N 
ATOM     14  H   UNL A   1      43.014  25.140  27.022  1.00  0.00     0.165 HD
BRANCH  13  15
ATOM     15  C   UNL A   1      43.831  24.734  25.206  1.00  0.00     0.159 C 
BRANCH  15  16
ATOM     16  C   UNL A   1      44.604  26.000  25.277  1.00  0.00     0.037 A 
ATOM     17  C   UNL A   1      46.022  26.142  25.204  1.00  0.00     0.086 A 
ATOM     18  C   UNL A   1      44.161  27.307  25.363  1.00  0.00     0.138 A 
ATOM     19  C   UNL A   1      47.050  25.087  25.033  1.00  0.00     0.071 C 
ATOM     20  N   UNL A   1      46.394  27.423  25.291  1.00  0.00    -0.085 NA
ATOM     21  O   UNL A   1      45.227  28.149  25.383  1.00  0.00    -0.361 OA
ATOM     22  C   UNL A   1      42.841  27.964  25.417  1.00  0.00     0.091 C 
ENDBRANCH  15  16
ENDBRANCH  13  15
ENDBRANCH   8   9
ENDBRANCH   5   8
ENDBRANCH   3   5
ENDBRANCH   2   3
ENDBRANCH   1   2
BRANCH   1  23
ATOM     23  C   UNL A   1      39.642  20.717  26.050  1.00  0.00     0.275 C 
BRANCH  23  24
ATOM     24  O   UNL A   1      39.963  22.087  26.358  1.00  0.00    -0.458 OA
BRANCH  24  25
ATOM     25  C   UNL A   1      38.971  22.975  26.122  1.00  0.00     0.338 C 
ATOM     26  O   UNL A   1      37.921  22.772  25.533  1.00  0.00    -0.246 OA
BRANCH  25  27
ATOM     27  C   UNL A   1      39.264  24.242  26.807  1.00  0.00     0.060 A 
ATOM     28  C   UNL A   1      40.000  25.207  26.115  1.00  0.00     0.016 A 
ATOM     29  C   UNL A   1      38.906  24.442  28.140  1.00  0.00     0.016 A 
ATOM     30  C   UNL A   1      40.387  26.382  26.750  1.00  0.00     0.010 A 
ATOM     31  C   UNL A   1      39.298  25.622  28.780  1.00  0.00     0.010 A 
ATOM     32  C   UNL A   1      40.051  26.591  28.092  1.00  0.00    -0.014 A 
BRANCH  32  33
ATOM     33  C   UNL A   1      40.552  27.798  28.789  1.00  0.00     0.031 A 
ATOM     34  C   UNL A   1      41.962  27.826  29.304  1.00  0.00     0.074 A 
ATOM     35  C   UNL A   1      39.753  28.873  28.927  1.00  0.00     0.049 A 
ATOM     36  N   UNL A   1      42.566  28.752  30.000  1.00  0.00    -0.248 NA
ATOM     37  C   UNL A   1      42.803  26.660  28.989  1.00  0.00     0.031 C 
ATOM     38  C   UNL A   1      38.387  28.982  28.412  1.00  0.00     0.029 A 
ATOM     39  N   UNL A   1      39.978  30.076  29.542  1.00  0.00    -0.354 N 
ATOM     40  C   UNL A   1      43.850  28.273  30.231  1.00  0.00     0.074 A 
ATOM     41  C   UNL A   1      43.935  26.971  29.605  1.00  0.00     0.031 C 
ATOM     42  C   UNL A   1      37.895  30.190  28.736  1.00  0.00     0.029 A 
ATOM     43  C   UNL A   1      38.893  30.917  29.517  1.00  0.00     0.049 A 
ATOM     44  H   UNL A   1      40.837  30.315  29.962  1.00  0.00     0.167 HD
ATOM     45  C   UNL A   1      44.862  28.865  30.907  1.00  0.00     0.031 A 
ATOM     46  C   UNL A   1      38.713  32.126  30.085  1.00  0.00     0.031 A 
ATOM     47  C   UNL A   1      44.771  30.158  31.530  1.00  0.00     0.049 A 
ATOM     48  C   UNL A   1      39.831  32.735  30.884  1.00  0.00     0.074 A 
ATOM     49  C   UNL A   1      45.739  30.843  32.242  1.00  0.00     0.029 A 
ATOM     50  N   UNL A   1      43.642  30.964  31.513  1.00  0.00    -0.354 N 
ATOM     51  N   UNL A   1      41.033  32.260  31.110  1.00  0.00    -0.248 NA
ATOM     52  C   UNL A   1      39.567  34.038  31.509  1.00  0.00     0.031 C 
ATOM     53  C   UNL A   1      45.184  32.047  32.690  1.00  0.00     0.029 A 
ATOM     54  C   UNL A   1      43.883  32.131  32.217  1.00  0.00     0.049 A 
ATOM     55  H   UNL A   1      42.794  30.739  31.066  1.00  0.00     0.167 HD
ATOM     56  C   UNL A   1      41.675  33.215  31.891  1.00  0.00     0.074 A 
ATOM     57  C   UNL A   1      40.733  34.299  32.085  1.00  0.00     0.031 C 
ATOM     58  C   UNL A   1      42.931  33.196  32.401  1.00  0.00     0.031 A 
BRANCH  45  59
ATOM     59  C   UNL A   1      46.145  28.092  31.046  1.00  0.00    -0.014 A 
ATOM     60  C   UNL A   1      47.202  28.263  30.134  1.00  0.00     0.010 A 
ATOM     61  C   UNL A   1      46.303  27.199  32.121  1.00  0.00     0.010 A 
ATOM     62  C   UNL A   1      48.381  27.527  30.276  1.00  0.00     0.020 A 
ATOM     63  C   UNL A   1      47.488  26.476  32.277  1.00  0.00     0.020 A 
ATOM     64  C   UNL A   1      48.514  26.633  31.342  1.00  0.00     0.054 A 
BRANCH  64  65
ATOM     65  S   UNL A   1      50.059  25.696  31.512  1.00  0.00     0.124 S 
ATOM     66  O   UNL A   1      49.728  24.766  32.588  1.00  0.00    -0.237 OA
ATOM     67  O   UNL A   1      50.220  25.096  30.191  1.00  0.00    -0.237 OA
ATOM     68  O   UNL A   1      51.047  26.717  31.854  1.00  0.00    -0.744 OA
ENDBRANCH  64  65
ENDBRANCH  45  59
BRANCH  46  69
ATOM     69  C   UNL A   1      37.406  32.821  29.948  1.00  0.00    -0.014 A 
ATOM     70  C   UNL A   1      37.120  33.596  28.811  1.00  0.00     0.010 A 
ATOM     71  C   UNL A   1      36.431  32.696  30.956  1.00  0.00     0.010 A 
ATOM     72  C   UNL A   1      35.888  34.245  28.691  1.00  0.00     0.020 A 
ATOM     73  C   UNL A   1      35.190  33.324  30.827  1.00  0.00     0.020 A 
ATOM     74  C   UNL A   1      34.930  34.104  29.699  1.00  0.00     0.054 A 
BRANCH  74  75
ATOM     75  S   UNL A   1      33.313  34.904  29.500  1.00  0.00     0.124 S 
ATOM     76  O   UNL A   1      32.625  33.977  28.607  1.00  0.00    -0.237 OA
ATOM     77  O   UNL A   1      32.811  34.954  30.872  1.00  0.00    -0.237 OA
ATOM     78  O   UNL A   1      33.648  36.203  28.922  1.00  0.00    -0.744 OA
ENDBRANCH  74  75
ENDBRANCH  46  69
BRANCH  58  79
ATOM     79  C   UNL A   1      43.367  34.394  33.197  1.00  0.00    -0.014 A 
ATOM     80  C   UNL A   1      43.830  35.558  32.561  1.00  0.00     0.010 A 
ATOM     81  C   UNL A   1      43.263  34.371  34.600  1.00  0.00     0.010 A 
ATOM     82  C   UNL A   1      44.209  36.671  33.316  1.00  0.00     0.020 A 
ATOM     83  C   UNL A   1      43.621  35.489  35.357  1.00  0.00     0.020 A 
ATOM     84  C   UNL A   1      44.104  36.627  34.710  1.00  0.00     0.054 A 
BRANCH  84  85
ATOM     85  S   UNL A   1      44.560  38.099  35.670  1.00  0.00     0.124 S 
ATOM     86  O   UNL A   1      44.341  39.171  34.703  1.00  0.00    -0.237 OA
ATOM     87  O   UNL A   1      43.621  38.058  36.788  1.00  0.00    -0.237 OA
ATOM     88  O   UNL A   1      45.956  37.857  36.028  1.00  0.00    -0.744 OA
ENDBRANCH  84  85
ENDBRANCH  58  79
ENDBRANCH  32  33
ENDBRANCH  25  27
ENDBRANCH  24  25
ENDBRANCH  23  24
ENDBRANCH   1  23
TORSDOF 19
ENDMDL
MODEL 2
REMARK VINA RESULT:      -9.1      2.860     11.287
REMARK SMILES CC[C@@H](CNC(=O)NCc1c(C)noc1C)C(=O)OCCOC(=O)c1ccc(-c2c3nc(c(-c4ccc(S(=O)(=O)[O-])cc4)c4ccc([nH]4)c(-c4ccc(S(=O)(=O)[O-])cc4)c4nc(c(-c5ccc(S(=O)(=O)[O-])cc5)c5ccc2[nH]5)C=C4)C=C3)cc1
REMARK SMILES IDX 20 1 19 2 17 3 18 4 3 5 2 6 1 7 4 8 5 9 6 10 7 12 8 13 9 15
REMARK SMILES IDX 10 16 11 17 15 18 12 19 13 20 14 21 16 22 21 23 22 24 23 25
REMARK SMILES IDX 24 26 25 27 26 28 84 29 27 30 83 31 28 32 29 33 30 34 77 35
REMARK SMILES IDX 31 36 82 37 76 38 78 39 32 40 81 41 75 42 74 43 33 45 63 46
REMARK SMILES IDX 44 47 62 48 45 49 48 50 61 51 79 52 46 53 47 54 60 56 80 57
REMARK SMILES IDX 49 58 34 59 35 60 43 61 36 62 42 63 37 64 38 65 39 66 40 67
REMARK SMILES IDX 41 68 64 69 65 70 73 71 66 72 72 73 67 74 68 75 69 76 70 77
REMARK SMILES IDX 71 78 50 79 51 80 59 81 52 82 58 83 53 84 54 85 55 86 56 87
REMARK SMILES IDX 57 88
REMARK H PARENT 5 11 8 14 78 44 48 55
REMARK Flexibility Score: inf
ROOT
ATOM      1  C   UNL A   1      35.123  33.964  29.297  1.00  0.00     0.274 C 
ENDROOT
BRANCH   1   2
ATOM      2  O   UNL A   1      34.457  33.773  30.560  1.00  0.00    -0.462 OA
BRANCH   2   3
ATOM      3  C   UNL A   1      35.254  33.753  31.660  1.00  0.00     0.310 C 
ATOM      4  O   UNL A   1      35.159  34.532  32.602  1.00  0.00    -0.252 OA
BRANCH   3   5
ATOM      5  C   UNL A   1      36.325  32.677  31.598  1.00  0.00     0.118 C 
BRANCH   5   6
ATOM      6  C   UNL A   1      37.633  33.153  30.945  1.00  0.00     0.014 C 
ATOM      7  C   UNL A   1      38.474  34.019  31.877  1.00  0.00     0.005 C 
ENDBRANCH   5   6
BRANCH   5   8
ATOM      8  C   UNL A   1      36.519  32.024  32.969  1.00  0.00     0.133 C 
BRANCH   8   9
ATOM      9  N   UNL A   1      36.623  30.580  32.924  1.00  0.00    -0.337 N 
ATOM     10  C   UNL A   1      37.551  29.695  33.304  1.00  0.00     0.315 C 
ATOM     11  H   UNL A   1      35.832  30.154  32.523  1.00  0.00     0.165 HD
ATOM     12  O   UNL A   1      37.299  28.501  33.128  1.00  0.00    -0.249 OA
ATOM     13  N   UNL A   1      38.718  30.007  33.870  1.00  0.00    -0.334 N 
ATOM     14  H   UNL A   1      39.225  29.205  34.131  1.00  0.00     0.165 HD
BRANCH  13  15
ATOM     15  C   UNL A   1      39.429  31.226  34.198  1.00  0.00     0.159 C 
BRANCH  15  16
ATOM     16  C   UNL A   1      40.329  31.000  35.358  1.00  0.00     0.037 A 
ATOM     17  C   UNL A   1      41.301  29.965  35.497  1.00  0.00     0.086 A 
ATOM     18  C   UNL A   1      40.489  31.739  36.515  1.00  0.00     0.138 A 
ATOM     19  C   UNL A   1      41.654  28.890  34.538  1.00  0.00     0.071 C 
ATOM     20  N   UNL A   1      41.950  30.052  36.664  1.00  0.00    -0.085 NA
ATOM     21  O   UNL A   1      41.444  31.167  37.293  1.00  0.00    -0.361 OA
ATOM     22  C   UNL A   1      39.890  32.972  37.061  1.00  0.00     0.091 C 
ENDBRANCH  15  16
ENDBRANCH  13  15
ENDBRANCH   8   9
ENDBRANCH   5   8
ENDBRANCH   3   5
ENDBRANCH   2   3
ENDBRANCH   1   2
BRANCH   1  23
ATOM     23  C   UNL A   1      34.605  33.003  28.222  1.00  0.00     0.275 C 
BRANCH  23  24
ATOM     24  O   UNL A   1      34.463  31.661  28.724  1.00  0.00    -0.458 OA
BRANCH  24  25
ATOM     25  C   UNL A   1      34.737  30.683  27.831  1.00  0.00     0.338 C 
ATOM     26  O   UNL A   1      34.077  30.366  26.854  1.00  0.00    -0.246 OA
BRANCH  25  27
ATOM     27  C   UNL A   1      36.057  30.103  28.118  1.00  0.00     0.060 A 
ATOM     28  C   UNL A   1      36.253  29.498  29.361  1.00  0.00     0.016 A 
ATOM     29  C   UNL A   1      37.114  30.235  27.217  1.00  0.00     0.016 A 
ATOM     30  C   UNL A   1      37.509  29.021  29.719  1.00  0.00     0.010 A 
ATOM     31  C   UNL A   1      38.379  29.759  27.578  1.00  0.00     0.010 A 
ATOM     32  C   UNL A   1      38.584  29.162  28.835  1.00  0.00    -0.014 A 
BRANCH  32  33
ATOM     33  C   UNL A   1      39.938  28.742  29.263  1.00  0.00     0.031 A 
ATOM     34  C   UNL A   1      40.778  29.674  30.089  1.00  0.00     0.074 A 
ATOM     35  C   UNL A   1      40.395  27.518  28.938  1.00  0.00     0.049 A 
ATOM     36  N   UNL A   1      42.009  29.526  30.501  1.00  0.00    -0.248 NA
ATOM     37  C   UNL A   1      40.145  30.934  30.509  1.00  0.00     0.031 C 
ATOM     38  C   UNL A   1      39.645  26.506  28.192  1.00  0.00     0.029 A 
ATOM     39  N   UNL A   1      41.602  26.921  29.195  1.00  0.00    -0.354 N 
ATOM     40  C   UNL A   1      42.311  30.684  31.208  1.00  0.00     0.074 A 
ATOM     41  C   UNL A   1      41.135  31.526  31.164  1.00  0.00     0.031 C 
ATOM     42  C   UNL A   1      40.412  25.412  28.051  1.00  0.00     0.029 A 
ATOM     43  C   UNL A   1      41.718  25.663  28.655  1.00  0.00     0.049 A 
ATOM     44  H   UNL A   1      42.317  27.353  29.717  1.00  0.00     0.167 HD
ATOM     45  C   UNL A   1      43.466  31.014  31.833  1.00  0.00     0.031 A 
ATOM     46  C   UNL A   1      42.769  24.820  28.625  1.00  0.00     0.031 A 
ATOM     47  C   UNL A   1      44.632  30.173  31.872  1.00  0.00     0.049 A 
ATOM     48  C   UNL A   1      44.061  25.236  29.272  1.00  0.00     0.074 A 
ATOM     49  C   UNL A   1      45.853  30.419  32.475  1.00  0.00     0.029 A 
ATOM     50  N   UNL A   1      44.723  28.921  31.282  1.00  0.00    -0.354 N 
ATOM     51  N   UNL A   1      44.337  26.344  29.920  1.00  0.00    -0.248 NA
ATOM     52  C   UNL A   1      45.183  24.293  29.179  1.00  0.00     0.031 C 
ATOM     53  C   UNL A   1      46.695  29.332  32.217  1.00  0.00     0.029 A 
ATOM     54  C   UNL A   1      45.983  28.389  31.491  1.00  0.00     0.049 A 
ATOM     55  H   UNL A   1      43.997  28.476  30.787  1.00  0.00     0.167 HD
ATOM     56  C   UNL A   1      45.661  26.222  30.326  1.00  0.00     0.074 A 
ATOM     57  C   UNL A   1      46.124  24.929  29.863  1.00  0.00     0.031 C 
ATOM     58  C   UNL A   1      46.425  27.102  31.019  1.00  0.00     0.031 A 
BRANCH  45  59
ATOM     59  C   UNL A   1      43.534  32.365  32.488  1.00  0.00    -0.014 A 
ATOM     60  C   UNL A   1      43.218  32.535  33.848  1.00  0.00     0.010 A 
ATOM     61  C   UNL A   1      43.948  33.480  31.736  1.00  0.00     0.010 A 
ATOM     62  C   UNL A   1      43.279  33.802  34.434  1.00  0.00     0.020 A 
ATOM     63  C   UNL A   1      44.028  34.745  32.323  1.00  0.00     0.020 A 
ATOM     64  C   UNL A   1      43.677  34.900  33.666  1.00  0.00     0.054 A 
BRANCH  64  65
ATOM     65  S   UNL A   1      43.760  36.534  34.451  1.00  0.00     0.124 S 
ATOM     66  O   UNL A   1      43.800  36.183  35.868  1.00  0.00    -0.237 OA
ATOM     67  O   UNL A   1      44.995  37.092  33.907  1.00  0.00    -0.237 OA
ATOM     68  O   UNL A   1      42.534  37.193  34.008  1.00  0.00    -0.744 OA
ENDBRANCH  64  65
ENDBRANCH  45  59
BRANCH  46  69
ATOM     69  C   UNL A   1      42.651  23.515  27.924  1.00  0.00    -0.014 A 
ATOM     70  C   UNL A   1      43.076  23.374  26.592  1.00  0.00     0.010 A 
ATOM     71  C   UNL A   1      42.121  22.398  28.597  1.00  0.00     0.010 A 
ATOM     72  C   UNL A   1      42.962  22.143  25.941  1.00  0.00     0.020 A 
ATOM     73  C   UNL A   1      42.028  21.160  27.957  1.00  0.00     0.020 A 
ATOM     74  C   UNL A   1      42.439  21.043  26.628  1.00  0.00     0.054 A 
BRANCH  74  75
ATOM     75  S   UNL A   1      42.353  19.437  25.788  1.00  0.00     0.124 S 
ATOM     76  O   UNL A   1      40.955  19.388  25.370  1.00  0.00    -0.237 OA
ATOM     77  O   UNL A   1      43.331  19.586  24.712  1.00  0.00    -0.237 OA
ATOM     78  O   UNL A   1      42.730  18.488  26.833  1.00  0.00    -0.744 OA
ENDBRANCH  74  75
ENDBRANCH  46  69
BRANCH  58  79
ATOM     79  C   UNL A   1      47.833  26.685  31.341  1.00  0.00    -0.014 A 
ATOM     80  C   UNL A   1      48.136  26.021  32.542  1.00  0.00     0.010 A 
ATOM     81  C   UNL A   1      48.857  26.916  30.405  1.00  0.00     0.010 A 
ATOM     82  C   UNL A   1      49.446  25.619  32.814  1.00  0.00     0.020 A 
ATOM     83  C   UNL A   1      50.163  26.497  30.664  1.00  0.00     0.020 A 
ATOM     84  C   UNL A   1      50.452  25.863  31.874  1.00  0.00     0.054 A 
BRANCH  84  85
ATOM     85  S   UNL A   1      52.139  25.294  32.226  1.00  0.00     0.124 S 
ATOM     86  O   UNL A   1      52.424  25.959  33.494  1.00  0.00    -0.237 OA
ATOM     87  O   UNL A   1      51.983  23.843  32.298  1.00  0.00    -0.237 OA
ATOM     88  O   UNL A   1      52.910  25.775  31.083  1.00  0.00    -0.744 OA
ENDBRANCH  84  85
ENDBRANCH  58  79
ENDBRANCH  32  33
ENDBRANCH  25  27
ENDBRANCH  24  25
ENDBRANCH  23  24
ENDBRANCH   1  23
TORSDOF 19
ENDMDL
MODEL 3
REMARK VINA RESULT:      -8.9      3.735      5.536
REMARK SMILES CC[C@@H](CNC(=O)NCc1c(C)noc1C)C(=O)OCCOC(=O)c1ccc(-c2c3nc(c(-c4ccc(S(=O)(=O)[O-])cc4)c4ccc([nH]4)c(-c4ccc(S(=O)(=O)[O-])cc4)c4nc(c(-c5ccc(S(=O)(=O)[O-])cc5)c5ccc2[nH]5)C=C4)C=C3)cc1
REMARK SMILES IDX 20 1 19 2 17 3 18 4 3 5 2 6 1 7 4 8 5 9 6 10 7 12 8 13 9 15
REMARK SMILES IDX 10 16 11 17 15 18 12 19 13 20 14 21 16 22 21 23 22 24 23 25
REMARK SMILES IDX 24 26 25 27 26 28 84 29 27 30 83 31 28 32 29 33 30 34 77 35
REMARK SMILES IDX 31 36 82 37 76 38 78 39 32 40 81 41 75 42 74 43 33 45 63 46
REMARK SMILES IDX 44 47 62 48 45 49 48 50 61 51 79 52 46 53 47 54 60 56 80 57
REMARK SMILES IDX 49 58 34 59 35 60 43 61 36 62 42 63 37 64 38 65 39 66 40 67
REMARK SMILES IDX 41 68 64 69 65 70 73 71 66 72 72 73 67 74 68 75 69 76 70 77
REMARK SMILES IDX 71 78 50 79 51 80 59 81 52 82 58 83 53 84 54 85 55 86 56 87
REMARK SMILES IDX 57 88
REMARK H PARENT 5 11 8 14 78 44 48 55
REMARK Flexibility Score: inf
ROOT
ATOM      1  C   UNL A   1      43.396  25.709  25.397  1.00  0.00     0.274 C 
ENDROOT
BRANCH   1   2
ATOM      2  O   UNL A   1      44.004  26.408  26.500  1.00  0.00    -0.462 OA
BRANCH   2   3
ATOM      3  C   UNL A   1      45.311  26.126  26.738  1.00  0.00     0.310 C 
ATOM      4  O   UNL A   1      46.002  26.689  27.581  1.00  0.00    -0.252 OA
BRANCH   3   5
ATOM      5  C   UNL A   1      45.865  25.051  25.818  1.00  0.00     0.118 C 
BRANCH   5   6
ATOM      6  C   UNL A   1      47.071  25.520  24.988  1.00  0.00     0.014 C 
ATOM      7  C   UNL A   1      48.376  25.489  25.776  1.00  0.00     0.005 C 
ENDBRANCH   5   6
BRANCH   5   8
ATOM      8  C   UNL A   1      46.111  23.751  26.587  1.00  0.00     0.133 C 
BRANCH   8   9
ATOM      9  N   UNL A   1      45.257  23.580  27.744  1.00  0.00    -0.337 N 
ATOM     10  C   UNL A   1      44.138  22.892  27.990  1.00  0.00     0.315 C 
ATOM     11  H   UNL A   1      45.573  24.086  28.528  1.00  0.00     0.165 HD
ATOM     12  O   UNL A   1      43.670  22.960  29.129  1.00  0.00    -0.249 OA
ATOM     13  N   UNL A   1      43.499  22.129  27.101  1.00  0.00    -0.334 N 
ATOM     14  H   UNL A   1      42.734  21.659  27.504  1.00  0.00     0.165 HD
BRANCH  13  15
ATOM     15  C   UNL A   1      43.645  21.817  25.694  1.00  0.00     0.159 C 
BRANCH  15  16
ATOM     16  C   UNL A   1      43.844  20.356  25.510  1.00  0.00     0.037 A 
ATOM     17  C   UNL A   1      42.866  19.332  25.681  1.00  0.00     0.086 A 
ATOM     18  C   UNL A   1      44.960  19.659  25.083  1.00  0.00     0.138 A 
ATOM     19  C   UNL A   1      41.441  19.467  26.066  1.00  0.00     0.071 C 
ATOM     20  N   UNL A   1      43.373  18.120  25.426  1.00  0.00    -0.085 NA
ATOM     21  O   UNL A   1      44.679  18.330  25.045  1.00  0.00    -0.361 OA
ATOM     22  C   UNL A   1      46.324  20.026  24.658  1.00  0.00     0.091 C 
ENDBRANCH  15  16
ENDBRANCH  13  15
ENDBRANCH   8   9
ENDBRANCH   5   8
ENDBRANCH   3   5
ENDBRANCH   2   3
ENDBRANCH   1   2
BRANCH   1  23
ATOM     23  C   UNL A   1      41.895  25.489  25.613  1.00  0.00     0.275 C 
BRANCH  23  24
ATOM     24  O   UNL A   1      41.540  25.533  27.008  1.00  0.00    -0.458 OA
BRANCH  24  25
ATOM     25  C   UNL A   1      40.231  25.759  27.259  1.00  0.00     0.338 C 
ATOM     26  O   UNL A   1      39.272  25.205  26.743  1.00  0.00    -0.246 OA
BRANCH  25  27
ATOM     27  C   UNL A   1      40.094  26.703  28.376  1.00  0.00     0.060 A 
ATOM     28  C   UNL A   1      40.911  27.836  28.383  1.00  0.00     0.016 A 
ATOM     29  C   UNL A   1      39.245  26.433  29.451  1.00  0.00     0.016 A 
ATOM     30  C   UNL A   1      40.890  28.710  29.464  1.00  0.00     0.010 A 
ATOM     31  C   UNL A   1      39.226  27.310  30.540  1.00  0.00     0.010 A 
ATOM     32  C   UNL A   1      40.058  28.445  30.557  1.00  0.00    -0.014 A 
BRANCH  32  33
ATOM     33  C   UNL A   1      40.115  29.325  31.746  1.00  0.00     0.031 A 
ATOM     34  C   UNL A   1      41.228  29.158  32.741  1.00  0.00     0.074 A 
ATOM     35  C   UNL A   1      39.190  30.290  31.912  1.00  0.00     0.049 A 
ATOM     36  N   UNL A   1      41.416  29.775  33.877  1.00  0.00    -0.248 NA
ATOM     37  C   UNL A   1      42.266  28.170  32.409  1.00  0.00     0.031 C 
ATOM     38  C   UNL A   1      38.100  30.585  30.980  1.00  0.00     0.029 A 
ATOM     39  N   UNL A   1      39.023  31.198  32.924  1.00  0.00    -0.354 N 
ATOM     40  C   UNL A   1      42.579  29.235  34.411  1.00  0.00     0.074 A 
ATOM     41  C   UNL A   1      43.050  28.235  33.476  1.00  0.00     0.031 C 
ATOM     42  C   UNL A   1      37.376  31.606  31.467  1.00  0.00     0.029 A 
ATOM     43  C   UNL A   1      37.923  32.004  32.762  1.00  0.00     0.049 A 
ATOM     44  H   UNL A   1      39.634  31.267  33.694  1.00  0.00     0.167 HD
ATOM     45  C   UNL A   1      43.194  29.542  35.577  1.00  0.00     0.031 A 
ATOM     46  C   UNL A   1      37.397  32.937  33.580  1.00  0.00     0.031 A 
ATOM     47  C   UNL A   1      42.720  30.535  36.504  1.00  0.00     0.049 A 
ATOM     48  C   UNL A   1      38.063  33.216  34.898  1.00  0.00     0.074 A 
ATOM     49  C   UNL A   1      43.270  30.918  37.714  1.00  0.00     0.029 A 
ATOM     50  N   UNL A   1      41.581  31.305  36.321  1.00  0.00    -0.354 N 
ATOM     51  N   UNL A   1      39.153  32.682  35.398  1.00  0.00    -0.248 NA
ATOM     52  C   UNL A   1      37.428  34.219  35.763  1.00  0.00     0.031 C 
ATOM     53  C   UNL A   1      42.442  31.892  38.283  1.00  0.00     0.029 A 
ATOM     54  C   UNL A   1      41.401  32.148  37.404  1.00  0.00     0.049 A 
ATOM     55  H   UNL A   1      40.988  31.259  35.536  1.00  0.00     0.167 HD
ATOM     56  C   UNL A   1      39.341  33.296  36.632  1.00  0.00     0.074 A 
ATOM     57  C   UNL A   1      38.263  34.250  36.794  1.00  0.00     0.031 C 
ATOM     58  C   UNL A   1      40.319  33.088  37.547  1.00  0.00     0.031 A 
BRANCH  45  59
ATOM     59  C   UNL A   1      44.427  28.759  35.935  1.00  0.00    -0.014 A 
ATOM     60  C   UNL A   1      44.360  27.640  36.784  1.00  0.00     0.010 A 
ATOM     61  C   UNL A   1      45.669  29.134  35.391  1.00  0.00     0.010 A 
ATOM     62  C   UNL A   1      45.520  26.933  37.111  1.00  0.00     0.020 A 
ATOM     63  C   UNL A   1      46.827  28.418  35.700  1.00  0.00     0.020 A 
ATOM     64  C   UNL A   1      46.748  27.330  36.573  1.00  0.00     0.054 A 
BRANCH  64  65
ATOM     65  S   UNL A   1      48.239  26.390  37.003  1.00  0.00     0.124 S 
ATOM     66  O   UNL A   1      48.678  27.066  38.221  1.00  0.00    -0.237 OA
ATOM     67  O   UNL A   1      47.723  25.036  37.189  1.00  0.00    -0.237 OA
ATOM     68  O   UNL A   1      49.107  26.568  35.843  1.00  0.00    -0.744 OA
ENDBRANCH  64  65
ENDBRANCH  45  59
BRANCH  46  69
ATOM     69  C   UNL A   1      36.151  33.647  33.188  1.00  0.00    -0.014 A 
ATOM     70  C   UNL A   1      34.893  33.055  33.391  1.00  0.00     0.010 A 
ATOM     71  C   UNL A   1      36.220  34.932  32.618  1.00  0.00     0.010 A 
ATOM     72  C   UNL A   1      33.727  33.731  33.021  1.00  0.00     0.020 A 
ATOM     73  C   UNL A   1      35.056  35.619  32.268  1.00  0.00     0.020 A 
ATOM     74  C   UNL A   1      33.815  35.009  32.462  1.00  0.00     0.054 A 
BRANCH  74  75
ATOM     75  S   UNL A   1      32.289  35.897  32.041  1.00  0.00     0.124 S 
ATOM     76  O   UNL A   1      32.534  37.212  32.625  1.00  0.00    -0.237 OA
ATOM     77  O   UNL A   1      32.281  35.843  30.581  1.00  0.00    -0.237 OA
ATOM     78  O   UNL A   1      31.248  35.105  32.690  1.00  0.00    -0.744 OA
ENDBRANCH  74  75
ENDBRANCH  46  69
BRANCH  58  79
ATOM     79  C   UNL A   1      40.281  33.926  38.794  1.00  0.00    -0.014 A 
ATOM     80  C   UNL A   1      39.690  33.444  39.975  1.00  0.00     0.010 A 
ATOM     81  C   UNL A   1      40.892  35.194  38.798  1.00  0.00     0.010 A 
ATOM     82  C   UNL A   1      39.685  34.227  41.132  1.00  0.00     0.020 A 
ATOM     83  C   UNL A   1      40.908  35.970  39.958  1.00  0.00     0.020 A 
ATOM     84  C   UNL A   1      40.292  35.486  41.115  1.00  0.00     0.054 A 
BRANCH  84  85
ATOM     85  S   UNL A   1      40.313  36.470  42.640  1.00  0.00     0.124 S 
ATOM     86  O   UNL A   1      39.900  37.785  42.158  1.00  0.00    -0.237 OA
ATOM     87  O   UNL A   1      39.344  35.777  43.485  1.00  0.00    -0.237 OA
ATOM     88  O   UNL A   1      41.700  36.377  43.089  1.00  0.00    -0.744 OA
ENDBRANCH  84  85
ENDBRANCH  58  79
ENDBRANCH  32  33
ENDBRANCH  25  27
ENDBRANCH  24  25
ENDBRANCH  23  24
ENDBRANCH   1  23
TORSDOF 19
ENDMDL
