MODEL 1
REMARK VINA RESULT:     -10.7      0.000      0.000
REMARK SMILES CC[C@@H](C)[C@H](NC(=O)[C@H](C)N1C(=O)N2CCC3=c4cc(OC)ccc4=N[C@H]3[C@@]2(C)C1=O)C(=O)OCCOC(=O)c1ccc(-c2c3nc(c(-c4ccc(S(=O)(=O)[O-])cc4)c4ccc([nH]4)c(-c4ccc(S(=O)(=O)[O-])cc4)c4nc(c(-c5ccc(S(=O)(=O)[O-])cc5)c5ccc2[nH]5)C=C4)C=C3)cc1
REMARK SMILES IDX 35 1 34 2 32 3 33 4 5 5 3 6 4 7 2 8 1 9 6 10 7 11 8 13 9 14
REMARK SMILES IDX 10 15 11 16 12 17 30 18 14 19 13 20 28 21 31 22 15 23 27 24
REMARK SMILES IDX 29 25 16 26 17 27 26 28 18 29 25 30 19 31 24 32 20 33 23 34
REMARK SMILES IDX 21 35 22 36 36 37 37 38 38 39 39 40 40 41 41 42 99 43 42 44
REMARK SMILES IDX 98 45 43 46 44 47 45 48 92 49 46 50 97 51 91 52 93 53 47 54
REMARK SMILES IDX 96 55 90 56 89 57 48 59 78 60 59 61 77 62 60 63 63 64 76 65
REMARK SMILES IDX 94 66 61 67 62 68 75 70 95 71 64 72 49 73 50 74 58 75 51 76
REMARK SMILES IDX 57 77 52 78 53 79 54 80 55 81 56 82 79 83 80 84 88 85 81 86
REMARK SMILES IDX 87 87 82 88 83 89 84 90 85 91 86 92 65 93 66 94 74 95 67 96
REMARK SMILES IDX 73 97 68 98 69 99 70 100 71 101 72 102
REMARK H PARENT 6 12 93 58 63 69
REMARK Flexibility Score: inf
ROOT
ATOM      1  C   UNL A   1      36.404  22.995  23.314  1.00  0.00     0.274 C 
ENDROOT
BRANCH   1   2
ATOM      2  O   UNL A   1      35.140  23.620  23.669  1.00  0.00    -0.461 OA
BRANCH   2   3
ATOM      3  C   UNL A   1      34.029  23.077  23.059  1.00  0.00     0.329 C 
ATOM      4  O   UNL A   1      33.721  23.334  21.900  1.00  0.00    -0.250 OA
BRANCH   3   5
ATOM      5  C   UNL A   1      32.998  22.525  24.123  1.00  0.00     0.195 C 
BRANCH   5   6
ATOM      6  C   UNL A   1      33.354  20.950  24.057  1.00  0.00     0.019 C 
ATOM      7  C   UNL A   1      32.323  19.982  23.505  1.00  0.00     0.010 C 
BRANCH   6   8
ATOM      8  C   UNL A   1      34.110  20.508  25.366  1.00  0.00     0.002 C 
ATOM      9  C   UNL A   1      33.886  21.290  26.660  1.00  0.00     0.004 C 
ENDBRANCH   6   8
ENDBRANCH   5   6
BRANCH   5  10
ATOM     10  N   UNL A   1      31.566  22.972  23.909  1.00  0.00    -0.341 N 
ATOM     11  C   UNL A   1      30.879  24.135  23.515  1.00  0.00     0.243 C 
ATOM     12  H   UNL A   1      30.936  22.241  24.100  1.00  0.00     0.164 HD
ATOM     13  O   UNL A   1      29.707  23.907  23.170  1.00  0.00    -0.273 OA
BRANCH  11  14
ATOM     14  C   UNL A   1      31.347  25.722  23.654  1.00  0.00     0.181 C 
ATOM     15  C   UNL A   1      31.503  26.410  22.291  1.00  0.00     0.042 C 
BRANCH  14  16
ATOM     16  N   UNL A   1      32.461  26.151  24.587  1.00  0.00    -0.250 N 
ATOM     17  C   UNL A   1      33.565  27.071  24.435  1.00  0.00     0.328 C 
ATOM     18  C   UNL A   1      31.969  26.388  25.793  1.00  0.00     0.259 C 
ATOM     19  N   UNL A   1      33.546  27.967  25.678  1.00  0.00    -0.307 N 
ATOM     20  O   UNL A   1      34.239  27.293  23.442  1.00  0.00    -0.248 OA
ATOM     21  C   UNL A   1      32.198  27.813  26.065  1.00  0.00     0.147 C 
ATOM     22  O   UNL A   1      31.297  25.617  26.447  1.00  0.00    -0.271 OA
ATOM     23  C   UNL A   1      33.918  29.503  25.847  1.00  0.00     0.127 C 
ATOM     24  C   UNL A   1      31.561  28.738  24.937  1.00  0.00     0.168 C 
ATOM     25  C   UNL A   1      32.022  28.005  27.573  1.00  0.00     0.048 C 
ATOM     26  C   UNL A   1      32.471  30.585  25.984  1.00  0.00     0.055 C 
ATOM     27  C   UNL A   1      31.087  30.053  25.329  1.00  0.00    -0.032 C 
ATOM     28  N   UNL A   1      31.443  28.564  23.437  1.00  0.00    -0.274 NA
ATOM     29  C   UNL A   1      30.232  30.371  24.299  1.00  0.00     0.005 A 
ATOM     30  C   UNL A   1      30.969  29.751  23.134  1.00  0.00     0.066 A 
ATOM     31  C   UNL A   1      28.933  29.565  24.089  1.00  0.00     0.056 A 
ATOM     32  C   UNL A   1      30.481  30.133  21.800  1.00  0.00     0.032 A 
ATOM     33  C   UNL A   1      28.571  29.131  22.841  1.00  0.00     0.119 A 
ATOM     34  C   UNL A   1      29.202  29.745  21.684  1.00  0.00     0.048 A 
BRANCH  33  35
ATOM     35  O   UNL A   1      27.889  27.947  22.654  1.00  0.00    -0.497 OA
ATOM     36  C   UNL A   1      27.865  26.916  23.650  1.00  0.00     0.278 C 
ENDBRANCH  33  35
ENDBRANCH  14  16
ENDBRANCH  11  14
ENDBRANCH   5  10
ENDBRANCH   3   5
ENDBRANCH   2   3
ENDBRANCH   1   2
BRANCH   1  37
ATOM     37  C   UNL A   1      37.151  22.422  24.517  1.00  0.00     0.275 C 
BRANCH  37  38
ATOM     38  O   UNL A   1      37.666  23.480  25.329  1.00  0.00    -0.458 OA
BRANCH  38  39
ATOM     39  C   UNL A   1      38.698  23.102  26.123  1.00  0.00     0.338 C 
ATOM     40  O   UNL A   1      39.215  21.996  26.172  1.00  0.00    -0.246 OA
BRANCH  39  41
ATOM     41  C   UNL A   1      39.256  24.305  26.757  1.00  0.00     0.060 A 
ATOM     42  C   UNL A   1      40.082  25.200  26.076  1.00  0.00     0.016 A 
ATOM     43  C   UNL A   1      38.947  24.511  28.099  1.00  0.00     0.016 A 
ATOM     44  C   UNL A   1      40.606  26.303  26.756  1.00  0.00     0.010 A 
ATOM     45  C   UNL A   1      39.510  25.579  28.790  1.00  0.00     0.010 A 
ATOM     46  C   UNL A   1      40.335  26.488  28.122  1.00  0.00    -0.014 A 
BRANCH  46  47
ATOM     47  C   UNL A   1      40.773  27.710  28.827  1.00  0.00     0.031 A 
ATOM     48  C   UNL A   1      42.155  27.854  29.380  1.00  0.00     0.074 A 
ATOM     49  C   UNL A   1      39.862  28.681  29.011  1.00  0.00     0.049 A 
ATOM     50  N   UNL A   1      42.710  28.904  29.926  1.00  0.00    -0.248 NA
ATOM     51  C   UNL A   1      43.020  26.667  29.337  1.00  0.00     0.031 C 
ATOM     52  C   UNL A   1      38.464  28.605  28.584  1.00  0.00     0.029 A 
ATOM     53  N   UNL A   1      39.971  29.915  29.596  1.00  0.00    -0.354 N 
ATOM     54  C   UNL A   1      43.994  28.514  30.285  1.00  0.00     0.074 A 
ATOM     55  C   UNL A   1      44.118  27.113  29.938  1.00  0.00     0.031 C 
ATOM     56  C   UNL A   1      37.850  29.754  28.897  1.00  0.00     0.029 A 
ATOM     57  C   UNL A   1      38.813  30.650  29.533  1.00  0.00     0.049 A 
ATOM     58  H   UNL A   1      40.798  30.241  30.018  1.00  0.00     0.167 HD
ATOM     59  C   UNL A   1      44.977  29.274  30.827  1.00  0.00     0.031 A 
ATOM     60  C   UNL A   1      38.561  31.919  29.904  1.00  0.00     0.031 A 
ATOM     61  C   UNL A   1      44.826  30.672  31.150  1.00  0.00     0.049 A 
ATOM     62  C   UNL A   1      39.682  32.764  30.432  1.00  0.00     0.074 A 
ATOM     63  C   UNL A   1      45.793  31.553  31.608  1.00  0.00     0.029 A 
ATOM     64  N   UNL A   1      43.646  31.395  31.051  1.00  0.00    -0.354 N 
ATOM     65  N   UNL A   1      40.929  32.423  30.654  1.00  0.00    -0.248 NA
ATOM     66  C   UNL A   1      39.378  34.170  30.722  1.00  0.00     0.031 C 
ATOM     67  C   UNL A   1      45.185  32.790  31.838  1.00  0.00     0.029 A 
ATOM     68  C   UNL A   1      43.856  32.704  31.456  1.00  0.00     0.049 A 
ATOM     69  H   UNL A   1      42.787  31.031  30.740  1.00  0.00     0.167 HD
ATOM     70  C   UNL A   1      41.565  33.579  31.093  1.00  0.00     0.074 A 
ATOM     71  C   UNL A   1      40.568  34.631  31.089  1.00  0.00     0.031 C 
ATOM     72  C   UNL A   1      42.858  33.746  31.461  1.00  0.00     0.031 A 
BRANCH  59  73
ATOM     73  C   UNL A   1      46.328  28.647  31.063  1.00  0.00    -0.014 A 
ATOM     74  C   UNL A   1      47.320  28.706  30.065  1.00  0.00     0.010 A 
ATOM     75  C   UNL A   1      46.562  27.863  32.208  1.00  0.00     0.010 A 
ATOM     76  C   UNL A   1      48.502  27.968  30.191  1.00  0.00     0.020 A 
ATOM     77  C   UNL A   1      47.754  27.148  32.351  1.00  0.00     0.020 A 
ATOM     78  C   UNL A   1      48.706  27.184  31.330  1.00  0.00     0.054 A 
BRANCH  78  79
ATOM     79  S   UNL A   1      50.230  26.211  31.468  1.00  0.00     0.124 S 
ATOM     80  O   UNL A   1      50.204  25.791  32.865  1.00  0.00    -0.237 OA
ATOM     81  O   UNL A   1      50.022  25.150  30.484  1.00  0.00    -0.237 OA
ATOM     82  O   UNL A   1      51.278  27.168  31.119  1.00  0.00    -0.744 OA
ENDBRANCH  78  79
ENDBRANCH  59  73
BRANCH  60  83
ATOM     83  C   UNL A   1      37.209  32.473  29.636  1.00  0.00    -0.014 A 
ATOM     84  C   UNL A   1      36.911  33.067  28.396  1.00  0.00     0.010 A 
ATOM     85  C   UNL A   1      36.268  32.542  30.677  1.00  0.00     0.010 A 
ATOM     86  C   UNL A   1      35.717  33.770  28.221  1.00  0.00     0.020 A 
ATOM     87  C   UNL A   1      35.064  33.224  30.498  1.00  0.00     0.020 A 
ATOM     88  C   UNL A   1      34.810  33.861  29.281  1.00  0.00     0.054 A 
BRANCH  88  89
ATOM     89  S   UNL A   1      33.304  34.847  29.062  1.00  0.00     0.124 S 
ATOM     90  O   UNL A   1      32.571  34.059  28.074  1.00  0.00    -0.237 OA
ATOM     91  O   UNL A   1      32.732  34.862  30.406  1.00  0.00    -0.237 OA
ATOM     92  O   UNL A   1      33.805  36.135  28.587  1.00  0.00    -0.744 OA
ENDBRANCH  88  89
ENDBRANCH  60  83
BRANCH  72  93
ATOM     93  C   UNL A   1      43.298  35.117  31.907  1.00  0.00    -0.014 A 
ATOM     94  C   UNL A   1      43.125  35.505  33.249  1.00  0.00     0.010 A 
ATOM     95  C   UNL A   1      43.762  36.063  30.976  1.00  0.00     0.010 A 
ATOM     96  C   UNL A   1      43.372  36.821  33.645  1.00  0.00     0.020 A 
ATOM     97  C   UNL A   1      44.037  37.375  31.375  1.00  0.00     0.020 A 
ATOM     98  C   UNL A   1      43.815  37.751  32.702  1.00  0.00     0.054 A 
BRANCH  98  99
ATOM     99  S   UNL A   1      44.095  39.466  33.227  1.00  0.00     0.124 S 
ATOM    100  O   UNL A   1      44.791  39.288  34.498  1.00  0.00    -0.237 OA
ATOM    101  O   UNL A   1      44.903  40.009  32.137  1.00  0.00    -0.237 OA
ATOM    102  O   UNL A   1      42.745  40.019  33.326  1.00  0.00    -0.744 OA
ENDBRANCH  98  99
ENDBRANCH  72  93
ENDBRANCH  46  47
ENDBRANCH  39  41
ENDBRANCH  38  39
ENDBRANCH  37  38
ENDBRANCH   1  37
TORSDOF 20
ENDMDL
MODEL 2
REMARK VINA RESULT:     -10.6      3.619      5.264
REMARK SMILES CC[C@@H](C)[C@H](NC(=O)[C@H](C)N1C(=O)N2CCC3=c4cc(OC)ccc4=N[C@H]3[C@@]2(C)C1=O)C(=O)OCCOC(=O)c1ccc(-c2c3nc(c(-c4ccc(S(=O)(=O)[O-])cc4)c4ccc([nH]4)c(-c4ccc(S(=O)(=O)[O-])cc4)c4nc(c(-c5ccc(S(=O)(=O)[O-])cc5)c5ccc2[nH]5)C=C4)C=C3)cc1
REMARK SMILES IDX 35 1 34 2 32 3 33 4 5 5 3 6 4 7 2 8 1 9 6 10 7 11 8 13 9 14
REMARK SMILES IDX 10 15 11 16 12 17 30 18 14 19 13 20 28 21 31 22 15 23 27 24
REMARK SMILES IDX 29 25 16 26 17 27 26 28 18 29 25 30 19 31 24 32 20 33 23 34
REMARK SMILES IDX 21 35 22 36 36 37 37 38 38 39 39 40 40 41 41 42 99 43 42 44
REMARK SMILES IDX 98 45 43 46 44 47 45 48 92 49 46 50 97 51 91 52 93 53 47 54
REMARK SMILES IDX 96 55 90 56 89 57 48 59 78 60 59 61 77 62 60 63 63 64 76 65
REMARK SMILES IDX 94 66 61 67 62 68 75 70 95 71 64 72 49 73 50 74 58 75 51 76
REMARK SMILES IDX 57 77 52 78 53 79 54 80 55 81 56 82 79 83 80 84 88 85 81 86
REMARK SMILES IDX 87 87 82 88 83 89 84 90 85 91 86 92 65 93 66 94 74 95 67 96
REMARK SMILES IDX 73 97 68 98 69 99 70 100 71 101 72 102
REMARK H PARENT 6 12 93 58 63 69
REMARK Flexibility Score: inf
ROOT
ATOM      1  C   UNL A   1      38.500  21.289  25.631  1.00  0.00     0.274 C 
ENDROOT
BRANCH   1   2
ATOM      2  O   UNL A   1      37.375  21.406  24.718  1.00  0.00    -0.461 OA
BRANCH   2   3
ATOM      3  C   UNL A   1      36.258  20.681  25.071  1.00  0.00     0.329 C 
ATOM      4  O   UNL A   1      36.139  19.486  24.817  1.00  0.00    -0.250 OA
BRANCH   3   5
ATOM      5  C   UNL A   1      35.026  21.625  25.369  1.00  0.00     0.195 C 
BRANCH   5   6
ATOM      6  C   UNL A   1      33.845  20.757  24.687  1.00  0.00     0.019 C 
ATOM      7  C   UNL A   1      32.987  21.395  23.610  1.00  0.00     0.010 C 
BRANCH   6   8
ATOM      8  C   UNL A   1      33.093  19.908  25.780  1.00  0.00     0.002 C 
ATOM      9  C   UNL A   1      32.601  18.504  25.429  1.00  0.00     0.004 C 
ENDBRANCH   6   8
ENDBRANCH   5   6
BRANCH   5  10
ATOM     10  N   UNL A   1      35.219  23.070  24.954  1.00  0.00    -0.341 N 
ATOM     11  C   UNL A   1      34.640  24.324  25.225  1.00  0.00     0.243 C 
ATOM     12  H   UNL A   1      35.959  23.157  24.312  1.00  0.00     0.164 HD
ATOM     13  O   UNL A   1      35.370  25.272  24.887  1.00  0.00    -0.273 OA
BRANCH  11  14
ATOM     14  C   UNL A   1      33.093  24.676  25.713  1.00  0.00     0.181 C 
ATOM     15  C   UNL A   1      32.794  24.165  27.129  1.00  0.00     0.042 C 
BRANCH  14  16
ATOM     16  N   UNL A   1      31.896  24.451  24.812  1.00  0.00    -0.250 N 
ATOM     17  C   UNL A   1      30.480  24.670  24.992  1.00  0.00     0.328 C 
ATOM     18  C   UNL A   1      32.166  24.888  23.592  1.00  0.00     0.259 C 
ATOM     19  N   UNL A   1      30.003  25.425  23.748  1.00  0.00    -0.307 N 
ATOM     20  O   UNL A   1      29.811  24.528  26.004  1.00  0.00    -0.248 OA
ATOM     21  C   UNL A   1      31.227  25.984  23.323  1.00  0.00     0.147 C 
ATOM     22  O   UNL A   1      33.125  24.566  22.920  1.00  0.00    -0.271 OA
ATOM     23  C   UNL A   1      28.887  26.544  23.585  1.00  0.00     0.127 C 
ATOM     24  C   UNL A   1      31.320  27.125  24.430  1.00  0.00     0.168 C 
ATOM     25  C   UNL A   1      31.243  26.214  21.809  1.00  0.00     0.048 C 
ATOM     26  C   UNL A   1      29.560  28.216  23.405  1.00  0.00     0.055 C 
ATOM     27  C   UNL A   1      31.035  28.489  24.022  1.00  0.00    -0.032 C 
ATOM     28  N   UNL A   1      31.545  27.062  25.926  1.00  0.00    -0.274 NA
ATOM     29  C   UNL A   1      31.626  29.220  25.026  1.00  0.00     0.005 A 
ATOM     30  C   UNL A   1      31.343  28.328  26.213  1.00  0.00     0.066 A 
ATOM     31  C   UNL A   1      33.158  29.206  25.200  1.00  0.00     0.056 A 
ATOM     32  C   UNL A   1      31.594  28.929  27.531  1.00  0.00     0.032 A 
ATOM     33  C   UNL A   1      33.721  29.043  26.439  1.00  0.00     0.119 A 
ATOM     34  C   UNL A   1      32.891  29.262  27.612  1.00  0.00     0.048 A 
BRANCH  33  35
ATOM     35  O   UNL A   1      34.922  28.386  26.609  1.00  0.00    -0.497 OA
ATOM     36  C   UNL A   1      35.997  28.949  27.374  1.00  0.00     0.278 C 
ENDBRANCH  33  35
ENDBRANCH  14  16
ENDBRANCH  11  14
ENDBRANCH   5  10
ENDBRANCH   3   5
ENDBRANCH   2   3
ENDBRANCH   1   2
BRANCH   1  37
ATOM     37  C   UNL A   1      39.260  19.971  25.484  1.00  0.00     0.275 C 
BRANCH  37  38
ATOM     38  O   UNL A   1      40.221  19.835  26.535  1.00  0.00    -0.458 OA
BRANCH  38  39
ATOM     39  C   UNL A   1      41.505  19.896  26.107  1.00  0.00     0.338 C 
ATOM     40  O   UNL A   1      42.059  19.118  25.344  1.00  0.00    -0.246 OA
BRANCH  39  41
ATOM     41  C   UNL A   1      42.070  21.186  26.527  1.00  0.00     0.060 A 
ATOM     42  C   UNL A   1      42.382  21.473  27.856  1.00  0.00     0.016 A 
ATOM     43  C   UNL A   1      42.263  22.143  25.533  1.00  0.00     0.016 A 
ATOM     44  C   UNL A   1      42.883  22.737  28.185  1.00  0.00     0.010 A 
ATOM     45  C   UNL A   1      42.712  23.416  25.867  1.00  0.00     0.010 A 
ATOM     46  C   UNL A   1      43.034  23.720  27.193  1.00  0.00    -0.014 A 
BRANCH  46  47
ATOM     47  C   UNL A   1      43.677  25.015  27.495  1.00  0.00     0.031 A 
ATOM     48  C   UNL A   1      45.123  25.266  27.211  1.00  0.00     0.074 A 
ATOM     49  C   UNL A   1      42.928  25.955  28.098  1.00  0.00     0.049 A 
ATOM     50  N   UNL A   1      45.795  26.382  27.324  1.00  0.00    -0.248 NA
ATOM     51  C   UNL A   1      45.927  24.120  26.763  1.00  0.00     0.031 C 
ATOM     52  C   UNL A   1      41.530  25.780  28.493  1.00  0.00     0.029 A 
ATOM     53  N   UNL A   1      43.231  27.237  28.475  1.00  0.00    -0.354 N 
ATOM     54  C   UNL A   1      47.099  26.082  26.953  1.00  0.00     0.074 A 
ATOM     55  C   UNL A   1      47.134  24.664  26.658  1.00  0.00     0.031 C 
ATOM     56  C   UNL A   1      41.086  26.923  29.036  1.00  0.00     0.029 A 
ATOM     57  C   UNL A   1      42.162  27.910  29.012  1.00  0.00     0.049 A 
ATOM     58  H   UNL A   1      44.125  27.634  28.371  1.00  0.00     0.167 HD
ATOM     59  C   UNL A   1      48.153  26.928  26.846  1.00  0.00     0.031 A 
ATOM     60  C   UNL A   1      42.043  29.193  29.403  1.00  0.00     0.031 A 
ATOM     61  C   UNL A   1      48.083  28.340  27.136  1.00  0.00     0.049 A 
ATOM     62  C   UNL A   1      43.198  30.129  29.206  1.00  0.00     0.074 A 
ATOM     63  C   UNL A   1      49.069  29.298  26.962  1.00  0.00     0.029 A 
ATOM     64  N   UNL A   1      46.978  28.997  27.656  1.00  0.00    -0.354 N 
ATOM     65  N   UNL A   1      44.394  29.865  28.737  1.00  0.00    -0.248 NA
ATOM     66  C   UNL A   1      42.981  31.539  29.551  1.00  0.00     0.031 C 
ATOM     67  C   UNL A   1      48.577  30.521  27.427  1.00  0.00     0.029 A 
ATOM     68  C   UNL A   1      47.263  30.343  27.824  1.00  0.00     0.049 A 
ATOM     69  H   UNL A   1      46.118  28.570  27.872  1.00  0.00     0.167 HD
ATOM     70  C   UNL A   1      45.068  31.080  28.712  1.00  0.00     0.074 A 
ATOM     71  C   UNL A   1      44.140  32.082  29.198  1.00  0.00     0.031 C 
ATOM     72  C   UNL A   1      46.339  31.336  28.319  1.00  0.00     0.031 A 
BRANCH  59  73
ATOM     73  C   UNL A   1      49.468  26.385  26.346  1.00  0.00    -0.014 A 
ATOM     74  C   UNL A   1      50.404  25.852  27.254  1.00  0.00     0.010 A 
ATOM     75  C   UNL A   1      49.844  26.546  25.001  1.00  0.00     0.010 A 
ATOM     76  C   UNL A   1      51.698  25.524  26.834  1.00  0.00     0.020 A 
ATOM     77  C   UNL A   1      51.125  26.192  24.570  1.00  0.00     0.020 A 
ATOM     78  C   UNL A   1      52.053  25.708  25.495  1.00  0.00     0.054 A 
BRANCH  78  79
ATOM     79  S   UNL A   1      53.741  25.306  24.968  1.00  0.00     0.124 S 
ATOM     80  O   UNL A   1      53.834  25.982  23.679  1.00  0.00    -0.237 OA
ATOM     81  O   UNL A   1      54.555  25.875  26.041  1.00  0.00    -0.237 OA
ATOM     82  O   UNL A   1      53.742  23.845  24.913  1.00  0.00    -0.744 OA
ENDBRANCH  78  79
ENDBRANCH  59  73
BRANCH  60  83
ATOM     83  C   UNL A   1      40.716  29.661  29.880  1.00  0.00    -0.014 A 
ATOM     84  C   UNL A   1      39.761  30.154  28.972  1.00  0.00     0.010 A 
ATOM     85  C   UNL A   1      40.468  29.756  31.260  1.00  0.00     0.010 A 
ATOM     86  C   UNL A   1      38.605  30.784  29.439  1.00  0.00     0.020 A 
ATOM     87  C   UNL A   1      39.303  30.364  31.729  1.00  0.00     0.020 A 
ATOM     88  C   UNL A   1      38.395  30.903  30.816  1.00  0.00     0.054 A 
BRANCH  88  89
ATOM     89  S   UNL A   1      36.930  31.798  31.403  1.00  0.00     0.124 S 
ATOM     90  O   UNL A   1      36.720  31.197  32.718  1.00  0.00    -0.237 OA
ATOM     91  O   UNL A   1      37.384  33.186  31.410  1.00  0.00    -0.237 OA
ATOM     92  O   UNL A   1      35.913  31.483  30.403  1.00  0.00    -0.744 OA
ENDBRANCH  88  89
ENDBRANCH  60  83
BRANCH  72  93
ATOM     93  C   UNL A   1      46.834  32.757  28.396  1.00  0.00    -0.014 A 
ATOM     94  C   UNL A   1      46.922  33.532  27.224  1.00  0.00     0.010 A 
ATOM     95  C   UNL A   1      47.334  33.282  29.601  1.00  0.00     0.010 A 
ATOM     96  C   UNL A   1      47.531  34.788  27.246  1.00  0.00     0.020 A 
ATOM     97  C   UNL A   1      47.919  34.552  29.632  1.00  0.00     0.020 A 
ATOM     98  C   UNL A   1      48.037  35.285  28.450  1.00  0.00     0.054 A 
BRANCH  98  99
ATOM     99  S   UNL A   1      48.858  36.904  28.453  1.00  0.00     0.124 S 
ATOM    100  O   UNL A   1      48.645  37.354  29.825  1.00  0.00    -0.237 OA
ATOM    101  O   UNL A   1      50.236  36.567  28.106  1.00  0.00    -0.237 OA
ATOM    102  O   UNL A   1      48.134  37.657  27.430  1.00  0.00    -0.744 OA
ENDBRANCH  98  99
ENDBRANCH  72  93
ENDBRANCH  46  47
ENDBRANCH  39  41
ENDBRANCH  38  39
ENDBRANCH  37  38
ENDBRANCH   1  37
TORSDOF 20
ENDMDL
MODEL 3
REMARK VINA RESULT:     -10.6      3.820      9.714
REMARK SMILES CC[C@@H](C)[C@H](NC(=O)[C@H](C)N1C(=O)N2CCC3=c4cc(OC)ccc4=N[C@H]3[C@@]2(C)C1=O)C(=O)OCCOC(=O)c1ccc(-c2c3nc(c(-c4ccc(S(=O)(=O)[O-])cc4)c4ccc([nH]4)c(-c4ccc(S(=O)(=O)[O-])cc4)c4nc(c(-c5ccc(S(=O)(=O)[O-])cc5)c5ccc2[nH]5)C=C4)C=C3)cc1
REMARK SMILES IDX 35 1 34 2 32 3 33 4 5 5 3 6 4 7 2 8 1 9 6 10 7 11 8 13 9 14
REMARK SMILES IDX 10 15 11 16 12 17 30 18 14 19 13 20 28 21 31 22 15 23 27 24
REMARK SMILES IDX 29 25 16 26 17 27 26 28 18 29 25 30 19 31 24 32 20 33 23 34
REMARK SMILES IDX 21 35 22 36 36 37 37 38 38 39 39 40 40 41 41 42 99 43 42 44
REMARK SMILES IDX 98 45 43 46 44 47 45 48 92 49 46 50 97 51 91 52 93 53 47 54
REMARK SMILES IDX 96 55 90 56 89 57 48 59 78 60 59 61 77 62 60 63 63 64 76 65
REMARK SMILES IDX 94 66 61 67 62 68 75 70 95 71 64 72 49 73 50 74 58 75 51 76
REMARK SMILES IDX 57 77 52 78 53 79 54 80 55 81 56 82 79 83 80 84 88 85 81 86
REMARK SMILES IDX 87 87 82 88 83 89 84 90 85 91 86 92 65 93 66 94 74 95 67 96
REMARK SMILES IDX 73 97 68 98 69 99 70 100 71 101 72 102
REMARK H PARENT 6 12 93 58 63 69
REMARK Flexibility Score: inf
ROOT
ATOM      1  C   UNL A   1      33.127  31.241  27.321  1.00  0.00     0.274 C 
ENDROOT
BRANCH   1   2
ATOM      2  O   UNL A   1      32.765  30.470  26.143  1.00  0.00    -0.461 OA
BRANCH   2   3
ATOM      3  C   UNL A   1      32.164  29.257  26.401  1.00  0.00     0.329 C 
ATOM      4  O   UNL A   1      31.728  28.958  27.508  1.00  0.00    -0.250 OA
BRANCH   3   5
ATOM      5  C   UNL A   1      32.536  28.182  25.303  1.00  0.00     0.195 C 
BRANCH   5   6
ATOM      6  C   UNL A   1      31.164  28.176  24.450  1.00  0.00     0.019 C 
ATOM      7  C   UNL A   1      30.243  26.972  24.538  1.00  0.00     0.010 C 
BRANCH   6   8
ATOM      8  C   UNL A   1      31.414  28.770  23.012  1.00  0.00     0.002 C 
ATOM      9  C   UNL A   1      30.241  29.366  22.234  1.00  0.00     0.004 C 
ENDBRANCH   6   8
ENDBRANCH   5   6
BRANCH   5  10
ATOM     10  N   UNL A   1      33.074  26.876  25.852  1.00  0.00    -0.341 N 
ATOM     11  C   UNL A   1      33.747  25.737  25.372  1.00  0.00     0.243 C 
ATOM     12  H   UNL A   1      32.904  26.802  26.818  1.00  0.00     0.164 HD
ATOM     13  O   UNL A   1      34.270  25.071  26.282  1.00  0.00    -0.273 OA
BRANCH  11  14
ATOM     14  C   UNL A   1      33.745  25.089  23.844  1.00  0.00     0.181 C 
ATOM     15  C   UNL A   1      34.071  26.130  22.764  1.00  0.00     0.042 C 
BRANCH  14  16
ATOM     16  N   UNL A   1      32.643  24.166  23.365  1.00  0.00    -0.250 N 
ATOM     17  C   UNL A   1      32.609  23.112  22.378  1.00  0.00     0.328 C 
ATOM     18  C   UNL A   1      31.971  23.695  24.404  1.00  0.00     0.259 C 
ATOM     19  N   UNL A   1      31.936  21.914  23.056  1.00  0.00    -0.307 N 
ATOM     20  O   UNL A   1      33.195  23.053  21.308  1.00  0.00    -0.248 OA
ATOM     21  C   UNL A   1      32.172  22.241  24.408  1.00  0.00     0.147 C 
ATOM     22  O   UNL A   1      31.458  24.365  25.277  1.00  0.00    -0.271 OA
ATOM     23  C   UNL A   1      32.197  20.356  22.889  1.00  0.00     0.127 C 
ATOM     24  C   UNL A   1      33.717  21.859  24.438  1.00  0.00     0.168 C 
ATOM     25  C   UNL A   1      31.094  21.651  25.322  1.00  0.00     0.048 C 
ATOM     26  C   UNL A   1      33.136  19.630  24.258  1.00  0.00     0.055 C 
ATOM     27  C   UNL A   1      34.096  20.625  25.105  1.00  0.00    -0.032 C 
ATOM     28  N   UNL A   1      34.926  22.493  23.783  1.00  0.00    -0.274 NA
ATOM     29  C   UNL A   1      35.435  20.826  25.345  1.00  0.00     0.005 A 
ATOM     30  C   UNL A   1      35.823  21.586  24.096  1.00  0.00     0.066 A 
ATOM     31  C   UNL A   1      35.893  21.924  26.326  1.00  0.00     0.056 A 
ATOM     32  C   UNL A   1      37.268  21.737  23.870  1.00  0.00     0.032 A 
ATOM     33  C   UNL A   1      36.912  22.779  25.996  1.00  0.00     0.119 A 
ATOM     34  C   UNL A   1      37.796  22.414  24.901  1.00  0.00     0.048 A 
BRANCH  33  35
ATOM     35  O   UNL A   1      36.935  24.085  26.438  1.00  0.00    -0.497 OA
ATOM     36  C   UNL A   1      38.146  24.724  26.867  1.00  0.00     0.278 C 
ENDBRANCH  33  35
ENDBRANCH  14  16
ENDBRANCH  11  14
ENDBRANCH   5  10
ENDBRANCH   3   5
ENDBRANCH   2   3
ENDBRANCH   1   2
BRANCH   1  37
ATOM     37  C   UNL A   1      32.470  32.619  27.364  1.00  0.00     0.275 C 
BRANCH  37  38
ATOM     38  O   UNL A   1      33.459  33.632  27.571  1.00  0.00    -0.458 OA
BRANCH  38  39
ATOM     39  C   UNL A   1      33.472  34.128  28.832  1.00  0.00     0.338 C 
ATOM     40  O   UNL A   1      32.545  34.673  29.412  1.00  0.00    -0.246 OA
BRANCH  39  41
ATOM     41  C   UNL A   1      34.719  33.700  29.483  1.00  0.00     0.060 A 
ATOM     42  C   UNL A   1      35.966  34.219  29.133  1.00  0.00     0.016 A 
ATOM     43  C   UNL A   1      34.612  32.718  30.464  1.00  0.00     0.016 A 
ATOM     44  C   UNL A   1      37.112  33.736  29.771  1.00  0.00     0.010 A 
ATOM     45  C   UNL A   1      35.756  32.201  31.063  1.00  0.00     0.010 A 
ATOM     46  C   UNL A   1      37.013  32.711  30.727  1.00  0.00    -0.014 A 
BRANCH  46  47
ATOM     47  C   UNL A   1      38.193  32.276  31.503  1.00  0.00     0.031 A 
ATOM     48  C   UNL A   1      38.516  32.853  32.844  1.00  0.00     0.074 A 
ATOM     49  C   UNL A   1      39.013  31.377  30.933  1.00  0.00     0.049 A 
ATOM     50  N   UNL A   1      39.453  32.494  33.682  1.00  0.00    -0.248 NA
ATOM     51  C   UNL A   1      37.702  33.989  33.299  1.00  0.00     0.031 C 
ATOM     52  C   UNL A   1      38.833  30.814  29.594  1.00  0.00     0.029 A 
ATOM     53  N   UNL A   1      40.151  30.775  31.403  1.00  0.00    -0.354 N 
ATOM     54  C   UNL A   1      39.341  33.350  34.770  1.00  0.00     0.074 A 
ATOM     55  C   UNL A   1      38.273  34.279  34.462  1.00  0.00     0.031 C 
ATOM     56  C   UNL A   1      39.811  29.929  29.359  1.00  0.00     0.029 A 
ATOM     57  C   UNL A   1      40.676  29.853  30.533  1.00  0.00     0.049 A 
ATOM     58  H   UNL A   1      40.551  30.985  32.278  1.00  0.00     0.167 HD
ATOM     59  C   UNL A   1      40.051  33.332  35.924  1.00  0.00     0.031 A 
ATOM     60  C   UNL A   1      41.711  29.005  30.678  1.00  0.00     0.031 A 
ATOM     61  C   UNL A   1      41.103  32.384  36.206  1.00  0.00     0.049 A 
ATOM     62  C   UNL A   1      42.436  28.950  31.989  1.00  0.00     0.074 A 
ATOM     63  C   UNL A   1      41.813  32.220  37.385  1.00  0.00     0.029 A 
ATOM     64  N   UNL A   1      41.595  31.445  35.313  1.00  0.00    -0.354 N 
ATOM     65  N   UNL A   1      42.244  29.680  33.062  1.00  0.00    -0.248 NA
ATOM     66  C   UNL A   1      43.488  27.935  32.129  1.00  0.00     0.031 C 
ATOM     67  C   UNL A   1      42.769  31.221  37.185  1.00  0.00     0.029 A 
ATOM     68  C   UNL A   1      42.610  30.711  35.907  1.00  0.00     0.049 A 
ATOM     69  H   UNL A   1      41.271  31.318  34.392  1.00  0.00     0.167 HD
ATOM     70  C   UNL A   1      43.137  29.201  34.012  1.00  0.00     0.074 A 
ATOM     71  C   UNL A   1      43.859  28.108  33.392  1.00  0.00     0.031 C 
ATOM     72  C   UNL A   1      43.335  29.630  35.282  1.00  0.00     0.031 A 
BRANCH  59  73
ATOM     73  C   UNL A   1      39.699  34.322  37.006  1.00  0.00    -0.014 A 
ATOM     74  C   UNL A   1      40.263  35.612  36.995  1.00  0.00     0.010 A 
ATOM     75  C   UNL A   1      38.936  33.923  38.118  1.00  0.00     0.010 A 
ATOM     76  C   UNL A   1      40.099  36.470  38.087  1.00  0.00     0.020 A 
ATOM     77  C   UNL A   1      38.745  34.788  39.199  1.00  0.00     0.020 A 
ATOM     78  C   UNL A   1      39.349  36.047  39.188  1.00  0.00     0.054 A 
BRANCH  78  79
ATOM     79  S   UNL A   1      39.168  37.158  40.611  1.00  0.00     0.124 S 
ATOM     80  O   UNL A   1      40.550  37.530  40.892  1.00  0.00    -0.237 OA
ATOM     81  O   UNL A   1      38.321  38.224  40.078  1.00  0.00    -0.237 OA
ATOM     82  O   UNL A   1      38.527  36.318  41.620  1.00  0.00    -0.744 OA
ENDBRANCH  78  79
ENDBRANCH  59  73
BRANCH  60  83
ATOM     83  C   UNL A   1      41.999  28.054  29.573  1.00  0.00    -0.014 A 
ATOM     84  C   UNL A   1      43.033  28.314  28.655  1.00  0.00     0.010 A 
ATOM     85  C   UNL A   1      41.137  26.967  29.350  1.00  0.00     0.010 A 
ATOM     86  C   UNL A   1      43.165  27.535  27.503  1.00  0.00     0.020 A 
ATOM     87  C   UNL A   1      41.280  26.172  28.212  1.00  0.00     0.020 A 
ATOM     88  C   UNL A   1      42.274  26.481  27.280  1.00  0.00     0.054 A 
BRANCH  88  89
ATOM     89  S   UNL A   1      42.408  25.533  25.740  1.00  0.00     0.124 S 
ATOM     90  O   UNL A   1      42.351  24.158  26.229  1.00  0.00    -0.237 OA
ATOM     91  O   UNL A   1      41.242  25.982  24.984  1.00  0.00    -0.237 OA
ATOM     92  O   UNL A   1      43.698  25.948  25.194  1.00  0.00    -0.744 OA
ENDBRANCH  88  89
ENDBRANCH  60  83
BRANCH  72  93
ATOM     93  C   UNL A   1      44.381  28.934  36.113  1.00  0.00    -0.014 A 
ATOM     94  C   UNL A   1      45.718  29.371  36.064  1.00  0.00     0.010 A 
ATOM     95  C   UNL A   1      44.068  27.771  36.840  1.00  0.00     0.010 A 
ATOM     96  C   UNL A   1      46.728  28.642  36.694  1.00  0.00     0.020 A 
ATOM     97  C   UNL A   1      45.074  27.053  37.495  1.00  0.00     0.020 A 
ATOM     98  C   UNL A   1      46.400  27.480  37.397  1.00  0.00     0.054 A 
BRANCH  98  99
ATOM     99  S   UNL A   1      47.731  26.524  38.178  1.00  0.00     0.124 S 
ATOM    100  O   UNL A   1      48.717  27.557  38.476  1.00  0.00    -0.237 OA
ATOM    101  O   UNL A   1      47.066  25.934  39.338  1.00  0.00    -0.237 OA
ATOM    102  O   UNL A   1      48.121  25.569  37.142  1.00  0.00    -0.744 OA
ENDBRANCH  98  99
ENDBRANCH  72  93
ENDBRANCH  46  47
ENDBRANCH  39  41
ENDBRANCH  38  39
ENDBRANCH  37  38
ENDBRANCH   1  37
TORSDOF 20
ENDMDL
