MODEL 1
REMARK VINA RESULT:     -10.4      0.000      0.000
REMARK SMILES CC(C)CN(C)c1cc2c(cc1Cl)C=C(C(=O)OCCOC(=O)c1ccc(-c3c4nc(c(-c5ccc(S(=O)(=O)[O-])cc5)c5ccc([nH]5)c(-c5ccc(S(=O)(=O)[O-])cc5)c5nc(c(-c6ccc(S(=O)(=O)[O-])cc6)c6ccc3[nH]6)C=C5)C=C4)cc1)[C@H](C(F)(F)F)O2
REMARK SMILES IDX 19 1 18 2 16 3 17 4 15 5 7 6 8 7 12 8 9 9 11 10 13 11 10 12
REMARK SMILES IDX 89 13 14 14 84 15 5 16 6 17 4 18 2 19 1 20 3 21 85 22 86 23
REMARK SMILES IDX 87 24 88 25 20 26 21 27 22 28 23 29 24 30 25 31 83 32 26 33
REMARK SMILES IDX 82 34 27 35 28 36 29 37 76 38 30 39 81 40 75 41 77 42 31 43
REMARK SMILES IDX 80 44 74 45 73 46 32 48 62 49 43 50 61 51 44 52 47 53 60 54
REMARK SMILES IDX 78 55 45 56 46 57 59 59 79 60 48 61 33 62 34 63 42 64 35 65
REMARK SMILES IDX 41 66 36 67 37 68 38 69 39 70 40 71 63 72 64 73 72 74 65 75
REMARK SMILES IDX 71 76 66 77 67 78 68 79 69 80 70 81 49 82 50 83 58 84 51 85
REMARK SMILES IDX 57 86 52 87 53 88 54 89 55 90 56 91
REMARK H PARENT 77 47 47 58
REMARK Flexibility Score: inf
ROOT
ATOM      1  C   UNL A   1      41.181  19.876  26.836  1.00  0.00     0.275 C 
ENDROOT
BRANCH   1   2
ATOM      2  O   UNL A   1      42.505  20.443  26.736  1.00  0.00    -0.459 OA
BRANCH   2   3
ATOM      3  C   UNL A   1      43.132  20.283  25.555  1.00  0.00     0.338 C 
ATOM      4  O   UNL A   1      42.918  19.384  24.756  1.00  0.00    -0.246 OA
BRANCH   3   5
ATOM      5  C   UNL A   1      44.078  21.388  25.282  1.00  0.00     0.087 C 
ATOM      6  C   UNL A   1      46.098  26.025  25.084  1.00  0.00     0.059 A 
ATOM      7  C   UNL A   1      46.543  24.737  24.735  1.00  0.00     0.074 A 
ATOM      8  C   UNL A   1      44.789  26.151  25.593  1.00  0.00     0.065 A 
ATOM      9  C   UNL A   1      45.724  23.615  24.905  1.00  0.00     0.130 A 
ATOM     10  C   UNL A   1      43.989  25.026  25.805  1.00  0.00     0.034 A 
ATOM     11  Cl  UNL A   1      44.089  27.691  25.959  1.00  0.00    -0.082 Cl
ATOM     12  C   UNL A   1      44.457  23.759  25.456  1.00  0.00     0.019 A 
ATOM     13  O   UNL A   1      46.245  22.405  24.547  1.00  0.00    -0.475 OA
ATOM     14  C   UNL A   1      43.637  22.589  25.691  1.00  0.00     0.027 C 
ATOM     15  C   UNL A   1      45.361  21.237  24.496  1.00  0.00     0.316 C 
BRANCH   6  16
ATOM     16  N   UNL A   1      46.934  27.135  24.922  1.00  0.00    -0.373 N 
ATOM     17  C   UNL A   1      47.333  27.421  23.551  1.00  0.00     0.143 C 
BRANCH  16  18
ATOM     18  C   UNL A   1      47.885  27.449  26.001  1.00  0.00     0.119 C 
BRANCH  18  19
ATOM     19  C   UNL A   1      49.352  27.293  25.549  1.00  0.00     0.002 C 
ATOM     20  C   UNL A   1      50.232  28.438  26.061  1.00  0.00     0.009 C 
ATOM     21  C   UNL A   1      49.939  25.962  26.030  1.00  0.00     0.009 C 
ENDBRANCH  18  19
ENDBRANCH  16  18
ENDBRANCH   6  16
BRANCH  15  22
ATOM     22  C   UNL A   1      46.237  20.002  24.779  1.00  0.00     0.430 C 
ATOM     23  F   UNL A   1      47.486  20.118  24.288  1.00  0.00    -0.167 F 
ATOM     24  F   UNL A   1      46.319  19.743  26.108  1.00  0.00    -0.167 F 
ATOM     25  F   UNL A   1      45.693  18.884  24.228  1.00  0.00    -0.167 F 
ENDBRANCH  15  22
ENDBRANCH   3   5
ENDBRANCH   2   3
ENDBRANCH   1   2
BRANCH   1  26
ATOM     26  C   UNL A   1      40.167  20.773  26.132  1.00  0.00     0.275 C 
BRANCH  26  27
ATOM     27  O   UNL A   1      39.843  21.905  26.962  1.00  0.00    -0.458 OA
BRANCH  27  28
ATOM     28  C   UNL A   1      39.043  22.836  26.396  1.00  0.00     0.338 C 
ATOM     29  O   UNL A   1      38.170  22.661  25.560  1.00  0.00    -0.246 OA
BRANCH  28  30
ATOM     30  C   UNL A   1      39.344  24.149  26.980  1.00  0.00     0.060 A 
ATOM     31  C   UNL A   1      38.974  24.449  28.288  1.00  0.00     0.016 A 
ATOM     32  C   UNL A   1      40.102  25.052  26.237  1.00  0.00     0.016 A 
ATOM     33  C   UNL A   1      39.348  25.681  28.839  1.00  0.00     0.010 A 
ATOM     34  C   UNL A   1      40.526  26.251  26.807  1.00  0.00     0.010 A 
ATOM     35  C   UNL A   1      40.142  26.591  28.112  1.00  0.00    -0.014 A 
BRANCH  35  36
ATOM     36  C   UNL A   1      40.605  27.868  28.726  1.00  0.00     0.031 A 
ATOM     37  C   UNL A   1      42.052  28.076  29.098  1.00  0.00     0.074 A 
ATOM     38  C   UNL A   1      39.709  28.843  28.987  1.00  0.00     0.049 A 
ATOM     39  N   UNL A   1      42.627  29.145  29.591  1.00  0.00    -0.248 NA
ATOM     40  C   UNL A   1      42.966  26.937  28.923  1.00  0.00     0.031 C 
ATOM     41  C   UNL A   1      38.268  28.744  28.752  1.00  0.00     0.029 A 
ATOM     42  N   UNL A   1      39.877  30.113  29.484  1.00  0.00    -0.354 N 
ATOM     43  C   UNL A   1      43.956  28.799  29.808  1.00  0.00     0.074 A 
ATOM     44  C   UNL A   1      44.093  27.408  29.440  1.00  0.00     0.031 C 
ATOM     45  C   UNL A   1      37.696  29.925  29.027  1.00  0.00     0.029 A 
ATOM     46  C   UNL A   1      38.720  30.857  29.495  1.00  0.00     0.049 A 
ATOM     47  H   UNL A   1      40.743  30.457  29.802  1.00  0.00     0.167 HD
ATOM     48  C   UNL A   1      44.976  29.576  30.246  1.00  0.00     0.031 A 
ATOM     49  C   UNL A   1      38.503  32.150  29.811  1.00  0.00     0.031 A 
ATOM     50  C   UNL A   1      44.848  30.974  30.562  1.00  0.00     0.049 A 
ATOM     51  C   UNL A   1      39.656  33.014  30.236  1.00  0.00     0.074 A 
ATOM     52  C   UNL A   1      45.847  31.865  30.913  1.00  0.00     0.029 A 
ATOM     53  N   UNL A   1      43.659  31.686  30.558  1.00  0.00    -0.354 N 
ATOM     54  N   UNL A   1      40.921  32.690  30.351  1.00  0.00    -0.248 NA
ATOM     55  C   UNL A   1      39.359  34.415  30.564  1.00  0.00     0.031 C 
ATOM     56  C   UNL A   1      45.255  33.104  31.170  1.00  0.00     0.029 A 
ATOM     57  C   UNL A   1      43.895  33.001  30.922  1.00  0.00     0.049 A 
ATOM     58  H   UNL A   1      42.776  31.312  30.331  1.00  0.00     0.167 HD
ATOM     59  C   UNL A   1      41.574  33.850  30.752  1.00  0.00     0.074 A 
ATOM     60  C   UNL A   1      40.568  34.887  30.846  1.00  0.00     0.031 C 
ATOM     61  C   UNL A   1      42.890  34.030  31.019  1.00  0.00     0.031 A 
BRANCH  48  62
ATOM     62  C   UNL A   1      46.342  28.950  30.382  1.00  0.00    -0.014 A 
ATOM     63  C   UNL A   1      46.708  28.317  31.584  1.00  0.00     0.010 A 
ATOM     64  C   UNL A   1      47.300  29.077  29.360  1.00  0.00     0.010 A 
ATOM     65  C   UNL A   1      48.006  27.832  31.767  1.00  0.00     0.020 A 
ATOM     66  C   UNL A   1      48.591  28.568  29.526  1.00  0.00     0.020 A 
ATOM     67  C   UNL A   1      48.942  27.966  30.738  1.00  0.00     0.054 A 
BRANCH  67  68
ATOM     68  S   UNL A   1      50.622  27.327  30.981  1.00  0.00     0.124 S 
ATOM     69  O   UNL A   1      50.979  26.879  29.639  1.00  0.00    -0.237 OA
ATOM     70  O   UNL A   1      51.347  28.497  31.471  1.00  0.00    -0.237 OA
ATOM     71  O   UNL A   1      50.442  26.264  31.969  1.00  0.00    -0.744 OA
ENDBRANCH  67  68
ENDBRANCH  48  62
BRANCH  49  72
ATOM     72  C   UNL A   1      37.135  32.711  29.628  1.00  0.00    -0.014 A 
ATOM     73  C   UNL A   1      36.642  33.012  28.345  1.00  0.00     0.010 A 
ATOM     74  C   UNL A   1      36.372  33.064  30.756  1.00  0.00     0.010 A 
ATOM     75  C   UNL A   1      35.442  33.714  28.196  1.00  0.00     0.020 A 
ATOM     76  C   UNL A   1      35.161  33.745  30.609  1.00  0.00     0.020 A 
ATOM     77  C   UNL A   1      34.721  34.096  29.331  1.00  0.00     0.054 A 
BRANCH  77  78
ATOM     78  S   UNL A   1      33.217  35.089  29.119  1.00  0.00     0.124 S 
ATOM     79  O   UNL A   1      33.769  36.397  28.778  1.00  0.00    -0.237 OA
ATOM     80  O   UNL A   1      32.525  34.395  28.036  1.00  0.00    -0.237 OA
ATOM     81  O   UNL A   1      32.566  35.006  30.424  1.00  0.00    -0.744 OA
ENDBRANCH  77  78
ENDBRANCH  49  72
BRANCH  61  82
ATOM     82  C   UNL A   1      43.355  35.396  31.449  1.00  0.00    -0.014 A 
ATOM     83  C   UNL A   1      43.244  35.777  32.800  1.00  0.00     0.010 A 
ATOM     84  C   UNL A   1      43.753  36.351  30.497  1.00  0.00     0.010 A 
ATOM     85  C   UNL A   1      43.480  37.099  33.185  1.00  0.00     0.020 A 
ATOM     86  C   UNL A   1      44.015  37.669  30.884  1.00  0.00     0.020 A 
ATOM     87  C   UNL A   1      43.848  38.041  32.221  1.00  0.00     0.054 A 
BRANCH  87  88
ATOM     88  S   UNL A   1      44.099  39.764  32.729  1.00  0.00     0.124 S 
ATOM     89  O   UNL A   1      42.738  40.194  33.038  1.00  0.00    -0.237 OA
ATOM     90  O   UNL A   1      44.995  39.636  33.875  1.00  0.00    -0.237 OA
ATOM     91  O   UNL A   1      44.697  40.385  31.548  1.00  0.00    -0.744 OA
ENDBRANCH  87  88
ENDBRANCH  61  82
ENDBRANCH  35  36
ENDBRANCH  28  30
ENDBRANCH  27  28
ENDBRANCH  26  27
ENDBRANCH   1  26
TORSDOF 18
ENDMDL
MODEL 2
REMARK VINA RESULT:     -10.3      5.180     11.612
REMARK SMILES CC(C)CN(C)c1cc2c(cc1Cl)C=C(C(=O)OCCOC(=O)c1ccc(-c3c4nc(c(-c5ccc(S(=O)(=O)[O-])cc5)c5ccc([nH]5)c(-c5ccc(S(=O)(=O)[O-])cc5)c5nc(c(-c6ccc(S(=O)(=O)[O-])cc6)c6ccc3[nH]6)C=C5)C=C4)cc1)[C@H](C(F)(F)F)O2
REMARK SMILES IDX 19 1 18 2 16 3 17 4 15 5 7 6 8 7 12 8 9 9 11 10 13 11 10 12
REMARK SMILES IDX 89 13 14 14 84 15 5 16 6 17 4 18 2 19 1 20 3 21 85 22 86 23
REMARK SMILES IDX 87 24 88 25 20 26 21 27 22 28 23 29 24 30 25 31 83 32 26 33
REMARK SMILES IDX 82 34 27 35 28 36 29 37 76 38 30 39 81 40 75 41 77 42 31 43
REMARK SMILES IDX 80 44 74 45 73 46 32 48 62 49 43 50 61 51 44 52 47 53 60 54
REMARK SMILES IDX 78 55 45 56 46 57 59 59 79 60 48 61 33 62 34 63 42 64 35 65
REMARK SMILES IDX 41 66 36 67 37 68 38 69 39 70 40 71 63 72 64 73 72 74 65 75
REMARK SMILES IDX 71 76 66 77 67 78 68 79 69 80 70 81 49 82 50 83 58 84 51 85
REMARK SMILES IDX 57 86 52 87 53 88 54 89 55 90 56 91
REMARK H PARENT 77 47 47 58
REMARK Flexibility Score: inf
ROOT
ATOM      1  C   UNL A   1      31.732  29.413  25.912  1.00  0.00     0.275 C 
ENDROOT
BRANCH   1   2
ATOM      2  O   UNL A   1      32.584  28.259  25.755  1.00  0.00    -0.459 OA
BRANCH   2   3
ATOM      3  C   UNL A   1      33.088  28.055  24.523  1.00  0.00     0.338 C 
ATOM      4  O   UNL A   1      33.332  28.929  23.705  1.00  0.00    -0.246 OA
BRANCH   3   5
ATOM      5  C   UNL A   1      33.401  26.628  24.287  1.00  0.00     0.087 C 
ATOM      6  C   UNL A   1      34.236  21.706  25.123  1.00  0.00     0.059 A 
ATOM      7  C   UNL A   1      34.171  22.517  23.975  1.00  0.00     0.074 A 
ATOM      8  C   UNL A   1      34.065  22.329  26.377  1.00  0.00     0.065 A 
ATOM      9  C   UNL A   1      33.925  23.892  24.069  1.00  0.00     0.130 A 
ATOM     10  C   UNL A   1      33.774  23.692  26.468  1.00  0.00     0.034 A 
ATOM     11  Cl  UNL A   1      34.228  21.461  27.864  1.00  0.00    -0.082 Cl
ATOM     12  C   UNL A   1      33.708  24.472  25.313  1.00  0.00     0.019 A 
ATOM     13  O   UNL A   1      33.870  24.596  22.901  1.00  0.00    -0.475 OA
ATOM     14  C   UNL A   1      33.389  25.882  25.403  1.00  0.00     0.027 C 
ATOM     15  C   UNL A   1      33.835  26.060  22.955  1.00  0.00     0.316 C 
BRANCH   6  16
ATOM     16  N   UNL A   1      34.470  20.332  25.010  1.00  0.00    -0.373 N 
ATOM     17  C   UNL A   1      35.864  19.946  24.849  1.00  0.00     0.143 C 
BRANCH  16  18
ATOM     18  C   UNL A   1      33.442  19.507  24.355  1.00  0.00     0.119 C 
BRANCH  18  19
ATOM     19  C   UNL A   1      33.679  17.997  24.570  1.00  0.00     0.002 C 
ATOM     20  C   UNL A   1      32.547  17.350  25.373  1.00  0.00     0.009 C 
ATOM     21  C   UNL A   1      33.822  17.265  23.233  1.00  0.00     0.009 C 
ENDBRANCH  18  19
ENDBRANCH  16  18
ENDBRANCH   6  16
BRANCH  15  22
ATOM     22  C   UNL A   1      33.090  26.534  21.693  1.00  0.00     0.430 C 
ATOM     23  F   UNL A   1      33.613  27.657  21.162  1.00  0.00    -0.167 F 
ATOM     24  F   UNL A   1      33.070  25.575  20.735  1.00  0.00    -0.167 F 
ATOM     25  F   UNL A   1      31.784  26.794  21.969  1.00  0.00    -0.167 F 
ENDBRANCH  15  22
ENDBRANCH   3   5
ENDBRANCH   2   3
ENDBRANCH   1   2
BRANCH   1  26
ATOM     26  C   UNL A   1      32.444  30.492  26.723  1.00  0.00     0.275 C 
BRANCH  26  27
ATOM     27  O   UNL A   1      33.718  30.005  27.187  1.00  0.00    -0.458 OA
BRANCH  27  28
ATOM     28  C   UNL A   1      34.389  30.828  28.024  1.00  0.00     0.338 C 
ATOM     29  O   UNL A   1      33.983  31.855  28.544  1.00  0.00    -0.246 OA
BRANCH  28  30
ATOM     30  C   UNL A   1      35.725  30.273  28.276  1.00  0.00     0.060 A 
ATOM     31  C   UNL A   1      36.741  30.403  27.333  1.00  0.00     0.016 A 
ATOM     32  C   UNL A   1      35.989  29.710  29.524  1.00  0.00     0.016 A 
ATOM     33  C   UNL A   1      38.023  29.934  27.641  1.00  0.00     0.010 A 
ATOM     34  C   UNL A   1      37.280  29.299  29.851  1.00  0.00     0.010 A 
ATOM     35  C   UNL A   1      38.313  29.391  28.909  1.00  0.00    -0.014 A 
BRANCH  35  36
ATOM     36  C   UNL A   1      39.697  28.962  29.263  1.00  0.00     0.031 A 
ATOM     37  C   UNL A   1      40.588  29.829  30.118  1.00  0.00     0.074 A 
ATOM     38  C   UNL A   1      40.175  27.796  28.782  1.00  0.00     0.049 A 
ATOM     39  N   UNL A   1      41.796  29.580  30.560  1.00  0.00    -0.248 NA
ATOM     40  C   UNL A   1      40.075  31.153  30.504  1.00  0.00     0.031 C 
ATOM     41  C   UNL A   1      39.450  26.899  27.881  1.00  0.00     0.029 A 
ATOM     42  N   UNL A   1      41.370  27.153  28.999  1.00  0.00    -0.354 N 
ATOM     43  C   UNL A   1      42.194  30.720  31.249  1.00  0.00     0.074 A 
ATOM     44  C   UNL A   1      41.120  31.681  31.127  1.00  0.00     0.031 C 
ATOM     45  C   UNL A   1      40.179  25.790  27.686  1.00  0.00     0.029 A 
ATOM     46  C   UNL A   1      41.439  25.908  28.417  1.00  0.00     0.049 A 
ATOM     47  H   UNL A   1      42.107  27.545  29.522  1.00  0.00     0.167 HD
ATOM     48  C   UNL A   1      43.336  30.938  31.945  1.00  0.00     0.031 A 
ATOM     49  C   UNL A   1      42.387  24.952  28.483  1.00  0.00     0.031 A 
ATOM     50  C   UNL A   1      44.379  29.960  32.109  1.00  0.00     0.049 A 
ATOM     51  C   UNL A   1      43.619  25.184  29.310  1.00  0.00     0.074 A 
ATOM     52  C   UNL A   1      45.523  30.055  32.882  1.00  0.00     0.029 A 
ATOM     53  N   UNL A   1      44.407  28.715  31.503  1.00  0.00    -0.354 N 
ATOM     54  N   UNL A   1      43.937  26.236  30.026  1.00  0.00    -0.248 NA
ATOM     55  C   UNL A   1      44.615  24.105  29.347  1.00  0.00     0.031 C 
ATOM     56  C   UNL A   1      46.267  28.886  32.704  1.00  0.00     0.029 A 
ATOM     57  C   UNL A   1      45.559  28.038  31.867  1.00  0.00     0.049 A 
ATOM     58  H   UNL A   1      43.711  28.362  30.902  1.00  0.00     0.167 HD
ATOM     59  C   UNL A   1      45.163  25.941  30.610  1.00  0.00     0.074 A 
ATOM     60  C   UNL A   1      45.524  24.606  30.177  1.00  0.00     0.031 C 
ATOM     61  C   UNL A   1      45.917  26.712  31.430  1.00  0.00     0.031 A 
BRANCH  48  62
ATOM     62  C   UNL A   1      43.515  32.274  32.622  1.00  0.00    -0.014 A 
ATOM     63  C   UNL A   1      44.217  33.304  31.967  1.00  0.00     0.010 A 
ATOM     64  C   UNL A   1      43.082  32.479  33.943  1.00  0.00     0.010 A 
ATOM     65  C   UNL A   1      44.491  34.508  32.622  1.00  0.00     0.020 A 
ATOM     66  C   UNL A   1      43.327  33.693  34.593  1.00  0.00     0.020 A 
ATOM     67  C   UNL A   1      44.048  34.692  33.934  1.00  0.00     0.054 A 
BRANCH  67  68
ATOM     68  S   UNL A   1      44.400  36.261  34.775  1.00  0.00     0.124 S 
ATOM     69  O   UNL A   1      45.440  35.877  35.724  1.00  0.00    -0.237 OA
ATOM     70  O   UNL A   1      44.833  37.125  33.679  1.00  0.00    -0.237 OA
ATOM     71  O   UNL A   1      43.114  36.625  35.367  1.00  0.00    -0.744 OA
ENDBRANCH  67  68
ENDBRANCH  48  62
BRANCH  49  72
ATOM     72  C   UNL A   1      42.133  23.645  27.815  1.00  0.00    -0.014 A 
ATOM     73  C   UNL A   1      41.421  22.624  28.469  1.00  0.00     0.010 A 
ATOM     74  C   UNL A   1      42.719  23.378  26.564  1.00  0.00     0.010 A 
ATOM     75  C   UNL A   1      41.354  21.342  27.916  1.00  0.00     0.020 A 
ATOM     76  C   UNL A   1      42.634  22.104  25.997  1.00  0.00     0.020 A 
ATOM     77  C   UNL A   1      41.982  21.085  26.693  1.00  0.00     0.054 A 
BRANCH  77  78
ATOM     78  S   UNL A   1      41.966  19.392  26.040  1.00  0.00     0.124 S 
ATOM     79  O   UNL A   1      42.432  18.624  27.191  1.00  0.00    -0.237 OA
ATOM     80  O   UNL A   1      40.563  19.201  25.681  1.00  0.00    -0.237 OA
ATOM     81  O   UNL A   1      42.892  19.453  24.911  1.00  0.00    -0.744 OA
ENDBRANCH  77  78
ENDBRANCH  49  72
BRANCH  61  82
ATOM     82  C   UNL A   1      47.226  26.162  31.929  1.00  0.00    -0.014 A 
ATOM     83  C   UNL A   1      48.381  26.277  31.132  1.00  0.00     0.010 A 
ATOM     84  C   UNL A   1      47.280  25.399  33.110  1.00  0.00     0.010 A 
ATOM     85  C   UNL A   1      49.554  25.603  31.482  1.00  0.00     0.020 A 
ATOM     86  C   UNL A   1      48.460  24.745  33.476  1.00  0.00     0.020 A 
ATOM     87  C   UNL A   1      49.580  24.827  32.644  1.00  0.00     0.054 A 
BRANCH  87  88
ATOM     88  S   UNL A   1      51.095  23.917  33.056  1.00  0.00     0.124 S 
ATOM     89  O   UNL A   1      52.040  24.433  32.071  1.00  0.00    -0.237 OA
ATOM     90  O   UNL A   1      51.345  24.314  34.439  1.00  0.00    -0.237 OA
ATOM     91  O   UNL A   1      50.710  22.518  32.879  1.00  0.00    -0.744 OA
ENDBRANCH  87  88
ENDBRANCH  61  82
ENDBRANCH  35  36
ENDBRANCH  28  30
ENDBRANCH  27  28
ENDBRANCH  26  27
ENDBRANCH   1  26
TORSDOF 18
ENDMDL
MODEL 3
REMARK VINA RESULT:      -9.9      5.567     12.302
REMARK SMILES CC(C)CN(C)c1cc2c(cc1Cl)C=C(C(=O)OCCOC(=O)c1ccc(-c3c4nc(c(-c5ccc(S(=O)(=O)[O-])cc5)c5ccc([nH]5)c(-c5ccc(S(=O)(=O)[O-])cc5)c5nc(c(-c6ccc(S(=O)(=O)[O-])cc6)c6ccc3[nH]6)C=C5)C=C4)cc1)[C@H](C(F)(F)F)O2
REMARK SMILES IDX 19 1 18 2 16 3 17 4 15 5 7 6 8 7 12 8 9 9 11 10 13 11 10 12
REMARK SMILES IDX 89 13 14 14 84 15 5 16 6 17 4 18 2 19 1 20 3 21 85 22 86 23
REMARK SMILES IDX 87 24 88 25 20 26 21 27 22 28 23 29 24 30 25 31 83 32 26 33
REMARK SMILES IDX 82 34 27 35 28 36 29 37 76 38 30 39 81 40 75 41 77 42 31 43
REMARK SMILES IDX 80 44 74 45 73 46 32 48 62 49 43 50 61 51 44 52 47 53 60 54
REMARK SMILES IDX 78 55 45 56 46 57 59 59 79 60 48 61 33 62 34 63 42 64 35 65
REMARK SMILES IDX 41 66 36 67 37 68 38 69 39 70 40 71 63 72 64 73 72 74 65 75
REMARK SMILES IDX 71 76 66 77 67 78 68 79 69 80 70 81 49 82 50 83 58 84 51 85
REMARK SMILES IDX 57 86 52 87 53 88 54 89 55 90 56 91
REMARK H PARENT 77 47 47 58
REMARK Flexibility Score: inf
ROOT
ATOM      1  C   UNL A   1      33.438  28.846  27.319  1.00  0.00     0.275 C 
ENDROOT
BRANCH   1   2
ATOM      2  O   UNL A   1      34.031  27.803  26.518  1.00  0.00    -0.459 OA
BRANCH   2   3
ATOM      3  C   UNL A   1      33.596  27.709  25.247  1.00  0.00     0.338 C 
ATOM      4  O   UNL A   1      33.580  28.622  24.435  1.00  0.00    -0.246 OA
BRANCH   3   5
ATOM      5  C   UNL A   1      33.202  26.325  24.902  1.00  0.00     0.087 C 
ATOM      6  C   UNL A   1      33.393  21.305  24.276  1.00  0.00     0.059 A 
ATOM      7  C   UNL A   1      32.397  22.286  24.109  1.00  0.00     0.074 A 
ATOM      8  C   UNL A   1      34.672  21.733  24.687  1.00  0.00     0.065 A 
ATOM      9  C   UNL A   1      32.659  23.637  24.362  1.00  0.00     0.130 A 
ATOM     10  C   UNL A   1      34.920  23.076  24.982  1.00  0.00     0.034 A 
ATOM     11  Cl  UNL A   1      36.006  20.641  24.824  1.00  0.00    -0.082 Cl
ATOM     12  C   UNL A   1      33.913  24.027  24.815  1.00  0.00     0.019 A 
ATOM     13  O   UNL A   1      31.629  24.515  24.182  1.00  0.00    -0.475 OA
ATOM     14  C   UNL A   1      34.162  25.416  25.138  1.00  0.00     0.027 C 
ATOM     15  C   UNL A   1      31.906  25.953  24.218  1.00  0.00     0.316 C 
BRANCH   6  16
ATOM     16  N   UNL A   1      33.111  19.957  24.033  1.00  0.00    -0.373 N 
ATOM     17  C   UNL A   1      32.199  19.699  22.928  1.00  0.00     0.143 C 
BRANCH  16  18
ATOM     18  C   UNL A   1      33.085  19.038  25.183  1.00  0.00     0.119 C 
BRANCH  18  19
ATOM     19  C   UNL A   1      33.231  17.562  24.753  1.00  0.00     0.002 C 
ATOM     20  C   UNL A   1      34.668  17.225  24.345  1.00  0.00     0.009 C 
ATOM     21  C   UNL A   1      32.798  16.616  25.877  1.00  0.00     0.009 C 
ENDBRANCH  18  19
ENDBRANCH  16  18
ENDBRANCH   6  16
BRANCH  15  22
ATOM     22  C   UNL A   1      30.615  26.644  24.698  1.00  0.00     0.430 C 
ATOM     23  F   UNL A   1      30.566  26.798  26.035  1.00  0.00    -0.167 F 
ATOM     24  F   UNL A   1      30.455  27.860  24.118  1.00  0.00    -0.167 F 
ATOM     25  F   UNL A   1      29.517  25.927  24.337  1.00  0.00    -0.167 F 
ENDBRANCH  15  22
ENDBRANCH   3   5
ENDBRANCH   2   3
ENDBRANCH   1   2
BRANCH   1  26
ATOM     26  C   UNL A   1      34.500  29.859  27.740  1.00  0.00     0.275 C 
BRANCH  26  27
ATOM     27  O   UNL A   1      35.809  29.259  27.686  1.00  0.00    -0.458 OA
BRANCH  27  28
ATOM     28  C   UNL A   1      36.532  29.331  28.826  1.00  0.00     0.338 C 
ATOM     29  O   UNL A   1      36.125  29.552  29.955  1.00  0.00    -0.246 OA
BRANCH  28  30
ATOM     30  C   UNL A   1      37.941  29.049  28.521  1.00  0.00     0.060 A 
ATOM     31  C   UNL A   1      38.502  29.449  27.312  1.00  0.00     0.016 A 
ATOM     32  C   UNL A   1      38.735  28.470  29.510  1.00  0.00     0.016 A 
ATOM     33  C   UNL A   1      39.868  29.236  27.088  1.00  0.00     0.010 A 
ATOM     34  C   UNL A   1      40.105  28.315  29.310  1.00  0.00     0.010 A 
ATOM     35  C   UNL A   1      40.690  28.681  28.090  1.00  0.00    -0.014 A 
BRANCH  35  36
ATOM     36  C   UNL A   1      42.158  28.526  27.880  1.00  0.00     0.031 A 
ATOM     37  C   UNL A   1      43.126  29.597  28.317  1.00  0.00     0.074 A 
ATOM     38  C   UNL A   1      42.627  27.425  27.257  1.00  0.00     0.049 A 
ATOM     39  N   UNL A   1      44.436  29.594  28.255  1.00  0.00    -0.248 NA
ATOM     40  C   UNL A   1      42.560  30.839  28.865  1.00  0.00     0.031 C 
ATOM     41  C   UNL A   1      41.797  26.350  26.713  1.00  0.00     0.029 A 
ATOM     42  N   UNL A   1      43.913  27.015  26.996  1.00  0.00    -0.354 N 
ATOM     43  C   UNL A   1      44.843  30.836  28.730  1.00  0.00     0.074 A 
ATOM     44  C   UNL A   1      43.644  31.585  29.030  1.00  0.00     0.031 C 
ATOM     45  C   UNL A   1      42.591  25.370  26.257  1.00  0.00     0.029 A 
ATOM     46  C   UNL A   1      43.988  25.759  26.439  1.00  0.00     0.049 A 
ATOM     47  H   UNL A   1      44.705  27.568  27.189  1.00  0.00     0.167 HD
ATOM     48  C   UNL A   1      46.101  31.299  28.926  1.00  0.00     0.031 A 
ATOM     49  C   UNL A   1      45.052  24.988  26.136  1.00  0.00     0.031 A 
ATOM     50  C   UNL A   1      47.292  30.531  28.676  1.00  0.00     0.049 A 
ATOM     51  C   UNL A   1      46.438  25.492  26.418  1.00  0.00     0.074 A 
ATOM     52  C   UNL A   1      48.605  30.881  28.943  1.00  0.00     0.029 A 
ATOM     53  N   UNL A   1      47.321  29.265  28.113  1.00  0.00    -0.354 N 
ATOM     54  N   UNL A   1      46.801  26.636  26.948  1.00  0.00    -0.248 NA
ATOM     55  C   UNL A   1      47.558  24.606  26.070  1.00  0.00     0.031 C 
ATOM     56  C   UNL A   1      49.431  29.847  28.496  1.00  0.00     0.029 A 
ATOM     57  C   UNL A   1      48.630  28.828  28.004  1.00  0.00     0.049 A 
ATOM     58  H   UNL A   1      46.528  28.753  27.832  1.00  0.00     0.167 HD
ATOM     59  C   UNL A   1      48.188  26.601  27.011  1.00  0.00     0.074 A 
ATOM     60  C   UNL A   1      48.602  25.319  26.478  1.00  0.00     0.031 C 
ATOM     61  C   UNL A   1      49.038  27.552  27.469  1.00  0.00     0.031 A 
BRANCH  48  62
ATOM     62  C   UNL A   1      46.270  32.695  29.472  1.00  0.00    -0.014 A 
ATOM     63  C   UNL A   1      46.271  32.909  30.864  1.00  0.00     0.010 A 
ATOM     64  C   UNL A   1      46.324  33.806  28.612  1.00  0.00     0.010 A 
ATOM     65  C   UNL A   1      46.313  34.206  31.385  1.00  0.00     0.020 A 
ATOM     66  C   UNL A   1      46.395  35.104  29.128  1.00  0.00     0.020 A 
ATOM     67  C   UNL A   1      46.369  35.296  30.512  1.00  0.00     0.054 A 
BRANCH  67  68
ATOM     68  S   UNL A   1      46.431  36.975  31.197  1.00  0.00     0.124 S 
ATOM     69  O   UNL A   1      47.688  36.960  31.938  1.00  0.00    -0.237 OA
ATOM     70  O   UNL A   1      46.411  37.814  30.001  1.00  0.00    -0.237 OA
ATOM     71  O   UNL A   1      45.222  37.052  32.016  1.00  0.00    -0.744 OA
ENDBRANCH  67  68
ENDBRANCH  48  62
BRANCH  49  72
ATOM     72  C   UNL A   1      44.814  23.609  25.626  1.00  0.00    -0.014 A 
ATOM     73  C   UNL A   1      44.538  22.548  26.508  1.00  0.00     0.010 A 
ATOM     74  C   UNL A   1      44.990  23.334  24.258  1.00  0.00     0.010 A 
ATOM     75  C   UNL A   1      44.508  21.231  26.042  1.00  0.00     0.020 A 
ATOM     76  C   UNL A   1      44.937  22.020  23.785  1.00  0.00     0.020 A 
ATOM     77  C   UNL A   1      44.730  20.974  24.686  1.00  0.00     0.054 A 
BRANCH  77  78
ATOM     78  S   UNL A   1      44.783  19.251  24.119  1.00  0.00     0.124 S 
ATOM     79  O   UNL A   1      44.466  19.393  22.701  1.00  0.00    -0.237 OA
ATOM     80  O   UNL A   1      46.156  18.856  24.421  1.00  0.00    -0.237 OA
ATOM     81  O   UNL A   1      43.758  18.594  24.927  1.00  0.00    -0.744 OA
ENDBRANCH  77  78
ENDBRANCH  49  72
BRANCH  61  82
ATOM     82  C   UNL A   1      50.517  27.276  27.423  1.00  0.00    -0.014 A 
ATOM     83  C   UNL A   1      51.222  27.449  26.217  1.00  0.00     0.010 A 
ATOM     84  C   UNL A   1      51.173  26.699  28.525  1.00  0.00     0.010 A 
ATOM     85  C   UNL A   1      52.543  27.011  26.099  1.00  0.00     0.020 A 
ATOM     86  C   UNL A   1      52.503  26.283  28.417  1.00  0.00     0.020 A 
ATOM     87  C   UNL A   1      53.170  26.415  27.196  1.00  0.00     0.054 A 
BRANCH  87  88
ATOM     88  S   UNL A   1      54.869  25.804  27.010  1.00  0.00     0.124 S 
ATOM     89  O   UNL A   1      54.674  24.594  26.216  1.00  0.00    -0.237 OA
ATOM     90  O   UNL A   1      55.536  26.907  26.324  1.00  0.00    -0.237 OA
ATOM     91  O   UNL A   1      55.305  25.583  28.387  1.00  0.00    -0.744 OA
ENDBRANCH  87  88
ENDBRANCH  61  82
ENDBRANCH  35  36
ENDBRANCH  28  30
ENDBRANCH  27  28
ENDBRANCH  26  27
ENDBRANCH   1  26
TORSDOF 18
ENDMDL
