MODEL 1
REMARK VINA RESULT:      -9.0      0.000      0.000
REMARK SMILES CC(=O)Oc1ccccc1C(=O)OCCOC(=O)c1ccc(-c2c3nc(c(-c4ccc(S(=O)(=O)[O-])cc4)c4ccc([nH]4)c(-c4ccc(S(=O)(=O)[O-])cc4)c4nc(c(-c5ccc(S(=O)(=O)[O-])cc5)c5ccc2[nH]5)C=C4)C=C3)cc1
REMARK SMILES IDX 15 1 14 2 13 3 11 4 12 5 10 6 5 7 6 8 7 9 9 10 8 11 4 12
REMARK SMILES IDX 2 13 1 14 3 15 16 16 17 17 18 18 19 19 20 20 78 21 21 22
REMARK SMILES IDX 77 23 22 24 23 25 24 26 71 27 25 28 76 29 70 30 72 31 26 32
REMARK SMILES IDX 75 33 69 34 68 35 27 37 57 38 38 39 56 40 39 41 42 42 55 43
REMARK SMILES IDX 73 44 40 45 41 46 54 48 74 49 43 50 28 51 29 52 37 53 30 54
REMARK SMILES IDX 36 55 31 56 32 57 33 58 34 59 35 60 58 61 59 62 67 63 60 64
REMARK SMILES IDX 66 65 61 66 62 67 63 68 64 69 65 70 44 71 45 72 53 73 46 74
REMARK SMILES IDX 52 75 47 76 48 77 49 78 50 79 51 80
REMARK H PARENT 72 36 42 47
REMARK Flexibility Score: inf
ROOT
ATOM      1  C   UNL A   1      39.083  20.920  25.343  1.00  0.00     0.275 C 
ENDROOT
BRANCH   1   2
ATOM      2  C   UNL A   1      39.741  19.647  25.874  1.00  0.00     0.275 C 
BRANCH   2   3
ATOM      3  O   UNL A   1      41.128  19.560  25.486  1.00  0.00    -0.458 OA
BRANCH   3   4
ATOM      4  C   UNL A   1      42.042  19.620  26.492  1.00  0.00     0.342 C 
ATOM      5  O   UNL A   1      42.437  18.681  27.152  1.00  0.00    -0.246 OA
BRANCH   4   6
ATOM      6  C   UNL A   1      42.571  21.001  26.655  1.00  0.00     0.102 A 
ATOM      7  C   UNL A   1      43.496  21.587  25.784  1.00  0.00     0.145 A 
ATOM      8  C   UNL A   1      43.958  22.891  26.003  1.00  0.00     0.048 A 
ATOM      9  C   UNL A   1      43.488  23.624  27.095  1.00  0.00     0.004 A 
ATOM     10  C   UNL A   1      42.079  21.767  27.724  1.00  0.00     0.019 A 
ATOM     11  C   UNL A   1      42.552  23.060  27.958  1.00  0.00     0.001 A 
BRANCH   7  12
ATOM     12  O   UNL A   1      44.077  20.898  24.710  1.00  0.00    -0.426 OA
BRANCH  12  13
ATOM     13  C   UNL A   1      45.403  20.526  24.894  1.00  0.00     0.308 C 
ATOM     14  C   UNL A   1      45.455  19.081  25.287  1.00  0.00     0.139 C 
ATOM     15  O   UNL A   1      46.386  21.242  24.768  1.00  0.00    -0.252 OA
ENDBRANCH  12  13
ENDBRANCH   7  12
ENDBRANCH   4   6
ENDBRANCH   3   4
ENDBRANCH   2   3
ENDBRANCH   1   2
BRANCH   1  16
ATOM     16  O   UNL A   1      38.965  21.901  26.384  1.00  0.00    -0.458 OA
BRANCH  16  17
ATOM     17  C   UNL A   1      38.551  23.118  25.968  1.00  0.00     0.338 C 
ATOM     18  O   UNL A   1      37.659  23.371  25.175  1.00  0.00    -0.246 OA
BRANCH  17  19
ATOM     19  C   UNL A   1      39.275  24.157  26.707  1.00  0.00     0.060 A 
ATOM     20  C   UNL A   1      39.042  24.257  28.075  1.00  0.00     0.016 A 
ATOM     21  C   UNL A   1      40.041  25.114  26.048  1.00  0.00     0.016 A 
ATOM     22  C   UNL A   1      39.484  25.364  28.786  1.00  0.00     0.010 A 
ATOM     23  C   UNL A   1      40.561  26.185  26.782  1.00  0.00     0.010 A 
ATOM     24  C   UNL A   1      40.254  26.342  28.149  1.00  0.00    -0.014 A 
BRANCH  24  25
ATOM     25  C   UNL A   1      40.681  27.561  28.887  1.00  0.00     0.031 A 
ATOM     26  C   UNL A   1      42.027  27.585  29.561  1.00  0.00     0.074 A 
ATOM     27  C   UNL A   1      39.877  28.642  28.952  1.00  0.00     0.049 A 
ATOM     28  N   UNL A   1      42.498  28.430  30.441  1.00  0.00    -0.248 NA
ATOM     29  C   UNL A   1      42.963  26.502  29.209  1.00  0.00     0.031 C 
ATOM     30  C   UNL A   1      38.581  28.783  28.283  1.00  0.00     0.029 A 
ATOM     31  N   UNL A   1      40.033  29.833  29.619  1.00  0.00    -0.354 N 
ATOM     32  C   UNL A   1      43.753  27.947  30.796  1.00  0.00     0.074 A 
ATOM     33  C   UNL A   1      43.970  26.734  30.039  1.00  0.00     0.031 C 
ATOM     34  C   UNL A   1      38.071  29.992  28.558  1.00  0.00     0.029 A 
ATOM     35  C   UNL A   1      38.951  30.673  29.499  1.00  0.00     0.049 A 
ATOM     36  H   UNL A   1      40.841  30.061  30.133  1.00  0.00     0.167 HD
ATOM     37  C   UNL A   1      44.638  28.467  31.679  1.00  0.00     0.031 A 
ATOM     38  C   UNL A   1      38.667  31.834  30.121  1.00  0.00     0.031 A 
ATOM     39  C   UNL A   1      44.421  29.697  32.397  1.00  0.00     0.049 A 
ATOM     40  C   UNL A   1      39.641  32.372  31.131  1.00  0.00     0.074 A 
ATOM     41  C   UNL A   1      45.245  30.313  33.321  1.00  0.00     0.029 A 
ATOM     42  N   UNL A   1      43.304  30.507  32.252  1.00  0.00    -0.354 N 
ATOM     43  N   UNL A   1      40.790  31.868  31.514  1.00  0.00    -0.248 NA
ATOM     44  C   UNL A   1      39.277  33.627  31.802  1.00  0.00     0.031 C 
ATOM     45  C   UNL A   1      44.610  31.477  33.765  1.00  0.00     0.029 A 
ATOM     46  C   UNL A   1      43.415  31.616  33.074  1.00  0.00     0.049 A 
ATOM     47  H   UNL A   1      42.545  30.322  31.654  1.00  0.00     0.167 HD
ATOM     48  C   UNL A   1      41.297  32.755  32.456  1.00  0.00     0.074 A 
ATOM     49  C   UNL A   1      40.337  33.835  32.572  1.00  0.00     0.031 C 
ATOM     50  C   UNL A   1      42.452  32.684  33.162  1.00  0.00     0.031 A 
BRANCH  37  51
ATOM     51  C   UNL A   1      45.899  27.689  31.953  1.00  0.00    -0.014 A 
ATOM     52  C   UNL A   1      45.923  26.624  32.871  1.00  0.00     0.010 A 
ATOM     53  C   UNL A   1      47.075  28.011  31.251  1.00  0.00     0.010 A 
ATOM     54  C   UNL A   1      47.109  25.922  33.109  1.00  0.00     0.020 A 
ATOM     55  C   UNL A   1      48.256  27.295  31.466  1.00  0.00     0.020 A 
ATOM     56  C   UNL A   1      48.269  26.265  32.408  1.00  0.00     0.054 A 
BRANCH  56  57
ATOM     57  S   UNL A   1      49.790  25.326  32.723  1.00  0.00     0.124 S 
ATOM     58  O   UNL A   1      49.304  24.245  33.578  1.00  0.00    -0.237 OA
ATOM     59  O   UNL A   1      50.203  24.925  31.381  1.00  0.00    -0.237 OA
ATOM     60  O   UNL A   1      50.666  26.292  33.380  1.00  0.00    -0.744 OA
ENDBRANCH  56  57
ENDBRANCH  37  51
BRANCH  38  61
ATOM     61  C   UNL A   1      37.374  32.523  29.851  1.00  0.00    -0.014 A 
ATOM     62  C   UNL A   1      36.234  32.249  30.626  1.00  0.00     0.010 A 
ATOM     63  C   UNL A   1      37.284  33.477  28.819  1.00  0.00     0.010 A 
ATOM     64  C   UNL A   1      35.028  32.908  30.368  1.00  0.00     0.020 A 
ATOM     65  C   UNL A   1      36.090  34.160  28.579  1.00  0.00     0.020 A 
ATOM     66  C   UNL A   1      34.964  33.862  29.347  1.00  0.00     0.054 A 
BRANCH  66  67
ATOM     67  S   UNL A   1      33.403  34.741  29.063  1.00  0.00     0.124 S 
ATOM     68  O   UNL A   1      32.732  33.867  28.107  1.00  0.00    -0.237 OA
ATOM     69  O   UNL A   1      32.816  34.786  30.400  1.00  0.00    -0.237 OA
ATOM     70  O   UNL A   1      33.832  36.035  28.535  1.00  0.00    -0.744 OA
ENDBRANCH  66  67
ENDBRANCH  38  61
BRANCH  50  71
ATOM     71  C   UNL A   1      42.769  33.830  34.083  1.00  0.00    -0.014 A 
ATOM     72  C   UNL A   1      42.383  33.812  35.433  1.00  0.00     0.010 A 
ATOM     73  C   UNL A   1      43.523  34.913  33.595  1.00  0.00     0.010 A 
ATOM     74  C   UNL A   1      42.726  34.872  36.277  1.00  0.00     0.020 A 
ATOM     75  C   UNL A   1      43.890  35.961  34.441  1.00  0.00     0.020 A 
ATOM     76  C   UNL A   1      43.479  35.938  35.774  1.00  0.00     0.054 A 
BRANCH  76  77
ATOM     77  S   UNL A   1      43.961  37.275  36.902  1.00  0.00     0.124 S 
ATOM     78  O   UNL A   1      44.085  38.411  35.992  1.00  0.00    -0.237 OA
ATOM     79  O   UNL A   1      42.835  37.334  37.831  1.00  0.00    -0.237 OA
ATOM     80  O   UNL A   1      45.215  36.803  37.484  1.00  0.00    -0.744 OA
ENDBRANCH  76  77
ENDBRANCH  50  71
ENDBRANCH  24  25
ENDBRANCH  17  19
ENDBRANCH  16  17
ENDBRANCH   1  16
TORSDOF 16
ENDMDL
MODEL 2
REMARK VINA RESULT:      -8.9      3.496      5.432
REMARK SMILES CC(=O)Oc1ccccc1C(=O)OCCOC(=O)c1ccc(-c2c3nc(c(-c4ccc(S(=O)(=O)[O-])cc4)c4ccc([nH]4)c(-c4ccc(S(=O)(=O)[O-])cc4)c4nc(c(-c5ccc(S(=O)(=O)[O-])cc5)c5ccc2[nH]5)C=C4)C=C3)cc1
REMARK SMILES IDX 15 1 14 2 13 3 11 4 12 5 10 6 5 7 6 8 7 9 9 10 8 11 4 12
REMARK SMILES IDX 2 13 1 14 3 15 16 16 17 17 18 18 19 19 20 20 78 21 21 22
REMARK SMILES IDX 77 23 22 24 23 25 24 26 71 27 25 28 76 29 70 30 72 31 26 32
REMARK SMILES IDX 75 33 69 34 68 35 27 37 57 38 38 39 56 40 39 41 42 42 55 43
REMARK SMILES IDX 73 44 40 45 41 46 54 48 74 49 43 50 28 51 29 52 37 53 30 54
REMARK SMILES IDX 36 55 31 56 32 57 33 58 34 59 35 60 58 61 59 62 67 63 60 64
REMARK SMILES IDX 66 65 61 66 62 67 63 68 64 69 65 70 44 71 45 72 53 73 46 74
REMARK SMILES IDX 52 75 47 76 48 77 49 78 50 79 51 80
REMARK H PARENT 72 36 42 47
REMARK Flexibility Score: inf
ROOT
ATOM      1  C   UNL A   1      39.288  23.223  26.984  1.00  0.00     0.275 C 
ENDROOT
BRANCH   1   2
ATOM      2  C   UNL A   1      38.650  22.553  25.768  1.00  0.00     0.275 C 
BRANCH   2   3
ATOM      3  O   UNL A   1      37.341  22.028  26.071  1.00  0.00    -0.458 OA
BRANCH   3   4
ATOM      4  C   UNL A   1      36.811  21.166  25.162  1.00  0.00     0.342 C 
ATOM      5  O   UNL A   1      37.206  20.041  24.933  1.00  0.00    -0.246 OA
BRANCH   4   6
ATOM      6  C   UNL A   1      35.611  21.749  24.504  1.00  0.00     0.102 A 
ATOM      7  C   UNL A   1      34.299  21.344  24.779  1.00  0.00     0.145 A 
ATOM      8  C   UNL A   1      33.216  21.933  24.116  1.00  0.00     0.048 A 
ATOM      9  C   UNL A   1      33.437  22.941  23.175  1.00  0.00     0.004 A 
ATOM     10  C   UNL A   1      35.812  22.792  23.585  1.00  0.00     0.019 A 
ATOM     11  C   UNL A   1      34.736  23.367  22.906  1.00  0.00     0.001 A 
BRANCH   7  12
ATOM     12  O   UNL A   1      33.993  20.290  25.650  1.00  0.00    -0.426 OA
BRANCH  12  13
ATOM     13  C   UNL A   1      33.260  19.251  25.087  1.00  0.00     0.308 C 
ATOM     14  C   UNL A   1      34.196  18.332  24.362  1.00  0.00     0.139 C 
ATOM     15  O   UNL A   1      32.050  19.093  25.151  1.00  0.00    -0.252 OA
ENDBRANCH  12  13
ENDBRANCH   7  12
ENDBRANCH   4   6
ENDBRANCH   3   4
ENDBRANCH   2   3
ENDBRANCH   1   2
BRANCH   1  16
ATOM     16  O   UNL A   1      38.790  24.559  27.146  1.00  0.00    -0.458 OA
BRANCH  16  17
ATOM     17  C   UNL A   1      39.710  25.531  26.958  1.00  0.00     0.338 C 
ATOM     18  O   UNL A   1      40.486  25.651  26.025  1.00  0.00    -0.246 OA
BRANCH  17  19
ATOM     19  C   UNL A   1      39.581  26.535  28.019  1.00  0.00     0.060 A 
ATOM     20  C   UNL A   1      40.185  27.770  27.813  1.00  0.00     0.016 A 
ATOM     21  C   UNL A   1      39.018  26.219  29.251  1.00  0.00     0.016 A 
ATOM     22  C   UNL A   1      40.328  28.668  28.863  1.00  0.00     0.010 A 
ATOM     23  C   UNL A   1      39.083  27.159  30.285  1.00  0.00     0.010 A 
ATOM     24  C   UNL A   1      39.774  28.376  30.113  1.00  0.00    -0.014 A 
BRANCH  24  25
ATOM     25  C   UNL A   1      39.974  29.303  31.258  1.00  0.00     0.031 A 
ATOM     26  C   UNL A   1      41.172  29.128  32.153  1.00  0.00     0.074 A 
ATOM     27  C   UNL A   1      39.097  30.300  31.496  1.00  0.00     0.049 A 
ATOM     28  N   UNL A   1      41.416  29.656  33.324  1.00  0.00    -0.248 NA
ATOM     29  C   UNL A   1      42.230  28.221  31.672  1.00  0.00     0.031 C 
ATOM     30  C   UNL A   1      37.936  30.631  30.667  1.00  0.00     0.029 A 
ATOM     31  N   UNL A   1      39.046  31.221  32.514  1.00  0.00    -0.354 N 
ATOM     32  C   UNL A   1      42.618  29.100  33.748  1.00  0.00     0.074 A 
ATOM     33  C   UNL A   1      43.053  28.190  32.711  1.00  0.00     0.031 C 
ATOM     34  C   UNL A   1      37.300  31.686  31.197  1.00  0.00     0.029 A 
ATOM     35  C   UNL A   1      37.946  32.045  32.453  1.00  0.00     0.049 A 
ATOM     36  H   UNL A   1      39.730  31.283  33.220  1.00  0.00     0.167 HD
ATOM     37  C   UNL A   1      43.290  29.324  34.902  1.00  0.00     0.031 A 
ATOM     38  C   UNL A   1      37.473  32.946  33.335  1.00  0.00     0.031 A 
ATOM     39  C   UNL A   1      42.861  30.261  35.907  1.00  0.00     0.049 A 
ATOM     40  C   UNL A   1      38.210  33.148  34.630  1.00  0.00     0.074 A 
ATOM     41  C   UNL A   1      43.461  30.563  37.117  1.00  0.00     0.029 A 
ATOM     42  N   UNL A   1      41.734  31.064  35.806  1.00  0.00    -0.354 N 
ATOM     43  N   UNL A   1      39.304  32.561  35.053  1.00  0.00    -0.248 NA
ATOM     44  C   UNL A   1      37.643  34.123  35.571  1.00  0.00     0.031 C 
ATOM     45  C   UNL A   1      42.675  31.520  37.766  1.00  0.00     0.029 A 
ATOM     46  C   UNL A   1      41.617  31.857  36.935  1.00  0.00     0.049 A 
ATOM     47  H   UNL A   1      41.110  31.069  35.045  1.00  0.00     0.167 HD
ATOM     48  C   UNL A   1      39.569  33.112  36.301  1.00  0.00     0.074 A 
ATOM     49  C   UNL A   1      38.530  34.088  36.557  1.00  0.00     0.031 C 
ATOM     50  C   UNL A   1      40.581  32.833  37.160  1.00  0.00     0.031 A 
BRANCH  37  51
ATOM     51  C   UNL A   1      44.533  28.512  35.160  1.00  0.00    -0.014 A 
ATOM     52  C   UNL A   1      44.476  27.253  35.783  1.00  0.00     0.010 A 
ATOM     53  C   UNL A   1      45.782  29.009  34.741  1.00  0.00     0.010 A 
ATOM     54  C   UNL A   1      45.646  26.523  36.015  1.00  0.00     0.020 A 
ATOM     55  C   UNL A   1      46.951  28.271  34.946  1.00  0.00     0.020 A 
ATOM     56  C   UNL A   1      46.877  27.039  35.599  1.00  0.00     0.054 A 
BRANCH  56  57
ATOM     57  S   UNL A   1      48.378  26.064  35.896  1.00  0.00     0.124 S 
ATOM     58  O   UNL A   1      48.670  26.379  37.292  1.00  0.00    -0.237 OA
ATOM     59  O   UNL A   1      47.929  24.698  35.643  1.00  0.00    -0.237 OA
ATOM     60  O   UNL A   1      49.335  26.593  34.927  1.00  0.00    -0.744 OA
ENDBRANCH  56  57
ENDBRANCH  37  51
BRANCH  38  61
ATOM     61  C   UNL A   1      36.205  33.672  33.046  1.00  0.00    -0.014 A 
ATOM     62  C   UNL A   1      34.958  33.084  33.322  1.00  0.00     0.010 A 
ATOM     63  C   UNL A   1      36.241  34.972  32.507  1.00  0.00     0.010 A 
ATOM     64  C   UNL A   1      33.774  33.777  33.054  1.00  0.00     0.020 A 
ATOM     65  C   UNL A   1      35.061  35.680  32.267  1.00  0.00     0.020 A 
ATOM     66  C   UNL A   1      33.833  35.073  32.530  1.00  0.00     0.054 A 
BRANCH  66  67
ATOM     67  S   UNL A   1      32.286  35.974  32.237  1.00  0.00     0.124 S 
ATOM     68  O   UNL A   1      32.380  36.283  30.814  1.00  0.00    -0.237 OA
ATOM     69  O   UNL A   1      31.271  34.990  32.606  1.00  0.00    -0.237 OA
ATOM     70  O   UNL A   1      32.385  37.123  33.136  1.00  0.00    -0.744 OA
ENDBRANCH  66  67
ENDBRANCH  38  61
BRANCH  50  71
ATOM     71  C   UNL A   1      40.645  33.632  38.432  1.00  0.00    -0.014 A 
ATOM     72  C   UNL A   1      41.370  34.833  38.505  1.00  0.00     0.010 A 
ATOM     73  C   UNL A   1      39.912  33.200  39.552  1.00  0.00     0.010 A 
ATOM     74  C   UNL A   1      41.380  35.578  39.688  1.00  0.00     0.020 A 
ATOM     75  C   UNL A   1      39.898  33.955  40.726  1.00  0.00     0.020 A 
ATOM     76  C   UNL A   1      40.642  35.134  40.790  1.00  0.00     0.054 A 
BRANCH  76  77
ATOM     77  S   UNL A   1      40.624  36.147  42.294  1.00  0.00     0.124 S 
ATOM     78  O   UNL A   1      41.396  35.325  43.223  1.00  0.00    -0.237 OA
ATOM     79  O   UNL A   1      41.273  37.381  41.859  1.00  0.00    -0.237 OA
ATOM     80  O   UNL A   1      39.203  36.275  42.610  1.00  0.00    -0.744 OA
ENDBRANCH  76  77
ENDBRANCH  50  71
ENDBRANCH  24  25
ENDBRANCH  17  19
ENDBRANCH  16  17
ENDBRANCH   1  16
TORSDOF 16
ENDMDL
MODEL 3
REMARK VINA RESULT:      -8.8      4.646     12.546
REMARK SMILES CC(=O)Oc1ccccc1C(=O)OCCOC(=O)c1ccc(-c2c3nc(c(-c4ccc(S(=O)(=O)[O-])cc4)c4ccc([nH]4)c(-c4ccc(S(=O)(=O)[O-])cc4)c4nc(c(-c5ccc(S(=O)(=O)[O-])cc5)c5ccc2[nH]5)C=C4)C=C3)cc1
REMARK SMILES IDX 15 1 14 2 13 3 11 4 12 5 10 6 5 7 6 8 7 9 9 10 8 11 4 12
REMARK SMILES IDX 2 13 1 14 3 15 16 16 17 17 18 18 19 19 20 20 78 21 21 22
REMARK SMILES IDX 77 23 22 24 23 25 24 26 71 27 25 28 76 29 70 30 72 31 26 32
REMARK SMILES IDX 75 33 69 34 68 35 27 37 57 38 38 39 56 40 39 41 42 42 55 43
REMARK SMILES IDX 73 44 40 45 41 46 54 48 74 49 43 50 28 51 29 52 37 53 30 54
REMARK SMILES IDX 36 55 31 56 32 57 33 58 34 59 35 60 58 61 59 62 67 63 60 64
REMARK SMILES IDX 66 65 61 66 62 67 63 68 64 69 65 70 44 71 45 72 53 73 46 74
REMARK SMILES IDX 52 75 47 76 48 77 49 78 50 79 51 80
REMARK H PARENT 72 36 42 47
REMARK Flexibility Score: inf
ROOT
ATOM      1  C   UNL A   1      34.353  29.861  27.608  1.00  0.00     0.275 C 
ENDROOT
BRANCH   1   2
ATOM      2  C   UNL A   1      33.792  31.211  27.164  1.00  0.00     0.275 C 
BRANCH   2   3
ATOM      3  O   UNL A   1      33.708  32.144  28.262  1.00  0.00    -0.458 OA
BRANCH   3   4
ATOM      4  C   UNL A   1      34.570  33.196  28.227  1.00  0.00     0.342 C 
ATOM      5  O   UNL A   1      35.567  33.277  27.539  1.00  0.00    -0.246 OA
BRANCH   4   6
ATOM      6  C   UNL A   1      34.103  34.303  29.104  1.00  0.00     0.102 A 
ATOM      7  C   UNL A   1      33.971  34.192  30.493  1.00  0.00     0.145 A 
ATOM      8  C   UNL A   1      33.519  35.275  31.257  1.00  0.00     0.048 A 
ATOM      9  C   UNL A   1      33.202  36.485  30.634  1.00  0.00     0.004 A 
ATOM     10  C   UNL A   1      33.820  35.539  28.501  1.00  0.00     0.019 A 
ATOM     11  C   UNL A   1      33.348  36.615  29.256  1.00  0.00     0.001 A 
BRANCH   7  12
ATOM     12  O   UNL A   1      34.193  32.995  31.187  1.00  0.00    -0.426 OA
BRANCH  12  13
ATOM     13  C   UNL A   1      35.275  33.009  32.059  1.00  0.00     0.308 C 
ATOM     14  C   UNL A   1      36.517  33.341  31.290  1.00  0.00     0.139 C 
ATOM     15  O   UNL A   1      35.247  32.783  33.260  1.00  0.00    -0.252 OA
ENDBRANCH  12  13
ENDBRANCH   7  12
ENDBRANCH   4   6
ENDBRANCH   3   4
ENDBRANCH   2   3
ENDBRANCH   1   2
BRANCH   1  16
ATOM     16  O   UNL A   1      35.788  29.894  27.634  1.00  0.00    -0.458 OA
BRANCH  16  17
ATOM     17  C   UNL A   1      36.329  29.927  28.872  1.00  0.00     0.338 C 
ATOM     18  O   UNL A   1      35.742  29.962  29.941  1.00  0.00    -0.246 OA
BRANCH  17  19
ATOM     19  C   UNL A   1      37.786  29.801  28.770  1.00  0.00     0.060 A 
ATOM     20  C   UNL A   1      38.337  29.705  27.496  1.00  0.00     0.016 A 
ATOM     21  C   UNL A   1      38.579  29.620  29.899  1.00  0.00     0.016 A 
ATOM     22  C   UNL A   1      39.663  29.328  27.329  1.00  0.00     0.010 A 
ATOM     23  C   UNL A   1      39.936  29.327  29.731  1.00  0.00     0.010 A 
ATOM     24  C   UNL A   1      40.482  29.137  28.446  1.00  0.00    -0.014 A 
BRANCH  24  25
ATOM     25  C   UNL A   1      41.886  28.675  28.278  1.00  0.00     0.031 A 
ATOM     26  C   UNL A   1      43.010  29.671  28.375  1.00  0.00     0.074 A 
ATOM     27  C   UNL A   1      42.158  27.375  28.047  1.00  0.00     0.049 A 
ATOM     28  N   UNL A   1      44.265  29.540  28.033  1.00  0.00    -0.248 NA
ATOM     29  C   UNL A   1      42.672  31.001  28.913  1.00  0.00     0.031 C 
ATOM     30  C   UNL A   1      41.172  26.291  28.004  1.00  0.00     0.029 A 
ATOM     31  N   UNL A   1      43.352  26.741  27.800  1.00  0.00    -0.354 N 
ATOM     32  C   UNL A   1      44.850  30.782  28.252  1.00  0.00     0.074 A 
ATOM     33  C   UNL A   1      43.813  31.657  28.754  1.00  0.00     0.031 C 
ATOM     34  C   UNL A   1      41.801  25.130  27.765  1.00  0.00     0.029 A 
ATOM     35  C   UNL A   1      43.216  25.398  27.539  1.00  0.00     0.049 A 
ATOM     36  H   UNL A   1      44.220  27.206  27.808  1.00  0.00     0.167 HD
ATOM     37  C   UNL A   1      46.135  31.158  28.045  1.00  0.00     0.031 A 
ATOM     38  C   UNL A   1      44.114  24.491  27.108  1.00  0.00     0.031 A 
ATOM     39  C   UNL A   1      47.163  30.264  27.580  1.00  0.00     0.049 A 
ATOM     40  C   UNL A   1      45.524  24.938  26.842  1.00  0.00     0.074 A 
ATOM     41  C   UNL A   1      48.496  30.539  27.329  1.00  0.00     0.029 A 
ATOM     42  N   UNL A   1      46.976  28.915  27.317  1.00  0.00    -0.354 N 
ATOM     43  N   UNL A   1      46.047  26.133  26.980  1.00  0.00    -0.248 NA
ATOM     44  C   UNL A   1      46.461  23.920  26.349  1.00  0.00     0.031 C 
ATOM     45  C   UNL A   1      49.105  29.365  26.876  1.00  0.00     0.029 A 
ATOM     46  C   UNL A   1      48.166  28.345  26.901  1.00  0.00     0.049 A 
ATOM     47  H   UNL A   1      46.122  28.434  27.413  1.00  0.00     0.167 HD
ATOM     48  C   UNL A   1      47.382  26.006  26.613  1.00  0.00     0.074 A 
ATOM     49  C   UNL A   1      47.588  24.616  26.261  1.00  0.00     0.031 C 
ATOM     50  C   UNL A   1      48.349  26.955  26.569  1.00  0.00     0.031 A 
BRANCH  37  51
ATOM     51  C   UNL A   1      46.490  32.605  28.276  1.00  0.00    -0.014 A 
ATOM     52  C   UNL A   1      46.308  33.577  27.277  1.00  0.00     0.010 A 
ATOM     53  C   UNL A   1      46.986  33.001  29.532  1.00  0.00     0.010 A 
ATOM     54  C   UNL A   1      46.652  34.912  27.517  1.00  0.00     0.020 A 
ATOM     55  C   UNL A   1      47.305  34.339  29.786  1.00  0.00     0.020 A 
ATOM     56  C   UNL A   1      47.152  35.283  28.769  1.00  0.00     0.054 A 
BRANCH  56  57
ATOM     57  S   UNL A   1      47.573  37.024  29.060  1.00  0.00     0.124 S 
ATOM     58  O   UNL A   1      47.894  37.485  27.712  1.00  0.00    -0.237 OA
ATOM     59  O   UNL A   1      46.339  37.561  29.629  1.00  0.00    -0.237 OA
ATOM     60  O   UNL A   1      48.705  36.960  29.981  1.00  0.00    -0.744 OA
ENDBRANCH  56  57
ENDBRANCH  37  51
BRANCH  38  61
ATOM     61  C   UNL A   1      43.684  23.090  26.841  1.00  0.00    -0.014 A 
ATOM     62  C   UNL A   1      43.959  22.473  25.609  1.00  0.00     0.010 A 
ATOM     63  C   UNL A   1      43.008  22.357  27.835  1.00  0.00     0.010 A 
ATOM     64  C   UNL A   1      43.557  21.156  25.371  1.00  0.00     0.020 A 
ATOM     65  C   UNL A   1      42.632  21.029  27.613  1.00  0.00     0.020 A 
ATOM     66  C   UNL A   1      42.898  20.440  26.376  1.00  0.00     0.054 A 
BRANCH  66  67
ATOM     67  S   UNL A   1      42.431  18.715  26.066  1.00  0.00     0.124 S 
ATOM     68  O   UNL A   1      41.031  18.846  25.677  1.00  0.00    -0.237 OA
ATOM     69  O   UNL A   1      43.351  18.324  25.001  1.00  0.00    -0.237 OA
ATOM     70  O   UNL A   1      42.666  18.061  27.352  1.00  0.00    -0.744 OA
ENDBRANCH  66  67
ENDBRANCH  38  61
BRANCH  50  71
ATOM     71  C   UNL A   1      49.732  26.511  26.178  1.00  0.00    -0.014 A 
ATOM     72  C   UNL A   1      50.242  26.752  24.892  1.00  0.00     0.010 A 
ATOM     73  C   UNL A   1      50.554  25.899  27.142  1.00  0.00     0.010 A 
ATOM     74  C   UNL A   1      51.544  26.365  24.567  1.00  0.00     0.020 A 
ATOM     75  C   UNL A   1      51.865  25.535  26.829  1.00  0.00     0.020 A 
ATOM     76  C   UNL A   1      52.348  25.760  25.540  1.00  0.00     0.054 A 
BRANCH  76  77
ATOM     77  S   UNL A   1      54.054  25.319  25.112  1.00  0.00     0.124 S 
ATOM     78  O   UNL A   1      54.252  26.049  23.862  1.00  0.00    -0.237 OA
ATOM     79  O   UNL A   1      54.812  25.818  26.257  1.00  0.00    -0.237 OA
ATOM     80  O   UNL A   1      54.015  23.865  24.984  1.00  0.00    -0.744 OA
ENDBRANCH  76  77
ENDBRANCH  50  71
ENDBRANCH  24  25
ENDBRANCH  17  19
ENDBRANCH  16  17
ENDBRANCH   1  16
TORSDOF 16
ENDMDL
