MODEL 1
REMARK VINA RESULT:      -9.5      0.000      0.000
REMARK SMILES NC(=O)c1c(F)cccc1N1CCC[C@H](CC(=O)OCCOC(=O)c2ccc(-c3c4nc(c(-c5ccc(S(=O)(=O)[O-])cc5)c5ccc([nH]5)c(-c5ccc(S(=O)(=O)[O-])cc5)c5nc(c(-c6ccc(S(=O)(=O)[O-])cc6)c6ccc3[nH]6)C=C5)C=C4)cc2)C1
REMARK SMILES IDX 20 1 19 2 17 3 18 4 16 5 15 6 11 7 12 8 85 9 13 10 14 11
REMARK SMILES IDX 10 12 4 13 5 14 6 15 7 16 9 17 8 18 2 19 1 20 3 23 21 24
REMARK SMILES IDX 22 25 23 26 24 27 25 28 26 29 84 30 27 31 83 32 28 33 29 34
REMARK SMILES IDX 30 35 77 36 31 37 82 38 76 39 78 40 32 41 81 42 75 43 74 44
REMARK SMILES IDX 33 46 63 47 44 48 62 49 45 50 48 51 61 52 79 53 46 54 47 55
REMARK SMILES IDX 60 57 80 58 49 59 34 60 35 61 43 62 36 63 42 64 37 65 38 66
REMARK SMILES IDX 39 67 40 68 41 69 64 70 65 71 73 72 66 73 72 74 67 75 68 76
REMARK SMILES IDX 69 77 70 78 71 79 50 80 51 81 59 82 52 83 58 84 53 85 54 86
REMARK SMILES IDX 55 87 56 88 57 89
REMARK H PARENT 1 21 1 22 78 45 48 56
REMARK Flexibility Score: inf
ROOT
ATOM      1  C   UNL A   1      33.662  33.751  28.252  1.00  0.00     0.274 C 
ENDROOT
BRANCH   1   2
ATOM      2  O   UNL A   1      32.742  34.246  29.241  1.00  0.00    -0.462 OA
BRANCH   2   3
ATOM      3  C   UNL A   1      33.147  35.340  29.931  1.00  0.00     0.306 C 
ATOM      4  O   UNL A   1      32.547  36.408  29.961  1.00  0.00    -0.252 OA
BRANCH   3   5
ATOM      5  C   UNL A   1      34.485  35.151  30.598  1.00  0.00     0.128 C 
BRANCH   5   6
ATOM      6  C   UNL A   1      34.474  34.882  32.118  1.00  0.00     0.019 C 
ATOM      7  N   UNL A   1      36.635  33.806  32.031  1.00  0.00    -0.371 N 
ATOM      8  C   UNL A   1      36.170  32.456  32.326  1.00  0.00     0.116 C 
ATOM      9  C   UNL A   1      35.917  34.913  32.655  1.00  0.00     0.120 C 
ATOM     10  C   UNL A   1      34.681  32.336  31.984  1.00  0.00     0.022 C 
ATOM     11  C   UNL A   1      33.858  33.521  32.502  1.00  0.00     0.008 C 
BRANCH   7  12
ATOM     12  C   UNL A   1      37.850  34.023  31.408  1.00  0.00     0.053 A 
ATOM     13  C   UNL A   1      39.057  34.325  32.074  1.00  0.00     0.098 A 
ATOM     14  C   UNL A   1      40.194  34.666  31.328  1.00  0.00     0.138 A 
ATOM     15  F   UNL A   1      41.356  34.958  31.934  1.00  0.00    -0.206 F 
ATOM     16  C   UNL A   1      40.163  34.715  29.937  1.00  0.00     0.040 A 
ATOM     17  C   UNL A   1      37.855  34.043  29.998  1.00  0.00     0.027 A 
ATOM     18  C   UNL A   1      38.990  34.394  29.267  1.00  0.00     0.005 A 
BRANCH  13  19
ATOM     19  C   UNL A   1      39.178  34.225  33.551  1.00  0.00     0.253 C 
ATOM     20  N   UNL A   1      39.558  33.013  34.061  1.00  0.00    -0.365 N 
ATOM     21  H   UNL A   1      39.653  32.897  35.035  1.00  0.00     0.159 HD
ATOM     22  H   UNL A   1      39.737  32.259  33.456  1.00  0.00     0.159 HD
ATOM     23  O   UNL A   1      38.951  35.170  34.297  1.00  0.00    -0.269 OA
ENDBRANCH  13  19
ENDBRANCH   7  12
ENDBRANCH   5   6
ENDBRANCH   3   5
ENDBRANCH   2   3
ENDBRANCH   1   2
BRANCH   1  24
ATOM     24  C   UNL A   1      33.488  32.247  28.025  1.00  0.00     0.275 C 
BRANCH  24  25
ATOM     25  O   UNL A   1      34.667  31.656  27.451  1.00  0.00    -0.458 OA
BRANCH  25  26
ATOM     26  C   UNL A   1      34.773  30.315  27.605  1.00  0.00     0.338 C 
ATOM     27  O   UNL A   1      33.953  29.470  27.291  1.00  0.00    -0.246 OA
BRANCH  26  28
ATOM     28  C   UNL A   1      36.111  29.981  28.115  1.00  0.00     0.060 A 
ATOM     29  C   UNL A   1      37.200  30.080  27.244  1.00  0.00     0.016 A 
ATOM     30  C   UNL A   1      36.281  29.503  29.415  1.00  0.00     0.016 A 
ATOM     31  C   UNL A   1      38.471  29.701  27.672  1.00  0.00     0.010 A 
ATOM     32  C   UNL A   1      37.556  29.122  29.842  1.00  0.00     0.010 A 
ATOM     33  C   UNL A   1      38.657  29.210  28.970  1.00  0.00    -0.014 A 
BRANCH  33  34
ATOM     34  C   UNL A   1      39.996  28.745  29.402  1.00  0.00     0.031 A 
ATOM     35  C   UNL A   1      40.882  29.659  30.200  1.00  0.00     0.074 A 
ATOM     36  C   UNL A   1      40.414  27.508  29.080  1.00  0.00     0.049 A 
ATOM     37  N   UNL A   1      42.112  29.470  30.605  1.00  0.00    -0.248 NA
ATOM     38  C   UNL A   1      40.309  30.957  30.592  1.00  0.00     0.031 C 
ATOM     39  C   UNL A   1      39.630  26.518  28.340  1.00  0.00     0.029 A 
ATOM     40  N   UNL A   1      41.606  26.876  29.327  1.00  0.00    -0.354 N 
ATOM     41  C   UNL A   1      42.472  30.632  31.277  1.00  0.00     0.074 A 
ATOM     42  C   UNL A   1      41.333  31.524  31.217  1.00  0.00     0.031 C 
ATOM     43  C   UNL A   1      40.365  25.403  28.190  1.00  0.00     0.029 A 
ATOM     44  C   UNL A   1      41.683  25.616  28.782  1.00  0.00     0.049 A 
ATOM     45  H   UNL A   1      42.337  27.286  29.844  1.00  0.00     0.167 HD
ATOM     46  C   UNL A   1      43.645  30.928  31.885  1.00  0.00     0.031 A 
ATOM     47  C   UNL A   1      42.707  24.742  28.740  1.00  0.00     0.031 A 
ATOM     48  C   UNL A   1      44.776  30.039  31.939  1.00  0.00     0.049 A 
ATOM     49  C   UNL A   1      44.016  25.112  29.382  1.00  0.00     0.074 A 
ATOM     50  C   UNL A   1      46.003  30.242  32.547  1.00  0.00     0.029 A 
ATOM     51  N   UNL A   1      44.819  28.780  31.361  1.00  0.00    -0.354 N 
ATOM     52  N   UNL A   1      44.338  26.211  30.022  1.00  0.00    -0.248 NA
ATOM     53  C   UNL A   1      45.100  24.124  29.298  1.00  0.00     0.031 C 
ATOM     54  C   UNL A   1      46.804  29.122  32.297  1.00  0.00     0.029 A 
ATOM     55  C   UNL A   1      46.060  28.202  31.577  1.00  0.00     0.049 A 
ATOM     56  H   UNL A   1      44.079  28.358  30.869  1.00  0.00     0.167 HD
ATOM     57  C   UNL A   1      45.656  26.041  30.430  1.00  0.00     0.074 A 
ATOM     58  C   UNL A   1      46.067  24.726  29.978  1.00  0.00     0.031 C 
ATOM     59  C   UNL A   1      46.454  26.896  31.115  1.00  0.00     0.031 A 
BRANCH  46  60
ATOM     60  C   UNL A   1      43.777  32.293  32.505  1.00  0.00    -0.014 A 
ATOM     61  C   UNL A   1      44.377  33.358  31.808  1.00  0.00     0.010 A 
ATOM     62  C   UNL A   1      43.269  32.518  33.797  1.00  0.00     0.010 A 
ATOM     63  C   UNL A   1      44.503  34.612  32.411  1.00  0.00     0.020 A 
ATOM     64  C   UNL A   1      43.374  33.777  34.394  1.00  0.00     0.020 A 
ATOM     65  C   UNL A   1      44.008  34.812  33.703  1.00  0.00     0.054 A 
BRANCH  65  66
ATOM     66  S   UNL A   1      44.177  36.452  34.461  1.00  0.00     0.124 S 
ATOM     67  O   UNL A   1      42.784  36.878  34.568  1.00  0.00    -0.237 OA
ATOM     68  O   UNL A   1      44.842  36.155  35.728  1.00  0.00    -0.237 OA
ATOM     69  O   UNL A   1      44.985  37.197  33.498  1.00  0.00    -0.744 OA
ENDBRANCH  65  66
ENDBRANCH  46  60
BRANCH  47  70
ATOM     70  C   UNL A   1      42.539  23.443  28.037  1.00  0.00    -0.014 A 
ATOM     71  C   UNL A   1      43.113  23.232  26.772  1.00  0.00     0.010 A 
ATOM     72  C   UNL A   1      41.823  22.396  28.648  1.00  0.00     0.010 A 
ATOM     73  C   UNL A   1      42.968  22.000  26.127  1.00  0.00     0.020 A 
ATOM     74  C   UNL A   1      41.697  21.157  28.016  1.00  0.00     0.020 A 
ATOM     75  C   UNL A   1      42.263  20.969  26.755  1.00  0.00     0.054 A 
BRANCH  75  76
ATOM     76  S   UNL A   1      42.147  19.355  25.933  1.00  0.00     0.124 S 
ATOM     77  O   UNL A   1      42.967  19.561  24.744  1.00  0.00    -0.237 OA
ATOM     78  O   UNL A   1      42.703  18.448  26.935  1.00  0.00    -0.237 OA
ATOM     79  O   UNL A   1      40.716  19.199  25.690  1.00  0.00    -0.744 OA
ENDBRANCH  75  76
ENDBRANCH  47  70
BRANCH  59  80
ATOM     80  C   UNL A   1      47.846  26.427  31.443  1.00  0.00    -0.014 A 
ATOM     81  C   UNL A   1      48.174  25.974  32.733  1.00  0.00     0.010 A 
ATOM     82  C   UNL A   1      48.823  26.388  30.432  1.00  0.00     0.010 A 
ATOM     83  C   UNL A   1      49.465  25.518  33.013  1.00  0.00     0.020 A 
ATOM     84  C   UNL A   1      50.108  25.912  30.702  1.00  0.00     0.020 A 
ATOM     85  C   UNL A   1      50.425  25.492  31.996  1.00  0.00     0.054 A 
BRANCH  85  86
ATOM     86  S   UNL A   1      52.082  24.856  32.370  1.00  0.00     0.124 S 
ATOM     87  O   UNL A   1      52.296  25.346  33.729  1.00  0.00    -0.237 OA
ATOM     88  O   UNL A   1      51.910  23.411  32.244  1.00  0.00    -0.237 OA
ATOM     89  O   UNL A   1      52.925  25.467  31.346  1.00  0.00    -0.744 OA
ENDBRANCH  85  86
ENDBRANCH  59  80
ENDBRANCH  33  34
ENDBRANCH  26  28
ENDBRANCH  25  26
ENDBRANCH  24  25
ENDBRANCH   1  24
TORSDOF 17
ENDMDL
MODEL 2
REMARK VINA RESULT:      -9.4      5.042     11.891
REMARK SMILES NC(=O)c1c(F)cccc1N1CCC[C@H](CC(=O)OCCOC(=O)c2ccc(-c3c4nc(c(-c5ccc(S(=O)(=O)[O-])cc5)c5ccc([nH]5)c(-c5ccc(S(=O)(=O)[O-])cc5)c5nc(c(-c6ccc(S(=O)(=O)[O-])cc6)c6ccc3[nH]6)C=C5)C=C4)cc2)C1
REMARK SMILES IDX 20 1 19 2 17 3 18 4 16 5 15 6 11 7 12 8 85 9 13 10 14 11
REMARK SMILES IDX 10 12 4 13 5 14 6 15 7 16 9 17 8 18 2 19 1 20 3 23 21 24
REMARK SMILES IDX 22 25 23 26 24 27 25 28 26 29 84 30 27 31 83 32 28 33 29 34
REMARK SMILES IDX 30 35 77 36 31 37 82 38 76 39 78 40 32 41 81 42 75 43 74 44
REMARK SMILES IDX 33 46 63 47 44 48 62 49 45 50 48 51 61 52 79 53 46 54 47 55
REMARK SMILES IDX 60 57 80 58 49 59 34 60 35 61 43 62 36 63 42 64 37 65 38 66
REMARK SMILES IDX 39 67 40 68 41 69 64 70 65 71 73 72 66 73 72 74 67 75 68 76
REMARK SMILES IDX 69 77 70 78 71 79 50 80 51 81 59 82 52 83 58 84 53 85 54 86
REMARK SMILES IDX 55 87 56 88 57 89
REMARK H PARENT 1 21 1 22 78 45 48 56
REMARK Flexibility Score: inf
ROOT
ATOM      1  C   UNL A   1      40.026  22.206  26.911  1.00  0.00     0.274 C 
ENDROOT
BRANCH   1   2
ATOM      2  O   UNL A   1      38.932  22.214  25.977  1.00  0.00    -0.462 OA
BRANCH   2   3
ATOM      3  C   UNL A   1      38.134  23.308  26.010  1.00  0.00     0.306 C 
ATOM      4  O   UNL A   1      38.525  24.451  26.220  1.00  0.00    -0.252 OA
BRANCH   3   5
ATOM      5  C   UNL A   1      36.673  22.974  25.854  1.00  0.00     0.128 C 
BRANCH   5   6
ATOM      6  C   UNL A   1      36.269  22.188  24.589  1.00  0.00     0.019 C 
ATOM      7  N   UNL A   1      34.253  23.492  24.319  1.00  0.00    -0.371 N 
ATOM      8  C   UNL A   1      33.312  22.425  24.637  1.00  0.00     0.116 C 
ATOM      9  C   UNL A   1      35.487  23.115  23.638  1.00  0.00     0.120 C 
ATOM     10  C   UNL A   1      34.017  21.340  25.457  1.00  0.00     0.022 C 
ATOM     11  C   UNL A   1      35.385  20.958  24.879  1.00  0.00     0.008 C 
BRANCH   7  12
ATOM     12  C   UNL A   1      33.885  24.821  24.415  1.00  0.00     0.053 A 
ATOM     13  C   UNL A   1      33.257  25.563  23.391  1.00  0.00     0.098 A 
ATOM     14  C   UNL A   1      33.064  26.942  23.554  1.00  0.00     0.138 A 
ATOM     15  F   UNL A   1      32.470  27.673  22.597  1.00  0.00    -0.206 F 
ATOM     16  C   UNL A   1      33.477  27.603  24.707  1.00  0.00     0.040 A 
ATOM     17  C   UNL A   1      34.261  25.508  25.588  1.00  0.00     0.027 A 
ATOM     18  C   UNL A   1      34.071  26.882  25.734  1.00  0.00     0.005 A 
BRANCH  13  19
ATOM     19  C   UNL A   1      32.732  24.909  22.166  1.00  0.00     0.253 C 
ATOM     20  N   UNL A   1      31.393  24.626  22.141  1.00  0.00    -0.365 N 
ATOM     21  H   UNL A   1      30.996  24.193  21.350  1.00  0.00     0.159 HD
ATOM     22  H   UNL A   1      30.827  24.856  22.912  1.00  0.00     0.159 HD
ATOM     23  O   UNL A   1      33.445  24.624  21.212  1.00  0.00    -0.269 OA
ENDBRANCH  13  19
ENDBRANCH   7  12
ENDBRANCH   5   6
ENDBRANCH   3   5
ENDBRANCH   2   3
ENDBRANCH   1   2
BRANCH   1  24
ATOM     24  C   UNL A   1      41.353  22.543  26.226  1.00  0.00     0.275 C 
BRANCH  24  25
ATOM     25  O   UNL A   1      42.116  23.497  26.986  1.00  0.00    -0.458 OA
BRANCH  25  26
ATOM     26  C   UNL A   1      42.189  24.737  26.446  1.00  0.00     0.338 C 
ATOM     27  O   UNL A   1      42.390  25.022  25.278  1.00  0.00    -0.246 OA
BRANCH  26  28
ATOM     28  C   UNL A   1      41.863  25.741  27.470  1.00  0.00     0.060 A 
ATOM     29  C   UNL A   1      42.654  26.890  27.552  1.00  0.00     0.016 A 
ATOM     30  C   UNL A   1      40.834  25.518  28.386  1.00  0.00     0.016 A 
ATOM     31  C   UNL A   1      42.420  27.827  28.557  1.00  0.00     0.010 A 
ATOM     32  C   UNL A   1      40.601  26.459  29.394  1.00  0.00     0.010 A 
ATOM     33  C   UNL A   1      41.399  27.613  29.491  1.00  0.00    -0.014 A 
BRANCH  33  34
ATOM     34  C   UNL A   1      41.192  28.577  30.598  1.00  0.00     0.031 A 
ATOM     35  C   UNL A   1      42.060  28.508  31.822  1.00  0.00     0.074 A 
ATOM     36  C   UNL A   1      40.228  29.511  30.503  1.00  0.00     0.049 A 
ATOM     37  N   UNL A   1      41.988  29.207  32.925  1.00  0.00    -0.248 NA
ATOM     38  C   UNL A   1      43.152  27.521  31.801  1.00  0.00     0.031 C 
ATOM     39  C   UNL A   1      39.346  29.700  29.350  1.00  0.00     0.029 A 
ATOM     40  N   UNL A   1      39.824  30.471  31.396  1.00  0.00    -0.354 N 
ATOM     41  C   UNL A   1      43.006  28.730  33.742  1.00  0.00     0.074 A 
ATOM     42  C   UNL A   1      43.676  27.675  33.010  1.00  0.00     0.031 C 
ATOM     43  C   UNL A   1      38.501  30.713  29.609  1.00  0.00     0.029 A 
ATOM     44  C   UNL A   1      38.753  31.212  30.958  1.00  0.00     0.049 A 
ATOM     45  H   UNL A   1      40.260  30.615  32.267  1.00  0.00     0.167 HD
ATOM     46  C   UNL A   1      43.349  29.132  34.989  1.00  0.00     0.031 A 
ATOM     47  C   UNL A   1      38.037  32.167  31.582  1.00  0.00     0.031 A 
ATOM     48  C   UNL A   1      42.678  30.180  35.714  1.00  0.00     0.049 A 
ATOM     49  C   UNL A   1      38.406  32.565  32.985  1.00  0.00     0.074 A 
ATOM     50  C   UNL A   1      42.962  30.671  36.977  1.00  0.00     0.029 A 
ATOM     51  N   UNL A   1      41.587  30.894  35.243  1.00  0.00    -0.354 N 
ATOM     52  N   UNL A   1      39.377  32.111  33.741  1.00  0.00    -0.248 NA
ATOM     53  C   UNL A   1      37.585  33.605  33.618  1.00  0.00     0.031 C 
ATOM     54  C   UNL A   1      42.013  31.652  37.287  1.00  0.00     0.029 A 
ATOM     55  C   UNL A   1      41.170  31.807  36.198  1.00  0.00     0.049 A 
ATOM     56  H   UNL A   1      41.169  30.770  34.361  1.00  0.00     0.167 HD
ATOM     57  C   UNL A   1      39.293  32.820  34.933  1.00  0.00     0.074 A 
ATOM     58  C   UNL A   1      38.186  33.745  34.792  1.00  0.00     0.031 C 
ATOM     59  C   UNL A   1      40.063  32.715  36.044  1.00  0.00     0.031 A 
BRANCH  46  60
ATOM     60  C   UNL A   1      44.478  28.403  35.665  1.00  0.00    -0.014 A 
ATOM     61  C   UNL A   1      44.252  27.226  36.400  1.00  0.00     0.010 A 
ATOM     62  C   UNL A   1      45.791  28.893  35.541  1.00  0.00     0.010 A 
ATOM     63  C   UNL A   1      45.314  26.575  37.033  1.00  0.00     0.020 A 
ATOM     64  C   UNL A   1      46.858  28.232  36.154  1.00  0.00     0.020 A 
ATOM     65  C   UNL A   1      46.610  27.087  36.913  1.00  0.00     0.054 A 
BRANCH  65  66
ATOM     66  S   UNL A   1      47.974  26.219  37.738  1.00  0.00     0.124 S 
ATOM     67  O   UNL A   1      47.378  25.883  39.028  1.00  0.00    -0.237 OA
ATOM     68  O   UNL A   1      48.223  25.088  36.847  1.00  0.00    -0.237 OA
ATOM     69  O   UNL A   1      49.040  27.217  37.784  1.00  0.00    -0.744 OA
ENDBRANCH  65  66
ENDBRANCH  46  60
BRANCH  47  70
ATOM     70  C   UNL A   1      36.877  32.789  30.890  1.00  0.00    -0.014 A 
ATOM     71  C   UNL A   1      35.568  32.350  31.146  1.00  0.00     0.010 A 
ATOM     72  C   UNL A   1      37.080  33.849  29.986  1.00  0.00     0.010 A 
ATOM     73  C   UNL A   1      34.481  32.955  30.507  1.00  0.00     0.020 A 
ATOM     74  C   UNL A   1      35.995  34.471  29.364  1.00  0.00     0.020 A 
ATOM     75  C   UNL A   1      34.702  34.015  29.622  1.00  0.00     0.054 A 
BRANCH  75  76
ATOM     76  S   UNL A   1      33.275  34.833  28.857  1.00  0.00     0.124 S 
ATOM     77  O   UNL A   1      32.430  35.114  30.014  1.00  0.00    -0.237 OA
ATOM     78  O   UNL A   1      33.881  36.000  28.219  1.00  0.00    -0.237 OA
ATOM     79  O   UNL A   1      32.759  33.827  27.933  1.00  0.00    -0.744 OA
ENDBRANCH  75  76
ENDBRANCH  47  70
BRANCH  59  80
ATOM     80  C   UNL A   1      39.751  33.641  37.189  1.00  0.00    -0.014 A 
ATOM     81  C   UNL A   1      38.912  33.235  38.242  1.00  0.00     0.010 A 
ATOM     82  C   UNL A   1      40.349  34.913  37.237  1.00  0.00     0.010 A 
ATOM     83  C   UNL A   1      38.655  34.099  39.310  1.00  0.00     0.020 A 
ATOM     84  C   UNL A   1      40.111  35.771  38.313  1.00  0.00     0.020 A 
ATOM     85  C   UNL A   1      39.253  35.363  39.338  1.00  0.00     0.054 A 
BRANCH  85  86
ATOM     86  S   UNL A   1      38.939  36.452  40.754  1.00  0.00     0.124 S 
ATOM     87  O   UNL A   1      40.259  36.533  41.373  1.00  0.00    -0.237 OA
ATOM     88  O   UNL A   1      38.466  37.680  40.120  1.00  0.00    -0.237 OA
ATOM     89  O   UNL A   1      37.931  35.730  41.527  1.00  0.00    -0.744 OA
ENDBRANCH  85  86
ENDBRANCH  59  80
ENDBRANCH  33  34
ENDBRANCH  26  28
ENDBRANCH  25  26
ENDBRANCH  24  25
ENDBRANCH   1  24
TORSDOF 17
ENDMDL
MODEL 3
REMARK VINA RESULT:      -9.3      5.034      7.632
REMARK SMILES NC(=O)c1c(F)cccc1N1CCC[C@H](CC(=O)OCCOC(=O)c2ccc(-c3c4nc(c(-c5ccc(S(=O)(=O)[O-])cc5)c5ccc([nH]5)c(-c5ccc(S(=O)(=O)[O-])cc5)c5nc(c(-c6ccc(S(=O)(=O)[O-])cc6)c6ccc3[nH]6)C=C5)C=C4)cc2)C1
REMARK SMILES IDX 20 1 19 2 17 3 18 4 16 5 15 6 11 7 12 8 85 9 13 10 14 11
REMARK SMILES IDX 10 12 4 13 5 14 6 15 7 16 9 17 8 18 2 19 1 20 3 23 21 24
REMARK SMILES IDX 22 25 23 26 24 27 25 28 26 29 84 30 27 31 83 32 28 33 29 34
REMARK SMILES IDX 30 35 77 36 31 37 82 38 76 39 78 40 32 41 81 42 75 43 74 44
REMARK SMILES IDX 33 46 63 47 44 48 62 49 45 50 48 51 61 52 79 53 46 54 47 55
REMARK SMILES IDX 60 57 80 58 49 59 34 60 35 61 43 62 36 63 42 64 37 65 38 66
REMARK SMILES IDX 39 67 40 68 41 69 64 70 65 71 73 72 66 73 72 74 67 75 68 76
REMARK SMILES IDX 69 77 70 78 71 79 50 80 51 81 59 82 52 83 58 84 53 85 54 86
REMARK SMILES IDX 55 87 56 88 57 89
REMARK H PARENT 1 21 1 22 78 45 48 56
REMARK Flexibility Score: inf
ROOT
ATOM      1  C   UNL A   1      34.032  29.251  26.426  1.00  0.00     0.274 C 
ENDROOT
BRANCH   1   2
ATOM      2  O   UNL A   1      33.589  27.911  26.705  1.00  0.00    -0.462 OA
BRANCH   2   3
ATOM      3  C   UNL A   1      32.586  27.444  25.924  1.00  0.00     0.306 C 
ATOM      4  O   UNL A   1      31.575  28.075  25.634  1.00  0.00    -0.252 OA
BRANCH   3   5
ATOM      5  C   UNL A   1      32.784  26.009  25.508  1.00  0.00     0.128 C 
BRANCH   5   6
ATOM      6  C   UNL A   1      31.675  25.010  25.903  1.00  0.00     0.019 C 
ATOM      7  N   UNL A   1      32.751  23.210  24.704  1.00  0.00    -0.371 N 
ATOM      8  C   UNL A   1      31.753  23.083  23.649  1.00  0.00     0.116 C 
ATOM      9  C   UNL A   1      32.278  23.599  26.029  1.00  0.00     0.120 C 
ATOM     10  C   UNL A   1      30.959  24.388  23.528  1.00  0.00     0.022 C 
ATOM     11  C   UNL A   1      30.516  24.938  24.888  1.00  0.00     0.008 C 
BRANCH   7  12
ATOM     12  C   UNL A   1      34.037  22.734  24.532  1.00  0.00     0.053 A 
ATOM     13  C   UNL A   1      34.466  21.429  24.855  1.00  0.00     0.098 A 
ATOM     14  C   UNL A   1      35.828  21.106  24.771  1.00  0.00     0.138 A 
ATOM     15  F   UNL A   1      36.265  19.873  25.072  1.00  0.00    -0.206 F 
ATOM     16  C   UNL A   1      36.775  22.046  24.374  1.00  0.00     0.040 A 
ATOM     17  C   UNL A   1      35.011  23.657  24.098  1.00  0.00     0.027 A 
ATOM     18  C   UNL A   1      36.365  23.326  24.027  1.00  0.00     0.005 A 
BRANCH  13  19
ATOM     19  C   UNL A   1      33.503  20.360  25.219  1.00  0.00     0.253 C 
ATOM     20  N   UNL A   1      33.317  20.121  26.554  1.00  0.00    -0.365 N 
ATOM     21  H   UNL A   1      32.688  19.421  26.846  1.00  0.00     0.159 HD
ATOM     22  H   UNL A   1      33.812  20.647  27.221  1.00  0.00     0.159 HD
ATOM     23  O   UNL A   1      32.893  19.707  24.381  1.00  0.00    -0.269 OA
ENDBRANCH  13  19
ENDBRANCH   7  12
ENDBRANCH   5   6
ENDBRANCH   3   5
ENDBRANCH   2   3
ENDBRANCH   1   2
BRANCH   1  24
ATOM     24  C   UNL A   1      34.292  30.037  27.714  1.00  0.00     0.275 C 
BRANCH  24  25
ATOM     25  O   UNL A   1      35.678  30.401  27.842  1.00  0.00    -0.458 OA
BRANCH  25  26
ATOM     26  C   UNL A   1      36.239  30.116  29.042  1.00  0.00     0.338 C 
ATOM     27  O   UNL A   1      35.669  29.993  30.112  1.00  0.00    -0.246 OA
BRANCH  26  28
ATOM     28  C   UNL A   1      37.673  29.843  28.863  1.00  0.00     0.060 A 
ATOM     29  C   UNL A   1      38.160  29.656  27.566  1.00  0.00     0.016 A 
ATOM     30  C   UNL A   1      38.515  29.699  29.967  1.00  0.00     0.016 A 
ATOM     31  C   UNL A   1      39.498  29.322  27.366  1.00  0.00     0.010 A 
ATOM     32  C   UNL A   1      39.857  29.364  29.764  1.00  0.00     0.010 A 
ATOM     33  C   UNL A   1      40.354  29.164  28.463  1.00  0.00    -0.014 A 
BRANCH  33  34
ATOM     34  C   UNL A   1      41.760  28.746  28.253  1.00  0.00     0.031 A 
ATOM     35  C   UNL A   1      42.858  29.771  28.288  1.00  0.00     0.074 A 
ATOM     36  C   UNL A   1      42.050  27.451  28.031  1.00  0.00     0.049 A 
ATOM     37  N   UNL A   1      44.136  29.620  28.052  1.00  0.00    -0.248 NA
ATOM     38  C   UNL A   1      42.465  31.147  28.633  1.00  0.00     0.031 C 
ATOM     39  C   UNL A   1      41.074  26.359  28.009  1.00  0.00     0.029 A 
ATOM     40  N   UNL A   1      43.248  26.836  27.773  1.00  0.00    -0.354 N 
ATOM     41  C   UNL A   1      44.698  30.883  28.194  1.00  0.00     0.074 A 
ATOM     42  C   UNL A   1      43.620  31.790  28.528  1.00  0.00     0.031 C 
ATOM     43  C   UNL A   1      41.715  25.207  27.748  1.00  0.00     0.029 A 
ATOM     44  C   UNL A   1      43.133  25.486  27.541  1.00  0.00     0.049 A 
ATOM     45  H   UNL A   1      44.108  27.315  27.756  1.00  0.00     0.167 HD
ATOM     46  C   UNL A   1      45.994  31.252  28.055  1.00  0.00     0.031 A 
ATOM     47  C   UNL A   1      44.061  24.580  27.175  1.00  0.00     0.031 A 
ATOM     48  C   UNL A   1      47.062  30.347  27.720  1.00  0.00     0.049 A 
ATOM     49  C   UNL A   1      45.485  25.022  26.982  1.00  0.00     0.074 A 
ATOM     50  C   UNL A   1      48.410  30.623  27.574  1.00  0.00     0.029 A 
ATOM     51  N   UNL A   1      46.902  28.992  27.476  1.00  0.00    -0.354 N 
ATOM     52  N   UNL A   1      46.003  26.218  27.128  1.00  0.00    -0.248 NA
ATOM     53  C   UNL A   1      46.451  23.992  26.575  1.00  0.00     0.031 C 
ATOM     54  C   UNL A   1      49.059  29.442  27.197  1.00  0.00     0.029 A 
ATOM     55  C   UNL A   1      48.123  28.420  27.157  1.00  0.00     0.049 A 
ATOM     56  H   UNL A   1      46.047  28.506  27.521  1.00  0.00     0.167 HD
ATOM     57  C   UNL A   1      47.357  26.082  26.847  1.00  0.00     0.074 A 
ATOM     58  C   UNL A   1      47.582  24.684  26.536  1.00  0.00     0.031 C 
ATOM     59  C   UNL A   1      48.327  27.029  26.845  1.00  0.00     0.031 A 
BRANCH  46  60
ATOM     60  C   UNL A   1      46.319  32.711  28.225  1.00  0.00    -0.014 A 
ATOM     61  C   UNL A   1      46.293  33.598  27.133  1.00  0.00     0.010 A 
ATOM     62  C   UNL A   1      46.631  33.207  29.504  1.00  0.00     0.010 A 
ATOM     63  C   UNL A   1      46.614  34.946  27.312  1.00  0.00     0.020 A 
ATOM     64  C   UNL A   1      46.931  34.559  29.690  1.00  0.00     0.020 A 
ATOM     65  C   UNL A   1      46.939  35.417  28.588  1.00  0.00     0.054 A 
BRANCH  65  66
ATOM     66  S   UNL A   1      47.346  37.173  28.796  1.00  0.00     0.124 S 
ATOM     67  O   UNL A   1      46.619  37.782  27.685  1.00  0.00    -0.237 OA
ATOM     68  O   UNL A   1      46.821  37.470  30.127  1.00  0.00    -0.237 OA
ATOM     69  O   UNL A   1      48.802  37.207  28.683  1.00  0.00    -0.744 OA
ENDBRANCH  65  66
ENDBRANCH  46  60
BRANCH  47  70
ATOM     70  C   UNL A   1      43.658  23.167  26.940  1.00  0.00    -0.014 A 
ATOM     71  C   UNL A   1      42.953  22.449  27.919  1.00  0.00     0.010 A 
ATOM     72  C   UNL A   1      43.959  22.543  25.714  1.00  0.00     0.010 A 
ATOM     73  C   UNL A   1      42.560  21.128  27.681  1.00  0.00     0.020 A 
ATOM     74  C   UNL A   1      43.547  21.232  25.464  1.00  0.00     0.020 A 
ATOM     75  C   UNL A   1      42.857  20.529  26.452  1.00  0.00     0.054 A 
BRANCH  75  76
ATOM     76  S   UNL A   1      42.276  18.840  26.135  1.00  0.00     0.124 S 
ATOM     77  O   UNL A   1      40.883  19.062  25.765  1.00  0.00    -0.237 OA
ATOM     78  O   UNL A   1      43.156  18.399  25.055  1.00  0.00    -0.237 OA
ATOM     79  O   UNL A   1      42.486  18.162  27.412  1.00  0.00    -0.744 OA
ENDBRANCH  75  76
ENDBRANCH  47  70
BRANCH  59  80
ATOM     80  C   UNL A   1      49.727  26.582  26.521  1.00  0.00    -0.014 A 
ATOM     81  C   UNL A   1      50.536  25.970  27.494  1.00  0.00     0.010 A 
ATOM     82  C   UNL A   1      50.218  26.727  25.211  1.00  0.00     0.010 A 
ATOM     83  C   UNL A   1      51.825  25.538  27.169  1.00  0.00     0.020 A 
ATOM     84  C   UNL A   1      51.497  26.276  24.876  1.00  0.00     0.020 A 
ATOM     85  C   UNL A   1      52.299  25.695  25.862  1.00  0.00     0.054 A 
BRANCH  85  86
ATOM     86  S   UNL A   1      53.958  25.087  25.451  1.00  0.00     0.124 S 
ATOM     87  O   UNL A   1      54.199  25.717  24.156  1.00  0.00    -0.237 OA
ATOM     88  O   UNL A   1      54.770  25.591  26.556  1.00  0.00    -0.237 OA
ATOM     89  O   UNL A   1      53.795  23.636  25.419  1.00  0.00    -0.744 OA
ENDBRANCH  85  86
ENDBRANCH  59  80
ENDBRANCH  33  34
ENDBRANCH  26  28
ENDBRANCH  25  26
ENDBRANCH  24  25
ENDBRANCH   1  24
TORSDOF 17
ENDMDL
