MODEL 1
REMARK VINA RESULT:     -11.2      0.000      0.000
REMARK SMILES O=C(OCCOC(=O)c1cc(Br)n(Cc2ccn(C3CCCC3)n2)c1)c1ccc(-c2c3nc(c(-c4ccc(S(=O)(=O)[O-])cc4)c4ccc([nH]4)c(-c4ccc(S(=O)(=O)[O-])cc4)c4nc(c(-c5ccc(S(=O)(=O)[O-])cc5)c5ccc2[nH]5)C=C4)C=C3)cc1
REMARK SMILES IDX 4 1 3 2 2 3 1 4 26 5 27 6 85 7 28 8 84 9 29 10 30 11 31 12
REMARK SMILES IDX 78 13 32 14 83 15 77 16 79 17 33 18 82 19 76 20 75 21 34 23
REMARK SMILES IDX 64 24 45 25 63 26 46 27 49 28 62 29 80 30 47 31 48 32 61 34
REMARK SMILES IDX 81 35 50 36 35 37 36 38 44 39 37 40 43 41 38 42 39 43 40 44
REMARK SMILES IDX 41 45 42 46 65 47 66 48 74 49 67 50 73 51 68 52 69 53 70 54
REMARK SMILES IDX 71 55 72 56 51 57 52 58 60 59 53 60 59 61 54 62 55 63 56 64
REMARK SMILES IDX 57 65 58 66 5 67 6 68 7 69 8 70 9 71 10 72 25 73 11 74 13 75
REMARK SMILES IDX 12 76 14 77 15 78 16 79 24 80 17 81 18 82 19 83 20 84 23 85
REMARK SMILES IDX 21 86 22 87
REMARK H PARENT 79 22 49 33
REMARK Flexibility Score: inf
ROOT
ATOM      1  C   UNL A   1      37.605  21.327  25.294  1.00  0.00     0.275 C 
ENDROOT
BRANCH   1   2
ATOM      2  O   UNL A   1      38.245  22.478  25.881  1.00  0.00    -0.458 OA
BRANCH   2   3
ATOM      3  C   UNL A   1      39.364  22.412  26.635  1.00  0.00     0.338 C 
ATOM      4  O   UNL A   1      40.027  21.383  26.703  1.00  0.00    -0.246 OA
BRANCH   3   5
ATOM      5  C   UNL A   1      39.916  23.693  27.159  1.00  0.00     0.060 A 
ATOM      6  C   UNL A   1      41.050  23.805  27.966  1.00  0.00     0.016 A 
ATOM      7  C   UNL A   1      39.233  24.863  26.793  1.00  0.00     0.016 A 
ATOM      8  C   UNL A   1      41.430  25.036  28.488  1.00  0.00     0.010 A 
ATOM      9  C   UNL A   1      39.663  26.104  27.241  1.00  0.00     0.010 A 
ATOM     10  C   UNL A   1      40.710  26.184  28.162  1.00  0.00    -0.014 A 
BRANCH  10  11
ATOM     11  C   UNL A   1      41.101  27.461  28.784  1.00  0.00     0.031 A 
ATOM     12  C   UNL A   1      42.398  28.050  28.265  1.00  0.00     0.074 A 
ATOM     13  C   UNL A   1      40.253  28.042  29.674  1.00  0.00     0.049 A 
ATOM     14  N   UNL A   1      43.377  28.604  28.910  1.00  0.00    -0.248 NA
ATOM     15  C   UNL A   1      42.678  27.946  26.820  1.00  0.00     0.031 C 
ATOM     16  C   UNL A   1      38.905  27.562  30.045  1.00  0.00     0.029 A 
ATOM     17  N   UNL A   1      40.327  29.220  30.368  1.00  0.00    -0.354 N 
ATOM     18  C   UNL A   1      44.275  29.118  27.949  1.00  0.00     0.074 A 
ATOM     19  C   UNL A   1      43.827  28.612  26.680  1.00  0.00     0.031 C 
ATOM     20  C   UNL A   1      38.213  28.540  30.665  1.00  0.00     0.029 A 
ATOM     21  C   UNL A   1      39.109  29.650  30.907  1.00  0.00     0.049 A 
ATOM     22  H   UNL A   1      41.168  29.721  30.478  1.00  0.00     0.167 HD
ATOM     23  C   UNL A   1      45.170  30.102  28.272  1.00  0.00     0.031 A 
ATOM     24  C   UNL A   1      38.826  30.829  31.519  1.00  0.00     0.031 A 
ATOM     25  C   UNL A   1      45.383  30.126  29.696  1.00  0.00     0.049 A 
ATOM     26  C   UNL A   1      40.117  31.394  31.968  1.00  0.00     0.074 A 
ATOM     27  C   UNL A   1      46.195  29.406  30.540  1.00  0.00     0.029 A 
ATOM     28  N   UNL A   1      44.415  30.742  30.459  1.00  0.00    -0.354 N 
ATOM     29  N   UNL A   1      40.902  30.816  32.833  1.00  0.00    -0.248 NA
ATOM     30  C   UNL A   1      40.735  32.450  31.185  1.00  0.00     0.031 C 
ATOM     31  C   UNL A   1      45.541  29.408  31.800  1.00  0.00     0.029 A 
ATOM     32  C   UNL A   1      44.394  30.197  31.723  1.00  0.00     0.049 A 
ATOM     33  H   UNL A   1      43.824  31.464  30.146  1.00  0.00     0.167 HD
ATOM     34  C   UNL A   1      42.179  31.120  32.397  1.00  0.00     0.074 A 
ATOM     35  C   UNL A   1      42.020  32.240  31.488  1.00  0.00     0.031 C 
ATOM     36  C   UNL A   1      43.223  30.268  32.581  1.00  0.00     0.031 A 
BRANCH  23  37
ATOM     37  C   UNL A   1      45.631  31.267  27.395  1.00  0.00    -0.014 A 
ATOM     38  C   UNL A   1      47.022  31.528  27.321  1.00  0.00     0.010 A 
ATOM     39  C   UNL A   1      44.791  32.278  26.895  1.00  0.00     0.010 A 
ATOM     40  C   UNL A   1      47.533  32.787  26.959  1.00  0.00     0.020 A 
ATOM     41  C   UNL A   1      45.291  33.543  26.523  1.00  0.00     0.020 A 
ATOM     42  C   UNL A   1      46.656  33.806  26.611  1.00  0.00     0.054 A 
BRANCH  42  43
ATOM     43  S   UNL A   1      47.258  35.520  26.499  1.00  0.00     0.124 S 
ATOM     44  O   UNL A   1      46.039  36.276  26.220  1.00  0.00    -0.237 OA
ATOM     45  O   UNL A   1      47.842  35.728  27.819  1.00  0.00    -0.237 OA
ATOM     46  O   UNL A   1      48.209  35.457  25.391  1.00  0.00    -0.744 OA
ENDBRANCH  42  43
ENDBRANCH  23  37
BRANCH  24  47
ATOM     47  C   UNL A   1      37.555  31.613  31.516  1.00  0.00    -0.014 A 
ATOM     48  C   UNL A   1      36.636  31.518  32.582  1.00  0.00     0.010 A 
ATOM     49  C   UNL A   1      37.369  32.673  30.603  1.00  0.00     0.010 A 
ATOM     50  C   UNL A   1      35.627  32.483  32.770  1.00  0.00     0.020 A 
ATOM     51  C   UNL A   1      36.359  33.633  30.777  1.00  0.00     0.020 A 
ATOM     52  C   UNL A   1      35.509  33.550  31.876  1.00  0.00     0.054 A 
BRANCH  52  53
ATOM     53  S   UNL A   1      34.319  34.884  32.225  1.00  0.00     0.124 S 
ATOM     54  O   UNL A   1      35.104  35.797  33.050  1.00  0.00    -0.237 OA
ATOM     55  O   UNL A   1      33.986  35.370  30.889  1.00  0.00    -0.237 OA
ATOM     56  O   UNL A   1      33.229  34.201  32.921  1.00  0.00    -0.744 OA
ENDBRANCH  52  53
ENDBRANCH  24  47
BRANCH  36  57
ATOM     57  C   UNL A   1      43.095  29.255  33.685  1.00  0.00    -0.014 A 
ATOM     58  C   UNL A   1      43.502  29.471  35.014  1.00  0.00     0.010 A 
ATOM     59  C   UNL A   1      42.460  28.044  33.362  1.00  0.00     0.010 A 
ATOM     60  C   UNL A   1      43.287  28.488  35.992  1.00  0.00     0.020 A 
ATOM     61  C   UNL A   1      42.217  27.076  34.334  1.00  0.00     0.020 A 
ATOM     62  C   UNL A   1      42.641  27.298  35.642  1.00  0.00     0.054 A 
BRANCH  62  63
ATOM     63  S   UNL A   1      42.308  26.052  36.916  1.00  0.00     0.124 S 
ATOM     64  O   UNL A   1      42.763  24.820  36.280  1.00  0.00    -0.237 OA
ATOM     65  O   UNL A   1      43.112  26.515  38.045  1.00  0.00    -0.237 OA
ATOM     66  O   UNL A   1      40.862  26.145  37.121  1.00  0.00    -0.744 OA
ENDBRANCH  62  63
ENDBRANCH  36  57
ENDBRANCH  10  11
ENDBRANCH   3   5
ENDBRANCH   2   3
ENDBRANCH   1   2
BRANCH   1  67
ATOM     67  C   UNL A   1      36.085  21.239  25.427  1.00  0.00     0.275 C 
BRANCH  67  68
ATOM     68  O   UNL A   1      35.417  21.680  24.231  1.00  0.00    -0.458 OA
BRANCH  68  69
ATOM     69  C   UNL A   1      34.058  21.732  24.280  1.00  0.00     0.339 C 
ATOM     70  O   UNL A   1      33.311  20.757  24.189  1.00  0.00    -0.246 OA
BRANCH  69  71
ATOM     71  C   UNL A   1      33.568  23.086  24.435  1.00  0.00     0.078 A 
ATOM     72  C   UNL A   1      33.689  24.143  23.498  1.00  0.00     0.051 A 
ATOM     73  C   UNL A   1      32.774  23.581  25.458  1.00  0.00     0.102 A 
ATOM     74  C   UNL A   1      32.892  25.177  23.937  1.00  0.00     0.086 A 
ATOM     75  N   UNL A   1      32.500  24.923  25.234  1.00  0.00    -0.335 N 
ATOM     76  Br  UNL A   1      32.395  26.532  22.752  1.00  0.00    -0.031 Br
BRANCH  75  77
ATOM     77  C   UNL A   1      31.647  25.713  26.153  1.00  0.00     0.180 C 
BRANCH  77  78
ATOM     78  C   UNL A   1      32.102  27.109  26.518  1.00  0.00     0.082 A 
ATOM     79  C   UNL A   1      31.283  28.129  27.049  1.00  0.00     0.047 A 
ATOM     80  N   UNL A   1      33.409  27.485  26.548  1.00  0.00    -0.176 NA
ATOM     81  C   UNL A   1      32.117  29.157  27.370  1.00  0.00     0.109 A 
ATOM     82  N   UNL A   1      33.391  28.743  27.079  1.00  0.00    -0.269 N 
BRANCH  82  83
ATOM     83  C   UNL A   1      34.509  29.637  27.263  1.00  0.00     0.107 C 
ATOM     84  C   UNL A   1      34.256  31.091  27.663  1.00  0.00     0.027 C 
ATOM     85  C   UNL A   1      35.717  29.310  28.124  1.00  0.00     0.027 C 
ATOM     86  C   UNL A   1      35.679  31.681  27.751  1.00  0.00     0.002 C 
ATOM     87  C   UNL A   1      36.617  30.479  27.740  1.00  0.00     0.002 C 
ENDBRANCH  82  83
ENDBRANCH  77  78
ENDBRANCH  75  77
ENDBRANCH  69  71
ENDBRANCH  68  69
ENDBRANCH  67  68
ENDBRANCH   1  67
TORSDOF 17
ENDMDL
MODEL 2
REMARK VINA RESULT:     -11.2      3.131      9.907
REMARK SMILES O=C(OCCOC(=O)c1cc(Br)n(Cc2ccn(C3CCCC3)n2)c1)c1ccc(-c2c3nc(c(-c4ccc(S(=O)(=O)[O-])cc4)c4ccc([nH]4)c(-c4ccc(S(=O)(=O)[O-])cc4)c4nc(c(-c5ccc(S(=O)(=O)[O-])cc5)c5ccc2[nH]5)C=C4)C=C3)cc1
REMARK SMILES IDX 4 1 3 2 2 3 1 4 26 5 27 6 85 7 28 8 84 9 29 10 30 11 31 12
REMARK SMILES IDX 78 13 32 14 83 15 77 16 79 17 33 18 82 19 76 20 75 21 34 23
REMARK SMILES IDX 64 24 45 25 63 26 46 27 49 28 62 29 80 30 47 31 48 32 61 34
REMARK SMILES IDX 81 35 50 36 35 37 36 38 44 39 37 40 43 41 38 42 39 43 40 44
REMARK SMILES IDX 41 45 42 46 65 47 66 48 74 49 67 50 73 51 68 52 69 53 70 54
REMARK SMILES IDX 71 55 72 56 51 57 52 58 60 59 53 60 59 61 54 62 55 63 56 64
REMARK SMILES IDX 57 65 58 66 5 67 6 68 7 69 8 70 9 71 10 72 25 73 11 74 13 75
REMARK SMILES IDX 12 76 14 77 15 78 16 79 24 80 17 81 18 82 19 83 20 84 23 85
REMARK SMILES IDX 21 86 22 87
REMARK H PARENT 79 22 49 33
REMARK Flexibility Score: inf
ROOT
ATOM      1  C   UNL A   1      32.343  30.508  26.779  1.00  0.00     0.275 C 
ENDROOT
BRANCH   1   2
ATOM      2  O   UNL A   1      33.761  30.372  27.001  1.00  0.00    -0.458 OA
BRANCH   2   3
ATOM      3  C   UNL A   1      34.532  31.335  27.550  1.00  0.00     0.338 C 
ATOM      4  O   UNL A   1      34.083  32.450  27.795  1.00  0.00    -0.246 OA
BRANCH   3   5
ATOM      5  C   UNL A   1      35.856  30.926  28.100  1.00  0.00     0.060 A 
ATOM      6  C   UNL A   1      36.842  31.807  28.550  1.00  0.00     0.016 A 
ATOM      7  C   UNL A   1      36.104  29.547  28.168  1.00  0.00     0.016 A 
ATOM      8  C   UNL A   1      38.085  31.333  28.953  1.00  0.00     0.010 A 
ATOM      9  C   UNL A   1      37.312  29.068  28.654  1.00  0.00     0.010 A 
ATOM     10  C   UNL A   1      38.338  29.962  28.965  1.00  0.00    -0.014 A 
BRANCH  10  11
ATOM     11  C   UNL A   1      39.686  29.499  29.335  1.00  0.00     0.031 A 
ATOM     12  C   UNL A   1      40.033  29.659  30.803  1.00  0.00     0.074 A 
ATOM     13  C   UNL A   1      40.456  28.897  28.389  1.00  0.00     0.049 A 
ATOM     14  N   UNL A   1      41.128  30.073  31.359  1.00  0.00    -0.248 NA
ATOM     15  C   UNL A   1      38.979  29.380  31.798  1.00  0.00     0.031 C 
ATOM     16  C   UNL A   1      40.052  28.575  27.003  1.00  0.00     0.029 A 
ATOM     17  N   UNL A   1      41.705  28.343  28.447  1.00  0.00    -0.354 N 
ATOM     18  C   UNL A   1      40.987  29.890  32.752  1.00  0.00     0.074 A 
ATOM     19  C   UNL A   1      39.610  29.533  32.965  1.00  0.00     0.031 C 
ATOM     20  C   UNL A   1      40.905  27.683  26.461  1.00  0.00     0.029 A 
ATOM     21  C   UNL A   1      42.016  27.503  27.371  1.00  0.00     0.049 A 
ATOM     22  H   UNL A   1      42.333  28.520  29.185  1.00  0.00     0.167 HD
ATOM     23  C   UNL A   1      42.080  29.830  33.573  1.00  0.00     0.031 A 
ATOM     24  C   UNL A   1      43.104  26.706  27.207  1.00  0.00     0.031 A 
ATOM     25  C   UNL A   1      43.212  30.450  32.933  1.00  0.00     0.049 A 
ATOM     26  C   UNL A   1      44.150  27.227  28.113  1.00  0.00     0.074 A 
ATOM     27  C   UNL A   1      43.633  31.755  32.822  1.00  0.00     0.029 A 
ATOM     28  N   UNL A   1      43.872  29.706  31.980  1.00  0.00    -0.354 N 
ATOM     29  N   UNL A   1      44.666  28.420  28.018  1.00  0.00    -0.248 NA
ATOM     30  C   UNL A   1      44.389  26.552  29.377  1.00  0.00     0.031 C 
ATOM     31  C   UNL A   1      44.379  31.818  31.616  1.00  0.00     0.029 A 
ATOM     32  C   UNL A   1      44.472  30.541  31.063  1.00  0.00     0.049 A 
ATOM     33  H   UNL A   1      43.909  28.723  31.956  1.00  0.00     0.167 HD
ATOM     34  C   UNL A   1      44.895  28.803  29.328  1.00  0.00     0.074 A 
ATOM     35  C   UNL A   1      44.855  27.576  30.100  1.00  0.00     0.031 C 
ATOM     36  C   UNL A   1      44.814  30.103  29.721  1.00  0.00     0.031 A 
BRANCH  23  37
ATOM     37  C   UNL A   1      42.270  28.950  34.808  1.00  0.00    -0.014 A 
ATOM     38  C   UNL A   1      43.042  29.470  35.878  1.00  0.00     0.010 A 
ATOM     39  C   UNL A   1      42.002  27.570  34.862  1.00  0.00     0.010 A 
ATOM     40  C   UNL A   1      43.669  28.642  36.826  1.00  0.00     0.020 A 
ATOM     41  C   UNL A   1      42.619  26.730  35.812  1.00  0.00     0.020 A 
ATOM     42  C   UNL A   1      43.494  27.266  36.754  1.00  0.00     0.054 A 
BRANCH  42  43
ATOM     43  S   UNL A   1      44.570  26.163  37.722  1.00  0.00     0.124 S 
ATOM     44  O   UNL A   1      44.202  26.477  39.101  1.00  0.00    -0.237 OA
ATOM     45  O   UNL A   1      44.167  24.845  37.245  1.00  0.00    -0.237 OA
ATOM     46  O   UNL A   1      45.910  26.594  37.330  1.00  0.00    -0.744 OA
ENDBRANCH  42  43
ENDBRANCH  23  37
BRANCH  24  47
ATOM     47  C   UNL A   1      43.212  25.386  26.518  1.00  0.00    -0.014 A 
ATOM     48  C   UNL A   1      43.940  25.246  25.318  1.00  0.00     0.010 A 
ATOM     49  C   UNL A   1      42.838  24.198  27.183  1.00  0.00     0.010 A 
ATOM     50  C   UNL A   1      44.343  23.982  24.847  1.00  0.00     0.020 A 
ATOM     51  C   UNL A   1      43.227  22.933  26.713  1.00  0.00     0.020 A 
ATOM     52  C   UNL A   1      44.003  22.831  25.562  1.00  0.00     0.054 A 
BRANCH  52  53
ATOM     53  S   UNL A   1      44.677  21.221  25.042  1.00  0.00     0.124 S 
ATOM     54  O   UNL A   1      46.019  21.244  25.614  1.00  0.00    -0.237 OA
ATOM     55  O   UNL A   1      43.747  20.275  25.653  1.00  0.00    -0.237 OA
ATOM     56  O   UNL A   1      44.624  21.280  23.581  1.00  0.00    -0.744 OA
ENDBRANCH  52  53
ENDBRANCH  24  47
BRANCH  36  57
ATOM     57  C   UNL A   1      44.980  31.152  28.657  1.00  0.00    -0.014 A 
ATOM     58  C   UNL A   1      43.920  31.727  27.932  1.00  0.00     0.010 A 
ATOM     59  C   UNL A   1      46.284  31.627  28.435  1.00  0.00     0.010 A 
ATOM     60  C   UNL A   1      44.165  32.745  27.000  1.00  0.00     0.020 A 
ATOM     61  C   UNL A   1      46.532  32.659  27.531  1.00  0.00     0.020 A 
ATOM     62  C   UNL A   1      45.472  33.205  26.810  1.00  0.00     0.054 A 
BRANCH  62  63
ATOM     63  S   UNL A   1      45.784  34.563  25.649  1.00  0.00     0.124 S 
ATOM     64  O   UNL A   1      47.215  34.435  25.391  1.00  0.00    -0.237 OA
ATOM     65  O   UNL A   1      44.909  34.240  24.525  1.00  0.00    -0.237 OA
ATOM     66  O   UNL A   1      45.395  35.757  26.400  1.00  0.00    -0.744 OA
ENDBRANCH  62  63
ENDBRANCH  36  57
ENDBRANCH  10  11
ENDBRANCH   3   5
ENDBRANCH   2   3
ENDBRANCH   1   2
BRANCH   1  67
ATOM     67  C   UNL A   1      31.789  29.941  25.473  1.00  0.00     0.275 C 
BRANCH  67  68
ATOM     68  O   UNL A   1      31.791  28.502  25.472  1.00  0.00    -0.458 OA
BRANCH  68  69
ATOM     69  C   UNL A   1      32.503  27.898  24.482  1.00  0.00     0.339 C 
ATOM     70  O   UNL A   1      32.737  28.393  23.378  1.00  0.00    -0.246 OA
BRANCH  69  71
ATOM     71  C   UNL A   1      32.952  26.575  24.861  1.00  0.00     0.078 A 
ATOM     72  C   UNL A   1      32.627  25.878  26.052  1.00  0.00     0.051 A 
ATOM     73  C   UNL A   1      33.673  25.678  24.087  1.00  0.00     0.102 A 
ATOM     74  C   UNL A   1      33.067  24.581  25.906  1.00  0.00     0.086 A 
ATOM     75  N   UNL A   1      33.890  24.508  24.802  1.00  0.00    -0.335 N 
ATOM     76  Br  UNL A   1      32.400  23.243  27.025  1.00  0.00    -0.031 Br
BRANCH  75  77
ATOM     77  C   UNL A   1      34.613  23.355  24.216  1.00  0.00     0.180 C 
BRANCH  77  78
ATOM     78  C   UNL A   1      33.924  22.007  24.225  1.00  0.00     0.082 A 
ATOM     79  C   UNL A   1      32.698  21.706  23.596  1.00  0.00     0.047 A 
ATOM     80  N   UNL A   1      34.511  20.871  24.692  1.00  0.00    -0.176 NA
ATOM     81  C   UNL A   1      32.525  20.361  23.722  1.00  0.00     0.109 A 
ATOM     82  N   UNL A   1      33.634  19.875  24.366  1.00  0.00    -0.269 N 
BRANCH  82  83
ATOM     83  C   UNL A   1      33.731  18.475  24.698  1.00  0.00     0.107 C 
ATOM     84  C   UNL A   1      32.588  17.796  25.453  1.00  0.00     0.027 C 
ATOM     85  C   UNL A   1      34.090  17.393  23.692  1.00  0.00     0.027 C 
ATOM     86  C   UNL A   1      33.082  16.341  25.600  1.00  0.00     0.002 C 
ATOM     87  C   UNL A   1      34.265  16.218  24.646  1.00  0.00     0.002 C 
ENDBRANCH  82  83
ENDBRANCH  77  78
ENDBRANCH  75  77
ENDBRANCH  69  71
ENDBRANCH  68  69
ENDBRANCH  67  68
ENDBRANCH   1  67
TORSDOF 17
ENDMDL
MODEL 3
REMARK VINA RESULT:     -11.1      3.664      8.999
REMARK SMILES O=C(OCCOC(=O)c1cc(Br)n(Cc2ccn(C3CCCC3)n2)c1)c1ccc(-c2c3nc(c(-c4ccc(S(=O)(=O)[O-])cc4)c4ccc([nH]4)c(-c4ccc(S(=O)(=O)[O-])cc4)c4nc(c(-c5ccc(S(=O)(=O)[O-])cc5)c5ccc2[nH]5)C=C4)C=C3)cc1
REMARK SMILES IDX 4 1 3 2 2 3 1 4 26 5 27 6 85 7 28 8 84 9 29 10 30 11 31 12
REMARK SMILES IDX 78 13 32 14 83 15 77 16 79 17 33 18 82 19 76 20 75 21 34 23
REMARK SMILES IDX 64 24 45 25 63 26 46 27 49 28 62 29 80 30 47 31 48 32 61 34
REMARK SMILES IDX 81 35 50 36 35 37 36 38 44 39 37 40 43 41 38 42 39 43 40 44
REMARK SMILES IDX 41 45 42 46 65 47 66 48 74 49 67 50 73 51 68 52 69 53 70 54
REMARK SMILES IDX 71 55 72 56 51 57 52 58 60 59 53 60 59 61 54 62 55 63 56 64
REMARK SMILES IDX 57 65 58 66 5 67 6 68 7 69 8 70 9 71 10 72 25 73 11 74 13 75
REMARK SMILES IDX 12 76 14 77 15 78 16 79 24 80 17 81 18 82 19 83 20 84 23 85
REMARK SMILES IDX 21 86 22 87
REMARK H PARENT 79 22 49 33
REMARK Flexibility Score: inf
ROOT
ATOM      1  C   UNL A   1      34.125  30.598  27.369  1.00  0.00     0.275 C 
ENDROOT
BRANCH   1   2
ATOM      2  O   UNL A   1      35.552  30.451  27.517  1.00  0.00    -0.458 OA
BRANCH   2   3
ATOM      3  C   UNL A   1      36.181  30.391  28.711  1.00  0.00     0.338 C 
ATOM      4  O   UNL A   1      35.609  30.702  29.750  1.00  0.00    -0.246 OA
BRANCH   3   5
ATOM      5  C   UNL A   1      37.492  29.682  28.763  1.00  0.00     0.060 A 
ATOM      6  C   UNL A   1      37.958  28.942  29.851  1.00  0.00     0.016 A 
ATOM      7  C   UNL A   1      38.296  29.774  27.617  1.00  0.00     0.016 A 
ATOM      8  C   UNL A   1      39.238  28.400  29.842  1.00  0.00     0.010 A 
ATOM      9  C   UNL A   1      39.538  29.158  27.572  1.00  0.00     0.010 A 
ATOM     10  C   UNL A   1      40.049  28.544  28.718  1.00  0.00    -0.014 A 
BRANCH  10  11
ATOM     11  C   UNL A   1      41.423  28.014  28.767  1.00  0.00     0.031 A 
ATOM     12  C   UNL A   1      41.563  26.571  28.323  1.00  0.00     0.074 A 
ATOM     13  C   UNL A   1      42.438  28.854  29.104  1.00  0.00     0.049 A 
ATOM     14  N   UNL A   1      42.257  25.605  28.838  1.00  0.00    -0.248 NA
ATOM     15  C   UNL A   1      40.759  26.119  27.171  1.00  0.00     0.031 C 
ATOM     16  C   UNL A   1      42.328  30.306  29.361  1.00  0.00     0.029 A 
ATOM     17  N   UNL A   1      43.789  28.659  29.195  1.00  0.00    -0.354 N 
ATOM     18  C   UNL A   1      42.162  24.504  27.959  1.00  0.00     0.074 A 
ATOM     19  C   UNL A   1      41.161  24.859  26.990  1.00  0.00     0.031 C 
ATOM     20  C   UNL A   1      43.545  30.884  29.317  1.00  0.00     0.029 A 
ATOM     21  C   UNL A   1      44.542  29.840  29.217  1.00  0.00     0.049 A 
ATOM     22  H   UNL A   1      44.197  27.764  29.240  1.00  0.00     0.167 HD
ATOM     23  C   UNL A   1      43.087  23.495  27.986  1.00  0.00     0.031 A 
ATOM     24  C   UNL A   1      45.892  29.981  29.161  1.00  0.00     0.031 A 
ATOM     25  C   UNL A   1      43.763  23.480  29.257  1.00  0.00     0.049 A 
ATOM     26  C   UNL A   1      46.471  28.683  29.567  1.00  0.00     0.074 A 
ATOM     27  C   UNL A   1      43.454  22.939  30.482  1.00  0.00     0.029 A 
ATOM     28  N   UNL A   1      44.760  24.414  29.442  1.00  0.00    -0.354 N 
ATOM     29  N   UNL A   1      46.299  28.144  30.741  1.00  0.00    -0.248 NA
ATOM     30  C   UNL A   1      46.963  27.778  28.541  1.00  0.00     0.031 C 
ATOM     31  C   UNL A   1      44.118  23.748  31.441  1.00  0.00     0.029 A 
ATOM     32  C   UNL A   1      44.886  24.708  30.781  1.00  0.00     0.049 A 
ATOM     33  H   UNL A   1      45.301  24.812  28.723  1.00  0.00     0.167 HD
ATOM     34  C   UNL A   1      46.232  26.786  30.492  1.00  0.00     0.074 A 
ATOM     35  C   UNL A   1      46.795  26.608  29.167  1.00  0.00     0.031 C 
ATOM     36  C   UNL A   1      45.470  25.952  31.252  1.00  0.00     0.031 A 
BRANCH  23  37
ATOM     37  C   UNL A   1      43.644  22.711  26.797  1.00  0.00    -0.014 A 
ATOM     38  C   UNL A   1      42.905  21.590  26.340  1.00  0.00     0.010 A 
ATOM     39  C   UNL A   1      44.958  22.819  26.307  1.00  0.00     0.010 A 
ATOM     40  C   UNL A   1      43.498  20.546  25.608  1.00  0.00     0.020 A 
ATOM     41  C   UNL A   1      45.562  21.782  25.566  1.00  0.00     0.020 A 
ATOM     42  C   UNL A   1      44.842  20.626  25.269  1.00  0.00     0.054 A 
BRANCH  42  43
ATOM     43  S   UNL A   1      45.711  19.151  24.655  1.00  0.00     0.124 S 
ATOM     44  O   UNL A   1      45.300  19.088  23.254  1.00  0.00    -0.237 OA
ATOM     45  O   UNL A   1      47.109  19.498  24.888  1.00  0.00    -0.237 OA
ATOM     46  O   UNL A   1      45.176  18.085  25.500  1.00  0.00    -0.744 OA
ENDBRANCH  42  43
ENDBRANCH  23  37
BRANCH  24  47
ATOM     47  C   UNL A   1      46.702  31.073  28.543  1.00  0.00    -0.014 A 
ATOM     48  C   UNL A   1      47.804  31.638  29.218  1.00  0.00     0.010 A 
ATOM     49  C   UNL A   1      46.572  31.371  27.169  1.00  0.00     0.010 A 
ATOM     50  C   UNL A   1      48.772  32.400  28.536  1.00  0.00     0.020 A 
ATOM     51  C   UNL A   1      47.527  32.139  26.483  1.00  0.00     0.020 A 
ATOM     52  C   UNL A   1      48.639  32.627  27.164  1.00  0.00     0.054 A 
BRANCH  52  53
ATOM     53  S   UNL A   1      49.982  33.460  26.260  1.00  0.00     0.124 S 
ATOM     54  O   UNL A   1      50.707  32.339  25.670  1.00  0.00    -0.237 OA
ATOM     55  O   UNL A   1      49.255  34.306  25.317  1.00  0.00    -0.237 OA
ATOM     56  O   UNL A   1      50.705  34.184  27.305  1.00  0.00    -0.744 OA
ENDBRANCH  52  53
ENDBRANCH  24  47
BRANCH  36  57
ATOM     57  C   UNL A   1      45.122  26.417  32.638  1.00  0.00    -0.014 A 
ATOM     58  C   UNL A   1      45.945  26.245  33.766  1.00  0.00     0.010 A 
ATOM     59  C   UNL A   1      43.919  27.129  32.783  1.00  0.00     0.010 A 
ATOM     60  C   UNL A   1      45.564  26.765  35.011  1.00  0.00     0.020 A 
ATOM     61  C   UNL A   1      43.548  27.674  34.011  1.00  0.00     0.020 A 
ATOM     62  C   UNL A   1      44.367  27.481  35.121  1.00  0.00     0.054 A 
BRANCH  62  63
ATOM     63  S   UNL A   1      43.901  28.207  36.716  1.00  0.00     0.124 S 
ATOM     64  O   UNL A   1      45.195  28.432  37.351  1.00  0.00    -0.237 OA
ATOM     65  O   UNL A   1      43.170  29.410  36.327  1.00  0.00    -0.237 OA
ATOM     66  O   UNL A   1      43.077  27.170  37.340  1.00  0.00    -0.744 OA
ENDBRANCH  62  63
ENDBRANCH  36  57
ENDBRANCH  10  11
ENDBRANCH   3   5
ENDBRANCH   2   3
ENDBRANCH   1   2
BRANCH   1  67
ATOM     67  C   UNL A   1      33.307  29.315  27.234  1.00  0.00     0.275 C 
BRANCH  67  68
ATOM     68  O   UNL A   1      33.331  28.805  25.888  1.00  0.00    -0.458 OA
BRANCH  68  69
ATOM     69  C   UNL A   1      32.334  27.942  25.550  1.00  0.00     0.339 C 
ATOM     70  O   UNL A   1      31.176  28.270  25.285  1.00  0.00    -0.246 OA
BRANCH  69  71
ATOM     71  C   UNL A   1      32.780  26.564  25.552  1.00  0.00     0.078 A 
ATOM     72  C   UNL A   1      33.999  26.067  25.025  1.00  0.00     0.051 A 
ATOM     73  C   UNL A   1      32.176  25.487  26.181  1.00  0.00     0.102 A 
ATOM     74  C   UNL A   1      34.126  24.759  25.440  1.00  0.00     0.086 A 
ATOM     75  N   UNL A   1      32.923  24.336  25.964  1.00  0.00    -0.335 N 
ATOM     76  Br  UNL A   1      35.794  23.924  25.377  1.00  0.00    -0.031 Br
BRANCH  75  77
ATOM     77  C   UNL A   1      32.532  23.028  26.541  1.00  0.00     0.180 C 
BRANCH  77  78
ATOM     78  C   UNL A   1      32.531  21.822  25.626  1.00  0.00     0.082 A 
ATOM     79  C   UNL A   1      32.039  21.792  24.304  1.00  0.00     0.047 A 
ATOM     80  N   UNL A   1      33.184  20.664  25.917  1.00  0.00    -0.176 NA
ATOM     81  C   UNL A   1      32.371  20.570  23.803  1.00  0.00     0.109 A 
ATOM     82  N   UNL A   1      33.075  19.915  24.780  1.00  0.00    -0.269 N 
BRANCH  82  83
ATOM     83  C   UNL A   1      33.528  18.562  24.571  1.00  0.00     0.107 C 
ATOM     84  C   UNL A   1      32.971  17.750  23.401  1.00  0.00     0.027 C 
ATOM     85  C   UNL A   1      34.993  18.161  24.523  1.00  0.00     0.027 C 
ATOM     86  C   UNL A   1      33.699  16.397  23.537  1.00  0.00     0.002 C 
ATOM     87  C   UNL A   1      34.834  16.646  24.524  1.00  0.00     0.002 C 
ENDBRANCH  82  83
ENDBRANCH  77  78
ENDBRANCH  75  77
ENDBRANCH  69  71
ENDBRANCH  68  69
ENDBRANCH  67  68
ENDBRANCH   1  67
TORSDOF 17
ENDMDL
