MODEL 1
REMARK VINA RESULT:     -11.0      0.000      0.000
REMARK SMILES CC[C@@H]1CC(=O)N(Cc2ccc(/C=C/C(=O)OCCOC(=O)c3ccc(-c4c5nc(c(-c6ccc(S(=O)(=O)[O-])cc6)c6ccc([nH]6)c(-c6ccc(S(=O)(=O)[O-])cc6)c6nc(c(-c7ccc(S(=O)(=O)[O-])cc7)c7ccc4[nH]7)C=C6)C=C5)cc3)cc2F)C1
REMARK SMILES IDX 18 1 17 2 15 3 16 4 14 5 13 6 12 7 9 8 10 9 84 10 11 11
REMARK SMILES IDX 83 12 85 13 8 14 7 15 3 16 4 17 86 18 5 19 6 20 2 21 1 22
REMARK SMILES IDX 19 23 20 24 21 25 22 26 23 27 24 28 82 29 25 30 81 31 26 32
REMARK SMILES IDX 27 33 28 34 75 35 29 36 80 37 74 38 76 39 30 40 79 41 73 42
REMARK SMILES IDX 72 43 31 45 61 46 42 47 60 48 43 49 46 50 59 51 77 52 44 53
REMARK SMILES IDX 45 54 58 56 78 57 47 58 32 59 33 60 41 61 34 62 40 63 35 64
REMARK SMILES IDX 36 65 37 66 38 67 39 68 62 69 63 70 71 71 64 72 70 73 65 74
REMARK SMILES IDX 66 75 67 76 68 77 69 78 48 79 49 80 57 81 50 82 56 83 51 84
REMARK SMILES IDX 52 85 53 86 54 87 55 88
REMARK H PARENT 76 44 46 55
REMARK Flexibility Score: inf
ROOT
ATOM      1  C   UNL A   1      39.703  21.287  26.147  1.00  0.00     0.275 C 
ENDROOT
BRANCH   1   2
ATOM      2  O   UNL A   1      38.494  21.929  25.701  1.00  0.00    -0.459 OA
BRANCH   2   3
ATOM      3  C   UNL A   1      37.632  21.140  25.016  1.00  0.00     0.330 C 
ATOM      4  O   UNL A   1      37.804  19.966  24.725  1.00  0.00    -0.247 OA
BRANCH   3   5
ATOM      5  C   UNL A   1      36.382  21.839  24.658  1.00  0.00     0.094 C 
ATOM      6  C   UNL A   1      35.144  21.402  24.935  1.00  0.00     0.016 C 
BRANCH   6   7
ATOM      7  C   UNL A   1      33.926  22.109  24.508  1.00  0.00    -0.022 A 
ATOM      8  C   UNL A   1      31.588  23.521  23.762  1.00  0.00     0.007 A 
ATOM      9  C   UNL A   1      32.385  22.904  22.792  1.00  0.00     0.009 A 
ATOM     10  C   UNL A   1      31.951  23.370  25.103  1.00  0.00     0.128 A 
ATOM     11  C   UNL A   1      33.531  22.191  23.165  1.00  0.00     0.008 A 
ATOM     12  C   UNL A   1      33.104  22.684  25.480  1.00  0.00     0.047 A 
ATOM     13  F   UNL A   1      31.192  23.911  26.068  1.00  0.00    -0.207 F 
BRANCH   8  14
ATOM     14  C   UNL A   1      30.394  24.352  23.370  1.00  0.00     0.158 C 
BRANCH  14  15
ATOM     15  N   UNL A   1      30.618  25.779  23.534  1.00  0.00    -0.338 N 
ATOM     16  C   UNL A   1      31.772  27.705  24.156  1.00  0.00     0.017 C 
ATOM     17  C   UNL A   1      30.307  28.072  23.871  1.00  0.00     0.105 C 
ATOM     18  C   UNL A   1      31.918  26.386  23.412  1.00  0.00     0.124 C 
ATOM     19  C   UNL A   1      29.632  26.718  23.786  1.00  0.00     0.223 C 
ATOM     20  O   UNL A   1      28.434  26.519  23.895  1.00  0.00    -0.275 OA
BRANCH  16  21
ATOM     21  C   UNL A   1      32.023  27.609  25.676  1.00  0.00     0.002 C 
ATOM     22  C   UNL A   1      33.263  26.814  26.064  1.00  0.00     0.004 C 
ENDBRANCH  16  21
ENDBRANCH  14  15
ENDBRANCH   8  14
ENDBRANCH   6   7
ENDBRANCH   3   5
ENDBRANCH   2   3
ENDBRANCH   1   2
BRANCH   1  23
ATOM     23  C   UNL A   1      40.735  22.315  26.622  1.00  0.00     0.275 C 
BRANCH  23  24
ATOM     24  O   UNL A   1      40.195  23.650  26.649  1.00  0.00    -0.458 OA
BRANCH  24  25
ATOM     25  C   UNL A   1      41.111  24.641  26.534  1.00  0.00     0.338 C 
ATOM     26  O   UNL A   1      41.975  24.747  25.679  1.00  0.00    -0.246 OA
BRANCH  25  27
ATOM     27  C   UNL A   1      40.855  25.681  27.548  1.00  0.00     0.060 A 
ATOM     28  C   UNL A   1      41.760  26.742  27.645  1.00  0.00     0.016 A 
ATOM     29  C   UNL A   1      39.783  25.582  28.438  1.00  0.00     0.016 A 
ATOM     30  C   UNL A   1      41.601  27.706  28.639  1.00  0.00     0.010 A 
ATOM     31  C   UNL A   1      39.626  26.550  29.435  1.00  0.00     0.010 A 
ATOM     32  C   UNL A   1      40.540  27.611  29.549  1.00  0.00    -0.014 A 
BRANCH  32  33
ATOM     33  C   UNL A   1      40.415  28.606  30.644  1.00  0.00     0.031 A 
ATOM     34  C   UNL A   1      41.298  28.509  31.856  1.00  0.00     0.074 A 
ATOM     35  C   UNL A   1      39.516  29.603  30.544  1.00  0.00     0.049 A 
ATOM     36  N   UNL A   1      41.322  29.267  32.923  1.00  0.00    -0.248 NA
ATOM     37  C   UNL A   1      42.278  27.412  31.871  1.00  0.00     0.031 C 
ATOM     38  C   UNL A   1      38.621  29.818  29.407  1.00  0.00     0.029 A 
ATOM     39  N   UNL A   1      39.207  30.618  31.413  1.00  0.00    -0.354 N 
ATOM     40  C   UNL A   1      42.307  28.732  33.745  1.00  0.00     0.074 A 
ATOM     41  C   UNL A   1      42.841  27.573  33.061  1.00  0.00     0.031 C 
ATOM     42  C   UNL A   1      37.864  30.901  29.648  1.00  0.00     0.029 A 
ATOM     43  C   UNL A   1      38.192  31.431  30.969  1.00  0.00     0.049 A 
ATOM     44  H   UNL A   1      39.669  30.752  32.273  1.00  0.00     0.167 HD
ATOM     45  C   UNL A   1      42.729  29.168  34.956  1.00  0.00     0.031 A 
ATOM     46  C   UNL A   1      37.578  32.470  31.567  1.00  0.00     0.031 A 
ATOM     47  C   UNL A   1      42.187  30.314  35.639  1.00  0.00     0.049 A 
ATOM     48  C   UNL A   1      38.027  32.909  32.933  1.00  0.00     0.074 A 
ATOM     49  C   UNL A   1      42.565  30.849  36.858  1.00  0.00     0.029 A 
ATOM     50  N   UNL A   1      41.140  31.095  35.169  1.00  0.00    -0.354 N 
ATOM     51  N   UNL A   1      38.981  32.411  33.684  1.00  0.00    -0.248 NA
ATOM     52  C   UNL A   1      37.322  34.050  33.531  1.00  0.00     0.031 C 
ATOM     53  C   UNL A   1      41.711  31.919  37.152  1.00  0.00     0.029 A 
ATOM     54  C   UNL A   1      40.839  32.087  36.088  1.00  0.00     0.049 A 
ATOM     55  H   UNL A   1      40.680  30.962  34.310  1.00  0.00     0.167 HD
ATOM     56  C   UNL A   1      39.002  33.190  34.836  1.00  0.00     0.074 A 
ATOM     57  C   UNL A   1      37.976  34.200  34.675  1.00  0.00     0.031 C 
ATOM     58  C   UNL A   1      39.804  33.079  35.925  1.00  0.00     0.031 A 
BRANCH  45  59
ATOM     59  C   UNL A   1      43.804  28.364  35.642  1.00  0.00    -0.014 A 
ATOM     60  C   UNL A   1      43.487  27.367  36.583  1.00  0.00     0.010 A 
ATOM     61  C   UNL A   1      45.155  28.608  35.335  1.00  0.00     0.010 A 
ATOM     62  C   UNL A   1      44.503  26.672  37.246  1.00  0.00     0.020 A 
ATOM     63  C   UNL A   1      46.173  27.897  35.976  1.00  0.00     0.020 A 
ATOM     64  C   UNL A   1      45.840  26.950  36.946  1.00  0.00     0.054 A 
BRANCH  64  65
ATOM     65  S   UNL A   1      47.141  26.049  37.835  1.00  0.00     0.124 S 
ATOM     66  O   UNL A   1      46.369  25.331  38.847  1.00  0.00    -0.237 OA
ATOM     67  O   UNL A   1      47.729  25.217  36.788  1.00  0.00    -0.237 OA
ATOM     68  O   UNL A   1      48.008  27.107  38.347  1.00  0.00    -0.744 OA
ENDBRANCH  64  65
ENDBRANCH  45  59
BRANCH  46  69
ATOM     69  C   UNL A   1      36.457  33.154  30.866  1.00  0.00    -0.014 A 
ATOM     70  C   UNL A   1      35.194  33.267  31.469  1.00  0.00     0.010 A 
ATOM     71  C   UNL A   1      36.672  33.746  29.607  1.00  0.00     0.010 A 
ATOM     72  C   UNL A   1      34.165  33.966  30.829  1.00  0.00     0.020 A 
ATOM     73  C   UNL A   1      35.654  34.466  28.976  1.00  0.00     0.020 A 
ATOM     74  C   UNL A   1      34.405  34.569  29.589  1.00  0.00     0.054 A 
BRANCH  74  75
ATOM     75  S   UNL A   1      33.085  35.549  28.821  1.00  0.00     0.124 S 
ATOM     76  O   UNL A   1      32.337  36.016  29.985  1.00  0.00    -0.237 OA
ATOM     77  O   UNL A   1      33.832  36.573  28.096  1.00  0.00    -0.237 OA
ATOM     78  O   UNL A   1      32.389  34.582  27.975  1.00  0.00    -0.744 OA
ENDBRANCH  74  75
ENDBRANCH  46  69
BRANCH  58  79
ATOM     79  C   UNL A   1      39.618  34.088  37.027  1.00  0.00    -0.014 A 
ATOM     80  C   UNL A   1      38.839  33.794  38.161  1.00  0.00     0.010 A 
ATOM     81  C   UNL A   1      40.282  35.327  36.956  1.00  0.00     0.010 A 
ATOM     82  C   UNL A   1      38.705  34.731  39.189  1.00  0.00     0.020 A 
ATOM     83  C   UNL A   1      40.170  36.256  37.993  1.00  0.00     0.020 A 
ATOM     84  C   UNL A   1      39.371  35.958  39.098  1.00  0.00     0.054 A 
BRANCH  84  85
ATOM     85  S   UNL A   1      39.220  37.139  40.467  1.00  0.00     0.124 S 
ATOM     86  O   UNL A   1      40.596  37.603  40.622  1.00  0.00    -0.237 OA
ATOM     87  O   UNL A   1      38.281  38.125  39.939  1.00  0.00    -0.237 OA
ATOM     88  O   UNL A   1      38.708  36.328  41.569  1.00  0.00    -0.744 OA
ENDBRANCH  84  85
ENDBRANCH  58  79
ENDBRANCH  32  33
ENDBRANCH  25  27
ENDBRANCH  24  25
ENDBRANCH  23  24
ENDBRANCH   1  23
TORSDOF 18
ENDMDL
MODEL 2
REMARK VINA RESULT:     -11.0      6.219     12.183
REMARK SMILES CC[C@@H]1CC(=O)N(Cc2ccc(/C=C/C(=O)OCCOC(=O)c3ccc(-c4c5nc(c(-c6ccc(S(=O)(=O)[O-])cc6)c6ccc([nH]6)c(-c6ccc(S(=O)(=O)[O-])cc6)c6nc(c(-c7ccc(S(=O)(=O)[O-])cc7)c7ccc4[nH]7)C=C6)C=C5)cc3)cc2F)C1
REMARK SMILES IDX 18 1 17 2 15 3 16 4 14 5 13 6 12 7 9 8 10 9 84 10 11 11
REMARK SMILES IDX 83 12 85 13 8 14 7 15 3 16 4 17 86 18 5 19 6 20 2 21 1 22
REMARK SMILES IDX 19 23 20 24 21 25 22 26 23 27 24 28 82 29 25 30 81 31 26 32
REMARK SMILES IDX 27 33 28 34 75 35 29 36 80 37 74 38 76 39 30 40 79 41 73 42
REMARK SMILES IDX 72 43 31 45 61 46 42 47 60 48 43 49 46 50 59 51 77 52 44 53
REMARK SMILES IDX 45 54 58 56 78 57 47 58 32 59 33 60 41 61 34 62 40 63 35 64
REMARK SMILES IDX 36 65 37 66 38 67 39 68 62 69 63 70 71 71 64 72 70 73 65 74
REMARK SMILES IDX 66 75 67 76 68 77 69 78 48 79 49 80 57 81 50 82 56 83 51 84
REMARK SMILES IDX 52 85 53 86 54 87 55 88
REMARK H PARENT 76 44 46 55
REMARK Flexibility Score: inf
ROOT
ATOM      1  C   UNL A   1      35.135  34.025  30.468  1.00  0.00     0.275 C 
ENDROOT
BRANCH   1   2
ATOM      2  O   UNL A   1      33.946  33.829  29.683  1.00  0.00    -0.459 OA
BRANCH   2   3
ATOM      3  C   UNL A   1      34.147  33.602  28.363  1.00  0.00     0.330 C 
ATOM      4  O   UNL A   1      34.677  34.368  27.572  1.00  0.00    -0.247 OA
BRANCH   3   5
ATOM      5  C   UNL A   1      33.682  32.267  27.937  1.00  0.00     0.094 C 
ATOM      6  C   UNL A   1      34.457  31.176  27.826  1.00  0.00     0.016 C 
BRANCH   6   7
ATOM      7  C   UNL A   1      33.957  29.880  27.343  1.00  0.00    -0.022 A 
ATOM      8  C   UNL A   1      32.909  27.419  26.412  1.00  0.00     0.007 A 
ATOM      9  C   UNL A   1      34.247  27.754  26.182  1.00  0.00     0.009 A 
ATOM     10  C   UNL A   1      32.129  28.307  27.159  1.00  0.00     0.128 A 
ATOM     11  C   UNL A   1      34.768  28.962  26.658  1.00  0.00     0.008 A 
ATOM     12  C   UNL A   1      32.633  29.524  27.614  1.00  0.00     0.047 A 
ATOM     13  F   UNL A   1      30.852  28.007  27.437  1.00  0.00    -0.207 F 
BRANCH   8  14
ATOM     14  C   UNL A   1      32.317  26.157  25.842  1.00  0.00     0.158 C 
BRANCH  14  15
ATOM     15  N   UNL A   1      31.309  26.411  24.825  1.00  0.00    -0.338 N 
ATOM     16  C   UNL A   1      30.307  27.520  23.037  1.00  0.00     0.017 C 
ATOM     17  C   UNL A   1      29.286  26.558  23.663  1.00  0.00     0.105 C 
ATOM     18  C   UNL A   1      31.627  26.939  23.524  1.00  0.00     0.124 C 
ATOM     19  C   UNL A   1      29.956  26.152  24.960  1.00  0.00     0.223 C 
ATOM     20  O   UNL A   1      29.390  25.664  25.924  1.00  0.00    -0.275 OA
BRANCH  16  21
ATOM     21  C   UNL A   1      30.043  28.970  23.497  1.00  0.00     0.002 C 
ATOM     22  C   UNL A   1      28.800  29.609  22.895  1.00  0.00     0.004 C 
ENDBRANCH  16  21
ENDBRANCH  14  15
ENDBRANCH   8  14
ENDBRANCH   6   7
ENDBRANCH   3   5
ENDBRANCH   2   3
ENDBRANCH   1   2
BRANCH   1  23
ATOM     23  C   UNL A   1      35.537  32.739  31.198  1.00  0.00     0.275 C 
BRANCH  23  24
ATOM     24  O   UNL A   1      36.578  32.026  30.504  1.00  0.00    -0.458 OA
BRANCH  24  25
ATOM     25  C   UNL A   1      36.633  30.697  30.762  1.00  0.00     0.338 C 
ATOM     26  O   UNL A   1      35.741  30.001  31.217  1.00  0.00    -0.246 OA
BRANCH  25  27
ATOM     27  C   UNL A   1      37.923  30.150  30.300  1.00  0.00     0.060 A 
ATOM     28  C   UNL A   1      38.828  29.700  31.265  1.00  0.00     0.016 A 
ATOM     29  C   UNL A   1      38.268  30.143  28.947  1.00  0.00     0.016 A 
ATOM     30  C   UNL A   1      40.089  29.246  30.880  1.00  0.00     0.010 A 
ATOM     31  C   UNL A   1      39.534  29.689  28.563  1.00  0.00     0.010 A 
ATOM     32  C   UNL A   1      40.456  29.249  29.528  1.00  0.00    -0.014 A 
BRANCH  32  33
ATOM     33  C   UNL A   1      41.823  28.825  29.133  1.00  0.00     0.031 A 
ATOM     34  C   UNL A   1      42.961  29.804  29.188  1.00  0.00     0.074 A 
ATOM     35  C   UNL A   1      42.043  27.558  28.735  1.00  0.00     0.049 A 
ATOM     36  N   UNL A   1      44.217  29.629  28.863  1.00  0.00    -0.248 NA
ATOM     37  C   UNL A   1      42.645  31.158  29.669  1.00  0.00     0.031 C 
ATOM     38  C   UNL A   1      41.025  26.510  28.662  1.00  0.00     0.029 A 
ATOM     39  N   UNL A   1      43.193  26.941  28.314  1.00  0.00    -0.354 N 
ATOM     40  C   UNL A   1      44.840  30.853  29.083  1.00  0.00     0.074 A 
ATOM     41  C   UNL A   1      43.817  31.766  29.549  1.00  0.00     0.031 C 
ATOM     42  C   UNL A   1      41.598  25.377  28.225  1.00  0.00     0.029 A 
ATOM     43  C   UNL A   1      43.010  25.629  27.949  1.00  0.00     0.049 A 
ATOM     44  H   UNL A   1      44.067  27.394  28.277  1.00  0.00     0.167 HD
ATOM     45  C   UNL A   1      46.142  31.184  28.915  1.00  0.00     0.031 A 
ATOM     46  C   UNL A   1      43.875  24.735  27.430  1.00  0.00     0.031 A 
ATOM     47  C   UNL A   1      47.154  30.276  28.438  1.00  0.00     0.049 A 
ATOM     48  C   UNL A   1      45.306  25.137  27.204  1.00  0.00     0.074 A 
ATOM     49  C   UNL A   1      48.506  30.512  28.257  1.00  0.00     0.029 A 
ATOM     50  N   UNL A   1      46.924  28.964  28.054  1.00  0.00    -0.354 N 
ATOM     51  N   UNL A   1      45.885  26.289  27.447  1.00  0.00    -0.248 NA
ATOM     52  C   UNL A   1      46.202  24.118  26.639  1.00  0.00     0.031 C 
ATOM     53  C   UNL A   1      49.083  29.359  27.712  1.00  0.00     0.029 A 
ATOM     54  C   UNL A   1      48.101  28.386  27.607  1.00  0.00     0.049 A 
ATOM     55  H   UNL A   1      46.051  28.510  28.092  1.00  0.00     0.167 HD
ATOM     56  C   UNL A   1      47.217  26.128  27.080  1.00  0.00     0.074 A 
ATOM     57  C   UNL A   1      47.360  24.764  26.614  1.00  0.00     0.031 C 
ATOM     58  C   UNL A   1      48.229  27.031  27.130  1.00  0.00     0.031 A 
BRANCH  45  59
ATOM     59  C   UNL A   1      46.533  32.611  29.203  1.00  0.00    -0.014 A 
ATOM     60  C   UNL A   1      46.951  33.012  30.486  1.00  0.00     0.010 A 
ATOM     61  C   UNL A   1      46.486  33.565  28.170  1.00  0.00     0.010 A 
ATOM     62  C   UNL A   1      47.256  34.352  30.743  1.00  0.00     0.020 A 
ATOM     63  C   UNL A   1      46.817  34.901  28.417  1.00  0.00     0.020 A 
ATOM     64  C   UNL A   1      47.176  35.290  29.709  1.00  0.00     0.054 A 
BRANCH  64  65
ATOM     65  S   UNL A   1      47.557  37.027  30.072  1.00  0.00     0.124 S 
ATOM     66  O   UNL A   1      46.272  37.674  29.818  1.00  0.00    -0.237 OA
ATOM     67  O   UNL A   1      47.969  36.981  31.472  1.00  0.00    -0.237 OA
ATOM     68  O   UNL A   1      48.618  37.355  29.123  1.00  0.00    -0.744 OA
ENDBRANCH  64  65
ENDBRANCH  45  59
BRANCH  46  69
ATOM     69  C   UNL A   1      43.390  23.373  27.079  1.00  0.00    -0.014 A 
ATOM     70  C   UNL A   1      43.300  22.965  25.739  1.00  0.00     0.010 A 
ATOM     71  C   UNL A   1      43.068  22.456  28.098  1.00  0.00     0.010 A 
ATOM     72  C   UNL A   1      42.902  21.662  25.421  1.00  0.00     0.020 A 
ATOM     73  C   UNL A   1      42.696  21.146  27.786  1.00  0.00     0.020 A 
ATOM     74  C   UNL A   1      42.611  20.758  26.448  1.00  0.00     0.054 A 
BRANCH  74  75
ATOM     75  S   UNL A   1      42.189  19.047  26.016  1.00  0.00     0.124 S 
ATOM     76  O   UNL A   1      40.748  19.134  25.801  1.00  0.00    -0.237 OA
ATOM     77  O   UNL A   1      42.995  18.814  24.821  1.00  0.00    -0.237 OA
ATOM     78  O   UNL A   1      42.603  18.285  27.194  1.00  0.00    -0.744 OA
ENDBRANCH  74  75
ENDBRANCH  46  69
BRANCH  58  79
ATOM     79  C   UNL A   1      49.592  26.568  26.686  1.00  0.00    -0.014 A 
ATOM     80  C   UNL A   1      50.494  25.981  27.591  1.00  0.00     0.010 A 
ATOM     81  C   UNL A   1      49.952  26.670  25.329  1.00  0.00     0.010 A 
ATOM     82  C   UNL A   1      51.741  25.529  27.153  1.00  0.00     0.020 A 
ATOM     83  C   UNL A   1      51.189  26.196  24.883  1.00  0.00     0.020 A 
ATOM     84  C   UNL A   1      52.081  25.640  25.801  1.00  0.00     0.054 A 
BRANCH  84  85
ATOM     85  S   UNL A   1      53.688  25.003  25.247  1.00  0.00     0.124 S 
ATOM     86  O   UNL A   1      54.543  25.296  26.394  1.00  0.00    -0.237 OA
ATOM     87  O   UNL A   1      53.410  23.587  25.017  1.00  0.00    -0.237 OA
ATOM     88  O   UNL A   1      53.971  25.779  24.042  1.00  0.00    -0.744 OA
ENDBRANCH  84  85
ENDBRANCH  58  79
ENDBRANCH  32  33
ENDBRANCH  25  27
ENDBRANCH  24  25
ENDBRANCH  23  24
ENDBRANCH   1  23
TORSDOF 18
ENDMDL
MODEL 3
REMARK VINA RESULT:     -11.0      1.467      8.371
REMARK SMILES CC[C@@H]1CC(=O)N(Cc2ccc(/C=C/C(=O)OCCOC(=O)c3ccc(-c4c5nc(c(-c6ccc(S(=O)(=O)[O-])cc6)c6ccc([nH]6)c(-c6ccc(S(=O)(=O)[O-])cc6)c6nc(c(-c7ccc(S(=O)(=O)[O-])cc7)c7ccc4[nH]7)C=C6)C=C5)cc3)cc2F)C1
REMARK SMILES IDX 18 1 17 2 15 3 16 4 14 5 13 6 12 7 9 8 10 9 84 10 11 11
REMARK SMILES IDX 83 12 85 13 8 14 7 15 3 16 4 17 86 18 5 19 6 20 2 21 1 22
REMARK SMILES IDX 19 23 20 24 21 25 22 26 23 27 24 28 82 29 25 30 81 31 26 32
REMARK SMILES IDX 27 33 28 34 75 35 29 36 80 37 74 38 76 39 30 40 79 41 73 42
REMARK SMILES IDX 72 43 31 45 61 46 42 47 60 48 43 49 46 50 59 51 77 52 44 53
REMARK SMILES IDX 45 54 58 56 78 57 47 58 32 59 33 60 41 61 34 62 40 63 35 64
REMARK SMILES IDX 36 65 37 66 38 67 39 68 62 69 63 70 71 71 64 72 70 73 65 74
REMARK SMILES IDX 66 75 67 76 68 77 69 78 48 79 49 80 57 81 50 82 56 83 51 84
REMARK SMILES IDX 52 85 53 86 54 87 55 88
REMARK H PARENT 76 44 46 55
REMARK Flexibility Score: inf
ROOT
ATOM      1  C   UNL A   1      42.538  22.157  25.944  1.00  0.00     0.275 C 
ENDROOT
BRANCH   1   2
ATOM      2  O   UNL A   1      41.240  21.679  25.549  1.00  0.00    -0.459 OA
BRANCH   2   3
ATOM      3  C   UNL A   1      40.300  21.664  26.524  1.00  0.00     0.330 C 
ATOM      4  O   UNL A   1      40.404  21.127  27.617  1.00  0.00    -0.247 OA
BRANCH   3   5
ATOM      5  C   UNL A   1      39.086  22.419  26.157  1.00  0.00     0.094 C 
ATOM      6  C   UNL A   1      37.963  21.882  25.653  1.00  0.00     0.016 C 
BRANCH   6   7
ATOM      7  C   UNL A   1      36.797  22.685  25.252  1.00  0.00    -0.022 A 
ATOM      8  C   UNL A   1      34.526  24.160  24.424  1.00  0.00     0.007 A 
ATOM      9  C   UNL A   1      35.124  24.413  25.662  1.00  0.00     0.009 A 
ATOM     10  C   UNL A   1      35.116  23.203  23.593  1.00  0.00     0.128 A 
ATOM     11  C   UNL A   1      36.258  23.695  26.063  1.00  0.00     0.008 A 
ATOM     12  C   UNL A   1      36.228  22.466  23.995  1.00  0.00     0.047 A 
ATOM     13  F   UNL A   1      34.598  22.958  22.380  1.00  0.00    -0.207 F 
BRANCH   8  14
ATOM     14  C   UNL A   1      33.265  24.873  24.013  1.00  0.00     0.158 C 
BRANCH  14  15
ATOM     15  N   UNL A   1      33.509  26.222  23.526  1.00  0.00    -0.338 N 
ATOM     16  C   UNL A   1      33.408  28.550  23.537  1.00  0.00     0.017 C 
ATOM     17  C   UNL A   1      33.865  28.077  22.149  1.00  0.00     0.105 C 
ATOM     18  C   UNL A   1      33.731  27.341  24.404  1.00  0.00     0.124 C 
ATOM     19  C   UNL A   1      33.592  26.587  22.193  1.00  0.00     0.223 C 
ATOM     20  O   UNL A   1      33.494  25.858  21.221  1.00  0.00    -0.275 OA
BRANCH  16  21
ATOM     21  C   UNL A   1      31.913  28.936  23.517  1.00  0.00     0.002 C 
ATOM     22  C   UNL A   1      31.102  28.388  24.682  1.00  0.00     0.004 C 
ENDBRANCH  16  21
ENDBRANCH  14  15
ENDBRANCH   8  14
ENDBRANCH   6   7
ENDBRANCH   3   5
ENDBRANCH   2   3
ENDBRANCH   1   2
BRANCH   1  23
ATOM     23  C   UNL A   1      42.696  23.650  25.640  1.00  0.00     0.275 C 
BRANCH  23  24
ATOM     24  O   UNL A   1      42.084  24.475  26.649  1.00  0.00    -0.458 OA
BRANCH  24  25
ATOM     25  C   UNL A   1      41.625  25.672  26.211  1.00  0.00     0.338 C 
ATOM     26  O   UNL A   1      41.400  25.993  25.055  1.00  0.00    -0.246 OA
BRANCH  25  27
ATOM     27  C   UNL A   1      41.310  26.540  27.360  1.00  0.00     0.060 A 
ATOM     28  C   UNL A   1      42.065  27.704  27.531  1.00  0.00     0.016 A 
ATOM     29  C   UNL A   1      40.336  26.184  28.296  1.00  0.00     0.016 A 
ATOM     30  C   UNL A   1      41.855  28.514  28.646  1.00  0.00     0.010 A 
ATOM     31  C   UNL A   1      40.127  26.998  29.414  1.00  0.00     0.010 A 
ATOM     32  C   UNL A   1      40.893  28.162  29.602  1.00  0.00    -0.014 A 
BRANCH  32  33
ATOM     33  C   UNL A   1      40.720  28.995  30.818  1.00  0.00     0.031 A 
ATOM     34  C   UNL A   1      39.654  30.053  30.862  1.00  0.00     0.074 A 
ATOM     35  C   UNL A   1      41.514  28.795  31.886  1.00  0.00     0.049 A 
ATOM     36  N   UNL A   1      39.364  30.894  31.822  1.00  0.00    -0.248 NA
ATOM     37  C   UNL A   1      38.805  30.184  29.668  1.00  0.00     0.031 C 
ATOM     38  C   UNL A   1      42.568  27.784  31.975  1.00  0.00     0.029 A 
ATOM     39  N   UNL A   1      41.559  29.435  33.099  1.00  0.00    -0.354 N 
ATOM     40  C   UNL A   1      38.311  31.666  31.345  1.00  0.00     0.074 A 
ATOM     41  C   UNL A   1      38.029  31.206  30.001  1.00  0.00     0.031 C 
ATOM     42  C   UNL A   1      43.154  27.870  33.179  1.00  0.00     0.029 A 
ATOM     43  C   UNL A   1      42.546  28.965  33.931  1.00  0.00     0.049 A 
ATOM     44  H   UNL A   1      40.942  30.161  33.350  1.00  0.00     0.167 HD
ATOM     45  C   UNL A   1      37.640  32.664  31.969  1.00  0.00     0.031 A 
ATOM     46  C   UNL A   1      42.935  29.383  35.152  1.00  0.00     0.031 A 
ATOM     47  C   UNL A   1      37.932  33.128  33.301  1.00  0.00     0.049 A 
ATOM     48  C   UNL A   1      42.209  30.525  35.808  1.00  0.00     0.074 A 
ATOM     49  C   UNL A   1      37.293  34.117  34.028  1.00  0.00     0.029 A 
ATOM     50  N   UNL A   1      38.958  32.645  34.101  1.00  0.00    -0.354 N 
ATOM     51  N   UNL A   1      41.195  31.224  35.355  1.00  0.00    -0.248 NA
ATOM     52  C   UNL A   1      42.677  30.932  37.140  1.00  0.00     0.031 C 
ATOM     53  C   UNL A   1      37.966  34.270  35.245  1.00  0.00     0.029 A 
ATOM     54  C   UNL A   1      38.989  33.336  35.301  1.00  0.00     0.049 A 
ATOM     55  H   UNL A   1      39.574  31.919  33.851  1.00  0.00     0.167 HD
ATOM     56  C   UNL A   1      40.892  32.142  36.354  1.00  0.00     0.074 A 
ATOM     57  C   UNL A   1      41.820  31.899  37.440  1.00  0.00     0.031 C 
ATOM     58  C   UNL A   1      39.928  33.097  36.370  1.00  0.00     0.031 A 
BRANCH  45  59
ATOM     59  C   UNL A   1      36.551  33.355  31.189  1.00  0.00    -0.014 A 
ATOM     60  C   UNL A   1      35.247  33.479  31.701  1.00  0.00     0.010 A 
ATOM     61  C   UNL A   1      36.842  33.894  29.922  1.00  0.00     0.010 A 
ATOM     62  C   UNL A   1      34.240  34.076  30.936  1.00  0.00     0.020 A 
ATOM     63  C   UNL A   1      35.845  34.516  29.165  1.00  0.00     0.020 A 
ATOM     64  C   UNL A   1      34.544  34.580  29.668  1.00  0.00     0.054 A 
BRANCH  64  65
ATOM     65  S   UNL A   1      33.216  35.333  28.685  1.00  0.00     0.124 S 
ATOM     66  O   UNL A   1      33.966  36.227  27.805  1.00  0.00    -0.237 OA
ATOM     67  O   UNL A   1      32.605  34.178  28.032  1.00  0.00    -0.237 OA
ATOM     68  O   UNL A   1      32.380  35.997  29.681  1.00  0.00    -0.744 OA
ENDBRANCH  64  65
ENDBRANCH  45  59
BRANCH  46  69
ATOM     69  C   UNL A   1      44.083  28.712  35.819  1.00  0.00    -0.014 A 
ATOM     70  C   UNL A   1      43.883  27.590  36.640  1.00  0.00     0.010 A 
ATOM     71  C   UNL A   1      45.395  29.167  35.587  1.00  0.00     0.010 A 
ATOM     72  C   UNL A   1      44.975  26.929  37.212  1.00  0.00     0.020 A 
ATOM     73  C   UNL A   1      46.490  28.494  36.136  1.00  0.00     0.020 A 
ATOM     74  C   UNL A   1      46.272  27.381  36.949  1.00  0.00     0.054 A 
BRANCH  74  75
ATOM     75  S   UNL A   1      47.678  26.452  37.625  1.00  0.00     0.124 S 
ATOM     76  O   UNL A   1      47.018  25.297  38.226  1.00  0.00    -0.237 OA
ATOM     77  O   UNL A   1      48.477  26.177  36.435  1.00  0.00    -0.237 OA
ATOM     78  O   UNL A   1      48.284  27.389  38.569  1.00  0.00    -0.744 OA
ENDBRANCH  74  75
ENDBRANCH  46  69
BRANCH  58  79
ATOM     79  C   UNL A   1      39.812  33.944  37.609  1.00  0.00    -0.014 A 
ATOM     80  C   UNL A   1      38.968  33.571  38.671  1.00  0.00     0.010 A 
ATOM     81  C   UNL A   1      40.604  35.100  37.739  1.00  0.00     0.010 A 
ATOM     82  C   UNL A   1      38.898  34.353  39.827  1.00  0.00     0.020 A 
ATOM     83  C   UNL A   1      40.555  35.871  38.903  1.00  0.00     0.020 A 
ATOM     84  C   UNL A   1      39.692  35.500  39.935  1.00  0.00     0.054 A 
BRANCH  84  85
ATOM     85  S   UNL A   1      39.620  36.473  41.465  1.00  0.00     0.124 S 
ATOM     86  O   UNL A   1      41.009  36.438  41.914  1.00  0.00    -0.237 OA
ATOM     87  O   UNL A   1      39.144  37.773  40.997  1.00  0.00    -0.237 OA
ATOM     88  O   UNL A   1      38.675  35.735  42.300  1.00  0.00    -0.744 OA
ENDBRANCH  84  85
ENDBRANCH  58  79
ENDBRANCH  32  33
ENDBRANCH  25  27
ENDBRANCH  24  25
ENDBRANCH  23  24
ENDBRANCH   1  23
TORSDOF 18
ENDMDL
