MODEL 1
REMARK VINA RESULT:     -10.8      0.000      0.000
REMARK SMILES O=C(OCCOC(=O)c1cc(-c2ccc(C(F)(F)F)cc2)cc([N+](=O)[O-])c1)c1ccc(-c2c3nc(c(-c4ccc(S(=O)(=O)[O-])cc4)c4ccc([nH]4)c(-c4ccc(S(=O)(=O)[O-])cc4)c4nc(c(-c5ccc(S(=O)(=O)[O-])cc5)c5ccc2[nH]5)C=C4)C=C3)cc1
REMARK SMILES IDX 4 1 3 2 2 3 1 4 28 5 29 6 87 7 30 8 86 9 31 10 32 11 33 12
REMARK SMILES IDX 80 13 34 14 85 15 79 16 81 17 35 18 84 19 78 20 77 21 36 23
REMARK SMILES IDX 66 24 47 25 65 26 48 27 51 28 64 29 82 30 49 31 50 32 63 34
REMARK SMILES IDX 83 35 52 36 37 37 38 38 46 39 39 40 45 41 40 42 41 43 42 44
REMARK SMILES IDX 43 45 44 46 67 47 68 48 76 49 69 50 75 51 70 52 71 53 72 54
REMARK SMILES IDX 73 55 74 56 53 57 54 58 62 59 55 60 61 61 56 62 57 63 58 64
REMARK SMILES IDX 59 65 60 66 5 67 6 68 7 69 8 70 9 71 10 72 27 73 11 74 23 75
REMARK SMILES IDX 22 76 12 77 13 78 21 79 14 80 20 81 15 82 16 83 17 84 18 85
REMARK SMILES IDX 19 86 24 87 25 88 26 89
REMARK H PARENT 81 22 51 33
REMARK Flexibility Score: inf
ROOT
ATOM      1  C   UNL A   1      36.601  22.042  24.778  1.00  0.00     0.275 C 
ENDROOT
BRANCH   1   2
ATOM      2  O   UNL A   1      37.258  22.871  25.755  1.00  0.00    -0.458 OA
BRANCH   2   3
ATOM      3  C   UNL A   1      38.558  22.940  26.125  1.00  0.00     0.338 C 
ATOM      4  O   UNL A   1      39.236  21.913  26.072  1.00  0.00    -0.246 OA
BRANCH   3   5
ATOM      5  C   UNL A   1      39.202  24.159  26.713  1.00  0.00     0.060 A 
ATOM      6  C   UNL A   1      39.982  25.088  26.024  1.00  0.00     0.016 A 
ATOM      7  C   UNL A   1      38.974  24.389  28.086  1.00  0.00     0.016 A 
ATOM      8  C   UNL A   1      40.452  26.241  26.649  1.00  0.00     0.010 A 
ATOM      9  C   UNL A   1      39.434  25.549  28.718  1.00  0.00     0.010 A 
ATOM     10  C   UNL A   1      40.176  26.484  27.993  1.00  0.00    -0.014 A 
BRANCH  10  11
ATOM     11  C   UNL A   1      40.805  27.655  28.634  1.00  0.00     0.031 A 
ATOM     12  C   UNL A   1      42.294  27.664  28.792  1.00  0.00     0.074 A 
ATOM     13  C   UNL A   1      40.072  28.743  28.937  1.00  0.00     0.049 A 
ATOM     14  N   UNL A   1      43.064  28.629  29.213  1.00  0.00    -0.248 NA
ATOM     15  C   UNL A   1      43.015  26.451  28.368  1.00  0.00     0.031 C 
ATOM     16  C   UNL A   1      38.641  28.888  28.679  1.00  0.00     0.029 A 
ATOM     17  N   UNL A   1      40.422  29.935  29.514  1.00  0.00    -0.354 N 
ATOM     18  C   UNL A   1      44.360  28.167  29.042  1.00  0.00     0.074 A 
ATOM     19  C   UNL A   1      44.275  26.806  28.562  1.00  0.00     0.031 C 
ATOM     20  C   UNL A   1      38.219  30.069  29.161  1.00  0.00     0.029 A 
ATOM     21  C   UNL A   1      39.351  30.765  29.753  1.00  0.00     0.049 A 
ATOM     22  H   UNL A   1      41.350  30.174  29.737  1.00  0.00     0.167 HD
ATOM     23  C   UNL A   1      45.519  28.840  29.225  1.00  0.00     0.031 A 
ATOM     24  C   UNL A   1      39.290  31.955  30.381  1.00  0.00     0.031 A 
ATOM     25  C   UNL A   1      45.584  30.175  29.750  1.00  0.00     0.049 A 
ATOM     26  C   UNL A   1      40.588  32.601  30.774  1.00  0.00     0.074 A 
ATOM     27  C   UNL A   1      46.702  30.936  30.034  1.00  0.00     0.029 A 
ATOM     28  N   UNL A   1      44.477  30.944  30.085  1.00  0.00    -0.354 N 
ATOM     29  N   UNL A   1      41.810  32.156  30.592  1.00  0.00    -0.248 NA
ATOM     30  C   UNL A   1      40.511  33.927  31.398  1.00  0.00     0.031 C 
ATOM     31  C   UNL A   1      46.271  32.143  30.595  1.00  0.00     0.029 A 
ATOM     32  C   UNL A   1      44.885  32.162  30.599  1.00  0.00     0.049 A 
ATOM     33  H   UNL A   1      43.539  30.664  29.973  1.00  0.00     0.167 HD
ATOM     34  C   UNL A   1      42.650  33.172  31.030  1.00  0.00     0.074 A 
ATOM     35  C   UNL A   1      41.793  34.252  31.480  1.00  0.00     0.031 C 
ATOM     36  C   UNL A   1      44.006  33.215  31.043  1.00  0.00     0.031 A 
BRANCH  23  37
ATOM     37  C   UNL A   1      46.788  28.118  28.869  1.00  0.00    -0.014 A 
ATOM     38  C   UNL A   1      47.263  28.110  27.544  1.00  0.00     0.010 A 
ATOM     39  C   UNL A   1      47.509  27.434  29.861  1.00  0.00     0.010 A 
ATOM     40  C   UNL A   1      48.419  27.402  27.211  1.00  0.00     0.020 A 
ATOM     41  C   UNL A   1      48.680  26.744  29.537  1.00  0.00     0.020 A 
ATOM     42  C   UNL A   1      49.119  26.721  28.210  1.00  0.00     0.054 A 
BRANCH  42  43
ATOM     43  S   UNL A   1      50.628  25.824  27.754  1.00  0.00     0.124 S 
ATOM     44  O   UNL A   1      51.078  26.569  26.581  1.00  0.00    -0.237 OA
ATOM     45  O   UNL A   1      51.458  25.970  28.947  1.00  0.00    -0.237 OA
ATOM     46  O   UNL A   1      50.158  24.467  27.487  1.00  0.00    -0.744 OA
ENDBRANCH  42  43
ENDBRANCH  23  37
BRANCH  24  47
ATOM     47  C   UNL A   1      37.975  32.593  30.677  1.00  0.00    -0.014 A 
ATOM     48  C   UNL A   1      37.420  33.568  29.831  1.00  0.00     0.010 A 
ATOM     49  C   UNL A   1      37.279  32.239  31.850  1.00  0.00     0.010 A 
ATOM     50  C   UNL A   1      36.222  34.210  30.175  1.00  0.00     0.020 A 
ATOM     51  C   UNL A   1      36.069  32.859  32.184  1.00  0.00     0.020 A 
ATOM     52  C   UNL A   1      35.558  33.855  31.354  1.00  0.00     0.054 A 
BRANCH  52  53
ATOM     53  S   UNL A   1      34.017  34.714  31.782  1.00  0.00     0.124 S 
ATOM     54  O   UNL A   1      33.341  34.790  30.490  1.00  0.00    -0.237 OA
ATOM     55  O   UNL A   1      33.413  33.809  32.757  1.00  0.00    -0.237 OA
ATOM     56  O   UNL A   1      34.470  35.992  32.324  1.00  0.00    -0.744 OA
ENDBRANCH  52  53
ENDBRANCH  24  47
BRANCH  36  57
ATOM     57  C   UNL A   1      44.639  34.492  31.522  1.00  0.00    -0.014 A 
ATOM     58  C   UNL A   1      44.983  34.675  32.873  1.00  0.00     0.010 A 
ATOM     59  C   UNL A   1      44.925  35.508  30.594  1.00  0.00     0.010 A 
ATOM     60  C   UNL A   1      45.564  35.872  33.293  1.00  0.00     0.020 A 
ATOM     61  C   UNL A   1      45.540  36.692  31.003  1.00  0.00     0.020 A 
ATOM     62  C   UNL A   1      45.838  36.873  32.355  1.00  0.00     0.054 A 
BRANCH  62  63
ATOM     63  S   UNL A   1      46.625  38.404  32.922  1.00  0.00     0.124 S 
ATOM     64  O   UNL A   1      47.781  38.497  32.034  1.00  0.00    -0.237 OA
ATOM     65  O   UNL A   1      45.581  39.401  32.702  1.00  0.00    -0.237 OA
ATOM     66  O   UNL A   1      46.937  38.134  34.324  1.00  0.00    -0.744 OA
ENDBRANCH  62  63
ENDBRANCH  36  57
ENDBRANCH  10  11
ENDBRANCH   3   5
ENDBRANCH   2   3
ENDBRANCH   1   2
BRANCH   1  67
ATOM     67  C   UNL A   1      36.112  22.777  23.524  1.00  0.00     0.275 C 
BRANCH  67  68
ATOM     68  O   UNL A   1      35.551  24.074  23.783  1.00  0.00    -0.458 OA
BRANCH  68  69
ATOM     69  C   UNL A   1      34.290  24.253  23.318  1.00  0.00     0.338 C 
ATOM     70  O   UNL A   1      33.855  23.901  22.230  1.00  0.00    -0.246 OA
BRANCH  69  71
ATOM     71  C   UNL A   1      33.435  24.833  24.372  1.00  0.00     0.067 A 
ATOM     72  C   UNL A   1      33.642  26.175  24.722  1.00  0.00     0.025 A 
ATOM     73  C   UNL A   1      32.509  24.057  25.072  1.00  0.00     0.101 A 
ATOM     74  C   UNL A   1      32.897  26.775  25.750  1.00  0.00    -0.011 A 
ATOM     75  C   UNL A   1      31.774  24.655  26.106  1.00  0.00     0.270 A 
ATOM     76  C   UNL A   1      31.931  26.011  26.416  1.00  0.00     0.094 A 
BRANCH  74  77
ATOM     77  C   UNL A   1      33.257  28.098  26.259  1.00  0.00    -0.018 A 
ATOM     78  C   UNL A   1      34.550  28.435  26.679  1.00  0.00     0.009 A 
ATOM     79  C   UNL A   1      32.244  29.064  26.365  1.00  0.00     0.009 A 
ATOM     80  C   UNL A   1      34.810  29.702  27.217  1.00  0.00     0.014 A 
ATOM     81  C   UNL A   1      32.498  30.323  26.901  1.00  0.00     0.014 A 
ATOM     82  C   UNL A   1      33.782  30.651  27.349  1.00  0.00     0.056 A 
BRANCH  82  83
ATOM     83  C   UNL A   1      34.048  31.993  27.981  1.00  0.00     0.416 C 
ATOM     84  F   UNL A   1      34.146  31.917  29.339  1.00  0.00    -0.166 F 
ATOM     85  F   UNL A   1      35.208  32.562  27.553  1.00  0.00    -0.166 F 
ATOM     86  F   UNL A   1      33.071  32.913  27.736  1.00  0.00    -0.166 F 
ENDBRANCH  82  83
ENDBRANCH  74  77
BRANCH  75  87
ATOM     87  N   UNL A   1      30.912  23.834  26.961  1.00  0.00     0.062 N 
ATOM     88  O   UNL A   1      31.432  22.880  27.557  1.00  0.00    -0.258 OA
ATOM     89  O   UNL A   1      29.712  24.135  27.000  1.00  0.00    -0.258 OA
ENDBRANCH  75  87
ENDBRANCH  69  71
ENDBRANCH  68  69
ENDBRANCH  67  68
ENDBRANCH   1  67
TORSDOF 17
ENDMDL
MODEL 2
REMARK VINA RESULT:     -10.7      2.149      2.787
REMARK SMILES O=C(OCCOC(=O)c1cc(-c2ccc(C(F)(F)F)cc2)cc([N+](=O)[O-])c1)c1ccc(-c2c3nc(c(-c4ccc(S(=O)(=O)[O-])cc4)c4ccc([nH]4)c(-c4ccc(S(=O)(=O)[O-])cc4)c4nc(c(-c5ccc(S(=O)(=O)[O-])cc5)c5ccc2[nH]5)C=C4)C=C3)cc1
REMARK SMILES IDX 4 1 3 2 2 3 1 4 28 5 29 6 87 7 30 8 86 9 31 10 32 11 33 12
REMARK SMILES IDX 80 13 34 14 85 15 79 16 81 17 35 18 84 19 78 20 77 21 36 23
REMARK SMILES IDX 66 24 47 25 65 26 48 27 51 28 64 29 82 30 49 31 50 32 63 34
REMARK SMILES IDX 83 35 52 36 37 37 38 38 46 39 39 40 45 41 40 42 41 43 42 44
REMARK SMILES IDX 43 45 44 46 67 47 68 48 76 49 69 50 75 51 70 52 71 53 72 54
REMARK SMILES IDX 73 55 74 56 53 57 54 58 62 59 55 60 61 61 56 62 57 63 58 64
REMARK SMILES IDX 59 65 60 66 5 67 6 68 7 69 8 70 9 71 10 72 27 73 11 74 23 75
REMARK SMILES IDX 22 76 12 77 13 78 21 79 14 80 20 81 15 82 16 83 17 84 18 85
REMARK SMILES IDX 19 86 24 87 25 88 26 89
REMARK H PARENT 81 22 51 33
REMARK Flexibility Score: inf
ROOT
ATOM      1  C   UNL A   1      36.891  23.149  24.175  1.00  0.00     0.275 C 
ENDROOT
BRANCH   1   2
ATOM      2  O   UNL A   1      37.399  22.825  25.483  1.00  0.00    -0.458 OA
BRANCH   2   3
ATOM      3  C   UNL A   1      38.631  22.988  26.017  1.00  0.00     0.338 C 
ATOM      4  O   UNL A   1      39.429  22.053  25.942  1.00  0.00    -0.246 OA
BRANCH   3   5
ATOM      5  C   UNL A   1      39.054  24.190  26.807  1.00  0.00     0.060 A 
ATOM      6  C   UNL A   1      38.696  24.472  28.126  1.00  0.00     0.016 A 
ATOM      7  C   UNL A   1      39.908  25.102  26.154  1.00  0.00     0.016 A 
ATOM      8  C   UNL A   1      39.226  25.570  28.799  1.00  0.00     0.010 A 
ATOM      9  C   UNL A   1      40.453  26.202  26.826  1.00  0.00     0.010 A 
ATOM     10  C   UNL A   1      40.111  26.436  28.160  1.00  0.00    -0.014 A 
BRANCH  10  11
ATOM     11  C   UNL A   1      40.540  27.652  28.878  1.00  0.00     0.031 A 
ATOM     12  C   UNL A   1      41.914  27.675  29.475  1.00  0.00     0.074 A 
ATOM     13  C   UNL A   1      39.771  28.756  28.872  1.00  0.00     0.049 A 
ATOM     14  N   UNL A   1      42.541  28.670  30.040  1.00  0.00    -0.248 NA
ATOM     15  C   UNL A   1      42.705  26.437  29.370  1.00  0.00     0.031 C 
ATOM     16  C   UNL A   1      38.486  28.880  28.187  1.00  0.00     0.029 A 
ATOM     17  N   UNL A   1      39.955  29.987  29.445  1.00  0.00    -0.354 N 
ATOM     18  C   UNL A   1      43.819  28.199  30.299  1.00  0.00     0.074 A 
ATOM     19  C   UNL A   1      43.856  26.808  29.909  1.00  0.00     0.031 C 
ATOM     20  C   UNL A   1      37.962  30.091  28.438  1.00  0.00     0.029 A 
ATOM     21  C   UNL A   1      38.878  30.830  29.293  1.00  0.00     0.049 A 
ATOM     22  H   UNL A   1      40.778  30.244  29.919  1.00  0.00     0.167 HD
ATOM     23  C   UNL A   1      44.883  28.886  30.775  1.00  0.00     0.031 A 
ATOM     24  C   UNL A   1      38.654  32.061  29.791  1.00  0.00     0.031 A 
ATOM     25  C   UNL A   1      44.813  30.255  31.203  1.00  0.00     0.049 A 
ATOM     26  C   UNL A   1      39.787  32.736  30.511  1.00  0.00     0.074 A 
ATOM     27  C   UNL A   1      45.809  31.037  31.756  1.00  0.00     0.029 A 
ATOM     28  N   UNL A   1      43.672  31.044  31.136  1.00  0.00    -0.354 N 
ATOM     29  N   UNL A   1      40.999  32.283  30.735  1.00  0.00    -0.248 NA
ATOM     30  C   UNL A   1      39.552  34.103  30.991  1.00  0.00     0.031 C 
ATOM     31  C   UNL A   1      45.253  32.280  32.078  1.00  0.00     0.029 A 
ATOM     32  C   UNL A   1      43.930  32.296  31.665  1.00  0.00     0.049 A 
ATOM     33  H   UNL A   1      42.805  30.754  30.767  1.00  0.00     0.167 HD
ATOM     34  C   UNL A   1      41.688  33.329  31.334  1.00  0.00     0.074 A 
ATOM     35  C   UNL A   1      40.757  34.436  31.432  1.00  0.00     0.031 C 
ATOM     36  C   UNL A   1      42.978  33.376  31.751  1.00  0.00     0.031 A 
BRANCH  23  37
ATOM     37  C   UNL A   1      46.186  28.144  30.866  1.00  0.00    -0.014 A 
ATOM     38  C   UNL A   1      47.089  28.141  29.786  1.00  0.00     0.010 A 
ATOM     39  C   UNL A   1      46.510  27.435  32.034  1.00  0.00     0.010 A 
ATOM     40  C   UNL A   1      48.279  27.414  29.861  1.00  0.00     0.020 A 
ATOM     41  C   UNL A   1      47.712  26.726  32.123  1.00  0.00     0.020 A 
ATOM     42  C   UNL A   1      48.581  26.709  31.029  1.00  0.00     0.054 A 
BRANCH  42  43
ATOM     43  S   UNL A   1      50.141  25.788  31.106  1.00  0.00     0.124 S 
ATOM     44  O   UNL A   1      50.185  25.159  29.789  1.00  0.00    -0.237 OA
ATOM     45  O   UNL A   1      51.124  26.846  31.329  1.00  0.00    -0.237 OA
ATOM     46  O   UNL A   1      49.949  24.872  32.228  1.00  0.00    -0.744 OA
ENDBRANCH  42  43
ENDBRANCH  23  37
BRANCH  24  47
ATOM     47  C   UNL A   1      37.324  32.716  29.634  1.00  0.00    -0.014 A 
ATOM     48  C   UNL A   1      36.961  33.378  28.450  1.00  0.00     0.010 A 
ATOM     49  C   UNL A   1      36.411  32.703  30.709  1.00  0.00     0.010 A 
ATOM     50  C   UNL A   1      35.737  34.054  28.359  1.00  0.00     0.020 A 
ATOM     51  C   UNL A   1      35.177  33.354  30.613  1.00  0.00     0.020 A 
ATOM     52  C   UNL A   1      34.855  34.043  29.444  1.00  0.00     0.054 A 
BRANCH  52  53
ATOM     53  S   UNL A   1      33.283  34.940  29.304  1.00  0.00     0.124 S 
ATOM     54  O   UNL A   1      33.727  36.280  28.932  1.00  0.00    -0.237 OA
ATOM     55  O   UNL A   1      32.587  34.193  28.259  1.00  0.00    -0.237 OA
ATOM     56  O   UNL A   1      32.697  34.826  30.637  1.00  0.00    -0.744 OA
ENDBRANCH  52  53
ENDBRANCH  24  47
BRANCH  36  57
ATOM     57  C   UNL A   1      43.463  34.685  32.310  1.00  0.00    -0.014 A 
ATOM     58  C   UNL A   1      44.003  35.680  31.476  1.00  0.00     0.010 A 
ATOM     59  C   UNL A   1      43.342  34.931  33.689  1.00  0.00     0.010 A 
ATOM     60  C   UNL A   1      44.451  36.884  32.021  1.00  0.00     0.020 A 
ATOM     61  C   UNL A   1      43.755  36.148  34.232  1.00  0.00     0.020 A 
ATOM     62  C   UNL A   1      44.325  37.110  33.396  1.00  0.00     0.054 A 
BRANCH  62  63
ATOM     63  S   UNL A   1      44.884  38.695  34.072  1.00  0.00     0.124 S 
ATOM     64  O   UNL A   1      44.517  39.625  33.007  1.00  0.00    -0.237 OA
ATOM     65  O   UNL A   1      44.107  38.810  35.304  1.00  0.00    -0.237 OA
ATOM     66  O   UNL A   1      46.320  38.503  34.264  1.00  0.00    -0.744 OA
ENDBRANCH  62  63
ENDBRANCH  36  57
ENDBRANCH  10  11
ENDBRANCH   3   5
ENDBRANCH   2   3
ENDBRANCH   1   2
BRANCH   1  67
ATOM     67  C   UNL A   1      35.493  23.780  24.156  1.00  0.00     0.275 C 
BRANCH  67  68
ATOM     68  O   UNL A   1      34.480  22.947  23.571  1.00  0.00    -0.458 OA
BRANCH  68  69
ATOM     69  C   UNL A   1      33.556  23.606  22.830  1.00  0.00     0.338 C 
ATOM     70  O   UNL A   1      33.528  23.697  21.610  1.00  0.00    -0.246 OA
BRANCH  69  71
ATOM     71  C   UNL A   1      32.475  24.114  23.696  1.00  0.00     0.067 A 
ATOM     72  C   UNL A   1      31.891  25.345  23.365  1.00  0.00     0.025 A 
ATOM     73  C   UNL A   1      32.098  23.447  24.863  1.00  0.00     0.101 A 
ATOM     74  C   UNL A   1      30.891  25.910  24.173  1.00  0.00    -0.011 A 
ATOM     75  C   UNL A   1      31.107  24.018  25.675  1.00  0.00     0.270 A 
ATOM     76  C   UNL A   1      30.476  25.215  25.315  1.00  0.00     0.094 A 
BRANCH  74  77
ATOM     77  C   UNL A   1      30.438  27.283  23.951  1.00  0.00    -0.018 A 
ATOM     78  C   UNL A   1      31.129  28.406  24.421  1.00  0.00     0.009 A 
ATOM     79  C   UNL A   1      29.230  27.477  23.263  1.00  0.00     0.009 A 
ATOM     80  C   UNL A   1      30.604  29.690  24.229  1.00  0.00     0.014 A 
ATOM     81  C   UNL A   1      28.703  28.751  23.073  1.00  0.00     0.014 A 
ATOM     82  C   UNL A   1      29.377  29.873  23.567  1.00  0.00     0.056 A 
BRANCH  82  83
ATOM     83  C   UNL A   1      28.782  31.249  23.412  1.00  0.00     0.416 C 
ATOM     84  F   UNL A   1      28.816  31.687  22.122  1.00  0.00    -0.166 F 
ATOM     85  F   UNL A   1      27.478  31.310  23.795  1.00  0.00    -0.166 F 
ATOM     86  F   UNL A   1      29.428  32.205  24.140  1.00  0.00    -0.166 F 
ENDBRANCH  82  83
ENDBRANCH  74  77
BRANCH  75  87
ATOM     87  N   UNL A   1      30.801  23.428  26.982  1.00  0.00     0.062 N 
ATOM     88  O   UNL A   1      31.736  22.928  27.621  1.00  0.00    -0.258 OA
ATOM     89  O   UNL A   1      29.615  23.442  27.338  1.00  0.00    -0.258 OA
ENDBRANCH  75  87
ENDBRANCH  69  71
ENDBRANCH  68  69
ENDBRANCH  67  68
ENDBRANCH   1  67
TORSDOF 17
ENDMDL
MODEL 3
REMARK VINA RESULT:     -10.6      5.060     10.196
REMARK SMILES O=C(OCCOC(=O)c1cc(-c2ccc(C(F)(F)F)cc2)cc([N+](=O)[O-])c1)c1ccc(-c2c3nc(c(-c4ccc(S(=O)(=O)[O-])cc4)c4ccc([nH]4)c(-c4ccc(S(=O)(=O)[O-])cc4)c4nc(c(-c5ccc(S(=O)(=O)[O-])cc5)c5ccc2[nH]5)C=C4)C=C3)cc1
REMARK SMILES IDX 4 1 3 2 2 3 1 4 28 5 29 6 87 7 30 8 86 9 31 10 32 11 33 12
REMARK SMILES IDX 80 13 34 14 85 15 79 16 81 17 35 18 84 19 78 20 77 21 36 23
REMARK SMILES IDX 66 24 47 25 65 26 48 27 51 28 64 29 82 30 49 31 50 32 63 34
REMARK SMILES IDX 83 35 52 36 37 37 38 38 46 39 39 40 45 41 40 42 41 43 42 44
REMARK SMILES IDX 43 45 44 46 67 47 68 48 76 49 69 50 75 51 70 52 71 53 72 54
REMARK SMILES IDX 73 55 74 56 53 57 54 58 62 59 55 60 61 61 56 62 57 63 58 64
REMARK SMILES IDX 59 65 60 66 5 67 6 68 7 69 8 70 9 71 10 72 27 73 11 74 23 75
REMARK SMILES IDX 22 76 12 77 13 78 21 79 14 80 20 81 15 82 16 83 17 84 18 85
REMARK SMILES IDX 19 86 24 87 25 88 26 89
REMARK H PARENT 81 22 51 33
REMARK Flexibility Score: inf
ROOT
ATOM      1  C   UNL A   1      33.680  28.316  26.233  1.00  0.00     0.275 C 
ENDROOT
BRANCH   1   2
ATOM      2  O   UNL A   1      33.686  29.744  26.414  1.00  0.00    -0.458 OA
BRANCH   2   3
ATOM      3  C   UNL A   1      34.300  30.514  27.343  1.00  0.00     0.338 C 
ATOM      4  O   UNL A   1      33.834  31.629  27.579  1.00  0.00    -0.246 OA
BRANCH   3   5
ATOM      5  C   UNL A   1      35.588  30.150  28.019  1.00  0.00     0.060 A 
ATOM      6  C   UNL A   1      35.726  29.702  29.333  1.00  0.00     0.016 A 
ATOM      7  C   UNL A   1      36.758  30.253  27.238  1.00  0.00     0.016 A 
ATOM      8  C   UNL A   1      36.962  29.296  29.831  1.00  0.00     0.010 A 
ATOM      9  C   UNL A   1      38.001  29.837  27.727  1.00  0.00     0.010 A 
ATOM     10  C   UNL A   1      38.103  29.353  29.033  1.00  0.00    -0.014 A 
BRANCH  10  11
ATOM     11  C   UNL A   1      39.405  29.032  29.652  1.00  0.00     0.031 A 
ATOM     12  C   UNL A   1      39.856  29.850  30.822  1.00  0.00     0.074 A 
ATOM     13  C   UNL A   1      40.094  27.944  29.263  1.00  0.00     0.049 A 
ATOM     14  N   UNL A   1      40.895  29.672  31.589  1.00  0.00    -0.248 NA
ATOM     15  C   UNL A   1      38.995  30.980  31.214  1.00  0.00     0.031 C 
ATOM     16  C   UNL A   1      39.661  26.998  28.236  1.00  0.00     0.029 A 
ATOM     17  N   UNL A   1      41.296  27.438  29.685  1.00  0.00    -0.354 N 
ATOM     18  C   UNL A   1      40.779  30.623  32.592  1.00  0.00     0.074 A 
ATOM     19  C   UNL A   1      39.619  31.431  32.291  1.00  0.00     0.031 C 
ATOM     20  C   UNL A   1      40.614  26.068  28.056  1.00  0.00     0.029 A 
ATOM     21  C   UNL A   1      41.719  26.349  28.959  1.00  0.00     0.049 A 
ATOM     22  H   UNL A   1      41.808  27.819  30.435  1.00  0.00     0.167 HD
ATOM     23  C   UNL A   1      41.549  30.775  33.694  1.00  0.00     0.031 A 
ATOM     24  C   UNL A   1      42.872  25.654  29.017  1.00  0.00     0.031 A 
ATOM     25  C   UNL A   1      42.727  29.994  33.950  1.00  0.00     0.049 A 
ATOM     26  C   UNL A   1      43.825  25.981  30.131  1.00  0.00     0.074 A 
ATOM     27  C   UNL A   1      43.618  30.097  35.001  1.00  0.00     0.029 A 
ATOM     28  N   UNL A   1      43.186  28.970  33.131  1.00  0.00    -0.354 N 
ATOM     29  N   UNL A   1      43.695  26.876  31.083  1.00  0.00    -0.248 NA
ATOM     30  C   UNL A   1      45.047  25.173  30.221  1.00  0.00     0.031 C 
ATOM     31  C   UNL A   1      44.647  29.174  34.786  1.00  0.00     0.029 A 
ATOM     32  C   UNL A   1      44.363  28.450  33.638  1.00  0.00     0.049 A 
ATOM     33  H   UNL A   1      42.739  28.659  32.310  1.00  0.00     0.167 HD
ATOM     34  C   UNL A   1      44.791  26.701  31.918  1.00  0.00     0.074 A 
ATOM     35  C   UNL A   1      45.569  25.613  31.357  1.00  0.00     0.031 C 
ATOM     36  C   UNL A   1      45.116  27.369  33.053  1.00  0.00     0.031 A 
BRANCH  23  37
ATOM     37  C   UNL A   1      41.134  31.837  34.672  1.00  0.00    -0.014 A 
ATOM     38  C   UNL A   1      40.292  31.526  35.757  1.00  0.00     0.010 A 
ATOM     39  C   UNL A   1      41.578  33.158  34.504  1.00  0.00     0.010 A 
ATOM     40  C   UNL A   1      39.875  32.526  36.638  1.00  0.00     0.020 A 
ATOM     41  C   UNL A   1      41.184  34.158  35.398  1.00  0.00     0.020 A 
ATOM     42  C   UNL A   1      40.323  33.837  36.451  1.00  0.00     0.054 A 
BRANCH  42  43
ATOM     43  S   UNL A   1      39.780  35.112  37.620  1.00  0.00     0.124 S 
ATOM     44  O   UNL A   1      40.878  35.123  38.584  1.00  0.00    -0.237 OA
ATOM     45  O   UNL A   1      39.677  36.298  36.773  1.00  0.00    -0.237 OA
ATOM     46  O   UNL A   1      38.510  34.599  38.129  1.00  0.00    -0.744 OA
ENDBRANCH  42  43
ENDBRANCH  23  37
BRANCH  24  47
ATOM     47  C   UNL A   1      43.182  24.609  28.000  1.00  0.00    -0.014 A 
ATOM     48  C   UNL A   1      42.820  23.264  28.188  1.00  0.00     0.010 A 
ATOM     49  C   UNL A   1      43.886  24.963  26.831  1.00  0.00     0.010 A 
ATOM     50  C   UNL A   1      43.195  22.289  27.254  1.00  0.00     0.020 A 
ATOM     51  C   UNL A   1      44.239  23.996  25.883  1.00  0.00     0.020 A 
ATOM     52  C   UNL A   1      43.909  22.661  26.111  1.00  0.00     0.054 A 
BRANCH  52  53
ATOM     53  S   UNL A   1      44.395  21.374  24.926  1.00  0.00     0.124 S 
ATOM     54  O   UNL A   1      45.739  21.032  25.381  1.00  0.00    -0.237 OA
ATOM     55  O   UNL A   1      43.376  20.349  25.138  1.00  0.00    -0.237 OA
ATOM     56  O   UNL A   1      44.330  22.050  23.632  1.00  0.00    -0.744 OA
ENDBRANCH  52  53
ENDBRANCH  24  47
BRANCH  36  57
ATOM     57  C   UNL A   1      46.347  26.906  33.783  1.00  0.00    -0.014 A 
ATOM     58  C   UNL A   1      47.605  27.480  33.531  1.00  0.00     0.010 A 
ATOM     59  C   UNL A   1      46.229  25.902  34.761  1.00  0.00     0.010 A 
ATOM     60  C   UNL A   1      48.732  27.028  34.218  1.00  0.00     0.020 A 
ATOM     61  C   UNL A   1      47.348  25.473  35.476  1.00  0.00     0.020 A 
ATOM     62  C   UNL A   1      48.596  26.027  35.186  1.00  0.00     0.054 A 
BRANCH  62  63
ATOM     63  S   UNL A   1      50.071  25.482  36.087  1.00  0.00     0.124 S 
ATOM     64  O   UNL A   1      49.740  25.853  37.461  1.00  0.00    -0.237 OA
ATOM     65  O   UNL A   1      50.103  24.048  35.812  1.00  0.00    -0.237 OA
ATOM     66  O   UNL A   1      51.153  26.252  35.477  1.00  0.00    -0.744 OA
ENDBRANCH  62  63
ENDBRANCH  36  57
ENDBRANCH  10  11
ENDBRANCH   3   5
ENDBRANCH   2   3
ENDBRANCH   1   2
BRANCH   1  67
ATOM     67  C   UNL A   1      33.601  27.844  24.776  1.00  0.00     0.275 C 
BRANCH  67  68
ATOM     68  O   UNL A   1      34.207  26.563  24.538  1.00  0.00    -0.458 OA
BRANCH  68  69
ATOM     69  C   UNL A   1      33.474  25.718  23.773  1.00  0.00     0.338 C 
ATOM     70  O   UNL A   1      33.385  25.729  22.552  1.00  0.00    -0.246 OA
BRANCH  69  71
ATOM     71  C   UNL A   1      32.871  24.663  24.610  1.00  0.00     0.067 A 
ATOM     72  C   UNL A   1      33.391  23.364  24.506  1.00  0.00     0.025 A 
ATOM     73  C   UNL A   1      31.760  24.914  25.417  1.00  0.00     0.101 A 
ATOM     74  C   UNL A   1      32.834  22.304  25.237  1.00  0.00    -0.011 A 
ATOM     75  C   UNL A   1      31.198  23.851  26.138  1.00  0.00     0.270 A 
ATOM     76  C   UNL A   1      31.752  22.567  26.087  1.00  0.00     0.094 A 
BRANCH  74  77
ATOM     77  C   UNL A   1      33.229  20.921  24.968  1.00  0.00    -0.018 A 
ATOM     78  C   UNL A   1      34.561  20.491  24.958  1.00  0.00     0.009 A 
ATOM     79  C   UNL A   1      32.220  19.992  24.670  1.00  0.00     0.009 A 
ATOM     80  C   UNL A   1      34.872  19.165  24.628  1.00  0.00     0.014 A 
ATOM     81  C   UNL A   1      32.525  18.675  24.338  1.00  0.00     0.014 A 
ATOM     82  C   UNL A   1      33.857  18.249  24.299  1.00  0.00     0.056 A 
BRANCH  82  83
ATOM     83  C   UNL A   1      34.195  16.840  23.887  1.00  0.00     0.416 C 
ATOM     84  F   UNL A   1      35.107  16.260  24.717  1.00  0.00    -0.166 F 
ATOM     85  F   UNL A   1      33.113  16.014  23.883  1.00  0.00    -0.166 F 
ATOM     86  F   UNL A   1      34.732  16.754  22.636  1.00  0.00    -0.166 F 
ENDBRANCH  82  83
ENDBRANCH  74  77
BRANCH  75  87
ATOM     87  N   UNL A   1      29.941  24.045  26.868  1.00  0.00     0.062 N 
ATOM     88  O   UNL A   1      29.566  23.137  27.622  1.00  0.00    -0.258 OA
ATOM     89  O   UNL A   1      29.324  25.096  26.649  1.00  0.00    -0.258 OA
ENDBRANCH  75  87
ENDBRANCH  69  71
ENDBRANCH  68  69
ENDBRANCH  67  68
ENDBRANCH   1  67
TORSDOF 17
ENDMDL
