MODEL 1
REMARK VINA RESULT:     -12.1      0.000      0.000
REMARK SMILES Cc1cc2c(=O)c3ccccc3oc2c(C(=O)OCCOC(=O)c2ccc(-c3c4nc(c(-c5ccc(S(=O)(=O)[O-])cc5)c5ccc([nH]5)c(-c5ccc(S(=O)(=O)[O-])cc5)c5nc(c(-c6ccc(S(=O)(=O)[O-])cc6)c6ccc3[nH]6)C=C5)C=C4)cc2)c1C
REMARK SMILES IDX 21 1 20 2 19 3 18 4 16 5 17 6 15 7 1 8 2 9 3 10 84 11 4 12
REMARK SMILES IDX 85 13 5 14 14 15 6 16 7 17 13 18 8 19 12 20 9 21 11 22 10 23
REMARK SMILES IDX 22 24 23 25 24 26 25 27 83 28 26 29 82 30 27 31 28 32 29 33
REMARK SMILES IDX 76 34 30 35 81 36 75 37 77 38 31 39 80 40 74 41 73 42 32 44
REMARK SMILES IDX 62 45 43 46 61 47 44 48 47 49 60 50 78 51 45 52 46 53 59 55
REMARK SMILES IDX 79 56 48 57 33 58 34 59 42 60 35 61 41 62 36 63 37 64 38 65
REMARK SMILES IDX 39 66 40 67 63 68 64 69 72 70 65 71 71 72 66 73 67 74 68 75
REMARK SMILES IDX 69 76 70 77 49 78 50 79 58 80 51 81 57 82 52 83 53 84 54 85
REMARK SMILES IDX 55 86 56 87
REMARK H PARENT 77 43 47 54
REMARK Flexibility Score: inf
ROOT
ATOM      1  O   UNL A   1      37.726  23.044  25.450  1.00  0.00    -0.458 OA
ENDROOT
BRANCH   1   2
ATOM      2  C   UNL A   1      36.565  22.265  25.778  1.00  0.00     0.275 C 
BRANCH   2   3
ATOM      3  C   UNL A   1      35.512  23.143  26.461  1.00  0.00     0.275 C 
BRANCH   3   4
ATOM      4  O   UNL A   1      34.417  22.342  26.956  1.00  0.00    -0.458 OA
BRANCH   4   5
ATOM      5  C   UNL A   1      33.150  22.738  26.663  1.00  0.00     0.342 C 
ATOM      6  O   UNL A   1      32.323  23.107  27.476  1.00  0.00    -0.246 OA
BRANCH   5   7
ATOM      7  C   UNL A   1      32.913  22.670  25.180  1.00  0.00     0.106 A 
ATOM      8  C   UNL A   1      32.072  20.192  22.342  1.00  0.00     0.044 C 
ATOM      9  C   UNL A   1      32.464  21.428  23.108  1.00  0.00    -0.046 A 
ATOM     10  C   UNL A   1      32.629  22.613  22.386  1.00  0.00     0.019 A 
ATOM     11  C   UNL A   1      32.657  21.433  24.512  1.00  0.00    -0.030 A 
ATOM     12  C   UNL A   1      32.883  23.812  23.046  1.00  0.00     0.067 A 
ATOM     13  C   UNL A   1      32.616  20.124  25.267  1.00  0.00     0.046 C 
ATOM     14  C   UNL A   1      33.142  25.022  22.251  1.00  0.00     0.200 A 
ATOM     15  C   UNL A   1      32.936  23.875  24.438  1.00  0.00     0.153 A 
ATOM     16  O   UNL A   1      33.173  24.990  21.028  1.00  0.00    -0.288 OA
ATOM     17  C   UNL A   1      33.369  26.260  22.994  1.00  0.00     0.065 A 
ATOM     18  O   UNL A   1      32.980  25.086  25.099  1.00  0.00    -0.455 OA
ATOM     19  C   UNL A   1      33.767  27.431  22.340  1.00  0.00     0.016 A 
ATOM     20  C   UNL A   1      33.158  26.239  24.368  1.00  0.00     0.138 A 
ATOM     21  C   UNL A   1      33.912  28.607  23.070  1.00  0.00     0.001 A 
ATOM     22  C   UNL A   1      33.209  27.441  25.074  1.00  0.00     0.048 A 
ATOM     23  C   UNL A   1      33.598  28.620  24.429  1.00  0.00     0.004 A 
ENDBRANCH   5   7
ENDBRANCH   4   5
ENDBRANCH   3   4
ENDBRANCH   2   3
ENDBRANCH   1   2
BRANCH   1  24
ATOM     24  C   UNL A   1      38.798  22.833  26.250  1.00  0.00     0.338 C 
ATOM     25  O   UNL A   1      39.413  21.788  26.397  1.00  0.00    -0.246 OA
BRANCH  24  26
ATOM     26  C   UNL A   1      39.266  24.136  26.750  1.00  0.00     0.060 A 
ATOM     27  C   UNL A   1      40.015  25.027  25.976  1.00  0.00     0.016 A 
ATOM     28  C   UNL A   1      38.938  24.453  28.067  1.00  0.00     0.016 A 
ATOM     29  C   UNL A   1      40.492  26.214  26.550  1.00  0.00     0.010 A 
ATOM     30  C   UNL A   1      39.404  25.637  28.625  1.00  0.00     0.010 A 
ATOM     31  C   UNL A   1      40.223  26.506  27.896  1.00  0.00    -0.014 A 
BRANCH  31  32
ATOM     32  C   UNL A   1      40.683  27.751  28.559  1.00  0.00     0.031 A 
ATOM     33  C   UNL A   1      42.064  27.868  29.144  1.00  0.00     0.074 A 
ATOM     34  C   UNL A   1      39.781  28.724  28.773  1.00  0.00     0.049 A 
ATOM     35  N   UNL A   1      42.596  28.869  29.801  1.00  0.00    -0.248 NA
ATOM     36  C   UNL A   1      42.944  26.696  29.026  1.00  0.00     0.031 C 
ATOM     37  C   UNL A   1      38.382  28.667  28.352  1.00  0.00     0.029 A 
ATOM     38  N   UNL A   1      39.899  29.936  29.404  1.00  0.00    -0.354 N 
ATOM     39  C   UNL A   1      43.863  28.447  30.191  1.00  0.00     0.074 A 
ATOM     40  C   UNL A   1      43.999  27.077  29.740  1.00  0.00     0.031 C 
ATOM     41  C   UNL A   1      37.776  29.809  28.709  1.00  0.00     0.029 A 
ATOM     42  C   UNL A   1      38.739  30.673  29.388  1.00  0.00     0.049 A 
ATOM     43  H   UNL A   1      40.731  30.247  29.828  1.00  0.00     0.167 HD
ATOM     44  C   UNL A   1      44.820  29.148  30.851  1.00  0.00     0.031 A 
ATOM     45  C   UNL A   1      38.485  31.919  29.835  1.00  0.00     0.031 A 
ATOM     46  C   UNL A   1      44.673  30.532  31.242  1.00  0.00     0.049 A 
ATOM     47  C   UNL A   1      39.598  32.728  30.438  1.00  0.00     0.074 A 
ATOM     48  C   UNL A   1      45.633  31.376  31.778  1.00  0.00     0.029 A 
ATOM     49  N   UNL A   1      43.510  31.280  31.133  1.00  0.00    -0.354 N 
ATOM     50  N   UNL A   1      40.836  32.366  30.682  1.00  0.00    -0.248 NA
ATOM     51  C   UNL A   1      39.298  34.121  30.791  1.00  0.00     0.031 C 
ATOM     52  C   UNL A   1      45.034  32.606  32.058  1.00  0.00     0.029 A 
ATOM     53  C   UNL A   1      43.724  32.564  31.611  1.00  0.00     0.049 A 
ATOM     54  H   UNL A   1      42.657  30.949  30.768  1.00  0.00     0.167 HD
ATOM     55  C   UNL A   1      41.466  33.493  31.196  1.00  0.00     0.074 A 
ATOM     56  C   UNL A   1      40.482  34.555  31.205  1.00  0.00     0.031 C 
ATOM     57  C   UNL A   1      42.747  33.627  31.622  1.00  0.00     0.031 A 
BRANCH  44  58
ATOM     58  C   UNL A   1      46.152  28.489  31.149  1.00  0.00    -0.014 A 
ATOM     59  C   UNL A   1      47.153  28.435  30.157  1.00  0.00     0.010 A 
ATOM     60  C   UNL A   1      46.345  27.757  32.336  1.00  0.00     0.010 A 
ATOM     61  C   UNL A   1      48.284  27.625  30.320  1.00  0.00     0.020 A 
ATOM     62  C   UNL A   1      47.493  26.980  32.521  1.00  0.00     0.020 A 
ATOM     63  C   UNL A   1      48.439  26.892  31.498  1.00  0.00     0.054 A 
BRANCH  63  64
ATOM     64  S   UNL A   1      49.874  25.792  31.669  1.00  0.00     0.124 S 
ATOM     65  O   UNL A   1      50.006  25.244  30.323  1.00  0.00    -0.237 OA
ATOM     66  O   UNL A   1      50.931  26.709  32.085  1.00  0.00    -0.237 OA
ATOM     67  O   UNL A   1      49.452  24.837  32.692  1.00  0.00    -0.744 OA
ENDBRANCH  63  64
ENDBRANCH  44  58
BRANCH  45  68
ATOM     68  C   UNL A   1      37.141  32.501  29.574  1.00  0.00    -0.014 A 
ATOM     69  C   UNL A   1      36.877  33.211  28.389  1.00  0.00     0.010 A 
ATOM     70  C   UNL A   1      36.165  32.468  30.586  1.00  0.00     0.010 A 
ATOM     71  C   UNL A   1      35.689  33.933  28.249  1.00  0.00     0.020 A 
ATOM     72  C   UNL A   1      34.962  33.159  30.436  1.00  0.00     0.020 A 
ATOM     73  C   UNL A   1      34.748  33.917  29.282  1.00  0.00     0.054 A 
BRANCH  73  74
ATOM     74  S   UNL A   1      33.257  34.936  29.120  1.00  0.00     0.124 S 
ATOM     75  O   UNL A   1      32.755  34.951  30.492  1.00  0.00    -0.237 OA
ATOM     76  O   UNL A   1      33.791  36.204  28.631  1.00  0.00    -0.237 OA
ATOM     77  O   UNL A   1      32.438  34.196  28.164  1.00  0.00    -0.744 OA
ENDBRANCH  73  74
ENDBRANCH  45  68
BRANCH  57  78
ATOM     78  C   UNL A   1      43.194  34.970  32.152  1.00  0.00    -0.014 A 
ATOM     79  C   UNL A   1      42.846  35.356  33.462  1.00  0.00     0.010 A 
ATOM     80  C   UNL A   1      43.827  35.904  31.314  1.00  0.00     0.010 A 
ATOM     81  C   UNL A   1      43.080  36.660  33.906  1.00  0.00     0.020 A 
ATOM     82  C   UNL A   1      44.095  37.201  31.767  1.00  0.00     0.020 A 
ATOM     83  C   UNL A   1      43.692  37.579  33.050  1.00  0.00     0.054 A 
BRANCH  83  84
ATOM     84  S   UNL A   1      43.932  39.283  33.625  1.00  0.00     0.124 S 
ATOM     85  O   UNL A   1      42.587  39.838  33.517  1.00  0.00    -0.237 OA
ATOM     86  O   UNL A   1      44.429  39.094  34.986  1.00  0.00    -0.237 OA
ATOM     87  O   UNL A   1      44.909  39.829  32.684  1.00  0.00    -0.744 OA
ENDBRANCH  83  84
ENDBRANCH  57  78
ENDBRANCH  31  32
ENDBRANCH  24  26
ENDBRANCH   1  24
TORSDOF 14
ENDMDL
MODEL 2
REMARK VINA RESULT:     -12.0      2.750      9.447
REMARK SMILES Cc1cc2c(=O)c3ccccc3oc2c(C(=O)OCCOC(=O)c2ccc(-c3c4nc(c(-c5ccc(S(=O)(=O)[O-])cc5)c5ccc([nH]5)c(-c5ccc(S(=O)(=O)[O-])cc5)c5nc(c(-c6ccc(S(=O)(=O)[O-])cc6)c6ccc3[nH]6)C=C5)C=C4)cc2)c1C
REMARK SMILES IDX 21 1 20 2 19 3 18 4 16 5 17 6 15 7 1 8 2 9 3 10 84 11 4 12
REMARK SMILES IDX 85 13 5 14 14 15 6 16 7 17 13 18 8 19 12 20 9 21 11 22 10 23
REMARK SMILES IDX 22 24 23 25 24 26 25 27 83 28 26 29 82 30 27 31 28 32 29 33
REMARK SMILES IDX 76 34 30 35 81 36 75 37 77 38 31 39 80 40 74 41 73 42 32 44
REMARK SMILES IDX 62 45 43 46 61 47 44 48 47 49 60 50 78 51 45 52 46 53 59 55
REMARK SMILES IDX 79 56 48 57 33 58 34 59 42 60 35 61 41 62 36 63 37 64 38 65
REMARK SMILES IDX 39 66 40 67 63 68 64 69 72 70 65 71 71 72 66 73 67 74 68 75
REMARK SMILES IDX 69 76 70 77 49 78 50 79 58 80 51 81 57 82 52 83 53 84 54 85
REMARK SMILES IDX 55 86 56 87
REMARK H PARENT 77 43 47 54
REMARK Flexibility Score: inf
ROOT
ATOM      1  O   UNL A   1      33.874  29.625  27.036  1.00  0.00    -0.458 OA
ENDROOT
BRANCH   1   2
ATOM      2  C   UNL A   1      32.447  29.758  26.941  1.00  0.00     0.275 C 
BRANCH   2   3
ATOM      3  C   UNL A   1      32.024  29.927  25.480  1.00  0.00     0.275 C 
BRANCH   3   4
ATOM      4  O   UNL A   1      33.019  29.379  24.589  1.00  0.00    -0.458 OA
BRANCH   4   5
ATOM      5  C   UNL A   1      32.591  28.723  23.477  1.00  0.00     0.342 C 
ATOM      6  O   UNL A   1      33.009  28.905  22.349  1.00  0.00    -0.246 OA
BRANCH   5   7
ATOM      7  C   UNL A   1      31.531  27.720  23.840  1.00  0.00     0.106 A 
ATOM      8  C   UNL A   1      27.716  27.142  23.707  1.00  0.00     0.044 C 
ATOM      9  C   UNL A   1      29.186  27.005  24.006  1.00  0.00    -0.046 A 
ATOM     10  C   UNL A   1      29.606  25.857  24.682  1.00  0.00     0.019 A 
ATOM     11  C   UNL A   1      30.142  27.979  23.623  1.00  0.00    -0.030 A 
ATOM     12  C   UNL A   1      30.961  25.617  24.893  1.00  0.00     0.067 A 
ATOM     13  C   UNL A   1      29.667  29.281  23.019  1.00  0.00     0.046 C 
ATOM     14  C   UNL A   1      31.363  24.446  25.687  1.00  0.00     0.200 A 
ATOM     15  C   UNL A   1      31.934  26.486  24.400  1.00  0.00     0.153 A 
ATOM     16  O   UNL A   1      30.533  23.701  26.194  1.00  0.00    -0.288 OA
ATOM     17  C   UNL A   1      32.798  24.223  25.849  1.00  0.00     0.065 A 
ATOM     18  O   UNL A   1      33.273  26.149  24.426  1.00  0.00    -0.455 OA
ATOM     19  C   UNL A   1      33.281  23.227  26.703  1.00  0.00     0.016 A 
ATOM     20  C   UNL A   1      33.665  25.021  25.110  1.00  0.00     0.138 A 
ATOM     21  C   UNL A   1      34.652  22.999  26.784  1.00  0.00     0.001 A 
ATOM     22  C   UNL A   1      35.027  24.722  25.121  1.00  0.00     0.048 A 
ATOM     23  C   UNL A   1      35.521  23.722  25.966  1.00  0.00     0.004 A 
ENDBRANCH   5   7
ENDBRANCH   4   5
ENDBRANCH   3   4
ENDBRANCH   2   3
ENDBRANCH   1   2
BRANCH   1  24
ATOM     24  C   UNL A   1      34.496  30.624  27.706  1.00  0.00     0.338 C 
ATOM     25  O   UNL A   1      34.018  31.697  28.038  1.00  0.00    -0.246 OA
BRANCH  24  26
ATOM     26  C   UNL A   1      35.791  30.119  28.191  1.00  0.00     0.060 A 
ATOM     27  C   UNL A   1      35.990  29.653  29.494  1.00  0.00     0.016 A 
ATOM     28  C   UNL A   1      36.847  30.135  27.282  1.00  0.00     0.016 A 
ATOM     29  C   UNL A   1      37.274  29.264  29.904  1.00  0.00     0.010 A 
ATOM     30  C   UNL A   1      38.113  29.736  27.692  1.00  0.00     0.010 A 
ATOM     31  C   UNL A   1      38.354  29.344  29.013  1.00  0.00    -0.014 A 
BRANCH  31  32
ATOM     32  C   UNL A   1      39.732  28.932  29.377  1.00  0.00     0.031 A 
ATOM     33  C   UNL A   1      40.674  29.868  30.084  1.00  0.00     0.074 A 
ATOM     34  C   UNL A   1      40.183  27.753  28.916  1.00  0.00     0.049 A 
ATOM     35  N   UNL A   1      41.924  29.675  30.423  1.00  0.00    -0.248 NA
ATOM     36  C   UNL A   1      40.168  31.211  30.406  1.00  0.00     0.031 C 
ATOM     37  C   UNL A   1      39.393  26.816  28.119  1.00  0.00     0.029 A 
ATOM     38  N   UNL A   1      41.408  27.149  29.036  1.00  0.00    -0.354 N 
ATOM     39  C   UNL A   1      42.364  30.872  30.980  1.00  0.00     0.074 A 
ATOM     40  C   UNL A   1      41.258  31.802  30.886  1.00  0.00     0.031 C 
ATOM     41  C   UNL A   1      40.143  25.739  27.846  1.00  0.00     0.029 A 
ATOM     42  C   UNL A   1      41.466  25.911  28.442  1.00  0.00     0.049 A 
ATOM     43  H   UNL A   1      42.172  27.562  29.501  1.00  0.00     0.167 HD
ATOM     44  C   UNL A   1      43.574  31.153  31.528  1.00  0.00     0.031 A 
ATOM     45  C   UNL A   1      42.458  24.998  28.411  1.00  0.00     0.031 A 
ATOM     46  C   UNL A   1      44.641  30.185  31.654  1.00  0.00     0.049 A 
ATOM     47  C   UNL A   1      43.740  25.276  29.143  1.00  0.00     0.074 A 
ATOM     48  C   UNL A   1      45.845  30.324  32.325  1.00  0.00     0.029 A 
ATOM     49  N   UNL A   1      44.636  28.907  31.117  1.00  0.00    -0.354 N 
ATOM     50  N   UNL A   1      44.098  26.363  29.785  1.00  0.00    -0.248 NA
ATOM     51  C   UNL A   1      44.736  24.198  29.182  1.00  0.00     0.031 C 
ATOM     52  C   UNL A   1      46.594  29.161  32.134  1.00  0.00     0.029 A 
ATOM     53  C   UNL A   1      45.823  28.258  31.423  1.00  0.00     0.049 A 
ATOM     54  H   UNL A   1      43.898  28.516  30.595  1.00  0.00     0.167 HD
ATOM     55  C   UNL A   1      45.351  26.089  30.323  1.00  0.00     0.074 A 
ATOM     56  C   UNL A   1      45.677  24.728  29.952  1.00  0.00     0.031 C 
ATOM     57  C   UNL A   1      46.154  26.901  31.056  1.00  0.00     0.031 A 
BRANCH  44  58
ATOM     58  C   UNL A   1      43.826  32.531  32.108  1.00  0.00    -0.014 A 
ATOM     59  C   UNL A   1      43.538  32.791  33.464  1.00  0.00     0.010 A 
ATOM     60  C   UNL A   1      44.161  33.614  31.275  1.00  0.00     0.010 A 
ATOM     61  C   UNL A   1      43.526  34.102  33.958  1.00  0.00     0.020 A 
ATOM     62  C   UNL A   1      44.192  34.921  31.773  1.00  0.00     0.020 A 
ATOM     63  C   UNL A   1      43.840  35.160  33.103  1.00  0.00     0.054 A 
BRANCH  63  64
ATOM     64  S   UNL A   1      43.753  36.859  33.736  1.00  0.00     0.124 S 
ATOM     65  O   UNL A   1      44.944  36.938  34.576  1.00  0.00    -0.237 OA
ATOM     66  O   UNL A   1      43.788  37.657  32.514  1.00  0.00    -0.237 OA
ATOM     67  O   UNL A   1      42.481  36.892  34.454  1.00  0.00    -0.744 OA
ENDBRANCH  63  64
ENDBRANCH  44  58
BRANCH  45  68
ATOM     68  C   UNL A   1      42.184  23.682  27.774  1.00  0.00    -0.014 A 
ATOM     69  C   UNL A   1      41.591  22.635  28.502  1.00  0.00     0.010 A 
ATOM     70  C   UNL A   1      42.655  23.432  26.473  1.00  0.00     0.010 A 
ATOM     71  C   UNL A   1      41.535  21.347  27.966  1.00  0.00     0.020 A 
ATOM     72  C   UNL A   1      42.571  22.153  25.920  1.00  0.00     0.020 A 
ATOM     73  C   UNL A   1      42.043  21.111  26.685  1.00  0.00     0.054 A 
BRANCH  73  74
ATOM     74  S   UNL A   1      42.048  19.414  26.047  1.00  0.00     0.124 S 
ATOM     75  O   UNL A   1      40.639  19.216  25.716  1.00  0.00    -0.237 OA
ATOM     76  O   UNL A   1      42.955  19.506  24.907  1.00  0.00    -0.237 OA
ATOM     77  O   UNL A   1      42.542  18.625  27.172  1.00  0.00    -0.744 OA
ENDBRANCH  73  74
ENDBRANCH  45  68
BRANCH  57  78
ATOM     78  C   UNL A   1      47.488  26.366  31.522  1.00  0.00    -0.014 A 
ATOM     79  C   UNL A   1      48.589  26.373  30.644  1.00  0.00     0.010 A 
ATOM     80  C   UNL A   1      47.616  25.728  32.768  1.00  0.00     0.010 A 
ATOM     81  C   UNL A   1      49.774  25.713  30.982  1.00  0.00     0.020 A 
ATOM     82  C   UNL A   1      48.813  25.096  33.125  1.00  0.00     0.020 A 
ATOM     83  C   UNL A   1      49.873  25.067  32.217  1.00  0.00     0.054 A 
BRANCH  83  84
ATOM     84  S   UNL A   1      51.398  24.166  32.611  1.00  0.00     0.124 S 
ATOM     85  O   UNL A   1      51.490  24.334  34.058  1.00  0.00    -0.237 OA
ATOM     86  O   UNL A   1      51.099  22.813  32.150  1.00  0.00    -0.237 OA
ATOM     87  O   UNL A   1      52.421  24.867  31.836  1.00  0.00    -0.744 OA
ENDBRANCH  83  84
ENDBRANCH  57  78
ENDBRANCH  31  32
ENDBRANCH  24  26
ENDBRANCH   1  24
TORSDOF 14
ENDMDL
MODEL 3
REMARK VINA RESULT:     -11.7      2.634      9.344
REMARK SMILES Cc1cc2c(=O)c3ccccc3oc2c(C(=O)OCCOC(=O)c2ccc(-c3c4nc(c(-c5ccc(S(=O)(=O)[O-])cc5)c5ccc([nH]5)c(-c5ccc(S(=O)(=O)[O-])cc5)c5nc(c(-c6ccc(S(=O)(=O)[O-])cc6)c6ccc3[nH]6)C=C5)C=C4)cc2)c1C
REMARK SMILES IDX 21 1 20 2 19 3 18 4 16 5 17 6 15 7 1 8 2 9 3 10 84 11 4 12
REMARK SMILES IDX 85 13 5 14 14 15 6 16 7 17 13 18 8 19 12 20 9 21 11 22 10 23
REMARK SMILES IDX 22 24 23 25 24 26 25 27 83 28 26 29 82 30 27 31 28 32 29 33
REMARK SMILES IDX 76 34 30 35 81 36 75 37 77 38 31 39 80 40 74 41 73 42 32 44
REMARK SMILES IDX 62 45 43 46 61 47 44 48 47 49 60 50 78 51 45 52 46 53 59 55
REMARK SMILES IDX 79 56 48 57 33 58 34 59 42 60 35 61 41 62 36 63 37 64 38 65
REMARK SMILES IDX 39 66 40 67 63 68 64 69 72 70 65 71 71 72 66 73 67 74 68 75
REMARK SMILES IDX 69 76 70 77 49 78 50 79 58 80 51 81 57 82 52 83 53 84 54 85
REMARK SMILES IDX 55 86 56 87
REMARK H PARENT 77 43 47 54
REMARK Flexibility Score: inf
ROOT
ATOM      1  O   UNL A   1      33.685  29.403  27.168  1.00  0.00    -0.458 OA
ENDROOT
BRANCH   1   2
ATOM      2  C   UNL A   1      33.547  29.224  25.749  1.00  0.00     0.275 C 
BRANCH   2   3
ATOM      3  C   UNL A   1      33.734  27.750  25.378  1.00  0.00     0.275 C 
BRANCH   3   4
ATOM      4  O   UNL A   1      32.547  26.988  25.684  1.00  0.00    -0.458 OA
BRANCH   4   5
ATOM      5  C   UNL A   1      32.072  26.134  24.739  1.00  0.00     0.342 C 
ATOM      6  O   UNL A   1      31.901  26.408  23.566  1.00  0.00    -0.246 OA
BRANCH   5   7
ATOM      7  C   UNL A   1      31.797  24.786  25.346  1.00  0.00     0.106 A 
ATOM      8  C   UNL A   1      29.114  22.820  27.306  1.00  0.00     0.044 C 
ATOM      9  C   UNL A   1      30.399  23.230  26.636  1.00  0.00    -0.046 A 
ATOM     10  C   UNL A   1      31.428  22.288  26.575  1.00  0.00     0.019 A 
ATOM     11  C   UNL A   1      30.593  24.513  26.067  1.00  0.00    -0.030 A 
ATOM     12  C   UNL A   1      32.599  22.565  25.874  1.00  0.00     0.067 A 
ATOM     13  C   UNL A   1      29.533  25.574  26.259  1.00  0.00     0.046 C 
ATOM     14  C   UNL A   1      33.697  21.587  25.907  1.00  0.00     0.200 A 
ATOM     15  C   UNL A   1      32.761  23.764  25.182  1.00  0.00     0.153 A 
ATOM     16  O   UNL A   1      33.617  20.555  26.562  1.00  0.00    -0.288 OA
ATOM     17  C   UNL A   1      34.890  21.912  25.127  1.00  0.00     0.065 A 
ATOM     18  O   UNL A   1      33.824  23.956  24.323  1.00  0.00    -0.455 OA
ATOM     19  C   UNL A   1      36.042  21.123  25.208  1.00  0.00     0.016 A 
ATOM     20  C   UNL A   1      34.834  23.021  24.290  1.00  0.00     0.138 A 
ATOM     21  C   UNL A   1      37.137  21.426  24.403  1.00  0.00     0.001 A 
ATOM     22  C   UNL A   1      35.895  23.258  23.417  1.00  0.00     0.048 A 
ATOM     23  C   UNL A   1      37.050  22.470  23.483  1.00  0.00     0.004 A 
ENDBRANCH   5   7
ENDBRANCH   4   5
ENDBRANCH   3   4
ENDBRANCH   2   3
ENDBRANCH   1   2
BRANCH   1  24
ATOM     24  C   UNL A   1      34.437  30.467  27.537  1.00  0.00     0.338 C 
ATOM     25  O   UNL A   1      34.076  31.630  27.617  1.00  0.00    -0.246 OA
BRANCH  24  26
ATOM     26  C   UNL A   1      35.718  29.968  28.062  1.00  0.00     0.060 A 
ATOM     27  C   UNL A   1      35.879  29.509  29.374  1.00  0.00     0.016 A 
ATOM     28  C   UNL A   1      36.801  29.983  27.186  1.00  0.00     0.016 A 
ATOM     29  C   UNL A   1      37.151  29.125  29.824  1.00  0.00     0.010 A 
ATOM     30  C   UNL A   1      38.055  29.589  27.636  1.00  0.00     0.010 A 
ATOM     31  C   UNL A   1      38.257  29.204  28.965  1.00  0.00    -0.014 A 
BRANCH  31  32
ATOM     32  C   UNL A   1      39.624  28.797  29.373  1.00  0.00     0.031 A 
ATOM     33  C   UNL A   1      40.530  29.727  30.133  1.00  0.00     0.074 A 
ATOM     34  C   UNL A   1      40.104  27.632  28.905  1.00  0.00     0.049 A 
ATOM     35  N   UNL A   1      41.768  29.539  30.515  1.00  0.00    -0.248 NA
ATOM     36  C   UNL A   1      39.999  31.058  30.463  1.00  0.00     0.031 C 
ATOM     37  C   UNL A   1      39.354  26.705  28.059  1.00  0.00     0.029 A 
ATOM     38  N   UNL A   1      41.330  27.037  29.059  1.00  0.00    -0.354 N 
ATOM     39  C   UNL A   1      42.175  30.728  31.113  1.00  0.00     0.074 A 
ATOM     40  C   UNL A   1      41.064  31.649  30.997  1.00  0.00     0.031 C 
ATOM     41  C   UNL A   1      40.125  25.640  27.794  1.00  0.00     0.029 A 
ATOM     42  C   UNL A   1      41.423  25.813  28.443  1.00  0.00     0.049 A 
ATOM     43  H   UNL A   1      42.071  27.447  29.561  1.00  0.00     0.167 HD
ATOM     44  C   UNL A   1      43.360  31.009  31.712  1.00  0.00     0.031 A 
ATOM     45  C   UNL A   1      42.424  24.910  28.430  1.00  0.00     0.031 A 
ATOM     46  C   UNL A   1      44.432  30.049  31.858  1.00  0.00     0.049 A 
ATOM     47  C   UNL A   1      43.674  25.184  29.216  1.00  0.00     0.074 A 
ATOM     48  C   UNL A   1      45.608  30.184  32.577  1.00  0.00     0.029 A 
ATOM     49  N   UNL A   1      44.460  28.781  31.295  1.00  0.00    -0.354 N 
ATOM     50  N   UNL A   1      43.998  26.261  29.893  1.00  0.00    -0.248 NA
ATOM     51  C   UNL A   1      44.679  24.115  29.271  1.00  0.00     0.031 C 
ATOM     52  C   UNL A   1      46.376  29.032  32.391  1.00  0.00     0.029 A 
ATOM     53  C   UNL A   1      45.641  28.137  31.633  1.00  0.00     0.049 A 
ATOM     54  H   UNL A   1      43.745  28.395  30.738  1.00  0.00     0.167 HD
ATOM     55  C   UNL A   1      45.232  25.988  30.472  1.00  0.00     0.074 A 
ATOM     56  C   UNL A   1      45.586  24.638  30.086  1.00  0.00     0.031 C 
ATOM     57  C   UNL A   1      45.998  26.791  31.251  1.00  0.00     0.031 A 
BRANCH  44  58
ATOM     58  C   UNL A   1      43.576  32.377  32.329  1.00  0.00    -0.014 A 
ATOM     59  C   UNL A   1      43.212  32.613  33.671  1.00  0.00     0.010 A 
ATOM     60  C   UNL A   1      43.955  33.474  31.534  1.00  0.00     0.010 A 
ATOM     61  C   UNL A   1      43.170  33.915  34.186  1.00  0.00     0.020 A 
ATOM     62  C   UNL A   1      43.955  34.772  32.057  1.00  0.00     0.020 A 
ATOM     63  C   UNL A   1      43.529  34.988  33.369  1.00  0.00     0.054 A 
BRANCH  63  64
ATOM     64  S   UNL A   1      43.404  36.676  34.025  1.00  0.00     0.124 S 
ATOM     65  O   UNL A   1      42.059  36.688  34.592  1.00  0.00    -0.237 OA
ATOM     66  O   UNL A   1      44.498  36.725  34.991  1.00  0.00    -0.237 OA
ATOM     67  O   UNL A   1      43.590  37.516  32.843  1.00  0.00    -0.744 OA
ENDBRANCH  63  64
ENDBRANCH  44  58
BRANCH  45  68
ATOM     68  C   UNL A   1      42.187  23.604  27.757  1.00  0.00    -0.014 A 
ATOM     69  C   UNL A   1      41.445  22.589  28.386  1.00  0.00     0.010 A 
ATOM     70  C   UNL A   1      42.835  23.327  26.540  1.00  0.00     0.010 A 
ATOM     71  C   UNL A   1      41.411  21.302  27.845  1.00  0.00     0.020 A 
ATOM     72  C   UNL A   1      42.775  22.050  25.978  1.00  0.00     0.020 A 
ATOM     73  C   UNL A   1      42.092  21.037  26.654  1.00  0.00     0.054 A 
BRANCH  73  74
ATOM     74  S   UNL A   1      42.113  19.339  26.019  1.00  0.00     0.124 S 
ATOM     75  O   UNL A   1      42.696  18.608  27.141  1.00  0.00    -0.237 OA
ATOM     76  O   UNL A   1      40.700  19.078  25.764  1.00  0.00    -0.237 OA
ATOM     77  O   UNL A   1      42.953  19.427  24.828  1.00  0.00    -0.744 OA
ENDBRANCH  73  74
ENDBRANCH  45  68
BRANCH  57  78
ATOM     78  C   UNL A   1      47.319  26.259  31.756  1.00  0.00    -0.014 A 
ATOM     79  C   UNL A   1      48.443  26.255  30.906  1.00  0.00     0.010 A 
ATOM     80  C   UNL A   1      47.415  25.634  33.011  1.00  0.00     0.010 A 
ATOM     81  C   UNL A   1      49.618  25.597  31.281  1.00  0.00     0.020 A 
ATOM     82  C   UNL A   1      48.601  25.004  33.406  1.00  0.00     0.020 A 
ATOM     83  C   UNL A   1      49.684  24.964  32.524  1.00  0.00     0.054 A 
BRANCH  83  84
ATOM     84  S   UNL A   1      51.197  24.065  32.966  1.00  0.00     0.124 S 
ATOM     85  O   UNL A   1      50.993  23.797  34.386  1.00  0.00    -0.237 OA
ATOM     86  O   UNL A   1      51.144  22.898  32.090  1.00  0.00    -0.237 OA
ATOM     87  O   UNL A   1      52.264  25.016  32.659  1.00  0.00    -0.744 OA
ENDBRANCH  83  84
ENDBRANCH  57  78
ENDBRANCH  31  32
ENDBRANCH  24  26
ENDBRANCH   1  24
TORSDOF 14
ENDMDL
