MODEL 1
REMARK VINA RESULT:     -14.1      0.000      0.000
REMARK SMILES Cc1ccccc1[C@@H]1[NH2+][C@H](C(=O)OCCOC(=O)c2ccc(-c3c4nc(c(-c5ccc(S(=O)(=O)[O-])cc5)c5ccc([nH]5)c(-c5ccc(S(=O)(=O)[O-])cc5)c5nc(c(-c6ccc(S(=O)(=O)[O-])cc6)c6ccc3[nH]6)C=C5)C=C4)cc2)CC2=c3ccccc3=N[C@H]21
REMARK SMILES IDX 15 1 14 2 13 3 11 4 12 5 10 6 8 7 9 8 88 9 80 12 87 13 79 14
REMARK SMILES IDX 81 15 86 16 82 17 85 18 83 19 84 20 7 21 1 22 2 23 3 24 4 25
REMARK SMILES IDX 6 26 5 27 16 28 17 29 18 30 19 31 20 32 78 33 21 34 77 35
REMARK SMILES IDX 22 36 23 37 24 38 71 39 25 40 76 41 70 42 72 43 26 44 75 45
REMARK SMILES IDX 69 46 68 47 27 49 57 50 38 51 56 52 39 53 42 54 55 55 73 56
REMARK SMILES IDX 40 57 41 58 54 60 74 61 43 62 28 63 29 64 37 65 30 66 36 67
REMARK SMILES IDX 31 68 32 69 33 70 34 71 35 72 58 73 59 74 67 75 60 76 66 77
REMARK SMILES IDX 61 78 62 79 63 80 64 81 65 82 44 83 45 84 53 85 46 86 52 87
REMARK SMILES IDX 47 88 48 89 49 90 50 91 51 92
REMARK H PARENT 9 10 9 11 72 48 42 59
REMARK Flexibility Score: inf
ROOT
ATOM      1  C   UNL A   1      34.128  31.193  28.010  1.00  0.00     0.275 C 
ENDROOT
BRANCH   1   2
ATOM      2  C   UNL A   1      33.277  30.616  26.872  1.00  0.00     0.274 C 
BRANCH   2   3
ATOM      3  O   UNL A   1      32.769  29.323  27.220  1.00  0.00    -0.458 OA
BRANCH   3   4
ATOM      4  C   UNL A   1      33.438  28.302  26.638  1.00  0.00     0.365 C 
ATOM      5  O   UNL A   1      34.570  27.950  26.967  1.00  0.00    -0.245 OA
BRANCH   4   6
ATOM      6  C   UNL A   1      32.795  27.747  25.392  1.00  0.00     0.298 C 
ATOM      7  C   UNL A   1      31.055  27.612  23.667  1.00  0.00     0.243 C 
ATOM      8  N   UNL A   1      31.552  28.366  24.868  1.00  0.00    -0.326 N 
ATOM      9  C   UNL A   1      32.161  27.265  22.575  1.00  0.00     0.196 C 
ATOM     10  H   UNL A   1      30.835  28.349  25.596  1.00  0.00     0.347 HD
ATOM     11  H   UNL A   1      31.751  29.329  24.595  1.00  0.00     0.347 HD
ATOM     12  C   UNL A   1      33.444  26.936  23.276  1.00  0.00    -0.024 C 
ATOM     13  N   UNL A   1      31.823  26.003  21.836  1.00  0.00    -0.270 NA
ATOM     14  C   UNL A   1      33.887  27.866  24.330  1.00  0.00     0.111 C 
ATOM     15  C   UNL A   1      33.753  25.653  23.169  1.00  0.00     0.002 A 
ATOM     16  C   UNL A   1      32.719  25.161  22.254  1.00  0.00     0.066 A 
ATOM     17  C   UNL A   1      34.580  24.782  23.937  1.00  0.00     0.010 A 
ATOM     18  C   UNL A   1      32.783  23.718  21.944  1.00  0.00     0.028 A 
ATOM     19  C   UNL A   1      34.478  23.463  23.714  1.00  0.00     0.001 A 
ATOM     20  C   UNL A   1      33.617  22.943  22.662  1.00  0.00     0.002 A 
BRANCH   7  21
ATOM     21  C   UNL A   1      29.879  28.297  22.968  1.00  0.00     0.015 A 
ATOM     22  C   UNL A   1      28.090  26.729  23.943  1.00  0.00     0.045 C 
ATOM     23  C   UNL A   1      28.528  27.951  23.182  1.00  0.00    -0.042 A 
ATOM     24  C   UNL A   1      27.517  28.815  22.718  1.00  0.00     0.004 A 
ATOM     25  C   UNL A   1      27.823  29.964  21.990  1.00  0.00     0.000 A 
ATOM     26  C   UNL A   1      30.163  29.433  22.176  1.00  0.00     0.010 A 
ATOM     27  C   UNL A   1      29.146  30.255  21.690  1.00  0.00     0.001 A 
ENDBRANCH   7  21
ENDBRANCH   4   6
ENDBRANCH   3   4
ENDBRANCH   2   3
ENDBRANCH   1   2
BRANCH   1  28
ATOM     28  O   UNL A   1      35.262  30.440  28.517  1.00  0.00    -0.458 OA
BRANCH  28  29
ATOM     29  C   UNL A   1      36.507  31.000  28.517  1.00  0.00     0.338 C 
ATOM     30  O   UNL A   1      36.705  32.187  28.685  1.00  0.00    -0.246 OA
BRANCH  29  31
ATOM     31  C   UNL A   1      37.553  29.938  28.497  1.00  0.00     0.060 A 
ATOM     32  C   UNL A   1      38.409  29.794  27.391  1.00  0.00     0.016 A 
ATOM     33  C   UNL A   1      37.839  29.293  29.696  1.00  0.00     0.016 A 
ATOM     34  C   UNL A   1      39.625  29.118  27.526  1.00  0.00     0.010 A 
ATOM     35  C   UNL A   1      39.088  28.763  29.873  1.00  0.00     0.010 A 
ATOM     36  C   UNL A   1      39.976  28.648  28.790  1.00  0.00    -0.014 A 
BRANCH  36  37
ATOM     37  C   UNL A   1      41.088  27.758  29.091  1.00  0.00     0.031 A 
ATOM     38  C   UNL A   1      41.188  26.355  28.637  1.00  0.00     0.074 A 
ATOM     39  C   UNL A   1      42.148  28.457  29.562  1.00  0.00     0.049 A 
ATOM     40  N   UNL A   1      42.131  25.567  29.024  1.00  0.00    -0.248 NA
ATOM     41  C   UNL A   1      40.263  25.686  27.725  1.00  0.00     0.031 C 
ATOM     42  C   UNL A   1      43.559  28.125  29.578  1.00  0.00     0.029 A 
ATOM     43  N   UNL A   1      42.097  29.686  30.236  1.00  0.00    -0.354 N 
ATOM     44  C   UNL A   1      42.140  24.459  28.201  1.00  0.00     0.074 A 
ATOM     45  C   UNL A   1      40.897  24.528  27.476  1.00  0.00     0.031 C 
ATOM     46  C   UNL A   1      44.169  28.917  30.482  1.00  0.00     0.029 A 
ATOM     47  C   UNL A   1      43.121  29.660  31.173  1.00  0.00     0.049 A 
ATOM     48  H   UNL A   1      41.461  30.420  30.076  1.00  0.00     0.167 HD
ATOM     49  C   UNL A   1      43.277  23.706  28.150  1.00  0.00     0.031 A 
ATOM     50  C   UNL A   1      42.837  29.594  32.508  1.00  0.00     0.031 A 
ATOM     51  C   UNL A   1      44.247  24.213  29.118  1.00  0.00     0.049 A 
ATOM     52  C   UNL A   1      43.366  28.301  33.076  1.00  0.00     0.074 A 
ATOM     53  C   UNL A   1      45.346  25.044  28.986  1.00  0.00     0.029 A 
ATOM     54  N   UNL A   1      43.942  24.152  30.468  1.00  0.00    -0.354 N 
ATOM     55  N   UNL A   1      43.486  27.193  32.396  1.00  0.00    -0.248 NA
ATOM     56  C   UNL A   1      43.893  28.192  34.430  1.00  0.00     0.031 C 
ATOM     57  C   UNL A   1      45.650  25.554  30.275  1.00  0.00     0.029 A 
ATOM     58  C   UNL A   1      44.752  25.012  31.181  1.00  0.00     0.049 A 
ATOM     59  H   UNL A   1      43.247  23.577  30.863  1.00  0.00     0.167 HD
ATOM     60  C   UNL A   1      44.201  26.285  33.135  1.00  0.00     0.074 A 
ATOM     61  C   UNL A   1      44.392  26.944  34.415  1.00  0.00     0.031 C 
ATOM     62  C   UNL A   1      44.641  25.093  32.629  1.00  0.00     0.031 A 
BRANCH  49  63
ATOM     63  C   UNL A   1      43.672  22.675  27.112  1.00  0.00    -0.014 A 
ATOM     64  C   UNL A   1      42.809  21.568  26.918  1.00  0.00     0.010 A 
ATOM     65  C   UNL A   1      44.842  22.684  26.331  1.00  0.00     0.010 A 
ATOM     66  C   UNL A   1      43.108  20.509  26.053  1.00  0.00     0.020 A 
ATOM     67  C   UNL A   1      45.155  21.625  25.450  1.00  0.00     0.020 A 
ATOM     68  C   UNL A   1      44.290  20.537  25.327  1.00  0.00     0.054 A 
BRANCH  68  69
ATOM     69  S   UNL A   1      44.658  19.135  24.235  1.00  0.00     0.124 S 
ATOM     70  O   UNL A   1      44.465  19.715  22.908  1.00  0.00    -0.237 OA
ATOM     71  O   UNL A   1      46.038  18.813  24.585  1.00  0.00    -0.237 OA
ATOM     72  O   UNL A   1      43.670  18.129  24.618  1.00  0.00    -0.744 OA
ENDBRANCH  68  69
ENDBRANCH  49  63
BRANCH  50  73
ATOM     73  C   UNL A   1      41.561  30.280  32.900  1.00  0.00    -0.014 A 
ATOM     74  C   UNL A   1      40.463  29.452  33.229  1.00  0.00     0.010 A 
ATOM     75  C   UNL A   1      41.549  31.613  33.357  1.00  0.00     0.010 A 
ATOM     76  C   UNL A   1      39.466  29.885  34.111  1.00  0.00     0.020 A 
ATOM     77  C   UNL A   1      40.537  32.057  34.231  1.00  0.00     0.020 A 
ATOM     78  C   UNL A   1      39.535  31.172  34.642  1.00  0.00     0.054 A 
BRANCH  78  79
ATOM     79  S   UNL A   1      38.418  31.582  36.022  1.00  0.00     0.124 S 
ATOM     80  O   UNL A   1      38.164  30.273  36.615  1.00  0.00    -0.237 OA
ATOM     81  O   UNL A   1      39.251  32.484  36.816  1.00  0.00    -0.237 OA
ATOM     82  O   UNL A   1      37.279  32.207  35.355  1.00  0.00    -0.744 OA
ENDBRANCH  78  79
ENDBRANCH  50  73
BRANCH  62  83
ATOM     83  C   UNL A   1      45.126  23.905  33.428  1.00  0.00    -0.014 A 
ATOM     84  C   UNL A   1      46.404  23.803  33.989  1.00  0.00     0.010 A 
ATOM     85  C   UNL A   1      44.207  22.873  33.756  1.00  0.00     0.010 A 
ATOM     86  C   UNL A   1      46.773  22.702  34.769  1.00  0.00     0.020 A 
ATOM     87  C   UNL A   1      44.541  21.802  34.585  1.00  0.00     0.020 A 
ATOM     88  C   UNL A   1      45.840  21.709  35.061  1.00  0.00     0.054 A 
BRANCH  88  89
ATOM     89  S   UNL A   1      46.334  20.324  36.109  1.00  0.00     0.124 S 
ATOM     90  O   UNL A   1      47.730  20.140  35.720  1.00  0.00    -0.237 OA
ATOM     91  O   UNL A   1      46.124  20.853  37.455  1.00  0.00    -0.237 OA
ATOM     92  O   UNL A   1      45.425  19.250  35.720  1.00  0.00    -0.744 OA
ENDBRANCH  88  89
ENDBRANCH  62  83
ENDBRANCH  36  37
ENDBRANCH  29  31
ENDBRANCH  28  29
ENDBRANCH   1  28
TORSDOF 15
ENDMDL
MODEL 2
REMARK VINA RESULT:     -13.2      2.197      3.167
REMARK SMILES Cc1ccccc1[C@@H]1[NH2+][C@H](C(=O)OCCOC(=O)c2ccc(-c3c4nc(c(-c5ccc(S(=O)(=O)[O-])cc5)c5ccc([nH]5)c(-c5ccc(S(=O)(=O)[O-])cc5)c5nc(c(-c6ccc(S(=O)(=O)[O-])cc6)c6ccc3[nH]6)C=C5)C=C4)cc2)CC2=c3ccccc3=N[C@H]21
REMARK SMILES IDX 15 1 14 2 13 3 11 4 12 5 10 6 8 7 9 8 88 9 80 12 87 13 79 14
REMARK SMILES IDX 81 15 86 16 82 17 85 18 83 19 84 20 7 21 1 22 2 23 3 24 4 25
REMARK SMILES IDX 6 26 5 27 16 28 17 29 18 30 19 31 20 32 78 33 21 34 77 35
REMARK SMILES IDX 22 36 23 37 24 38 71 39 25 40 76 41 70 42 72 43 26 44 75 45
REMARK SMILES IDX 69 46 68 47 27 49 57 50 38 51 56 52 39 53 42 54 55 55 73 56
REMARK SMILES IDX 40 57 41 58 54 60 74 61 43 62 28 63 29 64 37 65 30 66 36 67
REMARK SMILES IDX 31 68 32 69 33 70 34 71 35 72 58 73 59 74 67 75 60 76 66 77
REMARK SMILES IDX 61 78 62 79 63 80 64 81 65 82 44 83 45 84 53 85 46 86 52 87
REMARK SMILES IDX 47 88 48 89 49 90 50 91 51 92
REMARK H PARENT 9 10 9 11 72 48 42 59
REMARK Flexibility Score: inf
ROOT
ATOM      1  C   UNL A   1      32.683  31.846  27.300  1.00  0.00     0.275 C 
ENDROOT
BRANCH   1   2
ATOM      2  C   UNL A   1      32.076  30.532  26.795  1.00  0.00     0.274 C 
BRANCH   2   3
ATOM      3  O   UNL A   1      32.642  29.412  27.485  1.00  0.00    -0.458 OA
BRANCH   3   4
ATOM      4  C   UNL A   1      33.475  28.668  26.722  1.00  0.00     0.365 C 
ATOM      5  O   UNL A   1      34.698  28.656  26.860  1.00  0.00    -0.245 OA
BRANCH   4   6
ATOM      6  C   UNL A   1      32.831  28.011  25.528  1.00  0.00     0.298 C 
ATOM      7  C   UNL A   1      31.091  27.733  23.820  1.00  0.00     0.243 C 
ATOM      8  N   UNL A   1      31.590  28.587  24.953  1.00  0.00    -0.326 N 
ATOM      9  C   UNL A   1      32.197  27.290  22.763  1.00  0.00     0.196 C 
ATOM     10  H   UNL A   1      30.873  28.634  25.678  1.00  0.00     0.347 HD
ATOM     11  H   UNL A   1      31.792  29.521  24.598  1.00  0.00     0.347 HD
ATOM     12  C   UNL A   1      33.478  27.019  23.491  1.00  0.00    -0.024 C 
ATOM     13  N   UNL A   1      31.854  25.971  22.135  1.00  0.00    -0.270 NA
ATOM     14  C   UNL A   1      33.924  28.034  24.461  1.00  0.00     0.111 C 
ATOM     15  C   UNL A   1      33.783  25.730  23.494  1.00  0.00     0.002 A 
ATOM     16  C   UNL A   1      32.747  25.164  22.624  1.00  0.00     0.066 A 
ATOM     17  C   UNL A   1      34.607  24.926  24.335  1.00  0.00     0.010 A 
ATOM     18  C   UNL A   1      32.807  23.700  22.440  1.00  0.00     0.028 A 
ATOM     19  C   UNL A   1      34.501  23.593  24.226  1.00  0.00     0.001 A 
ATOM     20  C   UNL A   1      33.638  22.987  23.222  1.00  0.00     0.002 A 
BRANCH   7  21
ATOM     21  C   UNL A   1      29.917  28.360  23.064  1.00  0.00     0.015 A 
ATOM     22  C   UNL A   1      28.165  26.699  23.949  1.00  0.00     0.045 C 
ATOM     23  C   UNL A   1      28.577  27.943  23.211  1.00  0.00    -0.042 A 
ATOM     24  C   UNL A   1      27.548  28.756  22.699  1.00  0.00     0.004 A 
ATOM     25  C   UNL A   1      27.829  29.922  21.987  1.00  0.00     0.000 A 
ATOM     26  C   UNL A   1      30.181  29.511  22.289  1.00  0.00     0.010 A 
ATOM     27  C   UNL A   1      29.149  30.281  21.753  1.00  0.00     0.001 A 
ENDBRANCH   7  21
ENDBRANCH   4   6
ENDBRANCH   3   4
ENDBRANCH   2   3
ENDBRANCH   1   2
BRANCH   1  28
ATOM     28  O   UNL A   1      34.123  32.033  27.277  1.00  0.00    -0.458 OA
BRANCH  28  29
ATOM     29  C   UNL A   1      34.719  32.851  28.193  1.00  0.00     0.338 C 
ATOM     30  O   UNL A   1      34.286  33.946  28.493  1.00  0.00    -0.246 OA
BRANCH  29  31
ATOM     31  C   UNL A   1      35.817  32.128  28.896  1.00  0.00     0.060 A 
ATOM     32  C   UNL A   1      35.607  30.839  29.418  1.00  0.00     0.016 A 
ATOM     33  C   UNL A   1      37.106  32.636  28.774  1.00  0.00     0.016 A 
ATOM     34  C   UNL A   1      36.696  30.004  29.687  1.00  0.00     0.010 A 
ATOM     35  C   UNL A   1      38.163  31.776  28.891  1.00  0.00     0.010 A 
ATOM     36  C   UNL A   1      37.972  30.468  29.372  1.00  0.00    -0.014 A 
BRANCH  36  37
ATOM     37  C   UNL A   1      39.228  29.841  29.755  1.00  0.00     0.031 A 
ATOM     38  C   UNL A   1      39.776  28.614  29.140  1.00  0.00     0.074 A 
ATOM     39  C   UNL A   1      39.973  30.682  30.511  1.00  0.00     0.049 A 
ATOM     40  N   UNL A   1      40.831  28.027  29.589  1.00  0.00    -0.248 NA
ATOM     41  C   UNL A   1      39.216  27.916  27.985  1.00  0.00     0.031 C 
ATOM     42  C   UNL A   1      41.402  30.712  30.751  1.00  0.00     0.029 A 
ATOM     43  N   UNL A   1      39.486  31.716  31.325  1.00  0.00    -0.354 N 
ATOM     44  C   UNL A   1      41.266  27.125  28.638  1.00  0.00     0.074 A 
ATOM     45  C   UNL A   1      40.174  27.016  27.706  1.00  0.00     0.031 C 
ATOM     46  C   UNL A   1      41.630  31.451  31.854  1.00  0.00     0.029 A 
ATOM     47  C   UNL A   1      40.328  31.773  32.428  1.00  0.00     0.049 A 
ATOM     48  H   UNL A   1      38.704  32.287  31.149  1.00  0.00     0.167 HD
ATOM     49  C   UNL A   1      42.561  26.698  28.703  1.00  0.00     0.031 A 
ATOM     50  C   UNL A   1      39.879  31.396  33.662  1.00  0.00     0.031 A 
ATOM     51  C   UNL A   1      43.200  27.243  29.898  1.00  0.00     0.049 A 
ATOM     52  C   UNL A   1      40.654  30.192  34.138  1.00  0.00     0.074 A 
ATOM     53  C   UNL A   1      44.034  28.330  30.093  1.00  0.00     0.029 A 
ATOM     54  N   UNL A   1      42.727  26.863  31.144  1.00  0.00    -0.354 N 
ATOM     55  N   UNL A   1      41.173  29.291  33.347  1.00  0.00    -0.248 NA
ATOM     56  C   UNL A   1      40.984  29.971  35.539  1.00  0.00     0.031 C 
ATOM     57  C   UNL A   1      43.993  28.655  31.475  1.00  0.00     0.029 A 
ATOM     58  C   UNL A   1      43.155  27.751  32.109  1.00  0.00     0.049 A 
ATOM     59  H   UNL A   1      42.167  26.072  31.316  1.00  0.00     0.167 HD
ATOM     60  C   UNL A   1      41.992  28.469  34.078  1.00  0.00     0.074 A 
ATOM     61  C   UNL A   1      41.803  28.909  35.449  1.00  0.00     0.031 C 
ATOM     62  C   UNL A   1      42.812  27.536  33.507  1.00  0.00     0.031 A 
BRANCH  49  63
ATOM     63  C   UNL A   1      43.373  26.004  27.627  1.00  0.00    -0.014 A 
ATOM     64  C   UNL A   1      43.502  24.596  27.702  1.00  0.00     0.010 A 
ATOM     65  C   UNL A   1      44.052  26.627  26.563  1.00  0.00     0.010 A 
ATOM     66  C   UNL A   1      44.297  23.854  26.821  1.00  0.00     0.020 A 
ATOM     67  C   UNL A   1      44.853  25.891  25.662  1.00  0.00     0.020 A 
ATOM     68  C   UNL A   1      44.980  24.509  25.806  1.00  0.00     0.054 A 
BRANCH  68  69
ATOM     69  S   UNL A   1      46.021  23.519  24.696  1.00  0.00     0.124 S 
ATOM     70  O   UNL A   1      47.048  24.477  24.295  1.00  0.00    -0.237 OA
ATOM     71  O   UNL A   1      46.476  22.439  25.566  1.00  0.00    -0.237 OA
ATOM     72  O   UNL A   1      45.105  23.114  23.632  1.00  0.00    -0.744 OA
ENDBRANCH  68  69
ENDBRANCH  49  63
BRANCH  50  73
ATOM     73  C   UNL A   1      38.420  31.662  33.893  1.00  0.00    -0.014 A 
ATOM     74  C   UNL A   1      38.088  32.844  34.597  1.00  0.00     0.010 A 
ATOM     75  C   UNL A   1      37.424  31.059  33.101  1.00  0.00     0.010 A 
ATOM     76  C   UNL A   1      36.861  33.486  34.397  1.00  0.00     0.020 A 
ATOM     77  C   UNL A   1      36.182  31.695  32.910  1.00  0.00     0.020 A 
ATOM     78  C   UNL A   1      35.933  32.930  33.518  1.00  0.00     0.054 A 
BRANCH  78  79
ATOM     79  S   UNL A   1      34.502  33.950  33.036  1.00  0.00     0.124 S 
ATOM     80  O   UNL A   1      34.796  34.257  31.640  1.00  0.00    -0.237 OA
ATOM     81  O   UNL A   1      33.393  33.024  33.258  1.00  0.00    -0.237 OA
ATOM     82  O   UNL A   1      34.570  35.078  33.960  1.00  0.00    -0.744 OA
ENDBRANCH  78  79
ENDBRANCH  50  73
BRANCH  62  83
ATOM     83  C   UNL A   1      43.483  26.379  34.213  1.00  0.00    -0.014 A 
ATOM     84  C   UNL A   1      42.794  25.345  34.856  1.00  0.00     0.010 A 
ATOM     85  C   UNL A   1      44.893  26.240  34.122  1.00  0.00     0.010 A 
ATOM     86  C   UNL A   1      43.473  24.270  35.441  1.00  0.00     0.020 A 
ATOM     87  C   UNL A   1      45.577  25.142  34.643  1.00  0.00     0.020 A 
ATOM     88  C   UNL A   1      44.859  24.176  35.332  1.00  0.00     0.054 A 
BRANCH  88  89
ATOM     89  S   UNL A   1      45.700  22.753  36.057  1.00  0.00     0.124 S 
ATOM     90  O   UNL A   1      47.067  22.938  35.576  1.00  0.00    -0.237 OA
ATOM     91  O   UNL A   1      45.506  22.965  37.490  1.00  0.00    -0.237 OA
ATOM     92  O   UNL A   1      44.988  21.606  35.502  1.00  0.00    -0.744 OA
ENDBRANCH  88  89
ENDBRANCH  62  83
ENDBRANCH  36  37
ENDBRANCH  29  31
ENDBRANCH  28  29
ENDBRANCH   1  28
TORSDOF 15
ENDMDL
MODEL 3
REMARK VINA RESULT:     -13.1      2.237      3.330
REMARK SMILES Cc1ccccc1[C@@H]1[NH2+][C@H](C(=O)OCCOC(=O)c2ccc(-c3c4nc(c(-c5ccc(S(=O)(=O)[O-])cc5)c5ccc([nH]5)c(-c5ccc(S(=O)(=O)[O-])cc5)c5nc(c(-c6ccc(S(=O)(=O)[O-])cc6)c6ccc3[nH]6)C=C5)C=C4)cc2)CC2=c3ccccc3=N[C@H]21
REMARK SMILES IDX 15 1 14 2 13 3 11 4 12 5 10 6 8 7 9 8 88 9 80 12 87 13 79 14
REMARK SMILES IDX 81 15 86 16 82 17 85 18 83 19 84 20 7 21 1 22 2 23 3 24 4 25
REMARK SMILES IDX 6 26 5 27 16 28 17 29 18 30 19 31 20 32 78 33 21 34 77 35
REMARK SMILES IDX 22 36 23 37 24 38 71 39 25 40 76 41 70 42 72 43 26 44 75 45
REMARK SMILES IDX 69 46 68 47 27 49 57 50 38 51 56 52 39 53 42 54 55 55 73 56
REMARK SMILES IDX 40 57 41 58 54 60 74 61 43 62 28 63 29 64 37 65 30 66 36 67
REMARK SMILES IDX 31 68 32 69 33 70 34 71 35 72 58 73 59 74 67 75 60 76 66 77
REMARK SMILES IDX 61 78 62 79 63 80 64 81 65 82 44 83 45 84 53 85 46 86 52 87
REMARK SMILES IDX 47 88 48 89 49 90 50 91 51 92
REMARK H PARENT 9 10 9 11 72 48 42 59
REMARK Flexibility Score: inf
ROOT
ATOM      1  C   UNL A   1      33.592  32.177  27.433  1.00  0.00     0.275 C 
ENDROOT
BRANCH   1   2
ATOM      2  C   UNL A   1      34.036  30.720  27.606  1.00  0.00     0.274 C 
BRANCH   2   3
ATOM      3  O   UNL A   1      33.110  29.827  26.977  1.00  0.00    -0.458 OA
BRANCH   3   4
ATOM      4  C   UNL A   1      33.674  28.676  26.543  1.00  0.00     0.365 C 
ATOM      5  O   UNL A   1      34.782  28.280  26.903  1.00  0.00    -0.245 OA
BRANCH   4   6
ATOM      6  C   UNL A   1      32.952  28.003  25.403  1.00  0.00     0.298 C 
ATOM      7  C   UNL A   1      31.124  27.729  23.789  1.00  0.00     0.243 C 
ATOM      8  N   UNL A   1      31.703  28.601  24.868  1.00  0.00    -0.326 N 
ATOM      9  C   UNL A   1      32.163  27.218  22.695  1.00  0.00     0.196 C 
ATOM     10  H   UNL A   1      31.025  28.694  25.625  1.00  0.00     0.347 HD
ATOM     11  H   UNL A   1      31.917  29.516  24.474  1.00  0.00     0.347 HD
ATOM     12  C   UNL A   1      33.469  26.928  23.370  1.00  0.00    -0.024 C 
ATOM     13  N   UNL A   1      31.750  25.891  22.128  1.00  0.00    -0.270 NA
ATOM     14  C   UNL A   1      33.993  27.957  24.284  1.00  0.00     0.111 C 
ATOM     15  C   UNL A   1      33.734  25.630  23.402  1.00  0.00     0.002 A 
ATOM     16  C   UNL A   1      32.640  25.071  22.601  1.00  0.00     0.066 A 
ATOM     17  C   UNL A   1      34.572  24.826  24.228  1.00  0.00     0.010 A 
ATOM     18  C   UNL A   1      32.646  23.601  22.462  1.00  0.00     0.028 A 
ATOM     19  C   UNL A   1      34.420  23.495  24.168  1.00  0.00     0.001 A 
ATOM     20  C   UNL A   1      33.492  22.886  23.227  1.00  0.00     0.002 A 
BRANCH   7  21
ATOM     21  C   UNL A   1      29.935  28.369  23.070  1.00  0.00     0.015 A 
ATOM     22  C   UNL A   1      28.202  26.691  23.958  1.00  0.00     0.045 C 
ATOM     23  C   UNL A   1      28.598  27.949  23.236  1.00  0.00    -0.042 A 
ATOM     24  C   UNL A   1      27.558  28.771  22.761  1.00  0.00     0.004 A 
ATOM     25  C   UNL A   1      27.825  29.950  22.066  1.00  0.00     0.000 A 
ATOM     26  C   UNL A   1      30.183  29.535  22.311  1.00  0.00     0.010 A 
ATOM     27  C   UNL A   1      29.140  30.315  21.812  1.00  0.00     0.001 A 
ENDBRANCH   7  21
ENDBRANCH   4   6
ENDBRANCH   3   4
ENDBRANCH   2   3
ENDBRANCH   1   2
BRANCH   1  28
ATOM     28  O   UNL A   1      34.468  33.254  27.858  1.00  0.00    -0.458 OA
BRANCH  28  29
ATOM     29  C   UNL A   1      34.588  33.552  29.185  1.00  0.00     0.338 C 
ATOM     30  O   UNL A   1      33.735  34.142  29.818  1.00  0.00    -0.246 OA
BRANCH  29  31
ATOM     31  C   UNL A   1      35.784  32.874  29.761  1.00  0.00     0.060 A 
ATOM     32  C   UNL A   1      35.639  31.861  30.726  1.00  0.00     0.016 A 
ATOM     33  C   UNL A   1      37.006  33.068  29.124  1.00  0.00     0.016 A 
ATOM     34  C   UNL A   1      36.677  30.951  30.951  1.00  0.00     0.010 A 
ATOM     35  C   UNL A   1      37.963  32.097  29.231  1.00  0.00     0.010 A 
ATOM     36  C   UNL A   1      37.820  31.051  30.159  1.00  0.00    -0.014 A 
BRANCH  36  37
ATOM     37  C   UNL A   1      39.071  30.338  30.371  1.00  0.00     0.031 A 
ATOM     38  C   UNL A   1      39.380  29.003  29.819  1.00  0.00     0.074 A 
ATOM     39  C   UNL A   1      40.020  31.170  30.862  1.00  0.00     0.049 A 
ATOM     40  N   UNL A   1      40.451  28.357  30.128  1.00  0.00    -0.248 NA
ATOM     41  C   UNL A   1      38.544  28.250  28.887  1.00  0.00     0.031 C 
ATOM     42  C   UNL A   1      41.465  31.074  30.821  1.00  0.00     0.029 A 
ATOM     43  N   UNL A   1      39.794  32.329  31.620  1.00  0.00    -0.354 N 
ATOM     44  C   UNL A   1      40.611  27.320  29.231  1.00  0.00     0.074 A 
ATOM     45  C   UNL A   1      39.348  27.230  28.544  1.00  0.00     0.031 C 
ATOM     46  C   UNL A   1      41.971  31.896  31.761  1.00  0.00     0.029 A 
ATOM     47  C   UNL A   1      40.842  32.412  32.528  1.00  0.00     0.049 A 
ATOM     48  H   UNL A   1      39.043  32.958  31.526  1.00  0.00     0.167 HD
ATOM     49  C   UNL A   1      41.852  26.769  29.100  1.00  0.00     0.031 A 
ATOM     50  C   UNL A   1      40.620  32.216  33.861  1.00  0.00     0.031 A 
ATOM     51  C   UNL A   1      42.761  27.365  30.076  1.00  0.00     0.049 A 
ATOM     52  C   UNL A   1      41.372  30.993  34.326  1.00  0.00     0.074 A 
ATOM     53  C   UNL A   1      43.705  28.372  29.974  1.00  0.00     0.029 A 
ATOM     54  N   UNL A   1      42.519  27.169  31.426  1.00  0.00    -0.354 N 
ATOM     55  N   UNL A   1      41.645  29.965  33.568  1.00  0.00    -0.248 NA
ATOM     56  C   UNL A   1      41.958  30.887  35.655  1.00  0.00     0.031 C 
ATOM     57  C   UNL A   1      43.969  28.842  31.287  1.00  0.00     0.029 A 
ATOM     58  C   UNL A   1      43.204  28.103  32.176  1.00  0.00     0.049 A 
ATOM     59  H   UNL A   1      41.940  26.464  31.798  1.00  0.00     0.167 HD
ATOM     60  C   UNL A   1      42.524  29.142  34.226  1.00  0.00     0.074 A 
ATOM     61  C   UNL A   1      42.651  29.740  35.543  1.00  0.00     0.031 C 
ATOM     62  C   UNL A   1      43.132  28.072  33.629  1.00  0.00     0.031 A 
BRANCH  49  63
ATOM     63  C   UNL A   1      42.371  25.884  27.984  1.00  0.00    -0.014 A 
ATOM     64  C   UNL A   1      43.259  24.836  28.330  1.00  0.00     0.010 A 
ATOM     65  C   UNL A   1      42.086  26.019  26.613  1.00  0.00     0.010 A 
ATOM     66  C   UNL A   1      43.872  24.010  27.380  1.00  0.00     0.020 A 
ATOM     67  C   UNL A   1      42.692  25.189  25.644  1.00  0.00     0.020 A 
ATOM     68  C   UNL A   1      43.593  24.198  26.034  1.00  0.00     0.054 A 
BRANCH  68  69
ATOM     69  S   UNL A   1      44.424  23.126  24.829  1.00  0.00     0.124 S 
ATOM     70  O   UNL A   1      43.330  22.756  23.934  1.00  0.00    -0.237 OA
ATOM     71  O   UNL A   1      45.431  24.013  24.256  1.00  0.00    -0.237 OA
ATOM     72  O   UNL A   1      44.952  22.033  25.643  1.00  0.00    -0.744 OA
ENDBRANCH  68  69
ENDBRANCH  49  63
BRANCH  50  73
ATOM     73  C   UNL A   1      39.265  32.657  34.331  1.00  0.00    -0.014 A 
ATOM     74  C   UNL A   1      39.039  34.051  34.417  1.00  0.00     0.010 A 
ATOM     75  C   UNL A   1      38.145  31.806  34.260  1.00  0.00     0.010 A 
ATOM     76  C   UNL A   1      37.753  34.587  34.281  1.00  0.00     0.020 A 
ATOM     77  C   UNL A   1      36.849  32.343  34.138  1.00  0.00     0.020 A 
ATOM     78  C   UNL A   1      36.671  33.729  34.096  1.00  0.00     0.054 A 
BRANCH  78  79
ATOM     79  S   UNL A   1      35.080  34.465  33.598  1.00  0.00     0.124 S 
ATOM     80  O   UNL A   1      34.802  35.380  34.700  1.00  0.00    -0.237 OA
ATOM     81  O   UNL A   1      35.433  35.096  32.327  1.00  0.00    -0.237 OA
ATOM     82  O   UNL A   1      34.195  33.308  33.498  1.00  0.00    -0.744 OA
ENDBRANCH  78  79
ENDBRANCH  50  73
BRANCH  62  83
ATOM     83  C   UNL A   1      43.832  26.932  34.332  1.00  0.00    -0.014 A 
ATOM     84  C   UNL A   1      45.215  26.721  34.304  1.00  0.00     0.010 A 
ATOM     85  C   UNL A   1      43.080  26.084  35.187  1.00  0.00     0.010 A 
ATOM     86  C   UNL A   1      45.809  25.679  35.025  1.00  0.00     0.020 A 
ATOM     87  C   UNL A   1      43.666  25.084  35.962  1.00  0.00     0.020 A 
ATOM     88  C   UNL A   1      45.031  24.867  35.849  1.00  0.00     0.054 A 
BRANCH  88  89
ATOM     89  S   UNL A   1      45.833  23.562  36.803  1.00  0.00     0.124 S 
ATOM     90  O   UNL A   1      45.308  23.808  38.144  1.00  0.00    -0.237 OA
ATOM     91  O   UNL A   1      45.347  22.347  36.153  1.00  0.00    -0.237 OA
ATOM     92  O   UNL A   1      47.258  23.827  36.628  1.00  0.00    -0.744 OA
ENDBRANCH  88  89
ENDBRANCH  62  83
ENDBRANCH  36  37
ENDBRANCH  29  31
ENDBRANCH  28  29
ENDBRANCH   1  28
TORSDOF 15
ENDMDL
