MODEL 1
REMARK VINA RESULT:     -11.9      0.000      0.000
REMARK SMILES O=C(OCCOC(=O)c1cnc2c(ccn2C2CCCCC2)c1)c1ccc(-c2c3nc(c(-c4ccc(S(=O)(=O)[O-])cc4)c4ccc([nH]4)c(-c4ccc(S(=O)(=O)[O-])cc4)c4nc(c(-c5ccc(S(=O)(=O)[O-])cc5)c5ccc2[nH]5)C=C4)C=C3)cc1
REMARK SMILES IDX 4 1 3 2 2 3 1 4 24 5 25 6 83 7 26 8 82 9 27 10 28 11 29 12
REMARK SMILES IDX 76 13 30 14 81 15 75 16 77 17 31 18 80 19 74 20 73 21 32 23
REMARK SMILES IDX 62 24 43 25 61 26 44 27 47 28 60 29 78 30 45 31 46 32 59 34
REMARK SMILES IDX 79 35 48 36 33 37 34 38 42 39 35 40 41 41 36 42 37 43 38 44
REMARK SMILES IDX 39 45 40 46 63 47 64 48 72 49 65 50 71 51 66 52 67 53 68 54
REMARK SMILES IDX 69 55 70 56 49 57 50 58 58 59 51 60 57 61 52 62 53 63 54 64
REMARK SMILES IDX 55 65 56 66 5 67 6 68 7 69 8 70 9 71 10 72 23 73 11 74 13 75
REMARK SMILES IDX 12 76 14 77 16 78 15 79 17 80 18 81 22 82 19 83 21 84 20 85
REMARK H PARENT 77 22 47 33
REMARK Flexibility Score: inf
ROOT
ATOM      1  C   UNL A   1      40.808  19.965  26.572  1.00  0.00     0.275 C 
ENDROOT
BRANCH   1   2
ATOM      2  O   UNL A   1      40.888  21.297  27.121  1.00  0.00    -0.458 OA
BRANCH   2   3
ATOM      3  C   UNL A   1      40.080  22.280  26.665  1.00  0.00     0.338 C 
ATOM      4  O   UNL A   1      39.052  22.060  26.041  1.00  0.00    -0.246 OA
BRANCH   3   5
ATOM      5  C   UNL A   1      40.399  23.634  27.190  1.00  0.00     0.060 A 
ATOM      6  C   UNL A   1      41.411  23.873  28.121  1.00  0.00     0.016 A 
ATOM      7  C   UNL A   1      39.647  24.711  26.693  1.00  0.00     0.016 A 
ATOM      8  C   UNL A   1      41.634  25.157  28.593  1.00  0.00     0.010 A 
ATOM      9  C   UNL A   1      39.883  26.002  27.147  1.00  0.00     0.010 A 
ATOM     10  C   UNL A   1      40.850  26.213  28.127  1.00  0.00    -0.014 A 
BRANCH  10  11
ATOM     11  C   UNL A   1      41.089  27.523  28.716  1.00  0.00     0.031 A 
ATOM     12  C   UNL A   1      42.398  28.162  28.407  1.00  0.00     0.074 A 
ATOM     13  C   UNL A   1      40.167  28.159  29.460  1.00  0.00     0.049 A 
ATOM     14  N   UNL A   1      43.376  28.420  29.214  1.00  0.00    -0.248 NA
ATOM     15  C   UNL A   1      42.675  28.488  27.003  1.00  0.00     0.031 C 
ATOM     16  C   UNL A   1      38.752  27.822  29.640  1.00  0.00     0.029 A 
ATOM     17  N   UNL A   1      40.300  29.322  30.150  1.00  0.00    -0.354 N 
ATOM     18  C   UNL A   1      44.327  29.105  28.460  1.00  0.00     0.074 A 
ATOM     19  C   UNL A   1      43.898  29.010  27.085  1.00  0.00     0.031 C 
ATOM     20  C   UNL A   1      38.114  28.874  30.199  1.00  0.00     0.029 A 
ATOM     21  C   UNL A   1      39.098  29.883  30.554  1.00  0.00     0.049 A 
ATOM     22  H   UNL A   1      41.174  29.731  30.346  1.00  0.00     0.167 HD
ATOM     23  C   UNL A   1      45.303  29.872  29.023  1.00  0.00     0.031 A 
ATOM     24  C   UNL A   1      38.929  31.118  31.082  1.00  0.00     0.031 A 
ATOM     25  C   UNL A   1      45.491  29.592  30.419  1.00  0.00     0.049 A 
ATOM     26  C   UNL A   1      40.237  31.529  31.651  1.00  0.00     0.074 A 
ATOM     27  C   UNL A   1      45.865  28.481  31.148  1.00  0.00     0.029 A 
ATOM     28  N   UNL A   1      44.931  30.462  31.324  1.00  0.00    -0.354 N 
ATOM     29  N   UNL A   1      40.807  30.929  32.660  1.00  0.00    -0.248 NA
ATOM     30  C   UNL A   1      41.117  32.360  30.846  1.00  0.00     0.031 C 
ATOM     31  C   UNL A   1      45.072  28.536  32.333  1.00  0.00     0.029 A 
ATOM     32  C   UNL A   1      44.297  29.697  32.270  1.00  0.00     0.049 A 
ATOM     33  H   UNL A   1      44.976  31.445  31.298  1.00  0.00     0.167 HD
ATOM     34  C   UNL A   1      42.166  30.978  32.389  1.00  0.00     0.074 A 
ATOM     35  C   UNL A   1      42.301  31.960  31.317  1.00  0.00     0.031 C 
ATOM     36  C   UNL A   1      43.024  30.032  32.874  1.00  0.00     0.031 A 
BRANCH  23  37
ATOM     37  C   UNL A   1      45.841  31.125  28.377  1.00  0.00    -0.014 A 
ATOM     38  C   UNL A   1      45.088  32.316  28.424  1.00  0.00     0.010 A 
ATOM     39  C   UNL A   1      46.936  31.093  27.488  1.00  0.00     0.010 A 
ATOM     40  C   UNL A   1      45.388  33.398  27.583  1.00  0.00     0.020 A 
ATOM     41  C   UNL A   1      47.269  32.180  26.678  1.00  0.00     0.020 A 
ATOM     42  C   UNL A   1      46.472  33.316  26.706  1.00  0.00     0.054 A 
BRANCH  42  43
ATOM     43  S   UNL A   1      46.768  34.659  25.527  1.00  0.00     0.124 S 
ATOM     44  O   UNL A   1      46.570  35.843  26.360  1.00  0.00    -0.237 OA
ATOM     45  O   UNL A   1      48.143  34.402  25.109  1.00  0.00    -0.237 OA
ATOM     46  O   UNL A   1      45.755  34.440  24.498  1.00  0.00    -0.744 OA
ENDBRANCH  42  43
ENDBRANCH  23  37
BRANCH  24  47
ATOM     47  C   UNL A   1      37.835  32.075  30.776  1.00  0.00    -0.014 A 
ATOM     48  C   UNL A   1      37.960  32.991  29.715  1.00  0.00     0.010 A 
ATOM     49  C   UNL A   1      36.555  31.899  31.342  1.00  0.00     0.010 A 
ATOM     50  C   UNL A   1      36.832  33.640  29.186  1.00  0.00     0.020 A 
ATOM     51  C   UNL A   1      35.429  32.552  30.829  1.00  0.00     0.020 A 
ATOM     52  C   UNL A   1      35.568  33.392  29.728  1.00  0.00     0.054 A 
BRANCH  52  53
ATOM     53  S   UNL A   1      34.099  34.089  28.920  1.00  0.00     0.124 S 
ATOM     54  O   UNL A   1      33.614  32.964  28.125  1.00  0.00    -0.237 OA
ATOM     55  O   UNL A   1      33.267  34.462  30.061  1.00  0.00    -0.237 OA
ATOM     56  O   UNL A   1      34.629  35.210  28.147  1.00  0.00    -0.744 OA
ENDBRANCH  52  53
ENDBRANCH  24  47
BRANCH  36  57
ATOM     57  C   UNL A   1      42.519  29.070  33.925  1.00  0.00    -0.014 A 
ATOM     58  C   UNL A   1      41.851  27.871  33.606  1.00  0.00     0.010 A 
ATOM     59  C   UNL A   1      42.910  29.289  35.257  1.00  0.00     0.010 A 
ATOM     60  C   UNL A   1      41.588  26.913  34.597  1.00  0.00     0.020 A 
ATOM     61  C   UNL A   1      42.662  28.332  36.246  1.00  0.00     0.020 A 
ATOM     62  C   UNL A   1      42.011  27.145  35.910  1.00  0.00     0.054 A 
BRANCH  62  63
ATOM     63  S   UNL A   1      41.750  25.860  37.167  1.00  0.00     0.124 S 
ATOM     64  O   UNL A   1      42.717  26.217  38.201  1.00  0.00    -0.237 OA
ATOM     65  O   UNL A   1      40.346  26.048  37.528  1.00  0.00    -0.237 OA
ATOM     66  O   UNL A   1      42.037  24.613  36.458  1.00  0.00    -0.744 OA
ENDBRANCH  62  63
ENDBRANCH  36  57
ENDBRANCH  10  11
ENDBRANCH   3   5
ENDBRANCH   2   3
ENDBRANCH   1   2
BRANCH   1  67
ATOM     67  C   UNL A   1      42.126  19.226  26.334  1.00  0.00     0.275 C 
BRANCH  67  68
ATOM     68  O   UNL A   1      42.677  19.521  25.040  1.00  0.00    -0.458 OA
BRANCH  68  69
ATOM     69  C   UNL A   1      44.029  19.601  24.980  1.00  0.00     0.339 C 
ATOM     70  O   UNL A   1      44.827  18.689  24.800  1.00  0.00    -0.246 OA
BRANCH  69  71
ATOM     71  C   UNL A   1      44.424  20.989  25.186  1.00  0.00     0.079 A 
ATOM     72  C   UNL A   1      45.703  21.268  25.641  1.00  0.00     0.129 A 
ATOM     73  C   UNL A   1      43.546  22.034  24.903  1.00  0.00     0.029 A 
ATOM     74  N   UNL A   1      46.204  22.508  25.843  1.00  0.00    -0.237 NA
ATOM     75  C   UNL A   1      43.990  23.336  25.181  1.00  0.00     0.020 A 
ATOM     76  C   UNL A   1      45.307  23.492  25.616  1.00  0.00     0.140 A 
ATOM     77  C   UNL A   1      43.411  24.631  25.129  1.00  0.00     0.030 A 
ATOM     78  N   UNL A   1      45.548  24.842  25.731  1.00  0.00    -0.329 N 
ATOM     79  C   UNL A   1      44.382  25.537  25.500  1.00  0.00     0.088 A 
BRANCH  78  80
ATOM     80  C   UNL A   1      46.853  25.472  25.923  1.00  0.00     0.088 C 
ATOM     81  C   UNL A   1      47.703  25.526  24.646  1.00  0.00     0.025 C 
ATOM     82  C   UNL A   1      46.703  26.854  26.583  1.00  0.00     0.025 C 
ATOM     83  C   UNL A   1      49.044  26.217  24.896  1.00  0.00     0.002 C 
ATOM     84  C   UNL A   1      48.053  27.527  26.808  1.00  0.00     0.002 C 
ATOM     85  C   UNL A   1      48.859  27.600  25.515  1.00  0.00     0.000 C 
ENDBRANCH  78  80
ENDBRANCH  69  71
ENDBRANCH  68  69
ENDBRANCH  67  68
ENDBRANCH   1  67
TORSDOF 15
ENDMDL
MODEL 2
REMARK VINA RESULT:     -11.4      2.675     11.725
REMARK SMILES O=C(OCCOC(=O)c1cnc2c(ccn2C2CCCCC2)c1)c1ccc(-c2c3nc(c(-c4ccc(S(=O)(=O)[O-])cc4)c4ccc([nH]4)c(-c4ccc(S(=O)(=O)[O-])cc4)c4nc(c(-c5ccc(S(=O)(=O)[O-])cc5)c5ccc2[nH]5)C=C4)C=C3)cc1
REMARK SMILES IDX 4 1 3 2 2 3 1 4 24 5 25 6 83 7 26 8 82 9 27 10 28 11 29 12
REMARK SMILES IDX 76 13 30 14 81 15 75 16 77 17 31 18 80 19 74 20 73 21 32 23
REMARK SMILES IDX 62 24 43 25 61 26 44 27 47 28 60 29 78 30 45 31 46 32 59 34
REMARK SMILES IDX 79 35 48 36 33 37 34 38 42 39 35 40 41 41 36 42 37 43 38 44
REMARK SMILES IDX 39 45 40 46 63 47 64 48 72 49 65 50 71 51 66 52 67 53 68 54
REMARK SMILES IDX 69 55 70 56 49 57 50 58 58 59 51 60 57 61 52 62 53 63 54 64
REMARK SMILES IDX 55 65 56 66 5 67 6 68 7 69 8 70 9 71 10 72 23 73 11 74 13 75
REMARK SMILES IDX 12 76 14 77 16 78 15 79 17 80 18 81 22 82 19 83 21 84 20 85
REMARK H PARENT 77 22 47 33
REMARK Flexibility Score: inf
ROOT
ATOM      1  C   UNL A   1      33.599  34.219  28.000  1.00  0.00     0.275 C 
ENDROOT
BRANCH   1   2
ATOM      2  O   UNL A   1      34.813  33.438  28.026  1.00  0.00    -0.458 OA
BRANCH   2   3
ATOM      3  C   UNL A   1      34.763  32.088  28.049  1.00  0.00     0.338 C 
ATOM      4  O   UNL A   1      33.805  31.450  27.635  1.00  0.00    -0.246 OA
BRANCH   3   5
ATOM      5  C   UNL A   1      36.052  31.429  28.382  1.00  0.00     0.060 A 
ATOM      6  C   UNL A   1      37.169  32.126  28.847  1.00  0.00     0.016 A 
ATOM      7  C   UNL A   1      36.120  30.033  28.237  1.00  0.00     0.016 A 
ATOM      8  C   UNL A   1      38.352  31.453  29.109  1.00  0.00     0.010 A 
ATOM      9  C   UNL A   1      37.297  29.353  28.520  1.00  0.00     0.010 A 
ATOM     10  C   UNL A   1      38.421  30.073  28.916  1.00  0.00    -0.014 A 
BRANCH  10  11
ATOM     11  C   UNL A   1      39.712  29.439  29.141  1.00  0.00     0.031 A 
ATOM     12  C   UNL A   1      40.094  29.191  30.559  1.00  0.00     0.074 A 
ATOM     13  C   UNL A   1      40.508  29.044  28.132  1.00  0.00     0.049 A 
ATOM     14  N   UNL A   1      41.052  29.733  31.240  1.00  0.00    -0.248 NA
ATOM     15  C   UNL A   1      39.249  28.274  31.335  1.00  0.00     0.031 C 
ATOM     16  C   UNL A   1      40.191  28.953  26.704  1.00  0.00     0.029 A 
ATOM     17  N   UNL A   1      41.771  28.545  28.203  1.00  0.00    -0.354 N 
ATOM     18  C   UNL A   1      41.050  29.097  32.480  1.00  0.00     0.074 A 
ATOM     19  C   UNL A   1      39.849  28.300  32.525  1.00  0.00     0.031 C 
ATOM     20  C   UNL A   1      41.146  28.224  26.084  1.00  0.00     0.029 A 
ATOM     21  C   UNL A   1      42.207  27.939  27.035  1.00  0.00     0.049 A 
ATOM     22  H   UNL A   1      42.327  28.609  29.013  1.00  0.00     0.167 HD
ATOM     23  C   UNL A   1      42.126  29.110  33.317  1.00  0.00     0.031 A 
ATOM     24  C   UNL A   1      43.333  27.200  26.889  1.00  0.00     0.031 A 
ATOM     25  C   UNL A   1      43.075  30.134  32.984  1.00  0.00     0.049 A 
ATOM     26  C   UNL A   1      44.257  27.600  27.979  1.00  0.00     0.074 A 
ATOM     27  C   UNL A   1      43.038  31.513  32.920  1.00  0.00     0.029 A 
ATOM     28  N   UNL A   1      44.202  29.759  32.293  1.00  0.00    -0.354 N 
ATOM     29  N   UNL A   1      44.781  28.791  28.082  1.00  0.00    -0.248 NA
ATOM     30  C   UNL A   1      44.292  26.800  29.193  1.00  0.00     0.031 C 
ATOM     31  C   UNL A   1      43.849  31.850  31.796  1.00  0.00     0.029 A 
ATOM     32  C   UNL A   1      44.362  30.661  31.272  1.00  0.00     0.049 A 
ATOM     33  H   UNL A   1      44.784  28.990  32.494  1.00  0.00     0.167 HD
ATOM     34  C   UNL A   1      44.845  29.041  29.444  1.00  0.00     0.074 A 
ATOM     35  C   UNL A   1      44.629  27.743  30.076  1.00  0.00     0.031 C 
ATOM     36  C   UNL A   1      44.804  30.315  29.937  1.00  0.00     0.031 A 
BRANCH  23  37
ATOM     37  C   UNL A   1      42.478  27.956  34.223  1.00  0.00    -0.014 A 
ATOM     38  C   UNL A   1      42.556  28.157  35.617  1.00  0.00     0.010 A 
ATOM     39  C   UNL A   1      43.004  26.748  33.719  1.00  0.00     0.010 A 
ATOM     40  C   UNL A   1      43.179  27.217  36.452  1.00  0.00     0.020 A 
ATOM     41  C   UNL A   1      43.587  25.787  34.547  1.00  0.00     0.020 A 
ATOM     42  C   UNL A   1      43.700  26.042  35.907  1.00  0.00     0.054 A 
BRANCH  42  43
ATOM     43  S   UNL A   1      44.624  24.901  36.968  1.00  0.00     0.124 S 
ATOM     44  O   UNL A   1      43.907  25.017  38.235  1.00  0.00    -0.237 OA
ATOM     45  O   UNL A   1      44.465  23.632  36.264  1.00  0.00    -0.237 OA
ATOM     46  O   UNL A   1      45.978  25.449  36.963  1.00  0.00    -0.744 OA
ENDBRANCH  42  43
ENDBRANCH  23  37
BRANCH  24  47
ATOM     47  C   UNL A   1      43.476  25.939  26.119  1.00  0.00    -0.014 A 
ATOM     48  C   UNL A   1      44.668  25.655  25.424  1.00  0.00     0.010 A 
ATOM     49  C   UNL A   1      42.556  24.884  26.298  1.00  0.00     0.010 A 
ATOM     50  C   UNL A   1      44.962  24.347  25.002  1.00  0.00     0.020 A 
ATOM     51  C   UNL A   1      42.837  23.583  25.869  1.00  0.00     0.020 A 
ATOM     52  C   UNL A   1      44.056  23.314  25.255  1.00  0.00     0.054 A 
BRANCH  52  53
ATOM     53  S   UNL A   1      44.528  21.603  24.873  1.00  0.00     0.124 S 
ATOM     54  O   UNL A   1      44.537  21.597  23.412  1.00  0.00    -0.237 OA
ATOM     55  O   UNL A   1      45.835  21.492  25.514  1.00  0.00    -0.237 OA
ATOM     56  O   UNL A   1      43.467  20.806  25.487  1.00  0.00    -0.744 OA
ENDBRANCH  52  53
ENDBRANCH  24  47
BRANCH  36  57
ATOM     57  C   UNL A   1      44.949  31.468  28.971  1.00  0.00    -0.014 A 
ATOM     58  C   UNL A   1      46.172  32.130  28.748  1.00  0.00     0.010 A 
ATOM     59  C   UNL A   1      43.866  31.752  28.121  1.00  0.00     0.010 A 
ATOM     60  C   UNL A   1      46.309  33.049  27.696  1.00  0.00     0.020 A 
ATOM     61  C   UNL A   1      43.999  32.657  27.064  1.00  0.00     0.020 A 
ATOM     62  C   UNL A   1      45.222  33.294  26.850  1.00  0.00     0.054 A 
BRANCH  62  63
ATOM     63  S   UNL A   1      45.433  34.413  25.435  1.00  0.00     0.124 S 
ATOM     64  O   UNL A   1      44.886  35.672  25.932  1.00  0.00    -0.237 OA
ATOM     65  O   UNL A   1      46.880  34.395  25.228  1.00  0.00    -0.237 OA
ATOM     66  O   UNL A   1      44.656  33.780  24.370  1.00  0.00    -0.744 OA
ENDBRANCH  62  63
ENDBRANCH  36  57
ENDBRANCH  10  11
ENDBRANCH   3   5
ENDBRANCH   2   3
ENDBRANCH   1   2
BRANCH   1  67
ATOM     67  C   UNL A   1      33.457  35.327  29.045  1.00  0.00     0.275 C 
BRANCH  67  68
ATOM     68  O   UNL A   1      32.900  34.833  30.275  1.00  0.00    -0.458 OA
BRANCH  68  69
ATOM     69  C   UNL A   1      33.417  35.363  31.410  1.00  0.00     0.339 C 
ATOM     70  O   UNL A   1      33.114  36.421  31.950  1.00  0.00    -0.246 OA
BRANCH  69  71
ATOM     71  C   UNL A   1      34.447  34.465  31.918  1.00  0.00     0.079 A 
ATOM     72  C   UNL A   1      35.427  34.966  32.759  1.00  0.00     0.129 A 
ATOM     73  C   UNL A   1      34.438  33.109  31.595  1.00  0.00     0.029 A 
ATOM     74  N   UNL A   1      36.418  34.237  33.322  1.00  0.00    -0.237 NA
ATOM     75  C   UNL A   1      35.497  32.328  32.084  1.00  0.00     0.020 A 
ATOM     76  C   UNL A   1      36.413  32.942  32.939  1.00  0.00     0.140 A 
ATOM     77  C   UNL A   1      35.909  30.979  31.929  1.00  0.00     0.030 A 
ATOM     78  N   UNL A   1      37.294  31.975  33.365  1.00  0.00    -0.329 N 
ATOM     79  C   UNL A   1      37.034  30.795  32.705  1.00  0.00     0.088 A 
BRANCH  78  80
ATOM     80  C   UNL A   1      38.267  32.111  34.448  1.00  0.00     0.088 C 
ATOM     81  C   UNL A   1      38.574  30.790  35.168  1.00  0.00     0.025 C 
ATOM     82  C   UNL A   1      39.542  32.816  33.954  1.00  0.00     0.025 C 
ATOM     83  C   UNL A   1      39.615  30.984  36.271  1.00  0.00     0.002 C 
ATOM     84  C   UNL A   1      40.568  32.985  35.070  1.00  0.00     0.002 C 
ATOM     85  C   UNL A   1      40.882  31.651  35.741  1.00  0.00     0.000 C 
ENDBRANCH  78  80
ENDBRANCH  69  71
ENDBRANCH  68  69
ENDBRANCH  67  68
ENDBRANCH   1  67
TORSDOF 15
ENDMDL
MODEL 3
REMARK VINA RESULT:     -11.4      2.972      5.796
REMARK SMILES O=C(OCCOC(=O)c1cnc2c(ccn2C2CCCCC2)c1)c1ccc(-c2c3nc(c(-c4ccc(S(=O)(=O)[O-])cc4)c4ccc([nH]4)c(-c4ccc(S(=O)(=O)[O-])cc4)c4nc(c(-c5ccc(S(=O)(=O)[O-])cc5)c5ccc2[nH]5)C=C4)C=C3)cc1
REMARK SMILES IDX 4 1 3 2 2 3 1 4 24 5 25 6 83 7 26 8 82 9 27 10 28 11 29 12
REMARK SMILES IDX 76 13 30 14 81 15 75 16 77 17 31 18 80 19 74 20 73 21 32 23
REMARK SMILES IDX 62 24 43 25 61 26 44 27 47 28 60 29 78 30 45 31 46 32 59 34
REMARK SMILES IDX 79 35 48 36 33 37 34 38 42 39 35 40 41 41 36 42 37 43 38 44
REMARK SMILES IDX 39 45 40 46 63 47 64 48 72 49 65 50 71 51 66 52 67 53 68 54
REMARK SMILES IDX 69 55 70 56 49 57 50 58 58 59 51 60 57 61 52 62 53 63 54 64
REMARK SMILES IDX 55 65 56 66 5 67 6 68 7 69 8 70 9 71 10 72 23 73 11 74 13 75
REMARK SMILES IDX 12 76 14 77 16 78 15 79 17 80 18 81 22 82 19 83 21 84 20 85
REMARK H PARENT 77 22 47 33
REMARK Flexibility Score: inf
ROOT
ATOM      1  C   UNL A   1      43.766  18.463  25.352  1.00  0.00     0.275 C 
ENDROOT
BRANCH   1   2
ATOM      2  O   UNL A   1      43.928  19.626  24.513  1.00  0.00    -0.458 OA
BRANCH   2   3
ATOM      3  C   UNL A   1      45.035  20.395  24.607  1.00  0.00     0.338 C 
ATOM      4  O   UNL A   1      46.093  20.109  24.062  1.00  0.00    -0.246 OA
BRANCH   3   5
ATOM      5  C   UNL A   1      44.808  21.733  25.211  1.00  0.00     0.060 A 
ATOM      6  C   UNL A   1      45.654  22.291  26.172  1.00  0.00     0.016 A 
ATOM      7  C   UNL A   1      43.695  22.463  24.762  1.00  0.00     0.016 A 
ATOM      8  C   UNL A   1      45.365  23.532  26.718  1.00  0.00     0.010 A 
ATOM      9  C   UNL A   1      43.416  23.716  25.291  1.00  0.00     0.010 A 
ATOM     10  C   UNL A   1      44.231  24.227  26.298  1.00  0.00    -0.014 A 
BRANCH  10  11
ATOM     11  C   UNL A   1      43.947  25.491  26.963  1.00  0.00     0.031 A 
ATOM     12  C   UNL A   1      44.925  26.592  26.744  1.00  0.00     0.074 A 
ATOM     13  C   UNL A   1      42.838  25.687  27.698  1.00  0.00     0.049 A 
ATOM     14  N   UNL A   1      45.718  27.146  27.604  1.00  0.00    -0.248 NA
ATOM     15  C   UNL A   1      45.088  27.086  25.371  1.00  0.00     0.031 C 
ATOM     16  C   UNL A   1      41.651  24.834  27.801  1.00  0.00     0.029 A 
ATOM     17  N   UNL A   1      42.510  26.769  28.453  1.00  0.00    -0.354 N 
ATOM     18  C   UNL A   1      46.356  28.183  26.927  1.00  0.00     0.074 A 
ATOM     19  C   UNL A   1      46.023  28.023  25.533  1.00  0.00     0.031 C 
ATOM     20  C   UNL A   1      40.653  25.533  28.385  1.00  0.00     0.029 A 
ATOM     21  C   UNL A   1      41.178  26.812  28.833  1.00  0.00     0.049 A 
ATOM     22  H   UNL A   1      43.162  27.462  28.707  1.00  0.00     0.167 HD
ATOM     23  C   UNL A   1      46.961  29.222  27.570  1.00  0.00     0.031 A 
ATOM     24  C   UNL A   1      40.545  27.858  29.416  1.00  0.00     0.031 A 
ATOM     25  C   UNL A   1      47.211  28.945  28.957  1.00  0.00     0.049 A 
ATOM     26  C   UNL A   1      41.591  28.691  30.060  1.00  0.00     0.074 A 
ATOM     27  C   UNL A   1      47.960  28.011  29.644  1.00  0.00     0.029 A 
ATOM     28  N   UNL A   1      46.346  29.483  29.881  1.00  0.00    -0.354 N 
ATOM     29  N   UNL A   1      42.324  28.286  31.061  1.00  0.00    -0.248 NA
ATOM     30  C   UNL A   1      42.110  29.842  29.338  1.00  0.00     0.031 C 
ATOM     31  C   UNL A   1      47.182  27.690  30.794  1.00  0.00     0.029 A 
ATOM     32  C   UNL A   1      46.028  28.477  30.758  1.00  0.00     0.049 A 
ATOM     33  H   UNL A   1      46.019  30.411  29.907  1.00  0.00     0.167 HD
ATOM     34  C   UNL A   1      43.569  28.857  30.851  1.00  0.00     0.074 A 
ATOM     35  C   UNL A   1      43.347  29.884  29.838  1.00  0.00     0.031 C 
ATOM     36  C   UNL A   1      44.710  28.272  31.323  1.00  0.00     0.031 A 
BRANCH  23  37
ATOM     37  C   UNL A   1      47.000  30.624  27.014  1.00  0.00    -0.014 A 
ATOM     38  C   UNL A   1      48.194  31.372  27.083  1.00  0.00     0.010 A 
ATOM     39  C   UNL A   1      45.823  31.325  26.677  1.00  0.00     0.010 A 
ATOM     40  C   UNL A   1      48.193  32.760  26.876  1.00  0.00     0.020 A 
ATOM     41  C   UNL A   1      45.820  32.698  26.426  1.00  0.00     0.020 A 
ATOM     42  C   UNL A   1      47.001  33.414  26.560  1.00  0.00     0.054 A 
BRANCH  42  43
ATOM     43  S   UNL A   1      46.983  35.221  26.431  1.00  0.00     0.124 S 
ATOM     44  O   UNL A   1      47.381  35.625  27.777  1.00  0.00    -0.237 OA
ATOM     45  O   UNL A   1      47.967  35.463  25.380  1.00  0.00    -0.237 OA
ATOM     46  O   UNL A   1      45.600  35.525  26.070  1.00  0.00    -0.744 OA
ENDBRANCH  42  43
ENDBRANCH  23  37
BRANCH  24  47
ATOM     47  C   UNL A   1      39.178  28.353  29.113  1.00  0.00    -0.014 A 
ATOM     48  C   UNL A   1      38.238  28.539  30.145  1.00  0.00     0.010 A 
ATOM     49  C   UNL A   1      38.886  28.915  27.852  1.00  0.00     0.010 A 
ATOM     50  C   UNL A   1      37.093  29.327  29.943  1.00  0.00     0.020 A 
ATOM     51  C   UNL A   1      37.741  29.691  27.641  1.00  0.00     0.020 A 
ATOM     52  C   UNL A   1      36.869  29.924  28.700  1.00  0.00     0.054 A 
BRANCH  52  53
ATOM     53  S   UNL A   1      35.489  31.089  28.506  1.00  0.00     0.124 S 
ATOM     54  O   UNL A   1      34.451  30.252  27.911  1.00  0.00    -0.237 OA
ATOM     55  O   UNL A   1      35.248  31.513  29.883  1.00  0.00    -0.237 OA
ATOM     56  O   UNL A   1      36.031  32.123  27.626  1.00  0.00    -0.744 OA
ENDBRANCH  52  53
ENDBRANCH  24  47
BRANCH  36  57
ATOM     57  C   UNL A   1      44.583  27.127  32.301  1.00  0.00    -0.014 A 
ATOM     58  C   UNL A   1      44.358  27.318  33.678  1.00  0.00     0.010 A 
ATOM     59  C   UNL A   1      44.485  25.826  31.778  1.00  0.00     0.010 A 
ATOM     60  C   UNL A   1      44.038  26.234  34.510  1.00  0.00     0.020 A 
ATOM     61  C   UNL A   1      44.155  24.743  32.599  1.00  0.00     0.020 A 
ATOM     62  C   UNL A   1      43.923  24.953  33.959  1.00  0.00     0.054 A 
BRANCH  62  63
ATOM     63  S   UNL A   1      43.417  23.571  35.023  1.00  0.00     0.124 S 
ATOM     64  O   UNL A   1      41.971  23.752  35.125  1.00  0.00    -0.237 OA
ATOM     65  O   UNL A   1      43.851  22.404  34.256  1.00  0.00    -0.237 OA
ATOM     66  O   UNL A   1      44.157  23.795  36.264  1.00  0.00    -0.744 OA
ENDBRANCH  62  63
ENDBRANCH  36  57
ENDBRANCH  10  11
ENDBRANCH   3   5
ENDBRANCH   2   3
ENDBRANCH   1   2
BRANCH   1  67
ATOM     67  C   UNL A   1      42.577  18.455  26.315  1.00  0.00     0.275 C 
BRANCH  67  68
ATOM     68  O   UNL A   1      41.495  19.268  25.833  1.00  0.00    -0.458 OA
BRANCH  68  69
ATOM     69  C   UNL A   1      41.228  20.382  26.558  1.00  0.00     0.339 C 
ATOM     70  O   UNL A   1      41.920  20.892  27.433  1.00  0.00    -0.246 OA
BRANCH  69  71
ATOM     71  C   UNL A   1      39.933  20.909  26.146  1.00  0.00     0.079 A 
ATOM     72  C   UNL A   1      39.075  20.101  25.417  1.00  0.00     0.129 A 
ATOM     73  C   UNL A   1      39.537  22.198  26.501  1.00  0.00     0.029 A 
ATOM     74  N   UNL A   1      37.838  20.455  25.001  1.00  0.00    -0.237 NA
ATOM     75  C   UNL A   1      38.298  22.642  26.015  1.00  0.00     0.020 A 
ATOM     76  C   UNL A   1      37.513  21.729  25.310  1.00  0.00     0.140 A 
ATOM     77  C   UNL A   1      37.578  23.864  26.061  1.00  0.00     0.030 A 
ATOM     78  N   UNL A   1      36.317  22.347  25.021  1.00  0.00    -0.329 N 
ATOM     79  C   UNL A   1      36.375  23.664  25.417  1.00  0.00     0.088 A 
BRANCH  78  80
ATOM     80  C   UNL A   1      35.112  21.696  24.510  1.00  0.00     0.088 C 
ATOM     81  C   UNL A   1      34.396  20.824  25.551  1.00  0.00     0.025 C 
ATOM     82  C   UNL A   1      34.168  22.724  23.862  1.00  0.00     0.025 C 
ATOM     83  C   UNL A   1      33.130  20.191  24.973  1.00  0.00     0.002 C 
ATOM     84  C   UNL A   1      32.908  22.069  23.307  1.00  0.00     0.002 C 
ATOM     85  C   UNL A   1      32.198  21.239  24.372  1.00  0.00     0.000 C 
ENDBRANCH  78  80
ENDBRANCH  69  71
ENDBRANCH  68  69
ENDBRANCH  67  68
ENDBRANCH   1  67
TORSDOF 15
ENDMDL
