MODEL 1
REMARK VINA RESULT:     -11.7      0.000      0.000
REMARK SMILES NS(=O)(=O)c1ccc(-n2nc(C(=O)OCCOC(=O)c3ccc(-c4c5nc(c(-c6ccc(S(=O)(=O)[O-])cc6)c6ccc([nH]6)c(-c6ccc(S(=O)(=O)[O-])cc6)c6nc(c(-c7ccc(S(=O)(=O)[O-])cc7)c7ccc4[nH]7)C=C6)C=C5)cc3)cc2-c2ccc(Cl)s2)cc1
REMARK SMILES IDX 15 1 14 2 12 3 13 4 11 5 9 6 10 7 81 8 80 9 8 10 5 11 6 12
REMARK SMILES IDX 89 13 7 14 88 15 2 16 3 17 4 18 1 19 82 22 83 23 87 24 84 25
REMARK SMILES IDX 85 26 86 27 16 28 17 29 18 30 19 31 20 32 21 33 79 34 22 35
REMARK SMILES IDX 78 36 23 37 24 38 25 39 72 40 26 41 77 42 71 43 73 44 27 45
REMARK SMILES IDX 76 46 70 47 69 48 28 50 58 51 39 52 57 53 40 54 43 55 56 56
REMARK SMILES IDX 74 57 41 58 42 59 55 61 75 62 44 63 29 64 30 65 38 66 31 67
REMARK SMILES IDX 37 68 32 69 33 70 34 71 35 72 36 73 59 74 60 75 68 76 61 77
REMARK SMILES IDX 67 78 62 79 63 80 64 81 65 82 66 83 45 84 46 85 54 86 47 87
REMARK SMILES IDX 53 88 48 89 49 90 50 91 51 92 52 93
REMARK H PARENT 1 20 1 21 73 49 43 60
REMARK Flexibility Score: inf
ROOT
ATOM      1  C   UNL A   1      40.804  20.453  27.068  1.00  0.00     0.275 C 
ENDROOT
BRANCH   1   2
ATOM      2  O   UNL A   1      39.776  20.824  26.129  1.00  0.00    -0.457 OA
BRANCH   2   3
ATOM      3  C   UNL A   1      39.337  22.126  26.172  1.00  0.00     0.358 C 
ATOM      4  O   UNL A   1      40.050  23.078  26.474  1.00  0.00    -0.244 OA
BRANCH   3   5
ATOM      5  C   UNL A   1      37.924  22.235  25.768  1.00  0.00     0.171 A 
ATOM      6  N   UNL A   1      35.962  23.030  25.426  1.00  0.00    -0.231 N 
ATOM      7  N   UNL A   1      37.198  23.370  25.867  1.00  0.00    -0.160 NA
ATOM      8  C   UNL A   1      35.882  21.695  25.067  1.00  0.00     0.085 A 
ATOM      9  C   UNL A   1      37.149  21.189  25.212  1.00  0.00     0.068 A 
BRANCH   6  10
ATOM     10  C   UNL A   1      34.881  23.938  25.536  1.00  0.00     0.065 A 
ATOM     11  C   UNL A   1      32.558  25.464  25.560  1.00  0.00     0.082 A 
ATOM     12  C   UNL A   1      32.772  24.514  26.565  1.00  0.00     0.024 A 
ATOM     13  C   UNL A   1      33.512  25.671  24.555  1.00  0.00     0.024 A 
ATOM     14  C   UNL A   1      33.931  23.742  26.548  1.00  0.00     0.030 A 
ATOM     15  C   UNL A   1      34.694  24.917  24.554  1.00  0.00     0.030 A 
BRANCH  11  16
ATOM     16  S   UNL A   1      31.031  26.355  25.603  1.00  0.00     0.238 S 
ATOM     17  O   UNL A   1      31.099  27.418  24.624  1.00  0.00    -0.207 OA
ATOM     18  O   UNL A   1      30.690  26.603  26.983  1.00  0.00    -0.207 OA
BRANCH  16  19
ATOM     19  N   UNL A   1      29.874  25.280  25.042  1.00  0.00    -0.225 NA
ATOM     20  H   UNL A   1      30.321  24.397  24.798  1.00  0.00     0.137 HD
ATOM     21  H   UNL A   1      29.420  25.671  24.216  1.00  0.00     0.137 HD
ENDBRANCH  16  19
ENDBRANCH  11  16
ENDBRANCH   6  10
BRANCH   8  22
ATOM     22  C   UNL A   1      34.704  21.001  24.643  1.00  0.00     0.054 A 
ATOM     23  C   UNL A   1      33.652  21.561  23.945  1.00  0.00     0.024 A 
ATOM     24  S   UNL A   1      34.432  19.340  24.968  1.00  0.00    -0.122 S 
ATOM     25  C   UNL A   1      32.653  20.600  23.613  1.00  0.00     0.033 A 
ATOM     26  C   UNL A   1      32.979  19.364  24.105  1.00  0.00     0.094 A 
ATOM     27  Cl  UNL A   1      32.069  17.920  23.919  1.00  0.00    -0.072 Cl
ENDBRANCH   8  22
ENDBRANCH   3   5
ENDBRANCH   2   3
ENDBRANCH   1   2
BRANCH   1  28
ATOM     28  C   UNL A   1      42.008  19.835  26.368  1.00  0.00     0.275 C 
BRANCH  28  29
ATOM     29  O   UNL A   1      42.500  20.725  25.373  1.00  0.00    -0.458 OA
BRANCH  29  30
ATOM     30  C   UNL A   1      43.846  20.831  25.298  1.00  0.00     0.338 C 
ATOM     31  O   UNL A   1      44.652  19.920  25.385  1.00  0.00    -0.246 OA
BRANCH  30  32
ATOM     32  C   UNL A   1      44.202  22.253  25.298  1.00  0.00     0.060 A 
ATOM     33  C   UNL A   1      45.231  22.624  26.167  1.00  0.00     0.016 A 
ATOM     34  C   UNL A   1      43.271  23.175  24.798  1.00  0.00     0.016 A 
ATOM     35  C   UNL A   1      45.138  23.852  26.776  1.00  0.00     0.010 A 
ATOM     36  C   UNL A   1      43.166  24.387  25.424  1.00  0.00     0.010 A 
ATOM     37  C   UNL A   1      44.032  24.653  26.480  1.00  0.00    -0.014 A 
BRANCH  37  38
ATOM     38  C   UNL A   1      43.809  25.833  27.278  1.00  0.00     0.031 A 
ATOM     39  C   UNL A   1      44.814  26.881  27.019  1.00  0.00     0.074 A 
ATOM     40  C   UNL A   1      42.719  25.973  28.053  1.00  0.00     0.049 A 
ATOM     41  N   UNL A   1      45.766  27.270  27.799  1.00  0.00    -0.248 NA
ATOM     42  C   UNL A   1      44.900  27.403  25.645  1.00  0.00     0.031 C 
ATOM     43  C   UNL A   1      41.526  25.124  28.127  1.00  0.00     0.029 A 
ATOM     44  N   UNL A   1      42.397  27.010  28.863  1.00  0.00    -0.354 N 
ATOM     45  C   UNL A   1      46.438  28.252  27.084  1.00  0.00     0.074 A 
ATOM     46  C   UNL A   1      46.020  28.119  25.713  1.00  0.00     0.031 C 
ATOM     47  C   UNL A   1      40.526  25.821  28.719  1.00  0.00     0.029 A 
ATOM     48  C   UNL A   1      41.049  27.100  29.175  1.00  0.00     0.049 A 
ATOM     49  H   UNL A   1      43.066  27.649  29.202  1.00  0.00     0.167 HD
ATOM     50  C   UNL A   1      47.059  29.289  27.708  1.00  0.00     0.031 A 
ATOM     51  C   UNL A   1      40.417  28.201  29.664  1.00  0.00     0.031 A 
ATOM     52  C   UNL A   1      47.239  29.039  29.115  1.00  0.00     0.049 A 
ATOM     53  C   UNL A   1      41.475  29.085  30.231  1.00  0.00     0.074 A 
ATOM     54  C   UNL A   1      47.903  28.073  29.844  1.00  0.00     0.029 A 
ATOM     55  N   UNL A   1      46.326  29.605  29.976  1.00  0.00    -0.354 N 
ATOM     56  N   UNL A   1      42.211  28.750  31.257  1.00  0.00    -0.248 NA
ATOM     57  C   UNL A   1      42.058  30.093  29.355  1.00  0.00     0.031 C 
ATOM     58  C   UNL A   1      47.035  27.777  30.936  1.00  0.00     0.029 A 
ATOM     59  C   UNL A   1      45.929  28.626  30.854  1.00  0.00     0.049 A 
ATOM     60  H   UNL A   1      46.016  30.539  29.965  1.00  0.00     0.167 HD
ATOM     61  C   UNL A   1      43.495  29.170  30.935  1.00  0.00     0.074 A 
ATOM     62  C   UNL A   1      43.325  30.059  29.784  1.00  0.00     0.031 C 
ATOM     63  C   UNL A   1      44.602  28.540  31.433  1.00  0.00     0.031 A 
BRANCH  50  64
ATOM     64  C   UNL A   1      47.108  30.671  27.116  1.00  0.00    -0.014 A 
ATOM     65  C   UNL A   1      48.320  31.385  27.149  1.00  0.00     0.010 A 
ATOM     66  C   UNL A   1      45.946  31.394  26.769  1.00  0.00     0.010 A 
ATOM     67  C   UNL A   1      48.350  32.764  26.902  1.00  0.00     0.020 A 
ATOM     68  C   UNL A   1      45.972  32.754  26.474  1.00  0.00     0.020 A 
ATOM     69  C   UNL A   1      47.172  33.439  26.578  1.00  0.00     0.054 A 
BRANCH  69  70
ATOM     70  S   UNL A   1      47.204  35.233  26.368  1.00  0.00     0.124 S 
ATOM     71  O   UNL A   1      48.241  35.397  25.354  1.00  0.00    -0.237 OA
ATOM     72  O   UNL A   1      45.839  35.516  25.934  1.00  0.00    -0.237 OA
ATOM     73  O   UNL A   1      47.545  35.728  27.700  1.00  0.00    -0.744 OA
ENDBRANCH  69  70
ENDBRANCH  50  64
BRANCH  51  74
ATOM     74  C   UNL A   1      39.070  28.695  29.260  1.00  0.00    -0.014 A 
ATOM     75  C   UNL A   1      38.064  28.966  30.207  1.00  0.00     0.010 A 
ATOM     76  C   UNL A   1      38.858  29.157  27.942  1.00  0.00     0.010 A 
ATOM     77  C   UNL A   1      36.916  29.707  29.857  1.00  0.00     0.020 A 
ATOM     78  C   UNL A   1      37.719  29.888  27.585  1.00  0.00     0.020 A 
ATOM     79  C   UNL A   1      36.759  30.178  28.550  1.00  0.00     0.054 A 
BRANCH  79  80
ATOM     80  S   UNL A   1      35.361  31.267  28.137  1.00  0.00     0.124 S 
ATOM     81  O   UNL A   1      36.030  32.423  27.549  1.00  0.00    -0.237 OA
ATOM     82  O   UNL A   1      34.582  30.449  27.212  1.00  0.00    -0.237 OA
ATOM     83  O   UNL A   1      34.723  31.512  29.430  1.00  0.00    -0.744 OA
ENDBRANCH  79  80
ENDBRANCH  51  74
BRANCH  63  84
ATOM     84  C   UNL A   1      44.417  27.496  32.515  1.00  0.00    -0.014 A 
ATOM     85  C   UNL A   1      44.161  27.806  33.866  1.00  0.00     0.010 A 
ATOM     86  C   UNL A   1      44.317  26.154  32.111  1.00  0.00     0.010 A 
ATOM     87  C   UNL A   1      43.834  26.796  34.788  1.00  0.00     0.020 A 
ATOM     88  C   UNL A   1      43.977  25.147  33.018  1.00  0.00     0.020 A 
ATOM     89  C   UNL A   1      43.743  25.470  34.354  1.00  0.00     0.054 A 
BRANCH  89  90
ATOM     90  S   UNL A   1      43.272  24.171  35.534  1.00  0.00     0.124 S 
ATOM     91  O   UNL A   1      41.826  24.345  35.637  1.00  0.00    -0.237 OA
ATOM     92  O   UNL A   1      43.714  22.949  34.865  1.00  0.00    -0.237 OA
ATOM     93  O   UNL A   1      44.023  24.511  36.743  1.00  0.00    -0.744 OA
ENDBRANCH  89  90
ENDBRANCH  63  84
ENDBRANCH  37  38
ENDBRANCH  30  32
ENDBRANCH  29  30
ENDBRANCH  28  29
ENDBRANCH   1  28
TORSDOF 18
ENDMDL
MODEL 2
REMARK VINA RESULT:     -11.2      2.802      4.267
REMARK SMILES NS(=O)(=O)c1ccc(-n2nc(C(=O)OCCOC(=O)c3ccc(-c4c5nc(c(-c6ccc(S(=O)(=O)[O-])cc6)c6ccc([nH]6)c(-c6ccc(S(=O)(=O)[O-])cc6)c6nc(c(-c7ccc(S(=O)(=O)[O-])cc7)c7ccc4[nH]7)C=C6)C=C5)cc3)cc2-c2ccc(Cl)s2)cc1
REMARK SMILES IDX 15 1 14 2 12 3 13 4 11 5 9 6 10 7 81 8 80 9 8 10 5 11 6 12
REMARK SMILES IDX 89 13 7 14 88 15 2 16 3 17 4 18 1 19 82 22 83 23 87 24 84 25
REMARK SMILES IDX 85 26 86 27 16 28 17 29 18 30 19 31 20 32 21 33 79 34 22 35
REMARK SMILES IDX 78 36 23 37 24 38 25 39 72 40 26 41 77 42 71 43 73 44 27 45
REMARK SMILES IDX 76 46 70 47 69 48 28 50 58 51 39 52 57 53 40 54 43 55 56 56
REMARK SMILES IDX 74 57 41 58 42 59 55 61 75 62 44 63 29 64 30 65 38 66 31 67
REMARK SMILES IDX 37 68 32 69 33 70 34 71 35 72 36 73 59 74 60 75 68 76 61 77
REMARK SMILES IDX 67 78 62 79 63 80 64 81 65 82 66 83 45 84 46 85 54 86 47 87
REMARK SMILES IDX 53 88 48 89 49 90 50 91 51 92 52 93
REMARK H PARENT 1 20 1 21 73 49 43 60
REMARK Flexibility Score: inf
ROOT
ATOM      1  C   UNL A   1      40.680  22.591  27.155  1.00  0.00     0.275 C 
ENDROOT
BRANCH   1   2
ATOM      2  O   UNL A   1      39.365  23.039  27.538  1.00  0.00    -0.457 OA
BRANCH   2   3
ATOM      3  C   UNL A   1      38.733  23.912  26.684  1.00  0.00     0.358 C 
ATOM      4  O   UNL A   1      39.144  25.041  26.433  1.00  0.00    -0.244 OA
BRANCH   3   5
ATOM      5  C   UNL A   1      37.534  23.306  26.079  1.00  0.00     0.171 A 
ATOM      6  N   UNL A   1      36.130  21.850  25.366  1.00  0.00    -0.231 N 
ATOM      7  N   UNL A   1      37.312  21.975  26.020  1.00  0.00    -0.160 NA
ATOM      8  C   UNL A   1      35.607  23.075  24.990  1.00  0.00     0.085 A 
ATOM      9  C   UNL A   1      36.457  24.023  25.502  1.00  0.00     0.068 A 
BRANCH   6  10
ATOM     10  C   UNL A   1      35.651  20.575  24.976  1.00  0.00     0.065 A 
ATOM     11  C   UNL A   1      34.683  18.001  24.582  1.00  0.00     0.082 A 
ATOM     12  C   UNL A   1      33.784  19.062  24.737  1.00  0.00     0.024 A 
ATOM     13  C   UNL A   1      36.065  18.225  24.600  1.00  0.00     0.024 A 
ATOM     14  C   UNL A   1      34.268  20.350  24.945  1.00  0.00     0.030 A 
ATOM     15  C   UNL A   1      36.556  19.526  24.777  1.00  0.00     0.030 A 
BRANCH  11  16
ATOM     16  S   UNL A   1      33.995  16.381  24.396  1.00  0.00     0.238 S 
ATOM     17  O   UNL A   1      34.690  15.490  25.300  1.00  0.00    -0.207 OA
ATOM     18  O   UNL A   1      33.868  16.101  22.987  1.00  0.00    -0.207 OA
BRANCH  16  19
ATOM     19  N   UNL A   1      32.426  16.497  24.974  1.00  0.00    -0.225 NA
ATOM     20  H   UNL A   1      32.228  15.701  25.579  1.00  0.00     0.137 HD
ATOM     21  H   UNL A   1      31.774  16.498  24.189  1.00  0.00     0.137 HD
ENDBRANCH  16  19
ENDBRANCH  11  16
ENDBRANCH   6  10
BRANCH   8  22
ATOM     22  C   UNL A   1      34.421  23.289  24.215  1.00  0.00     0.054 A 
ATOM     23  C   UNL A   1      34.331  23.176  22.842  1.00  0.00     0.024 A 
ATOM     24  S   UNL A   1      32.922  23.740  24.911  1.00  0.00    -0.122 S 
ATOM     25  C   UNL A   1      33.004  23.389  22.369  1.00  0.00     0.033 A 
ATOM     26  C   UNL A   1      32.157  23.688  23.404  1.00  0.00     0.094 A 
ATOM     27  Cl  UNL A   1      30.472  23.996  23.286  1.00  0.00    -0.072 Cl
ENDBRANCH   8  22
ENDBRANCH   3   5
ENDBRANCH   2   3
ENDBRANCH   1   2
BRANCH   1  28
ATOM     28  C   UNL A   1      41.771  23.376  27.871  1.00  0.00     0.275 C 
BRANCH  28  29
ATOM     29  O   UNL A   1      42.979  23.321  27.122  1.00  0.00    -0.458 OA
BRANCH  29  30
ATOM     30  C   UNL A   1      42.938  23.905  25.903  1.00  0.00     0.338 C 
ATOM     31  O   UNL A   1      42.899  23.334  24.826  1.00  0.00    -0.246 OA
BRANCH  30  32
ATOM     32  C   UNL A   1      43.154  25.345  26.067  1.00  0.00     0.060 A 
ATOM     33  C   UNL A   1      44.122  25.713  27.005  1.00  0.00     0.016 A 
ATOM     34  C   UNL A   1      42.149  26.225  25.639  1.00  0.00     0.016 A 
ATOM     35  C   UNL A   1      43.896  26.851  27.739  1.00  0.00     0.010 A 
ATOM     36  C   UNL A   1      41.912  27.344  26.389  1.00  0.00     0.010 A 
ATOM     37  C   UNL A   1      42.724  27.572  27.495  1.00  0.00    -0.014 A 
BRANCH  37  38
ATOM     38  C   UNL A   1      42.369  28.630  28.409  1.00  0.00     0.031 A 
ATOM     39  C   UNL A   1      43.385  29.699  28.448  1.00  0.00     0.074 A 
ATOM     40  C   UNL A   1      41.176  28.667  29.028  1.00  0.00     0.049 A 
ATOM     41  N   UNL A   1      44.207  29.971  29.404  1.00  0.00    -0.248 NA
ATOM     42  C   UNL A   1      43.662  30.408  27.186  1.00  0.00     0.031 C 
ATOM     43  C   UNL A   1      39.998  27.821  28.808  1.00  0.00     0.029 A 
ATOM     44  N   UNL A   1      40.724  29.582  29.918  1.00  0.00    -0.354 N 
ATOM     45  C   UNL A   1      44.961  31.040  28.939  1.00  0.00     0.074 A 
ATOM     46  C   UNL A   1      44.749  31.102  27.516  1.00  0.00     0.031 C 
ATOM     47  C   UNL A   1      38.912  28.434  29.338  1.00  0.00     0.029 A 
ATOM     48  C   UNL A   1      39.343  29.634  30.039  1.00  0.00     0.049 A 
ATOM     49  H   UNL A   1      41.326  30.163  30.437  1.00  0.00     0.167 HD
ATOM     50  C   UNL A   1      45.468  31.976  29.785  1.00  0.00     0.031 A 
ATOM     51  C   UNL A   1      38.630  30.659  30.578  1.00  0.00     0.031 A 
ATOM     52  C   UNL A   1      45.446  31.531  31.154  1.00  0.00     0.049 A 
ATOM     53  C   UNL A   1      39.581  31.451  31.411  1.00  0.00     0.074 A 
ATOM     54  C   UNL A   1      46.012  30.469  31.831  1.00  0.00     0.029 A 
ATOM     55  N   UNL A   1      44.409  31.976  31.943  1.00  0.00    -0.354 N 
ATOM     56  N   UNL A   1      40.165  30.972  32.477  1.00  0.00    -0.248 NA
ATOM     57  C   UNL A   1      40.270  32.568  30.779  1.00  0.00     0.031 C 
ATOM     58  C   UNL A   1      44.998  30.028  32.733  1.00  0.00     0.029 A 
ATOM     59  C   UNL A   1      43.903  30.886  32.609  1.00  0.00     0.049 A 
ATOM     60  H   UNL A   1      44.089  32.904  32.017  1.00  0.00     0.167 HD
ATOM     61  C   UNL A   1      41.476  31.426  32.408  1.00  0.00     0.074 A 
ATOM     62  C   UNL A   1      41.461  32.467  31.379  1.00  0.00     0.031 C 
ATOM     63  C   UNL A   1      42.508  30.727  32.970  1.00  0.00     0.031 A 
BRANCH  50  64
ATOM     64  C   UNL A   1      45.582  33.427  29.404  1.00  0.00    -0.014 A 
ATOM     65  C   UNL A   1      44.442  34.246  29.488  1.00  0.00     0.010 A 
ATOM     66  C   UNL A   1      46.699  33.949  28.715  1.00  0.00     0.010 A 
ATOM     67  C   UNL A   1      44.409  35.500  28.864  1.00  0.00     0.020 A 
ATOM     68  C   UNL A   1      46.694  35.213  28.133  1.00  0.00     0.020 A 
ATOM     69  C   UNL A   1      45.533  35.968  28.181  1.00  0.00     0.054 A 
BRANCH  69  70
ATOM     70  S   UNL A   1      45.444  37.537  27.290  1.00  0.00     0.124 S 
ATOM     71  O   UNL A   1      46.410  37.326  26.216  1.00  0.00    -0.237 OA
ATOM     72  O   UNL A   1      44.042  37.581  26.884  1.00  0.00    -0.237 OA
ATOM     73  O   UNL A   1      45.828  38.525  28.295  1.00  0.00    -0.744 OA
ENDBRANCH  69  70
ENDBRANCH  50  64
BRANCH  51  74
ATOM     74  C   UNL A   1      37.349  31.212  30.054  1.00  0.00    -0.014 A 
ATOM     75  C   UNL A   1      36.259  31.489  30.901  1.00  0.00     0.010 A 
ATOM     76  C   UNL A   1      37.289  31.720  28.738  1.00  0.00     0.010 A 
ATOM     77  C   UNL A   1      35.177  32.280  30.460  1.00  0.00     0.020 A 
ATOM     78  C   UNL A   1      36.217  32.501  28.290  1.00  0.00     0.020 A 
ATOM     79  C   UNL A   1      35.173  32.795  29.160  1.00  0.00     0.054 A 
BRANCH  79  80
ATOM     80  S   UNL A   1      33.860  33.944  28.642  1.00  0.00     0.124 S 
ATOM     81  O   UNL A   1      33.022  33.098  27.797  1.00  0.00    -0.237 OA
ATOM     82  O   UNL A   1      33.269  34.347  29.915  1.00  0.00    -0.237 OA
ATOM     83  O   UNL A   1      34.585  34.999  27.937  1.00  0.00    -0.744 OA
ENDBRANCH  79  80
ENDBRANCH  51  74
BRANCH  63  84
ATOM     84  C   UNL A   1      42.183  29.543  33.858  1.00  0.00    -0.014 A 
ATOM     85  C   UNL A   1      41.824  28.271  33.367  1.00  0.00     0.010 A 
ATOM     86  C   UNL A   1      42.432  29.679  35.234  1.00  0.00     0.010 A 
ATOM     87  C   UNL A   1      41.698  27.172  34.236  1.00  0.00     0.020 A 
ATOM     88  C   UNL A   1      42.324  28.588  36.101  1.00  0.00     0.020 A 
ATOM     89  C   UNL A   1      41.951  27.341  35.600  1.00  0.00     0.054 A 
BRANCH  89  90
ATOM     90  S   UNL A   1      41.837  25.911  36.716  1.00  0.00     0.124 S 
ATOM     91  O   UNL A   1      42.621  24.898  36.016  1.00  0.00    -0.237 OA
ATOM     92  O   UNL A   1      42.426  26.417  37.955  1.00  0.00    -0.237 OA
ATOM     93  O   UNL A   1      40.401  25.641  36.789  1.00  0.00    -0.744 OA
ENDBRANCH  89  90
ENDBRANCH  63  84
ENDBRANCH  37  38
ENDBRANCH  30  32
ENDBRANCH  29  30
ENDBRANCH  28  29
ENDBRANCH   1  28
TORSDOF 18
ENDMDL
MODEL 3
REMARK VINA RESULT:     -11.1      3.017      9.446
REMARK SMILES NS(=O)(=O)c1ccc(-n2nc(C(=O)OCCOC(=O)c3ccc(-c4c5nc(c(-c6ccc(S(=O)(=O)[O-])cc6)c6ccc([nH]6)c(-c6ccc(S(=O)(=O)[O-])cc6)c6nc(c(-c7ccc(S(=O)(=O)[O-])cc7)c7ccc4[nH]7)C=C6)C=C5)cc3)cc2-c2ccc(Cl)s2)cc1
REMARK SMILES IDX 15 1 14 2 12 3 13 4 11 5 9 6 10 7 81 8 80 9 8 10 5 11 6 12
REMARK SMILES IDX 89 13 7 14 88 15 2 16 3 17 4 18 1 19 82 22 83 23 87 24 84 25
REMARK SMILES IDX 85 26 86 27 16 28 17 29 18 30 19 31 20 32 21 33 79 34 22 35
REMARK SMILES IDX 78 36 23 37 24 38 25 39 72 40 26 41 77 42 71 43 73 44 27 45
REMARK SMILES IDX 76 46 70 47 69 48 28 50 58 51 39 52 57 53 40 54 43 55 56 56
REMARK SMILES IDX 74 57 41 58 42 59 55 61 75 62 44 63 29 64 30 65 38 66 31 67
REMARK SMILES IDX 37 68 32 69 33 70 34 71 35 72 36 73 59 74 60 75 68 76 61 77
REMARK SMILES IDX 67 78 62 79 63 80 64 81 65 82 66 83 45 84 46 85 54 86 47 87
REMARK SMILES IDX 53 88 48 89 49 90 50 91 51 92 52 93
REMARK H PARENT 1 20 1 21 73 49 43 60
REMARK Flexibility Score: inf
ROOT
ATOM      1  C   UNL A   1      35.180  33.187  28.007  1.00  0.00     0.275 C 
ENDROOT
BRANCH   1   2
ATOM      2  O   UNL A   1      34.265  32.081  27.882  1.00  0.00    -0.457 OA
BRANCH   2   3
ATOM      3  C   UNL A   1      34.814  30.820  27.860  1.00  0.00     0.358 C 
ATOM      4  O   UNL A   1      35.849  30.516  28.445  1.00  0.00    -0.244 OA
BRANCH   3   5
ATOM      5  C   UNL A   1      33.983  29.880  27.088  1.00  0.00     0.171 A 
ATOM      6  N   UNL A   1      33.109  28.061  26.361  1.00  0.00    -0.231 N 
ATOM      7  N   UNL A   1      33.970  28.545  27.290  1.00  0.00    -0.160 NA
ATOM      8  C   UNL A   1      32.589  29.062  25.557  1.00  0.00     0.085 A 
ATOM      9  C   UNL A   1      33.083  30.241  26.056  1.00  0.00     0.068 A 
BRANCH   6  10
ATOM     10  C   UNL A   1      32.963  26.666  26.168  1.00  0.00     0.065 A 
ATOM     11  C   UNL A   1      32.531  24.016  25.452  1.00  0.00     0.082 A 
ATOM     12  C   UNL A   1      33.723  24.647  25.081  1.00  0.00     0.024 A 
ATOM     13  C   UNL A   1      31.562  24.698  26.200  1.00  0.00     0.024 A 
ATOM     14  C   UNL A   1      33.937  25.978  25.431  1.00  0.00     0.030 A 
ATOM     15  C   UNL A   1      31.788  26.028  26.581  1.00  0.00     0.030 A 
BRANCH  11  16
ATOM     16  S   UNL A   1      32.298  22.349  24.910  1.00  0.00     0.238 S 
ATOM     17  O   UNL A   1      33.480  21.591  25.257  1.00  0.00    -0.207 OA
ATOM     18  O   UNL A   1      31.771  22.378  23.567  1.00  0.00    -0.207 OA
BRANCH  16  19
ATOM     19  N   UNL A   1      31.061  21.740  25.864  1.00  0.00    -0.225 NA
ATOM     20  H   UNL A   1      31.396  20.925  26.376  1.00  0.00     0.137 HD
ATOM     21  H   UNL A   1      30.276  21.470  25.271  1.00  0.00     0.137 HD
ENDBRANCH  16  19
ENDBRANCH  11  16
ENDBRANCH   6  10
BRANCH   8  22
ATOM     22  C   UNL A   1      31.721  28.881  24.433  1.00  0.00     0.054 A 
ATOM     23  C   UNL A   1      31.850  27.897  23.472  1.00  0.00     0.024 A 
ATOM     24  S   UNL A   1      30.380  29.900  24.117  1.00  0.00    -0.122 S 
ATOM     25  C   UNL A   1      30.796  27.938  22.514  1.00  0.00     0.033 A 
ATOM     26  C   UNL A   1      29.937  28.973  22.774  1.00  0.00     0.094 A 
ATOM     27  Cl  UNL A   1      28.525  29.374  21.884  1.00  0.00    -0.072 Cl
ENDBRANCH   8  22
ENDBRANCH   3   5
ENDBRANCH   2   3
ENDBRANCH   1   2
BRANCH   1  28
ATOM     28  C   UNL A   1      35.044  33.879  29.357  1.00  0.00     0.275 C 
BRANCH  28  29
ATOM     29  O   UNL A   1      36.011  33.365  30.265  1.00  0.00    -0.458 OA
BRANCH  29  30
ATOM     30  C   UNL A   1      35.523  32.600  31.267  1.00  0.00     0.338 C 
ATOM     31  O   UNL A   1      34.382  32.609  31.698  1.00  0.00    -0.246 OA
BRANCH  30  32
ATOM     32  C   UNL A   1      36.640  31.892  31.899  1.00  0.00     0.060 A 
ATOM     33  C   UNL A   1      37.817  32.627  32.058  1.00  0.00     0.016 A 
ATOM     34  C   UNL A   1      36.623  30.489  31.909  1.00  0.00     0.016 A 
ATOM     35  C   UNL A   1      39.009  31.959  31.913  1.00  0.00     0.010 A 
ATOM     36  C   UNL A   1      37.809  29.830  31.739  1.00  0.00     0.010 A 
ATOM     37  C   UNL A   1      38.968  30.591  31.630  1.00  0.00    -0.014 A 
BRANCH  37  38
ATOM     38  C   UNL A   1      40.196  29.934  31.253  1.00  0.00     0.031 A 
ATOM     39  C   UNL A   1      41.078  29.692  32.411  1.00  0.00     0.074 A 
ATOM     40  C   UNL A   1      40.410  29.486  30.003  1.00  0.00     0.049 A 
ATOM     41  N   UNL A   1      42.189  30.284  32.692  1.00  0.00    -0.248 NA
ATOM     42  C   UNL A   1      40.548  28.844  33.492  1.00  0.00     0.031 C 
ATOM     43  C   UNL A   1      39.470  29.406  28.880  1.00  0.00     0.029 A 
ATOM     44  N   UNL A   1      41.514  28.876  29.512  1.00  0.00    -0.354 N 
ATOM     45  C   UNL A   1      42.608  29.714  33.887  1.00  0.00     0.074 A 
ATOM     46  C   UNL A   1      41.467  29.030  34.437  1.00  0.00     0.031 C 
ATOM     47  C   UNL A   1      39.964  28.548  27.955  1.00  0.00     0.029 A 
ATOM     48  C   UNL A   1      41.298  28.132  28.362  1.00  0.00     0.049 A 
ATOM     49  H   UNL A   1      42.399  28.954  29.937  1.00  0.00     0.167 HD
ATOM     50  C   UNL A   1      43.927  29.592  34.195  1.00  0.00     0.031 A 
ATOM     51  C   UNL A   1      42.122  27.168  27.871  1.00  0.00     0.031 A 
ATOM     52  C   UNL A   1      44.753  30.419  33.354  1.00  0.00     0.049 A 
ATOM     53  C   UNL A   1      43.460  27.392  28.492  1.00  0.00     0.074 A 
ATOM     54  C   UNL A   1      44.833  31.776  33.116  1.00  0.00     0.029 A 
ATOM     55  N   UNL A   1      45.370  29.809  32.283  1.00  0.00    -0.354 N 
ATOM     56  N   UNL A   1      44.177  28.461  28.275  1.00  0.00    -0.248 NA
ATOM     57  C   UNL A   1      43.757  26.689  29.733  1.00  0.00     0.031 C 
ATOM     58  C   UNL A   1      45.046  31.890  31.711  1.00  0.00     0.029 A 
ATOM     59  C   UNL A   1      45.159  30.603  31.182  1.00  0.00     0.049 A 
ATOM     60  H   UNL A   1      45.869  28.961  32.304  1.00  0.00     0.167 HD
ATOM     61  C   UNL A   1      44.702  28.804  29.515  1.00  0.00     0.074 A 
ATOM     62  C   UNL A   1      44.470  27.631  30.360  1.00  0.00     0.031 C 
ATOM     63  C   UNL A   1      45.009  30.098  29.831  1.00  0.00     0.031 A 
BRANCH  50  64
ATOM     64  C   UNL A   1      44.469  28.417  34.963  1.00  0.00    -0.014 A 
ATOM     65  C   UNL A   1      44.733  27.217  34.279  1.00  0.00     0.010 A 
ATOM     66  C   UNL A   1      44.475  28.368  36.375  1.00  0.00     0.010 A 
ATOM     67  C   UNL A   1      44.936  26.020  34.978  1.00  0.00     0.020 A 
ATOM     68  C   UNL A   1      44.724  27.194  37.080  1.00  0.00     0.020 A 
ATOM     69  C   UNL A   1      44.919  26.017  36.374  1.00  0.00     0.054 A 
BRANCH  69  70
ATOM     70  S   UNL A   1      45.074  24.452  37.262  1.00  0.00     0.124 S 
ATOM     71  O   UNL A   1      46.523  24.280  37.313  1.00  0.00    -0.237 OA
ATOM     72  O   UNL A   1      44.425  24.754  38.535  1.00  0.00    -0.237 OA
ATOM     73  O   UNL A   1      44.359  23.503  36.413  1.00  0.00    -0.744 OA
ENDBRANCH  69  70
ENDBRANCH  50  64
BRANCH  51  74
ATOM     74  C   UNL A   1      41.702  25.864  27.286  1.00  0.00    -0.014 A 
ATOM     75  C   UNL A   1      42.589  25.063  26.542  1.00  0.00     0.010 A 
ATOM     76  C   UNL A   1      40.483  25.274  27.689  1.00  0.00     0.010 A 
ATOM     77  C   UNL A   1      42.286  23.716  26.253  1.00  0.00     0.020 A 
ATOM     78  C   UNL A   1      40.172  23.940  27.402  1.00  0.00     0.020 A 
ATOM     79  C   UNL A   1      41.085  23.158  26.701  1.00  0.00     0.054 A 
BRANCH  79  80
ATOM     80  S   UNL A   1      40.765  21.382  26.469  1.00  0.00     0.124 S 
ATOM     81  O   UNL A   1      41.916  20.959  25.677  1.00  0.00    -0.237 OA
ATOM     82  O   UNL A   1      40.725  20.883  27.841  1.00  0.00    -0.237 OA
ATOM     83  O   UNL A   1      39.484  21.352  25.765  1.00  0.00    -0.744 OA
ENDBRANCH  79  80
ENDBRANCH  51  74
BRANCH  63  84
ATOM     84  C   UNL A   1      44.966  31.143  28.734  1.00  0.00    -0.014 A 
ATOM     85  C   UNL A   1      46.063  31.454  27.906  1.00  0.00     0.010 A 
ATOM     86  C   UNL A   1      43.714  31.695  28.415  1.00  0.00     0.010 A 
ATOM     87  C   UNL A   1      45.912  32.310  26.801  1.00  0.00     0.020 A 
ATOM     88  C   UNL A   1      43.553  32.535  27.309  1.00  0.00     0.020 A 
ATOM     89  C   UNL A   1      44.654  32.845  26.510  1.00  0.00     0.054 A 
BRANCH  89  90
ATOM     90  S   UNL A   1      44.447  33.911  25.054  1.00  0.00     0.124 S 
ATOM     91  O   UNL A   1      43.467  34.891  25.514  1.00  0.00    -0.237 OA
ATOM     92  O   UNL A   1      45.796  34.427  24.833  1.00  0.00    -0.237 OA
ATOM     93  O   UNL A   1      43.967  32.996  24.018  1.00  0.00    -0.744 OA
ENDBRANCH  89  90
ENDBRANCH  63  84
ENDBRANCH  37  38
ENDBRANCH  30  32
ENDBRANCH  29  30
ENDBRANCH  28  29
ENDBRANCH   1  28
TORSDOF 18
ENDMDL
