MODEL 1
REMARK VINA RESULT:     -13.3      0.000      0.000
REMARK SMILES C/C(=N\Nc1nc(-c2ccc(Cl)cc2)cs1)c1nnn(-c2ccc(C(=O)OCCOC(=O)c3ccc(-c4c5nc(c(-c6ccc(S(=O)(=O)[O-])cc6)c6ccc([nH]6)c(-c6ccc(S(=O)(=O)[O-])cc6)c6nc(c(-c7ccc(S(=O)(=O)[O-])cc7)c7ccc4[nH]7)C=C6)C=C5)cc3)cc2)c1C
REMARK SMILES IDX 28 1 27 2 25 3 26 4 24 5 21 6 22 7 94 8 23 9 93 10 20 11
REMARK SMILES IDX 17 12 18 13 95 14 19 15 96 16 2 17 1 18 3 19 4 20 5 22 6 23
REMARK SMILES IDX 16 24 7 25 15 26 8 27 9 28 14 29 10 30 13 31 11 32 12 33
REMARK SMILES IDX 29 34 30 35 31 36 32 37 33 38 34 39 92 40 35 41 91 42 36 43
REMARK SMILES IDX 37 44 38 45 85 46 39 47 90 48 84 49 86 50 40 51 89 52 83 53
REMARK SMILES IDX 82 54 41 56 71 57 52 58 70 59 53 60 56 61 69 62 87 63 54 64
REMARK SMILES IDX 55 65 68 67 88 68 57 69 42 70 43 71 51 72 44 73 50 74 45 75
REMARK SMILES IDX 46 76 47 77 48 78 49 79 72 80 73 81 81 82 74 83 80 84 75 85
REMARK SMILES IDX 76 86 77 87 78 88 79 89 58 90 59 91 67 92 60 93 66 94 61 95
REMARK SMILES IDX 62 96 63 97 64 98 65 99
REMARK H PARENT 4 21 86 55 56 66
REMARK Flexibility Score: inf
ROOT
ATOM      1  C   UNL A   1      43.450  19.339  25.511  1.00  0.00     0.275 C 
ENDROOT
BRANCH   1   2
ATOM      2  O   UNL A   1      42.044  19.578  25.343  1.00  0.00    -0.458 OA
BRANCH   2   3
ATOM      3  C   UNL A   1      41.325  19.787  26.477  1.00  0.00     0.338 C 
ATOM      4  O   UNL A   1      41.717  19.625  27.624  1.00  0.00    -0.246 OA
BRANCH   3   5
ATOM      5  C   UNL A   1      39.974  20.302  26.136  1.00  0.00     0.060 A 
ATOM      6  C   UNL A   1      37.582  21.330  25.181  1.00  0.00     0.067 A 
ATOM      7  C   UNL A   1      37.851  19.974  24.989  1.00  0.00     0.029 A 
ATOM      8  C   UNL A   1      38.409  22.125  25.983  1.00  0.00     0.029 A 
ATOM      9  C   UNL A   1      39.068  19.467  25.458  1.00  0.00     0.018 A 
ATOM     10  C   UNL A   1      39.607  21.612  26.458  1.00  0.00     0.018 A 
BRANCH   6  11
ATOM     11  N   UNL A   1      36.637  21.977  24.362  1.00  0.00    -0.217 N 
ATOM     12  C   UNL A   1      34.817  22.932  23.637  1.00  0.00     0.132 A 
ATOM     13  N   UNL A   1      35.835  23.197  22.760  1.00  0.00    -0.128 NA
ATOM     14  C   UNL A   1      35.304  22.172  24.687  1.00  0.00     0.071 A 
ATOM     15  N   UNL A   1      36.960  22.704  23.273  1.00  0.00    -0.061 NA
ATOM     16  C   UNL A   1      34.687  21.768  25.981  1.00  0.00     0.069 C 
BRANCH  12  17
ATOM     17  C   UNL A   1      33.474  23.487  23.535  1.00  0.00     0.087 C 
ATOM     18  C   UNL A   1      32.571  22.806  22.537  1.00  0.00     0.071 C 
ATOM     19  N   UNL A   1      33.239  24.549  24.256  1.00  0.00    -0.176 NA
BRANCH  19  20
ATOM     20  N   UNL A   1      32.106  25.324  24.169  1.00  0.00    -0.252 N 
ATOM     21  H   UNL A   1      31.303  24.842  23.865  1.00  0.00     0.193 HD
BRANCH  20  22
ATOM     22  C   UNL A   1      31.905  26.640  24.430  1.00  0.00     0.203 A 
ATOM     23  N   UNL A   1      30.853  27.345  24.089  1.00  0.00    -0.219 NA
ATOM     24  S   UNL A   1      33.134  27.574  25.211  1.00  0.00    -0.103 S 
ATOM     25  C   UNL A   1      31.143  28.691  24.114  1.00  0.00     0.084 A 
ATOM     26  C   UNL A   1      32.347  29.017  24.699  1.00  0.00     0.097 A 
BRANCH  25  27
ATOM     27  C   UNL A   1      30.249  29.623  23.453  1.00  0.00     0.001 A 
ATOM     28  C   UNL A   1      30.035  29.511  22.074  1.00  0.00     0.012 A 
ATOM     29  C   UNL A   1      29.714  30.719  24.147  1.00  0.00     0.012 A 
ATOM     30  C   UNL A   1      29.274  30.468  21.397  1.00  0.00     0.021 A 
ATOM     31  C   UNL A   1      28.964  31.682  23.467  1.00  0.00     0.021 A 
ATOM     32  C   UNL A   1      28.742  31.549  22.096  1.00  0.00     0.041 A 
ATOM     33  Cl  UNL A   1      27.823  32.739  21.260  1.00  0.00    -0.084 Cl
ENDBRANCH  25  27
ENDBRANCH  20  22
ENDBRANCH  19  20
ENDBRANCH  12  17
ENDBRANCH   6  11
ENDBRANCH   3   5
ENDBRANCH   2   3
ENDBRANCH   1   2
BRANCH   1  34
ATOM     34  C   UNL A   1      44.253  20.587  25.177  1.00  0.00     0.275 C 
BRANCH  34  35
ATOM     35  O   UNL A   1      43.841  21.684  25.989  1.00  0.00    -0.458 OA
BRANCH  35  36
ATOM     36  C   UNL A   1      43.245  22.698  25.322  1.00  0.00     0.338 C 
ATOM     37  O   UNL A   1      43.382  22.989  24.145  1.00  0.00    -0.246 OA
BRANCH  36  38
ATOM     38  C   UNL A   1      42.545  23.553  26.282  1.00  0.00     0.060 A 
ATOM     39  C   UNL A   1      41.671  24.513  25.766  1.00  0.00     0.016 A 
ATOM     40  C   UNL A   1      43.007  23.598  27.605  1.00  0.00     0.016 A 
ATOM     41  C   UNL A   1      41.419  25.636  26.522  1.00  0.00     0.010 A 
ATOM     42  C   UNL A   1      42.768  24.724  28.350  1.00  0.00     0.010 A 
ATOM     43  C   UNL A   1      42.052  25.762  27.763  1.00  0.00    -0.014 A 
BRANCH  43  44
ATOM     44  C   UNL A   1      41.914  27.012  28.477  1.00  0.00     0.031 A 
ATOM     45  C   UNL A   1      43.058  27.930  28.290  1.00  0.00     0.074 A 
ATOM     46  C   UNL A   1      40.782  27.341  29.125  1.00  0.00     0.049 A 
ATOM     47  N   UNL A   1      43.907  28.328  29.176  1.00  0.00    -0.248 NA
ATOM     48  C   UNL A   1      43.390  28.322  26.911  1.00  0.00     0.031 C 
ATOM     49  C   UNL A   1      39.487  26.653  29.107  1.00  0.00     0.029 A 
ATOM     50  N   UNL A   1      40.522  28.462  29.842  1.00  0.00    -0.354 N 
ATOM     51  C   UNL A   1      44.778  29.178  28.504  1.00  0.00     0.074 A 
ATOM     52  C   UNL A   1      44.524  28.996  27.098  1.00  0.00     0.031 C 
ATOM     53  C   UNL A   1      38.533  27.499  29.560  1.00  0.00     0.029 A 
ATOM     54  C   UNL A   1      39.171  28.720  30.024  1.00  0.00     0.049 A 
ATOM     55  H   UNL A   1      41.230  29.042  30.203  1.00  0.00     0.167 HD
ATOM     56  C   UNL A   1      45.489  30.137  29.155  1.00  0.00     0.031 A 
ATOM     57  C   UNL A   1      38.633  29.896  30.437  1.00  0.00     0.031 A 
ATOM     58  C   UNL A   1      45.490  29.930  30.578  1.00  0.00     0.049 A 
ATOM     59  C   UNL A   1      39.723  30.671  31.088  1.00  0.00     0.074 A 
ATOM     60  C   UNL A   1      45.955  28.931  31.409  1.00  0.00     0.029 A 
ATOM     61  N   UNL A   1      44.588  30.659  31.318  1.00  0.00    -0.354 N 
ATOM     62  N   UNL A   1      40.303  30.304  32.198  1.00  0.00    -0.248 NA
ATOM     63  C   UNL A   1      40.491  31.596  30.266  1.00  0.00     0.031 C 
ATOM     64  C   UNL A   1      44.973  28.821  32.434  1.00  0.00     0.029 A 
ATOM     65  C   UNL A   1      43.999  29.798  32.208  1.00  0.00     0.049 A 
ATOM     66  H   UNL A   1      44.399  31.621  31.226  1.00  0.00     0.167 HD
ATOM     67  C   UNL A   1      41.647  30.606  32.021  1.00  0.00     0.074 A 
ATOM     68  C   UNL A   1      41.687  31.481  30.851  1.00  0.00     0.031 C 
ATOM     69  C   UNL A   1      42.625  29.900  32.659  1.00  0.00     0.031 A 
BRANCH  56  70
ATOM     70  C   UNL A   1      45.844  31.463  28.538  1.00  0.00    -0.014 A 
ATOM     71  C   UNL A   1      44.883  32.124  27.747  1.00  0.00     0.010 A 
ATOM     72  C   UNL A   1      47.169  31.944  28.476  1.00  0.00     0.010 A 
ATOM     73  C   UNL A   1      45.250  33.161  26.881  1.00  0.00     0.020 A 
ATOM     74  C   UNL A   1      47.535  33.007  27.653  1.00  0.00     0.020 A 
ATOM     75  C   UNL A   1      46.579  33.583  26.829  1.00  0.00     0.054 A 
BRANCH  75  76
ATOM     76  S   UNL A   1      47.068  34.832  25.617  1.00  0.00     0.124 S 
ATOM     77  O   UNL A   1      48.349  34.310  25.150  1.00  0.00    -0.237 OA
ATOM     78  O   UNL A   1      45.971  34.778  24.656  1.00  0.00    -0.237 OA
ATOM     79  O   UNL A   1      47.141  36.062  26.403  1.00  0.00    -0.744 OA
ENDBRANCH  75  76
ENDBRANCH  56  70
BRANCH  57  80
ATOM     80  C   UNL A   1      37.366  30.518  29.974  1.00  0.00    -0.014 A 
ATOM     81  C   UNL A   1      36.508  31.180  30.872  1.00  0.00     0.010 A 
ATOM     82  C   UNL A   1      37.129  30.698  28.594  1.00  0.00     0.010 A 
ATOM     83  C   UNL A   1      35.490  32.032  30.408  1.00  0.00     0.020 A 
ATOM     84  C   UNL A   1      36.114  31.539  28.124  1.00  0.00     0.020 A 
ATOM     85  C   UNL A   1      35.313  32.222  29.034  1.00  0.00     0.054 A 
BRANCH  85  86
ATOM     86  S   UNL A   1      34.115  33.457  28.445  1.00  0.00     0.124 S 
ATOM     87  O   UNL A   1      33.668  34.076  29.688  1.00  0.00    -0.237 OA
ATOM     88  O   UNL A   1      34.931  34.300  27.575  1.00  0.00    -0.237 OA
ATOM     89  O   UNL A   1      33.106  32.655  27.755  1.00  0.00    -0.744 OA
ENDBRANCH  85  86
ENDBRANCH  57  80
BRANCH  69  90
ATOM     90  C   UNL A   1      42.233  28.954  33.770  1.00  0.00    -0.014 A 
ATOM     91  C   UNL A   1      41.689  27.673  33.546  1.00  0.00     0.010 A 
ATOM     92  C   UNL A   1      42.630  29.297  35.075  1.00  0.00     0.010 A 
ATOM     93  C   UNL A   1      41.546  26.762  34.605  1.00  0.00     0.020 A 
ATOM     94  C   UNL A   1      42.505  28.390  36.128  1.00  0.00     0.020 A 
ATOM     95  C   UNL A   1      41.962  27.127  35.890  1.00  0.00     0.054 A 
BRANCH  95  96
ATOM     96  S   UNL A   1      41.862  25.917  37.242  1.00  0.00     0.124 S 
ATOM     97  O   UNL A   1      42.264  24.677  36.585  1.00  0.00    -0.237 OA
ATOM     98  O   UNL A   1      42.808  26.445  38.223  1.00  0.00    -0.237 OA
ATOM     99  O   UNL A   1      40.461  25.973  37.655  1.00  0.00    -0.744 OA
ENDBRANCH  95  96
ENDBRANCH  69  90
ENDBRANCH  43  44
ENDBRANCH  36  38
ENDBRANCH  35  36
ENDBRANCH  34  35
ENDBRANCH   1  34
TORSDOF 19
ENDMDL
MODEL 2
REMARK VINA RESULT:     -12.7      1.456      2.123
REMARK SMILES C/C(=N\Nc1nc(-c2ccc(Cl)cc2)cs1)c1nnn(-c2ccc(C(=O)OCCOC(=O)c3ccc(-c4c5nc(c(-c6ccc(S(=O)(=O)[O-])cc6)c6ccc([nH]6)c(-c6ccc(S(=O)(=O)[O-])cc6)c6nc(c(-c7ccc(S(=O)(=O)[O-])cc7)c7ccc4[nH]7)C=C6)C=C5)cc3)cc2)c1C
REMARK SMILES IDX 28 1 27 2 25 3 26 4 24 5 21 6 22 7 94 8 23 9 93 10 20 11
REMARK SMILES IDX 17 12 18 13 95 14 19 15 96 16 2 17 1 18 3 19 4 20 5 22 6 23
REMARK SMILES IDX 16 24 7 25 15 26 8 27 9 28 14 29 10 30 13 31 11 32 12 33
REMARK SMILES IDX 29 34 30 35 31 36 32 37 33 38 34 39 92 40 35 41 91 42 36 43
REMARK SMILES IDX 37 44 38 45 85 46 39 47 90 48 84 49 86 50 40 51 89 52 83 53
REMARK SMILES IDX 82 54 41 56 71 57 52 58 70 59 53 60 56 61 69 62 87 63 54 64
REMARK SMILES IDX 55 65 68 67 88 68 57 69 42 70 43 71 51 72 44 73 50 74 45 75
REMARK SMILES IDX 46 76 47 77 48 78 49 79 72 80 73 81 81 82 74 83 80 84 75 85
REMARK SMILES IDX 76 86 77 87 78 88 79 89 58 90 59 91 67 92 60 93 66 94 61 95
REMARK SMILES IDX 62 96 63 97 64 98 65 99
REMARK H PARENT 4 21 86 55 56 66
REMARK Flexibility Score: inf
ROOT
ATOM      1  C   UNL A   1      43.065  18.503  25.827  1.00  0.00     0.275 C 
ENDROOT
BRANCH   1   2
ATOM      2  O   UNL A   1      41.850  19.194  25.496  1.00  0.00    -0.458 OA
BRANCH   2   3
ATOM      3  C   UNL A   1      41.224  19.841  26.514  1.00  0.00     0.338 C 
ATOM      4  O   UNL A   1      41.643  19.973  27.655  1.00  0.00    -0.246 OA
BRANCH   3   5
ATOM      5  C   UNL A   1      39.947  20.429  26.034  1.00  0.00     0.060 A 
ATOM      6  C   UNL A   1      37.445  21.483  25.467  1.00  0.00     0.067 A 
ATOM      7  C   UNL A   1      38.438  22.338  25.948  1.00  0.00     0.029 A 
ATOM      8  C   UNL A   1      37.739  20.162  25.112  1.00  0.00     0.029 A 
ATOM      9  C   UNL A   1      39.692  21.796  26.249  1.00  0.00     0.018 A 
ATOM     10  C   UNL A   1      38.989  19.633  25.398  1.00  0.00     0.018 A 
BRANCH   6  11
ATOM     11  N   UNL A   1      36.091  21.851  25.584  1.00  0.00    -0.217 N 
ATOM     12  C   UNL A   1      34.133  22.732  25.210  1.00  0.00     0.132 A 
ATOM     13  N   UNL A   1      34.005  21.760  26.166  1.00  0.00    -0.128 NA
ATOM     14  C   UNL A   1      35.454  22.799  24.799  1.00  0.00     0.071 A 
ATOM     15  N   UNL A   1      35.184  21.156  26.300  1.00  0.00    -0.061 NA
ATOM     16  C   UNL A   1      36.101  23.534  23.677  1.00  0.00     0.069 C 
BRANCH  12  17
ATOM     17  C   UNL A   1      33.020  23.472  24.632  1.00  0.00     0.087 C 
ATOM     18  C   UNL A   1      32.670  23.102  23.213  1.00  0.00     0.071 C 
ATOM     19  N   UNL A   1      32.514  24.416  25.378  1.00  0.00    -0.176 NA
BRANCH  19  20
ATOM     20  N   UNL A   1      31.587  25.341  24.955  1.00  0.00    -0.252 N 
ATOM     21  H   UNL A   1      30.775  24.953  24.556  1.00  0.00     0.193 HD
BRANCH  20  22
ATOM     22  C   UNL A   1      31.601  26.697  24.994  1.00  0.00     0.203 A 
ATOM     23  N   UNL A   1      30.667  27.493  24.531  1.00  0.00    -0.219 NA
ATOM     24  S   UNL A   1      32.975  27.540  25.621  1.00  0.00    -0.103 S 
ATOM     25  C   UNL A   1      31.165  28.763  24.337  1.00  0.00     0.084 A 
ATOM     26  C   UNL A   1      32.416  28.985  24.870  1.00  0.00     0.097 A 
BRANCH  25  27
ATOM     27  C   UNL A   1      30.418  29.702  23.523  1.00  0.00     0.001 A 
ATOM     28  C   UNL A   1      29.679  30.716  24.145  1.00  0.00     0.012 A 
ATOM     29  C   UNL A   1      30.306  29.519  22.136  1.00  0.00     0.012 A 
ATOM     30  C   UNL A   1      28.857  31.557  23.389  1.00  0.00     0.021 A 
ATOM     31  C   UNL A   1      29.474  30.352  21.383  1.00  0.00     0.021 A 
ATOM     32  C   UNL A   1      28.758  31.371  22.011  1.00  0.00     0.041 A 
ATOM     33  Cl  UNL A   1      27.731  32.391  21.082  1.00  0.00    -0.084 Cl
ENDBRANCH  25  27
ENDBRANCH  20  22
ENDBRANCH  19  20
ENDBRANCH  12  17
ENDBRANCH   6  11
ENDBRANCH   3   5
ENDBRANCH   2   3
ENDBRANCH   1   2
BRANCH   1  34
ATOM     34  C   UNL A   1      44.223  19.017  24.985  1.00  0.00     0.275 C 
BRANCH  34  35
ATOM     35  O   UNL A   1      43.871  20.235  24.333  1.00  0.00    -0.458 OA
BRANCH  35  36
ATOM     36  C   UNL A   1      44.645  21.298  24.649  1.00  0.00     0.338 C 
ATOM     37  O   UNL A   1      45.833  21.442  24.414  1.00  0.00    -0.246 OA
BRANCH  36  38
ATOM     38  C   UNL A   1      43.885  22.197  25.521  1.00  0.00     0.060 A 
ATOM     39  C   UNL A   1      43.124  23.193  24.905  1.00  0.00     0.016 A 
ATOM     40  C   UNL A   1      44.199  22.233  26.887  1.00  0.00     0.016 A 
ATOM     41  C   UNL A   1      42.846  24.336  25.622  1.00  0.00     0.010 A 
ATOM     42  C   UNL A   1      43.935  23.378  27.595  1.00  0.00     0.010 A 
ATOM     43  C   UNL A   1      43.342  24.444  26.926  1.00  0.00    -0.014 A 
BRANCH  43  44
ATOM     44  C   UNL A   1      43.188  25.707  27.613  1.00  0.00     0.031 A 
ATOM     45  C   UNL A   1      44.267  26.674  27.320  1.00  0.00     0.074 A 
ATOM     46  C   UNL A   1      42.088  25.997  28.331  1.00  0.00     0.049 A 
ATOM     47  N   UNL A   1      45.153  27.142  28.132  1.00  0.00    -0.248 NA
ATOM     48  C   UNL A   1      44.481  27.040  25.911  1.00  0.00     0.031 C 
ATOM     49  C   UNL A   1      40.833  25.245  28.424  1.00  0.00     0.029 A 
ATOM     50  N   UNL A   1      41.820  27.125  29.034  1.00  0.00    -0.354 N 
ATOM     51  C   UNL A   1      45.929  28.014  27.377  1.00  0.00     0.074 A 
ATOM     52  C   UNL A   1      45.588  27.777  25.998  1.00  0.00     0.031 C 
ATOM     53  C   UNL A   1      39.870  26.054  28.921  1.00  0.00     0.029 A 
ATOM     54  C   UNL A   1      40.473  27.320  29.305  1.00  0.00     0.049 A 
ATOM     55  H   UNL A   1      42.520  27.752  29.327  1.00  0.00     0.167 HD
ATOM     56  C   UNL A   1      46.632  29.028  27.949  1.00  0.00     0.031 A 
ATOM     57  C   UNL A   1      39.904  28.479  29.723  1.00  0.00     0.031 A 
ATOM     58  C   UNL A   1      46.743  28.865  29.374  1.00  0.00     0.049 A 
ATOM     59  C   UNL A   1      40.995  29.328  30.273  1.00  0.00     0.074 A 
ATOM     60  C   UNL A   1      47.317  27.917  30.197  1.00  0.00     0.029 A 
ATOM     61  N   UNL A   1      45.857  29.570  30.156  1.00  0.00    -0.354 N 
ATOM     62  N   UNL A   1      41.669  29.025  31.348  1.00  0.00    -0.248 NA
ATOM     63  C   UNL A   1      41.653  30.265  29.373  1.00  0.00     0.031 C 
ATOM     64  C   UNL A   1      46.416  27.789  31.291  1.00  0.00     0.029 A 
ATOM     65  C   UNL A   1      45.378  28.708  31.109  1.00  0.00     0.049 A 
ATOM     66  H   UNL A   1      45.612  30.518  30.052  1.00  0.00     0.167 HD
ATOM     67  C   UNL A   1      42.980  29.389  31.068  1.00  0.00     0.074 A 
ATOM     68  C   UNL A   1      42.892  30.229  29.875  1.00  0.00     0.031 C 
ATOM     69  C   UNL A   1      44.036  28.754  31.654  1.00  0.00     0.031 A 
BRANCH  56  70
ATOM     70  C   UNL A   1      46.873  30.351  27.273  1.00  0.00    -0.014 A 
ATOM     71  C   UNL A   1      48.135  30.962  27.407  1.00  0.00     0.010 A 
ATOM     72  C   UNL A   1      45.826  31.141  26.752  1.00  0.00     0.010 A 
ATOM     73  C   UNL A   1      48.316  32.318  27.106  1.00  0.00     0.020 A 
ATOM     74  C   UNL A   1      46.009  32.478  26.405  1.00  0.00     0.020 A 
ATOM     75  C   UNL A   1      47.244  33.070  26.622  1.00  0.00     0.054 A 
BRANCH  75  76
ATOM     76  S   UNL A   1      47.452  34.846  26.360  1.00  0.00     0.124 S 
ATOM     77  O   UNL A   1      46.290  35.389  27.058  1.00  0.00    -0.237 OA
ATOM     78  O   UNL A   1      48.747  35.103  26.985  1.00  0.00    -0.237 OA
ATOM     79  O   UNL A   1      47.430  34.982  24.905  1.00  0.00    -0.744 OA
ENDBRANCH  75  76
ENDBRANCH  56  70
BRANCH  57  80
ATOM     80  C   UNL A   1      38.577  29.021  29.334  1.00  0.00    -0.014 A 
ATOM     81  C   UNL A   1      37.663  29.475  30.303  1.00  0.00     0.010 A 
ATOM     82  C   UNL A   1      38.312  29.347  27.986  1.00  0.00     0.010 A 
ATOM     83  C   UNL A   1      36.560  30.270  29.944  1.00  0.00     0.020 A 
ATOM     84  C   UNL A   1      37.213  30.133  27.620  1.00  0.00     0.020 A 
ATOM     85  C   UNL A   1      36.353  30.611  28.604  1.00  0.00     0.054 A 
BRANCH  85  86
ATOM     86  S   UNL A   1      35.032  31.781  28.168  1.00  0.00     0.124 S 
ATOM     87  O   UNL A   1      34.200  30.990  27.266  1.00  0.00    -0.237 OA
ATOM     88  O   UNL A   1      34.440  32.090  29.467  1.00  0.00    -0.237 OA
ATOM     89  O   UNL A   1      35.748  32.889  27.539  1.00  0.00    -0.744 OA
ENDBRANCH  85  86
ENDBRANCH  57  80
BRANCH  69  90
ATOM     90  C   UNL A   1      43.773  27.824  32.815  1.00  0.00    -0.014 A 
ATOM     91  C   UNL A   1      43.525  26.444  32.667  1.00  0.00     0.010 A 
ATOM     92  C   UNL A   1      43.996  28.332  34.107  1.00  0.00     0.010 A 
ATOM     93  C   UNL A   1      43.501  25.598  33.787  1.00  0.00     0.020 A 
ATOM     94  C   UNL A   1      43.989  27.493  35.223  1.00  0.00     0.020 A 
ATOM     95  C   UNL A   1      43.740  26.130  35.059  1.00  0.00     0.054 A 
BRANCH  95  96
ATOM     96  S   UNL A   1      43.800  25.022  36.498  1.00  0.00     0.124 S 
ATOM     97  O   UNL A   1      44.990  25.486  37.204  1.00  0.00    -0.237 OA
ATOM     98  O   UNL A   1      42.528  25.286  37.166  1.00  0.00    -0.237 OA
ATOM     99  O   UNL A   1      43.912  23.690  35.905  1.00  0.00    -0.744 OA
ENDBRANCH  95  96
ENDBRANCH  69  90
ENDBRANCH  43  44
ENDBRANCH  36  38
ENDBRANCH  35  36
ENDBRANCH  34  35
ENDBRANCH   1  34
TORSDOF 19
ENDMDL
MODEL 3
REMARK VINA RESULT:     -11.4      5.988     12.916
REMARK SMILES C/C(=N\Nc1nc(-c2ccc(Cl)cc2)cs1)c1nnn(-c2ccc(C(=O)OCCOC(=O)c3ccc(-c4c5nc(c(-c6ccc(S(=O)(=O)[O-])cc6)c6ccc([nH]6)c(-c6ccc(S(=O)(=O)[O-])cc6)c6nc(c(-c7ccc(S(=O)(=O)[O-])cc7)c7ccc4[nH]7)C=C6)C=C5)cc3)cc2)c1C
REMARK SMILES IDX 28 1 27 2 25 3 26 4 24 5 21 6 22 7 94 8 23 9 93 10 20 11
REMARK SMILES IDX 17 12 18 13 95 14 19 15 96 16 2 17 1 18 3 19 4 20 5 22 6 23
REMARK SMILES IDX 16 24 7 25 15 26 8 27 9 28 14 29 10 30 13 31 11 32 12 33
REMARK SMILES IDX 29 34 30 35 31 36 32 37 33 38 34 39 92 40 35 41 91 42 36 43
REMARK SMILES IDX 37 44 38 45 85 46 39 47 90 48 84 49 86 50 40 51 89 52 83 53
REMARK SMILES IDX 82 54 41 56 71 57 52 58 70 59 53 60 56 61 69 62 87 63 54 64
REMARK SMILES IDX 55 65 68 67 88 68 57 69 42 70 43 71 51 72 44 73 50 74 45 75
REMARK SMILES IDX 46 76 47 77 48 78 49 79 72 80 73 81 81 82 74 83 80 84 75 85
REMARK SMILES IDX 76 86 77 87 78 88 79 89 58 90 59 91 67 92 60 93 66 94 61 95
REMARK SMILES IDX 62 96 63 97 64 98 65 99
REMARK H PARENT 4 21 86 55 56 66
REMARK Flexibility Score: inf
ROOT
ATOM      1  C   UNL A   1      43.053  41.393  29.713  1.00  0.00     0.275 C 
ENDROOT
BRANCH   1   2
ATOM      2  O   UNL A   1      42.261  40.582  28.829  1.00  0.00    -0.458 OA
BRANCH   2   3
ATOM      3  C   UNL A   1      42.831  40.245  27.643  1.00  0.00     0.338 C 
ATOM      4  O   UNL A   1      43.065  41.000  26.711  1.00  0.00    -0.246 OA
BRANCH   3   5
ATOM      5  C   UNL A   1      43.189  38.803  27.642  1.00  0.00     0.060 A 
ATOM      6  C   UNL A   1      44.095  36.194  27.395  1.00  0.00     0.067 A 
ATOM      7  C   UNL A   1      44.750  37.047  28.284  1.00  0.00     0.029 A 
ATOM      8  C   UNL A   1      42.905  36.579  26.767  1.00  0.00     0.029 A 
ATOM      9  C   UNL A   1      44.299  38.367  28.390  1.00  0.00     0.018 A 
ATOM     10  C   UNL A   1      42.454  37.884  26.888  1.00  0.00     0.018 A 
BRANCH   6  11
ATOM     11  N   UNL A   1      44.755  35.047  26.913  1.00  0.00    -0.217 N 
ATOM     12  C   UNL A   1      45.390  32.985  26.603  1.00  0.00     0.132 A 
ATOM     13  N   UNL A   1      45.846  33.749  25.562  1.00  0.00    -0.128 NA
ATOM     14  C   UNL A   1      44.667  33.783  27.475  1.00  0.00     0.071 A 
ATOM     15  N   UNL A   1      45.356  34.978  25.707  1.00  0.00    -0.061 NA
ATOM     16  C   UNL A   1      43.813  33.442  28.646  1.00  0.00     0.069 C 
BRANCH  12  17
ATOM     17  C   UNL A   1      45.536  31.539  26.691  1.00  0.00     0.087 C 
ATOM     18  C   UNL A   1      46.956  31.039  26.766  1.00  0.00     0.071 C 
ATOM     19  N   UNL A   1      44.431  30.849  26.614  1.00  0.00    -0.176 NA
BRANCH  19  20
ATOM     20  N   UNL A   1      44.365  29.479  26.497  1.00  0.00    -0.252 N 
ATOM     21  H   UNL A   1      45.192  29.057  26.170  1.00  0.00     0.193 HD
BRANCH  20  22
ATOM     22  C   UNL A   1      43.355  28.611  26.756  1.00  0.00     0.203 A 
ATOM     23  N   UNL A   1      42.094  28.924  26.936  1.00  0.00    -0.219 NA
ATOM     24  S   UNL A   1      43.682  26.925  26.965  1.00  0.00    -0.103 S 
ATOM     25  C   UNL A   1      41.431  27.907  27.586  1.00  0.00     0.084 A 
ATOM     26  C   UNL A   1      42.135  26.727  27.694  1.00  0.00     0.097 A 
BRANCH  25  27
ATOM     27  C   UNL A   1      40.137  28.172  28.185  1.00  0.00     0.001 A 
ATOM     28  C   UNL A   1      39.285  29.115  27.595  1.00  0.00     0.012 A 
ATOM     29  C   UNL A   1      39.789  27.609  29.422  1.00  0.00     0.012 A 
ATOM     30  C   UNL A   1      38.087  29.473  28.219  1.00  0.00     0.021 A 
ATOM     31  C   UNL A   1      38.597  27.976  30.051  1.00  0.00     0.021 A 
ATOM     32  C   UNL A   1      37.749  28.903  29.445  1.00  0.00     0.041 A 
ATOM     33  Cl  UNL A   1      36.285  29.358  30.224  1.00  0.00    -0.084 Cl
ENDBRANCH  25  27
ENDBRANCH  20  22
ENDBRANCH  19  20
ENDBRANCH  12  17
ENDBRANCH   6  11
ENDBRANCH   3   5
ENDBRANCH   2   3
ENDBRANCH   1   2
BRANCH   1  34
ATOM     34  C   UNL A   1      42.769  41.041  31.165  1.00  0.00     0.275 C 
BRANCH  34  35
ATOM     35  O   UNL A   1      43.408  39.818  31.523  1.00  0.00    -0.458 OA
BRANCH  35  36
ATOM     36  C   UNL A   1      43.862  39.760  32.795  1.00  0.00     0.338 C 
ATOM     37  O   UNL A   1      44.498  40.612  33.392  1.00  0.00    -0.246 OA
BRANCH  36  38
ATOM     38  C   UNL A   1      43.655  38.406  33.312  1.00  0.00     0.060 A 
ATOM     39  C   UNL A   1      43.577  37.369  32.379  1.00  0.00     0.016 A 
ATOM     40  C   UNL A   1      43.229  38.250  34.639  1.00  0.00     0.016 A 
ATOM     41  C   UNL A   1      42.881  36.233  32.727  1.00  0.00     0.010 A 
ATOM     42  C   UNL A   1      42.522  37.125  34.978  1.00  0.00     0.010 A 
ATOM     43  C   UNL A   1      42.285  36.174  33.991  1.00  0.00    -0.014 A 
BRANCH  43  44
ATOM     44  C   UNL A   1      41.421  35.053  34.288  1.00  0.00     0.031 A 
ATOM     45  C   UNL A   1      41.757  33.829  33.530  1.00  0.00     0.074 A 
ATOM     46  C   UNL A   1      40.498  35.105  35.266  1.00  0.00     0.049 A 
ATOM     47  N   UNL A   1      41.048  33.234  32.632  1.00  0.00    -0.248 NA
ATOM     48  C   UNL A   1      43.121  33.298  33.679  1.00  0.00     0.031 C 
ATOM     49  C   UNL A   1      40.299  36.147  36.279  1.00  0.00     0.029 A 
ATOM     50  N   UNL A   1      39.617  34.145  35.639  1.00  0.00    -0.354 N 
ATOM     51  C   UNL A   1      41.799  32.135  32.231  1.00  0.00     0.074 A 
ATOM     52  C   UNL A   1      43.122  32.324  32.769  1.00  0.00     0.031 C 
ATOM     53  C   UNL A   1      39.547  35.645  37.285  1.00  0.00     0.029 A 
ATOM     54  C   UNL A   1      39.104  34.310  36.918  1.00  0.00     0.049 A 
ATOM     55  H   UNL A   1      39.364  33.395  35.054  1.00  0.00     0.167 HD
ATOM     56  C   UNL A   1      41.222  31.035  31.676  1.00  0.00     0.031 A 
ATOM     57  C   UNL A   1      38.448  33.366  37.640  1.00  0.00     0.031 A 
ATOM     58  C   UNL A   1      39.871  31.293  31.259  1.00  0.00     0.049 A 
ATOM     59  C   UNL A   1      37.978  32.330  36.683  1.00  0.00     0.074 A 
ATOM     60  C   UNL A   1      39.287  32.142  30.341  1.00  0.00     0.029 A 
ATOM     61  N   UNL A   1      38.866  30.899  32.113  1.00  0.00    -0.354 N 
ATOM     62  N   UNL A   1      37.079  32.554  35.764  1.00  0.00    -0.248 NA
ATOM     63  C   UNL A   1      38.842  31.183  36.436  1.00  0.00     0.031 C 
ATOM     64  C   UNL A   1      38.085  32.583  30.963  1.00  0.00     0.029 A 
ATOM     65  C   UNL A   1      37.970  31.933  32.195  1.00  0.00     0.049 A 
ATOM     66  H   UNL A   1      38.802  30.033  32.579  1.00  0.00     0.167 HD
ATOM     67  C   UNL A   1      37.522  31.857  34.647  1.00  0.00     0.074 A 
ATOM     68  C   UNL A   1      38.562  30.961  35.148  1.00  0.00     0.031 C 
ATOM     69  C   UNL A   1      37.208  32.265  33.383  1.00  0.00     0.031 A 
BRANCH  56  70
ATOM     70  C   UNL A   1      41.748  29.639  31.872  1.00  0.00    -0.014 A 
ATOM     71  C   UNL A   1      41.565  29.013  33.121  1.00  0.00     0.010 A 
ATOM     72  C   UNL A   1      42.652  29.033  30.975  1.00  0.00     0.010 A 
ATOM     73  C   UNL A   1      42.311  27.883  33.480  1.00  0.00     0.020 A 
ATOM     74  C   UNL A   1      43.364  27.881  31.304  1.00  0.00     0.020 A 
ATOM     75  C   UNL A   1      43.218  27.336  32.571  1.00  0.00     0.054 A 
BRANCH  75  76
ATOM     76  S   UNL A   1      44.269  25.958  33.087  1.00  0.00     0.124 S 
ATOM     77  O   UNL A   1      44.319  25.150  31.872  1.00  0.00    -0.237 OA
ATOM     78  O   UNL A   1      45.511  26.635  33.451  1.00  0.00    -0.237 OA
ATOM     79  O   UNL A   1      43.536  25.367  34.204  1.00  0.00    -0.744 OA
ENDBRANCH  75  76
ENDBRANCH  56  70
BRANCH  57  80
ATOM     80  C   UNL A   1      38.536  33.133  39.105  1.00  0.00    -0.014 A 
ATOM     81  C   UNL A   1      37.409  32.736  39.848  1.00  0.00     0.010 A 
ATOM     82  C   UNL A   1      39.797  33.035  39.732  1.00  0.00     0.010 A 
ATOM     83  C   UNL A   1      37.544  32.210  41.146  1.00  0.00     0.020 A 
ATOM     84  C   UNL A   1      39.940  32.519  41.025  1.00  0.00     0.020 A 
ATOM     85  C   UNL A   1      38.814  32.086  41.718  1.00  0.00     0.054 A 
BRANCH  85  86
ATOM     86  S   UNL A   1      38.999  31.245  43.320  1.00  0.00     0.124 S 
ATOM     87  O   UNL A   1      39.975  30.205  43.015  1.00  0.00    -0.237 OA
ATOM     88  O   UNL A   1      39.470  32.320  44.190  1.00  0.00    -0.237 OA
ATOM     89  O   UNL A   1      37.651  30.763  43.614  1.00  0.00    -0.744 OA
ENDBRANCH  85  86
ENDBRANCH  57  80
BRANCH  69  90
ATOM     90  C   UNL A   1      36.154  33.331  33.203  1.00  0.00    -0.014 A 
ATOM     91  C   UNL A   1      36.451  34.691  32.981  1.00  0.00     0.010 A 
ATOM     92  C   UNL A   1      34.825  32.898  33.043  1.00  0.00     0.010 A 
ATOM     93  C   UNL A   1      35.439  35.592  32.610  1.00  0.00     0.020 A 
ATOM     94  C   UNL A   1      33.819  33.786  32.659  1.00  0.00     0.020 A 
ATOM     95  C   UNL A   1      34.129  35.130  32.445  1.00  0.00     0.054 A 
BRANCH  95  96
ATOM     96  S   UNL A   1      32.839  36.275  31.876  1.00  0.00     0.124 S 
ATOM     97  O   UNL A   1      31.631  35.709  32.467  1.00  0.00    -0.237 OA
ATOM     98  O   UNL A   1      33.271  37.556  32.431  1.00  0.00    -0.237 OA
ATOM     99  O   UNL A   1      32.914  36.186  30.418  1.00  0.00    -0.744 OA
ENDBRANCH  95  96
ENDBRANCH  69  90
ENDBRANCH  43  44
ENDBRANCH  36  38
ENDBRANCH  35  36
ENDBRANCH  34  35
ENDBRANCH   1  34
TORSDOF 19
ENDMDL
