MODEL 1
REMARK VINA RESULT:     -12.1      0.000      0.000
REMARK SMILES O=C(OCCOC(=O)[C@H]1CC2=c3ccccc3=N[C@H]2[C@@H](c2ccccc2)[NH2+]1)c1ccc(-c2c3nc(c(-c4ccc(S(=O)(=O)[O-])cc4)c4ccc([nH]4)c(-c4ccc(S(=O)(=O)[O-])cc4)c4nc(c(-c5ccc(S(=O)(=O)[O-])cc5)c5ccc2[nH]5)C=C4)C=C3)cc1
REMARK SMILES IDX 4 1 3 2 2 3 1 4 28 5 29 6 87 7 30 8 86 9 31 10 32 11 33 12
REMARK SMILES IDX 80 13 34 14 85 15 79 16 81 17 35 18 84 19 78 20 77 21 36 23
REMARK SMILES IDX 66 24 47 25 65 26 48 27 51 28 64 29 82 30 49 31 50 32 63 34
REMARK SMILES IDX 83 35 52 36 37 37 38 38 46 39 39 40 45 41 40 42 41 43 42 44
REMARK SMILES IDX 43 45 44 46 67 47 68 48 76 49 69 50 75 51 70 52 71 53 72 54
REMARK SMILES IDX 73 55 74 56 53 57 54 58 62 59 55 60 61 61 56 62 57 63 58 64
REMARK SMILES IDX 59 65 60 66 5 67 6 68 7 69 8 70 9 71 10 72 27 73 11 74 20 75
REMARK SMILES IDX 12 78 19 79 13 80 17 81 18 82 14 83 16 84 15 85 21 86 22 87
REMARK SMILES IDX 26 88 23 89 25 90 24 91
REMARK H PARENT 81 22 51 33 27 76 27 77
REMARK Flexibility Score: inf
ROOT
ATOM      1  C   UNL A   1      35.704  23.530  25.450  1.00  0.00     0.275 C 
ENDROOT
BRANCH   1   2
ATOM      2  O   UNL A   1      37.078  23.771  25.103  1.00  0.00    -0.458 OA
BRANCH   2   3
ATOM      3  C   UNL A   1      38.182  23.425  25.811  1.00  0.00     0.338 C 
ATOM      4  O   UNL A   1      38.469  22.233  25.926  1.00  0.00    -0.246 OA
BRANCH   3   5
ATOM      5  C   UNL A   1      38.938  24.425  26.629  1.00  0.00     0.060 A 
ATOM      6  C   UNL A   1      38.588  24.489  27.977  1.00  0.00     0.016 A 
ATOM      7  C   UNL A   1      39.912  25.322  26.159  1.00  0.00     0.016 A 
ATOM      8  C   UNL A   1      39.094  25.514  28.778  1.00  0.00     0.010 A 
ATOM      9  C   UNL A   1      40.384  26.391  26.955  1.00  0.00     0.010 A 
ATOM     10  C   UNL A   1      39.945  26.535  28.268  1.00  0.00    -0.014 A 
BRANCH  10  11
ATOM     11  C   UNL A   1      40.486  27.561  29.231  1.00  0.00     0.031 A 
ATOM     12  C   UNL A   1      41.981  27.703  29.590  1.00  0.00     0.074 A 
ATOM     13  C   UNL A   1      39.621  28.588  29.401  1.00  0.00     0.049 A 
ATOM     14  N   UNL A   1      42.626  28.782  29.990  1.00  0.00    -0.248 NA
ATOM     15  C   UNL A   1      42.879  26.559  29.367  1.00  0.00     0.031 C 
ATOM     16  C   UNL A   1      38.215  28.547  28.968  1.00  0.00     0.029 A 
ATOM     17  N   UNL A   1      39.804  29.888  29.800  1.00  0.00    -0.354 N 
ATOM     18  C   UNL A   1      44.001  28.498  29.900  1.00  0.00     0.074 A 
ATOM     19  C   UNL A   1      44.091  27.099  29.539  1.00  0.00     0.031 C 
ATOM     20  C   UNL A   1      37.712  29.783  28.986  1.00  0.00     0.029 A 
ATOM     21  C   UNL A   1      38.702  30.683  29.557  1.00  0.00     0.049 A 
ATOM     22  H   UNL A   1      40.634  30.219  30.214  1.00  0.00     0.167 HD
ATOM     23  C   UNL A   1      45.055  29.360  30.015  1.00  0.00     0.031 A 
ATOM     24  C   UNL A   1      38.480  31.995  29.769  1.00  0.00     0.031 A 
ATOM     25  C   UNL A   1      44.896  30.765  30.335  1.00  0.00     0.049 A 
ATOM     26  C   UNL A   1      39.633  32.824  30.229  1.00  0.00     0.074 A 
ATOM     27  C   UNL A   1      45.888  31.712  30.536  1.00  0.00     0.029 A 
ATOM     28  N   UNL A   1      43.685  31.424  30.486  1.00  0.00    -0.354 N 
ATOM     29  N   UNL A   1      40.901  32.492  30.261  1.00  0.00    -0.248 NA
ATOM     30  C   UNL A   1      39.344  34.184  30.695  1.00  0.00     0.031 C 
ATOM     31  C   UNL A   1      45.280  32.941  30.781  1.00  0.00     0.029 A 
ATOM     32  C   UNL A   1      43.907  32.764  30.757  1.00  0.00     0.049 A 
ATOM     33  H   UNL A   1      42.799  31.001  30.414  1.00  0.00     0.167 HD
ATOM     34  C   UNL A   1      41.566  33.596  30.769  1.00  0.00     0.074 A 
ATOM     35  C   UNL A   1      40.562  34.617  30.998  1.00  0.00     0.031 C 
ATOM     36  C   UNL A   1      42.886  33.746  31.025  1.00  0.00     0.031 A 
BRANCH  23  37
ATOM     37  C   UNL A   1      46.504  28.939  29.750  1.00  0.00    -0.014 A 
ATOM     38  C   UNL A   1      47.054  28.877  28.457  1.00  0.00     0.010 A 
ATOM     39  C   UNL A   1      47.233  28.322  30.793  1.00  0.00     0.010 A 
ATOM     40  C   UNL A   1      48.309  28.271  28.228  1.00  0.00     0.020 A 
ATOM     41  C   UNL A   1      48.471  27.695  30.568  1.00  0.00     0.020 A 
ATOM     42  C   UNL A   1      49.015  27.691  29.286  1.00  0.00     0.054 A 
BRANCH  42  43
ATOM     43  S   UNL A   1      50.695  27.027  29.042  1.00  0.00     0.124 S 
ATOM     44  O   UNL A   1      51.428  27.586  30.172  1.00  0.00    -0.237 OA
ATOM     45  O   UNL A   1      50.494  25.580  29.076  1.00  0.00    -0.237 OA
ATOM     46  O   UNL A   1      51.059  27.559  27.729  1.00  0.00    -0.744 OA
ENDBRANCH  42  43
ENDBRANCH  23  37
BRANCH  24  47
ATOM     47  C   UNL A   1      37.089  32.520  29.607  1.00  0.00    -0.014 A 
ATOM     48  C   UNL A   1      36.691  32.983  28.333  1.00  0.00     0.010 A 
ATOM     49  C   UNL A   1      36.215  32.697  30.690  1.00  0.00     0.010 A 
ATOM     50  C   UNL A   1      35.519  33.719  28.167  1.00  0.00     0.020 A 
ATOM     51  C   UNL A   1      35.007  33.391  30.516  1.00  0.00     0.020 A 
ATOM     52  C   UNL A   1      34.692  33.938  29.268  1.00  0.00     0.054 A 
BRANCH  52  53
ATOM     53  S   UNL A   1      33.222  34.976  29.038  1.00  0.00     0.124 S 
ATOM     54  O   UNL A   1      33.814  36.243  28.621  1.00  0.00    -0.237 OA
ATOM     55  O   UNL A   1      32.482  34.257  28.005  1.00  0.00    -0.237 OA
ATOM     56  O   UNL A   1      32.598  34.976  30.361  1.00  0.00    -0.744 OA
ENDBRANCH  52  53
ENDBRANCH  24  47
BRANCH  36  57
ATOM     57  C   UNL A   1      43.326  35.031  31.667  1.00  0.00    -0.014 A 
ATOM     58  C   UNL A   1      43.213  35.216  33.057  1.00  0.00     0.010 A 
ATOM     59  C   UNL A   1      43.727  36.107  30.857  1.00  0.00     0.010 A 
ATOM     60  C   UNL A   1      43.439  36.474  33.619  1.00  0.00     0.020 A 
ATOM     61  C   UNL A   1      43.986  37.356  31.419  1.00  0.00     0.020 A 
ATOM     62  C   UNL A   1      43.810  37.539  32.793  1.00  0.00     0.054 A 
BRANCH  62  63
ATOM     63  S   UNL A   1      44.045  39.178  33.530  1.00  0.00     0.124 S 
ATOM     64  O   UNL A   1      44.970  39.806  32.591  1.00  0.00    -0.237 OA
ATOM     65  O   UNL A   1      42.689  39.721  33.539  1.00  0.00    -0.237 OA
ATOM     66  O   UNL A   1      44.599  38.884  34.849  1.00  0.00    -0.744 OA
ENDBRANCH  62  63
ENDBRANCH  36  57
ENDBRANCH  10  11
ENDBRANCH   3   5
ENDBRANCH   2   3
ENDBRANCH   1   2
BRANCH   1  67
ATOM     67  C   UNL A   1      34.801  24.770  25.419  1.00  0.00     0.274 C 
BRANCH  67  68
ATOM     68  O   UNL A   1      33.631  24.576  24.599  1.00  0.00    -0.458 OA
BRANCH  68  69
ATOM     69  C   UNL A   1      33.771  24.827  23.269  1.00  0.00     0.365 C 
ATOM     70  O   UNL A   1      34.464  24.144  22.518  1.00  0.00    -0.245 OA
BRANCH  69  71
ATOM     71  C   UNL A   1      32.844  25.968  22.775  1.00  0.00     0.298 C 
ATOM     72  C   UNL A   1      31.487  26.141  23.530  1.00  0.00     0.111 C 
ATOM     73  N   UNL A   1      33.666  27.220  22.682  1.00  0.00    -0.326 N 
ATOM     74  C   UNL A   1      30.694  27.329  22.997  1.00  0.00    -0.024 C 
ATOM     75  C   UNL A   1      32.921  28.456  23.045  1.00  0.00     0.243 C 
ATOM     76  H   UNL A   1      34.000  27.317  21.723  1.00  0.00     0.347 HD
ATOM     77  H   UNL A   1      34.429  27.126  23.352  1.00  0.00     0.347 HD
ATOM     78  C   UNL A   1      29.443  27.799  23.052  1.00  0.00     0.002 A 
ATOM     79  C   UNL A   1      31.558  28.340  22.296  1.00  0.00     0.196 C 
ATOM     80  C   UNL A   1      28.167  27.369  23.505  1.00  0.00     0.010 A 
ATOM     81  C   UNL A   1      29.587  29.194  22.571  1.00  0.00     0.066 A 
ATOM     82  N   UNL A   1      30.761  29.581  22.165  1.00  0.00    -0.270 NA
ATOM     83  C   UNL A   1      27.119  28.203  23.561  1.00  0.00     0.001 A 
ATOM     84  C   UNL A   1      28.393  30.071  22.661  1.00  0.00     0.028 A 
ATOM     85  C   UNL A   1      27.247  29.583  23.161  1.00  0.00     0.002 A 
BRANCH  75  86
ATOM     86  C   UNL A   1      32.817  28.683  24.568  1.00  0.00     0.012 A 
ATOM     87  C   UNL A   1      31.851  29.519  25.171  1.00  0.00     0.010 A 
ATOM     88  C   UNL A   1      33.768  28.090  25.412  1.00  0.00     0.010 A 
ATOM     89  C   UNL A   1      31.900  29.825  26.533  1.00  0.00     0.001 A 
ATOM     90  C   UNL A   1      33.800  28.378  26.774  1.00  0.00     0.001 A 
ATOM     91  C   UNL A   1      32.879  29.257  27.331  1.00  0.00     0.000 A 
ENDBRANCH  75  86
ENDBRANCH  69  71
ENDBRANCH  68  69
ENDBRANCH  67  68
ENDBRANCH   1  67
TORSDOF 15
ENDMDL
MODEL 2
REMARK VINA RESULT:     -11.8      2.687      8.468
REMARK SMILES O=C(OCCOC(=O)[C@H]1CC2=c3ccccc3=N[C@H]2[C@@H](c2ccccc2)[NH2+]1)c1ccc(-c2c3nc(c(-c4ccc(S(=O)(=O)[O-])cc4)c4ccc([nH]4)c(-c4ccc(S(=O)(=O)[O-])cc4)c4nc(c(-c5ccc(S(=O)(=O)[O-])cc5)c5ccc2[nH]5)C=C4)C=C3)cc1
REMARK SMILES IDX 4 1 3 2 2 3 1 4 28 5 29 6 87 7 30 8 86 9 31 10 32 11 33 12
REMARK SMILES IDX 80 13 34 14 85 15 79 16 81 17 35 18 84 19 78 20 77 21 36 23
REMARK SMILES IDX 66 24 47 25 65 26 48 27 51 28 64 29 82 30 49 31 50 32 63 34
REMARK SMILES IDX 83 35 52 36 37 37 38 38 46 39 39 40 45 41 40 42 41 43 42 44
REMARK SMILES IDX 43 45 44 46 67 47 68 48 76 49 69 50 75 51 70 52 71 53 72 54
REMARK SMILES IDX 73 55 74 56 53 57 54 58 62 59 55 60 61 61 56 62 57 63 58 64
REMARK SMILES IDX 59 65 60 66 5 67 6 68 7 69 8 70 9 71 10 72 27 73 11 74 20 75
REMARK SMILES IDX 12 78 19 79 13 80 17 81 18 82 14 83 16 84 15 85 21 86 22 87
REMARK SMILES IDX 26 88 23 89 25 90 24 91
REMARK H PARENT 81 22 51 33 27 76 27 77
REMARK Flexibility Score: inf
ROOT
ATOM      1  C   UNL A   1      36.152  22.550  25.573  1.00  0.00     0.275 C 
ENDROOT
BRANCH   1   2
ATOM      2  O   UNL A   1      37.416  23.167  25.279  1.00  0.00    -0.458 OA
BRANCH   2   3
ATOM      3  C   UNL A   1      38.591  22.999  25.936  1.00  0.00     0.338 C 
ATOM      4  O   UNL A   1      38.973  21.856  26.193  1.00  0.00    -0.246 OA
BRANCH   3   5
ATOM      5  C   UNL A   1      39.326  24.153  26.542  1.00  0.00     0.060 A 
ATOM      6  C   UNL A   1      38.914  24.526  27.820  1.00  0.00     0.016 A 
ATOM      7  C   UNL A   1      40.339  24.910  25.931  1.00  0.00     0.016 A 
ATOM      8  C   UNL A   1      39.402  25.703  28.391  1.00  0.00     0.010 A 
ATOM      9  C   UNL A   1      40.793  26.129  26.485  1.00  0.00     0.010 A 
ATOM     10  C   UNL A   1      40.296  26.573  27.707  1.00  0.00    -0.014 A 
BRANCH  10  11
ATOM     11  C   UNL A   1      40.811  27.788  28.436  1.00  0.00     0.031 A 
ATOM     12  C   UNL A   1      40.008  29.095  28.607  1.00  0.00     0.074 A 
ATOM     13  C   UNL A   1      41.830  27.473  29.270  1.00  0.00     0.049 A 
ATOM     14  N   UNL A   1      40.104  29.993  29.569  1.00  0.00    -0.248 NA
ATOM     15  C   UNL A   1      38.899  29.377  27.682  1.00  0.00     0.031 C 
ATOM     16  C   UNL A   1      42.550  26.190  29.225  1.00  0.00     0.029 A 
ATOM     17  N   UNL A   1      42.319  28.086  30.396  1.00  0.00    -0.354 N 
ATOM     18  C   UNL A   1      38.981  30.833  29.464  1.00  0.00     0.074 A 
ATOM     19  C   UNL A   1      38.292  30.419  28.259  1.00  0.00     0.031 C 
ATOM     20  C   UNL A   1      43.271  26.051  30.339  1.00  0.00     0.029 A 
ATOM     21  C   UNL A   1      43.179  27.279  31.114  1.00  0.00     0.049 A 
ATOM     22  H   UNL A   1      42.081  29.003  30.663  1.00  0.00     0.167 HD
ATOM     23  C   UNL A   1      38.541  31.777  30.348  1.00  0.00     0.031 A 
ATOM     24  C   UNL A   1      43.843  27.483  32.269  1.00  0.00     0.031 A 
ATOM     25  C   UNL A   1      39.255  32.114  31.564  1.00  0.00     0.049 A 
ATOM     26  C   UNL A   1      43.543  28.734  33.026  1.00  0.00     0.074 A 
ATOM     27  C   UNL A   1      38.939  33.090  32.496  1.00  0.00     0.029 A 
ATOM     28  N   UNL A   1      40.406  31.490  32.021  1.00  0.00    -0.354 N 
ATOM     29  N   UNL A   1      42.560  29.579  32.826  1.00  0.00    -0.248 NA
ATOM     30  C   UNL A   1      44.430  29.078  34.140  1.00  0.00     0.031 C 
ATOM     31  C   UNL A   1      39.877  33.038  33.525  1.00  0.00     0.029 A 
ATOM     32  C   UNL A   1      40.797  32.046  33.228  1.00  0.00     0.049 A 
ATOM     33  H   UNL A   1      40.876  30.761  31.555  1.00  0.00     0.167 HD
ATOM     34  C   UNL A   1      42.718  30.570  33.781  1.00  0.00     0.074 A 
ATOM     35  C   UNL A   1      43.872  30.201  34.578  1.00  0.00     0.031 C 
ATOM     36  C   UNL A   1      41.977  31.686  33.974  1.00  0.00     0.031 A 
BRANCH  23  37
ATOM     37  C   UNL A   1      37.214  32.523  30.174  1.00  0.00    -0.014 A 
ATOM     38  C   UNL A   1      35.964  31.901  30.339  1.00  0.00     0.010 A 
ATOM     39  C   UNL A   1      37.227  33.795  29.556  1.00  0.00     0.010 A 
ATOM     40  C   UNL A   1      34.771  32.549  29.952  1.00  0.00     0.020 A 
ATOM     41  C   UNL A   1      36.045  34.435  29.145  1.00  0.00     0.020 A 
ATOM     42  C   UNL A   1      34.817  33.816  29.365  1.00  0.00     0.054 A 
BRANCH  42  43
ATOM     43  S   UNL A   1      33.287  34.731  28.984  1.00  0.00     0.124 S 
ATOM     44  O   UNL A   1      33.789  35.966  28.393  1.00  0.00    -0.237 OA
ATOM     45  O   UNL A   1      32.579  33.838  28.068  1.00  0.00    -0.237 OA
ATOM     46  O   UNL A   1      32.663  34.870  30.299  1.00  0.00    -0.744 OA
ENDBRANCH  42  43
ENDBRANCH  23  37
BRANCH  24  47
ATOM     47  C   UNL A   1      44.885  26.492  32.677  1.00  0.00    -0.014 A 
ATOM     48  C   UNL A   1      44.507  25.437  33.538  1.00  0.00     0.010 A 
ATOM     49  C   UNL A   1      46.242  26.642  32.354  1.00  0.00     0.010 A 
ATOM     50  C   UNL A   1      45.463  24.639  34.165  1.00  0.00     0.020 A 
ATOM     51  C   UNL A   1      47.205  25.805  32.942  1.00  0.00     0.020 A 
ATOM     52  C   UNL A   1      46.812  24.844  33.879  1.00  0.00     0.054 A 
BRANCH  52  53
ATOM     53  S   UNL A   1      48.035  23.852  34.779  1.00  0.00     0.124 S 
ATOM     54  O   UNL A   1      47.305  22.608  35.002  1.00  0.00    -0.237 OA
ATOM     55  O   UNL A   1      49.142  23.769  33.829  1.00  0.00    -0.237 OA
ATOM     56  O   UNL A   1      48.304  24.649  35.975  1.00  0.00    -0.744 OA
ENDBRANCH  52  53
ENDBRANCH  24  47
BRANCH  36  57
ATOM     57  C   UNL A   1      42.433  32.645  35.036  1.00  0.00    -0.014 A 
ATOM     58  C   UNL A   1      41.983  32.518  36.362  1.00  0.00     0.010 A 
ATOM     59  C   UNL A   1      43.210  33.760  34.674  1.00  0.00     0.010 A 
ATOM     60  C   UNL A   1      42.253  33.521  37.295  1.00  0.00     0.020 A 
ATOM     61  C   UNL A   1      43.510  34.747  35.612  1.00  0.00     0.020 A 
ATOM     62  C   UNL A   1      43.003  34.636  36.909  1.00  0.00     0.054 A 
BRANCH  62  63
ATOM     63  S   UNL A   1      43.297  35.954  38.117  1.00  0.00     0.124 S 
ATOM     64  O   UNL A   1      42.914  35.311  39.371  1.00  0.00    -0.237 OA
ATOM     65  O   UNL A   1      44.724  36.222  37.955  1.00  0.00    -0.237 OA
ATOM     66  O   UNL A   1      42.414  37.030  37.672  1.00  0.00    -0.744 OA
ENDBRANCH  62  63
ENDBRANCH  36  57
ENDBRANCH  10  11
ENDBRANCH   3   5
ENDBRANCH   2   3
ENDBRANCH   1   2
BRANCH   1  67
ATOM     67  C   UNL A   1      35.030  23.524  25.959  1.00  0.00     0.274 C 
BRANCH  67  68
ATOM     68  O   UNL A   1      34.219  23.902  24.828  1.00  0.00    -0.458 OA
BRANCH  68  69
ATOM     69  C   UNL A   1      32.940  24.281  25.096  1.00  0.00     0.365 C 
ATOM     70  O   UNL A   1      32.310  23.898  26.079  1.00  0.00    -0.245 OA
BRANCH  69  71
ATOM     71  C   UNL A   1      32.419  25.364  24.115  1.00  0.00     0.298 C 
ATOM     72  C   UNL A   1      31.065  26.050  24.488  1.00  0.00     0.111 C 
ATOM     73  N   UNL A   1      33.544  26.319  23.845  1.00  0.00    -0.326 N 
ATOM     74  C   UNL A   1      30.689  27.135  23.486  1.00  0.00    -0.024 C 
ATOM     75  C   UNL A   1      33.106  27.732  23.678  1.00  0.00     0.243 C 
ATOM     76  H   UNL A   1      34.018  26.027  22.990  1.00  0.00     0.347 HD
ATOM     77  H   UNL A   1      34.159  26.293  24.658  1.00  0.00     0.347 HD
ATOM     78  C   UNL A   1      29.609  27.845  23.143  1.00  0.00     0.002 A 
ATOM     79  C   UNL A   1      31.874  27.661  22.724  1.00  0.00     0.196 C 
ATOM     80  C   UNL A   1      28.216  27.860  23.421  1.00  0.00     0.010 A 
ATOM     81  C   UNL A   1      30.177  28.945  22.326  1.00  0.00     0.066 A 
ATOM     82  N   UNL A   1      31.454  28.928  22.083  1.00  0.00    -0.270 NA
ATOM     83  C   UNL A   1      27.425  28.864  23.017  1.00  0.00     0.001 A 
ATOM     84  C   UNL A   1      29.252  30.030  21.912  1.00  0.00     0.028 A 
ATOM     85  C   UNL A   1      27.963  29.980  22.278  1.00  0.00     0.002 A 
BRANCH  75  86
ATOM     86  C   UNL A   1      32.861  28.459  25.017  1.00  0.00     0.012 A 
ATOM     87  C   UNL A   1      32.054  29.611  25.145  1.00  0.00     0.010 A 
ATOM     88  C   UNL A   1      33.523  28.008  26.169  1.00  0.00     0.010 A 
ATOM     89  C   UNL A   1      31.996  30.331  26.341  1.00  0.00     0.001 A 
ATOM     90  C   UNL A   1      33.444  28.714  27.366  1.00  0.00     0.001 A 
ATOM     91  C   UNL A   1      32.696  29.883  27.448  1.00  0.00     0.000 A 
ENDBRANCH  75  86
ENDBRANCH  69  71
ENDBRANCH  68  69
ENDBRANCH  67  68
ENDBRANCH   1  67
TORSDOF 15
ENDMDL
MODEL 3
REMARK VINA RESULT:     -11.7      1.542      2.838
REMARK SMILES O=C(OCCOC(=O)[C@H]1CC2=c3ccccc3=N[C@H]2[C@@H](c2ccccc2)[NH2+]1)c1ccc(-c2c3nc(c(-c4ccc(S(=O)(=O)[O-])cc4)c4ccc([nH]4)c(-c4ccc(S(=O)(=O)[O-])cc4)c4nc(c(-c5ccc(S(=O)(=O)[O-])cc5)c5ccc2[nH]5)C=C4)C=C3)cc1
REMARK SMILES IDX 4 1 3 2 2 3 1 4 28 5 29 6 87 7 30 8 86 9 31 10 32 11 33 12
REMARK SMILES IDX 80 13 34 14 85 15 79 16 81 17 35 18 84 19 78 20 77 21 36 23
REMARK SMILES IDX 66 24 47 25 65 26 48 27 51 28 64 29 82 30 49 31 50 32 63 34
REMARK SMILES IDX 83 35 52 36 37 37 38 38 46 39 39 40 45 41 40 42 41 43 42 44
REMARK SMILES IDX 43 45 44 46 67 47 68 48 76 49 69 50 75 51 70 52 71 53 72 54
REMARK SMILES IDX 73 55 74 56 53 57 54 58 62 59 55 60 61 61 56 62 57 63 58 64
REMARK SMILES IDX 59 65 60 66 5 67 6 68 7 69 8 70 9 71 10 72 27 73 11 74 20 75
REMARK SMILES IDX 12 78 19 79 13 80 17 81 18 82 14 83 16 84 15 85 21 86 22 87
REMARK SMILES IDX 26 88 23 89 25 90 24 91
REMARK H PARENT 81 22 51 33 27 76 27 77
REMARK Flexibility Score: inf
ROOT
ATOM      1  C   UNL A   1      37.750  20.981  25.027  1.00  0.00     0.275 C 
ENDROOT
BRANCH   1   2
ATOM      2  O   UNL A   1      38.301  22.028  25.844  1.00  0.00    -0.458 OA
BRANCH   2   3
ATOM      3  C   UNL A   1      38.161  23.367  25.678  1.00  0.00     0.338 C 
ATOM      4  O   UNL A   1      37.543  23.786  24.698  1.00  0.00    -0.246 OA
BRANCH   3   5
ATOM      5  C   UNL A   1      38.907  24.347  26.526  1.00  0.00     0.060 A 
ATOM      6  C   UNL A   1      38.541  24.383  27.871  1.00  0.00     0.016 A 
ATOM      7  C   UNL A   1      39.889  25.252  26.088  1.00  0.00     0.016 A 
ATOM      8  C   UNL A   1      39.039  25.391  28.700  1.00  0.00     0.010 A 
ATOM      9  C   UNL A   1      40.353  26.303  26.912  1.00  0.00     0.010 A 
ATOM     10  C   UNL A   1      39.898  26.420  28.223  1.00  0.00    -0.014 A 
BRANCH  10  11
ATOM     11  C   UNL A   1      40.429  27.425  29.213  1.00  0.00     0.031 A 
ATOM     12  C   UNL A   1      41.916  27.542  29.611  1.00  0.00     0.074 A 
ATOM     13  C   UNL A   1      39.573  28.461  29.379  1.00  0.00     0.049 A 
ATOM     14  N   UNL A   1      42.565  28.606  30.043  1.00  0.00    -0.248 NA
ATOM     15  C   UNL A   1      42.805  26.389  29.392  1.00  0.00     0.031 C 
ATOM     16  C   UNL A   1      38.177  28.444  28.911  1.00  0.00     0.029 A 
ATOM     17  N   UNL A   1      39.763  29.752  29.801  1.00  0.00    -0.354 N 
ATOM     18  C   UNL A   1      43.937  28.306  29.982  1.00  0.00     0.074 A 
ATOM     19  C   UNL A   1      44.019  26.910  29.601  1.00  0.00     0.031 C 
ATOM     20  C   UNL A   1      37.690  29.686  28.936  1.00  0.00     0.029 A 
ATOM     21  C   UNL A   1      38.677  30.565  29.544  1.00  0.00     0.049 A 
ATOM     22  H   UNL A   1      40.586  30.065  30.240  1.00  0.00     0.167 HD
ATOM     23  C   UNL A   1      45.000  29.151  30.135  1.00  0.00     0.031 A 
ATOM     24  C   UNL A   1      38.467  31.877  29.771  1.00  0.00     0.031 A 
ATOM     25  C   UNL A   1      44.850  30.554  30.472  1.00  0.00     0.049 A 
ATOM     26  C   UNL A   1      39.619  32.683  30.271  1.00  0.00     0.074 A 
ATOM     27  C   UNL A   1      45.850  31.484  30.711  1.00  0.00     0.029 A 
ATOM     28  N   UNL A   1      43.645  31.226  30.604  1.00  0.00    -0.354 N 
ATOM     29  N   UNL A   1      40.882  32.333  30.328  1.00  0.00    -0.248 NA
ATOM     30  C   UNL A   1      39.336  34.039  30.750  1.00  0.00     0.031 C 
ATOM     31  C   UNL A   1      45.252  32.718  30.960  1.00  0.00     0.029 A 
ATOM     32  C   UNL A   1      43.878  32.559  30.900  1.00  0.00     0.049 A 
ATOM     33  H   UNL A   1      42.755  30.816  30.504  1.00  0.00     0.167 HD
ATOM     34  C   UNL A   1      41.548  33.421  30.869  1.00  0.00     0.074 A 
ATOM     35  C   UNL A   1      40.552  34.452  31.089  1.00  0.00     0.031 C 
ATOM     36  C   UNL A   1      42.863  33.550  31.159  1.00  0.00     0.031 A 
BRANCH  23  37
ATOM     37  C   UNL A   1      46.449  28.715  29.898  1.00  0.00    -0.014 A 
ATOM     38  C   UNL A   1      47.101  28.878  28.663  1.00  0.00     0.010 A 
ATOM     39  C   UNL A   1      47.067  27.870  30.849  1.00  0.00     0.010 A 
ATOM     40  C   UNL A   1      48.347  28.264  28.410  1.00  0.00     0.020 A 
ATOM     41  C   UNL A   1      48.296  27.235  30.595  1.00  0.00     0.020 A 
ATOM     42  C   UNL A   1      48.942  27.453  29.381  1.00  0.00     0.054 A 
BRANCH  42  43
ATOM     43  S   UNL A   1      50.612  26.763  29.134  1.00  0.00     0.124 S 
ATOM     44  O   UNL A   1      51.085  27.481  27.955  1.00  0.00    -0.237 OA
ATOM     45  O   UNL A   1      51.297  27.084  30.384  1.00  0.00    -0.237 OA
ATOM     46  O   UNL A   1      50.341  25.340  28.938  1.00  0.00    -0.744 OA
ENDBRANCH  42  43
ENDBRANCH  23  37
BRANCH  24  47
ATOM     47  C   UNL A   1      37.087  32.421  29.584  1.00  0.00    -0.014 A 
ATOM     48  C   UNL A   1      36.772  33.042  28.354  1.00  0.00     0.010 A 
ATOM     49  C   UNL A   1      36.142  32.464  30.619  1.00  0.00     0.010 A 
ATOM     50  C   UNL A   1      35.610  33.797  28.204  1.00  0.00     0.020 A 
ATOM     51  C   UNL A   1      34.944  33.178  30.453  1.00  0.00     0.020 A 
ATOM     52  C   UNL A   1      34.711  33.879  29.266  1.00  0.00     0.054 A 
BRANCH  52  53
ATOM     53  S   UNL A   1      33.253  34.942  29.071  1.00  0.00     0.124 S 
ATOM     54  O   UNL A   1      32.473  34.200  28.085  1.00  0.00    -0.237 OA
ATOM     55  O   UNL A   1      32.696  34.971  30.420  1.00  0.00    -0.237 OA
ATOM     56  O   UNL A   1      33.818  36.208  28.605  1.00  0.00    -0.744 OA
ENDBRANCH  52  53
ENDBRANCH  24  47
BRANCH  36  57
ATOM     57  C   UNL A   1      43.303  34.819  31.831  1.00  0.00    -0.014 A 
ATOM     58  C   UNL A   1      43.241  34.952  33.230  1.00  0.00     0.010 A 
ATOM     59  C   UNL A   1      43.654  35.932  31.046  1.00  0.00     0.010 A 
ATOM     60  C   UNL A   1      43.464  36.193  33.828  1.00  0.00     0.020 A 
ATOM     61  C   UNL A   1      43.912  37.165  31.644  1.00  0.00     0.020 A 
ATOM     62  C   UNL A   1      43.785  37.295  33.029  1.00  0.00     0.054 A 
BRANCH  62  63
ATOM     63  S   UNL A   1      44.018  38.910  33.816  1.00  0.00     0.124 S 
ATOM     64  O   UNL A   1      45.356  39.279  33.365  1.00  0.00    -0.237 OA
ATOM     65  O   UNL A   1      42.923  39.698  33.256  1.00  0.00    -0.237 OA
ATOM     66  O   UNL A   1      43.899  38.617  35.243  1.00  0.00    -0.744 OA
ENDBRANCH  62  63
ENDBRANCH  36  57
ENDBRANCH  10  11
ENDBRANCH   3   5
ENDBRANCH   2   3
ENDBRANCH   1   2
BRANCH   1  67
ATOM     67  C   UNL A   1      36.313  20.574  25.379  1.00  0.00     0.274 C 
BRANCH  67  68
ATOM     68  O   UNL A   1      35.531  21.684  25.865  1.00  0.00    -0.458 OA
BRANCH  68  69
ATOM     69  C   UNL A   1      34.384  21.962  25.188  1.00  0.00     0.365 C 
ATOM     70  O   UNL A   1      33.957  21.275  24.263  1.00  0.00    -0.245 OA
BRANCH  69  71
ATOM     71  C   UNL A   1      33.596  23.145  25.808  1.00  0.00     0.298 C 
ATOM     72  C   UNL A   1      34.139  24.579  25.506  1.00  0.00     0.111 C 
ATOM     73  N   UNL A   1      32.143  22.952  25.483  1.00  0.00    -0.326 N 
ATOM     74  C   UNL A   1      33.250  25.658  26.115  1.00  0.00    -0.024 C 
ATOM     75  C   UNL A   1      31.411  24.221  25.226  1.00  0.00     0.243 C 
ATOM     76  H   UNL A   1      31.698  22.477  26.267  1.00  0.00     0.347 HD
ATOM     77  H   UNL A   1      32.102  22.406  24.622  1.00  0.00     0.347 HD
ATOM     78  C   UNL A   1      33.317  26.962  26.402  1.00  0.00     0.002 A 
ATOM     79  C   UNL A   1      31.849  25.178  26.377  1.00  0.00     0.196 C 
ATOM     80  C   UNL A   1      34.295  27.993  26.432  1.00  0.00     0.010 A 
ATOM     81  C   UNL A   1      31.900  27.327  26.639  1.00  0.00     0.066 A 
ATOM     82  N   UNL A   1      31.011  26.379  26.602  1.00  0.00    -0.270 NA
ATOM     83  C   UNL A   1      33.960  29.279  26.611  1.00  0.00     0.001 A 
ATOM     84  C   UNL A   1      31.591  28.767  26.826  1.00  0.00     0.028 A 
ATOM     85  C   UNL A   1      32.582  29.670  26.778  1.00  0.00     0.002 A 
BRANCH  75  86
ATOM     86  C   UNL A   1      31.618  24.771  23.799  1.00  0.00     0.012 A 
ATOM     87  C   UNL A   1      32.415  24.132  22.824  1.00  0.00     0.010 A 
ATOM     88  C   UNL A   1      31.050  26.006  23.454  1.00  0.00     0.010 A 
ATOM     89  C   UNL A   1      32.710  24.749  21.605  1.00  0.00     0.001 A 
ATOM     90  C   UNL A   1      31.326  26.608  22.229  1.00  0.00     0.001 A 
ATOM     91  C   UNL A   1      32.168  25.989  21.313  1.00  0.00     0.000 A 
ENDBRANCH  75  86
ENDBRANCH  69  71
ENDBRANCH  68  69
ENDBRANCH  67  68
ENDBRANCH   1  67
TORSDOF 15
ENDMDL
