MODEL 1
REMARK VINA RESULT:     -11.0      0.000      0.000
REMARK SMILES Cc1cc2c(c(C)c1Br)C=C(C(=O)OCCOC(=O)c1ccc(-c3c4nc(c(-c5ccc(S(=O)(=O)[O-])cc5)c5ccc([nH]5)c(-c5ccc(S(=O)(=O)[O-])cc5)c5nc(c(-c6ccc(S(=O)(=O)[O-])cc6)c6ccc3[nH]6)C=C5)C=C4)cc1)[C@@H](C(F)(F)F)O2
REMARK SMILES IDX 16 1 15 2 14 3 12 4 13 5 11 6 1 7 2 8 3 9 8 10 4 11 6 12
REMARK SMILES IDX 9 13 5 14 85 15 7 16 10 17 80 18 81 19 82 20 83 21 84 22
REMARK SMILES IDX 17 23 18 24 19 25 20 26 21 27 79 28 22 29 78 30 23 31 24 32
REMARK SMILES IDX 25 33 72 34 26 35 77 36 71 37 73 38 27 39 76 40 70 41 69 42
REMARK SMILES IDX 28 44 58 45 39 46 57 47 40 48 43 49 56 50 74 51 41 52 42 53
REMARK SMILES IDX 55 55 75 56 44 57 29 58 30 59 38 60 31 61 37 62 32 63 33 64
REMARK SMILES IDX 34 65 35 66 36 67 59 68 60 69 68 70 61 71 67 72 62 73 63 74
REMARK SMILES IDX 64 75 65 76 66 77 45 78 46 79 54 80 47 81 53 82 48 83 49 84
REMARK SMILES IDX 50 85 51 86 52 87
REMARK H PARENT 73 43 43 54
REMARK Flexibility Score: inf
ROOT
ATOM      1  C   UNL A   1      32.439  29.667  27.276  1.00  0.00     0.275 C 
ENDROOT
BRANCH   1   2
ATOM      2  C   UNL A   1      32.649  28.160  27.133  1.00  0.00     0.275 C 
BRANCH   2   3
ATOM      3  O   UNL A   1      32.017  27.643  25.942  1.00  0.00    -0.459 OA
BRANCH   3   4
ATOM      4  C   UNL A   1      32.859  27.118  25.021  1.00  0.00     0.338 C 
ATOM      5  O   UNL A   1      33.522  27.743  24.207  1.00  0.00    -0.246 OA
BRANCH   4   6
ATOM      6  C   UNL A   1      32.891  25.645  25.114  1.00  0.00     0.087 C 
ATOM      7  C   UNL A   1      34.130  19.298  24.627  1.00  0.00     0.046 C 
ATOM      8  C   UNL A   1      34.216  20.792  24.804  1.00  0.00    -0.033 A 
ATOM      9  C   UNL A   1      33.004  21.497  24.877  1.00  0.00     0.051 A 
ATOM     10  C   UNL A   1      35.427  21.500  24.945  1.00  0.00     0.024 A 
ATOM     11  C   UNL A   1      32.982  22.881  25.019  1.00  0.00     0.128 A 
ATOM     12  C   UNL A   1      35.426  22.910  25.067  1.00  0.00    -0.026 A 
ATOM     13  Br  UNL A   1      37.072  20.521  24.993  1.00  0.00    -0.050 Br
ATOM     14  C   UNL A   1      34.180  23.596  25.093  1.00  0.00     0.021 A 
ATOM     15  O   UNL A   1      31.737  23.444  25.095  1.00  0.00    -0.475 OA
ATOM     16  C   UNL A   1      36.711  23.702  25.192  1.00  0.00     0.046 C 
ATOM     17  C   UNL A   1      34.088  25.050  25.167  1.00  0.00     0.027 C 
ATOM     18  C   UNL A   1      31.607  24.887  24.995  1.00  0.00     0.316 C 
BRANCH  18  19
ATOM     19  C   UNL A   1      30.867  25.225  23.690  1.00  0.00     0.430 C 
ATOM     20  F   UNL A   1      30.153  24.165  23.239  1.00  0.00    -0.167 F 
ATOM     21  F   UNL A   1      29.979  26.235  23.865  1.00  0.00    -0.167 F 
ATOM     22  F   UNL A   1      31.710  25.595  22.700  1.00  0.00    -0.167 F 
ENDBRANCH  18  19
ENDBRANCH   4   6
ENDBRANCH   3   4
ENDBRANCH   2   3
ENDBRANCH   1   2
BRANCH   1  23
ATOM     23  O   UNL A   1      33.639  30.385  26.929  1.00  0.00    -0.458 OA
BRANCH  23  24
ATOM     24  C   UNL A   1      34.337  30.867  27.981  1.00  0.00     0.338 C 
ATOM     25  O   UNL A   1      33.973  31.703  28.790  1.00  0.00    -0.246 OA
BRANCH  24  26
ATOM     26  C   UNL A   1      35.627  30.171  28.100  1.00  0.00     0.060 A 
ATOM     27  C   UNL A   1      36.063  29.804  29.365  1.00  0.00     0.016 A 
ATOM     28  C   UNL A   1      36.490  30.073  27.011  1.00  0.00     0.016 A 
ATOM     29  C   UNL A   1      37.404  29.506  29.576  1.00  0.00     0.010 A 
ATOM     30  C   UNL A   1      37.804  29.624  27.209  1.00  0.00     0.010 A 
ATOM     31  C   UNL A   1      38.300  29.391  28.505  1.00  0.00    -0.014 A 
BRANCH  31  32
ATOM     32  C   UNL A   1      39.741  29.065  28.750  1.00  0.00     0.031 A 
ATOM     33  C   UNL A   1      40.666  30.092  29.366  1.00  0.00     0.074 A 
ATOM     34  C   UNL A   1      40.230  27.839  28.461  1.00  0.00     0.049 A 
ATOM     35  N   UNL A   1      41.972  30.080  29.454  1.00  0.00    -0.248 NA
ATOM     36  C   UNL A   1      40.044  31.295  29.948  1.00  0.00     0.031 C 
ATOM     37  C   UNL A   1      39.453  26.710  27.940  1.00  0.00     0.029 A 
ATOM     38  N   UNL A   1      41.499  27.325  28.588  1.00  0.00    -0.354 N 
ATOM     39  C   UNL A   1      42.331  31.293  30.036  1.00  0.00     0.074 A 
ATOM     40  C   UNL A   1      41.105  32.020  30.281  1.00  0.00     0.031 C 
ATOM     41  C   UNL A   1      40.235  25.626  27.869  1.00  0.00     0.029 A 
ATOM     42  C   UNL A   1      41.601  26.008  28.196  1.00  0.00     0.049 A 
ATOM     43  H   UNL A   1      42.260  27.847  28.926  1.00  0.00     0.167 HD
ATOM     44  C   UNL A   1      43.569  31.760  30.331  1.00  0.00     0.031 A 
ATOM     45  C   UNL A   1      42.673  25.206  28.047  1.00  0.00     0.031 A 
ATOM     46  C   UNL A   1      44.783  31.010  30.127  1.00  0.00     0.049 A 
ATOM     47  C   UNL A   1      44.039  25.766  28.307  1.00  0.00     0.074 A 
ATOM     48  C   UNL A   1      46.089  31.400  30.371  1.00  0.00     0.029 A 
ATOM     49  N   UNL A   1      44.839  29.706  29.656  1.00  0.00    -0.354 N 
ATOM     50  N   UNL A   1      44.369  26.961  28.735  1.00  0.00    -0.248 NA
ATOM     51  C   UNL A   1      45.179  24.880  28.040  1.00  0.00     0.031 C 
ATOM     52  C   UNL A   1      46.936  30.351  30.004  1.00  0.00     0.029 A 
ATOM     53  C   UNL A   1      46.157  29.282  29.594  1.00  0.00     0.049 A 
ATOM     54  H   UNL A   1      44.059  29.162  29.404  1.00  0.00     0.167 HD
ATOM     55  C   UNL A   1      45.756  26.965  28.806  1.00  0.00     0.074 A 
ATOM     56  C   UNL A   1      46.201  25.649  28.393  1.00  0.00     0.031 C 
ATOM     57  C   UNL A   1      46.586  27.970  29.180  1.00  0.00     0.031 A 
BRANCH  44  58
ATOM     58  C   UNL A   1      43.692  33.166  30.867  1.00  0.00    -0.014 A 
ATOM     59  C   UNL A   1      43.599  33.447  32.242  1.00  0.00     0.010 A 
ATOM     60  C   UNL A   1      43.980  34.219  29.977  1.00  0.00     0.010 A 
ATOM     61  C   UNL A   1      43.764  34.755  32.710  1.00  0.00     0.020 A 
ATOM     62  C   UNL A   1      44.174  35.522  30.444  1.00  0.00     0.020 A 
ATOM     63  C   UNL A   1      44.052  35.784  31.808  1.00  0.00     0.054 A 
BRANCH  63  64
ATOM     64  S   UNL A   1      44.298  37.464  32.451  1.00  0.00     0.124 S 
ATOM     65  O   UNL A   1      43.503  37.439  33.676  1.00  0.00    -0.237 OA
ATOM     66  O   UNL A   1      45.745  37.525  32.642  1.00  0.00    -0.237 OA
ATOM     67  O   UNL A   1      43.775  38.323  31.390  1.00  0.00    -0.744 OA
ENDBRANCH  63  64
ENDBRANCH  44  58
BRANCH  45  68
ATOM     68  C   UNL A   1      42.488  23.808  27.564  1.00  0.00    -0.014 A 
ATOM     69  C   UNL A   1      42.549  23.511  26.192  1.00  0.00     0.010 A 
ATOM     70  C   UNL A   1      42.295  22.757  28.482  1.00  0.00     0.010 A 
ATOM     71  C   UNL A   1      42.428  22.190  25.748  1.00  0.00     0.020 A 
ATOM     72  C   UNL A   1      42.211  21.433  28.045  1.00  0.00     0.020 A 
ATOM     73  C   UNL A   1      42.270  21.158  26.679  1.00  0.00     0.054 A 
BRANCH  73  74
ATOM     74  S   UNL A   1      42.196  19.446  26.084  1.00  0.00     0.124 S 
ATOM     75  O   UNL A   1      43.109  19.479  24.947  1.00  0.00    -0.237 OA
ATOM     76  O   UNL A   1      42.656  18.689  27.245  1.00  0.00    -0.237 OA
ATOM     77  O   UNL A   1      40.785  19.261  25.750  1.00  0.00    -0.744 OA
ENDBRANCH  73  74
ENDBRANCH  45  68
BRANCH  57  78
ATOM     78  C   UNL A   1      48.060  27.672  29.207  1.00  0.00    -0.014 A 
ATOM     79  C   UNL A   1      48.660  27.041  30.312  1.00  0.00     0.010 A 
ATOM     80  C   UNL A   1      48.850  27.994  28.089  1.00  0.00     0.010 A 
ATOM     81  C   UNL A   1      50.031  26.773  30.311  1.00  0.00     0.020 A 
ATOM     82  C   UNL A   1      50.214  27.701  28.071  1.00  0.00     0.020 A 
ATOM     83  C   UNL A   1      50.799  27.104  29.190  1.00  0.00     0.054 A 
BRANCH  83  84
ATOM     84  S   UNL A   1      52.570  26.718  29.204  1.00  0.00     0.124 S 
ATOM     85  O   UNL A   1      52.709  25.973  30.452  1.00  0.00    -0.237 OA
ATOM     86  O   UNL A   1      52.736  25.935  27.982  1.00  0.00    -0.237 OA
ATOM     87  O   UNL A   1      53.213  28.031  29.190  1.00  0.00    -0.744 OA
ENDBRANCH  83  84
ENDBRANCH  57  78
ENDBRANCH  31  32
ENDBRANCH  24  26
ENDBRANCH  23  24
ENDBRANCH   1  23
TORSDOF 15
ENDMDL
MODEL 2
REMARK VINA RESULT:     -10.9      3.779      8.833
REMARK SMILES Cc1cc2c(c(C)c1Br)C=C(C(=O)OCCOC(=O)c1ccc(-c3c4nc(c(-c5ccc(S(=O)(=O)[O-])cc5)c5ccc([nH]5)c(-c5ccc(S(=O)(=O)[O-])cc5)c5nc(c(-c6ccc(S(=O)(=O)[O-])cc6)c6ccc3[nH]6)C=C5)C=C4)cc1)[C@@H](C(F)(F)F)O2
REMARK SMILES IDX 16 1 15 2 14 3 12 4 13 5 11 6 1 7 2 8 3 9 8 10 4 11 6 12
REMARK SMILES IDX 9 13 5 14 85 15 7 16 10 17 80 18 81 19 82 20 83 21 84 22
REMARK SMILES IDX 17 23 18 24 19 25 20 26 21 27 79 28 22 29 78 30 23 31 24 32
REMARK SMILES IDX 25 33 72 34 26 35 77 36 71 37 73 38 27 39 76 40 70 41 69 42
REMARK SMILES IDX 28 44 58 45 39 46 57 47 40 48 43 49 56 50 74 51 41 52 42 53
REMARK SMILES IDX 55 55 75 56 44 57 29 58 30 59 38 60 31 61 37 62 32 63 33 64
REMARK SMILES IDX 34 65 35 66 36 67 59 68 60 69 68 70 61 71 67 72 62 73 63 74
REMARK SMILES IDX 64 75 65 76 66 77 45 78 46 79 54 80 47 81 53 82 48 83 49 84
REMARK SMILES IDX 50 85 51 86 52 87
REMARK H PARENT 73 43 43 54
REMARK Flexibility Score: inf
ROOT
ATOM      1  C   UNL A   1      32.081  30.163  26.867  1.00  0.00     0.275 C 
ENDROOT
BRANCH   1   2
ATOM      2  C   UNL A   1      31.776  28.692  26.584  1.00  0.00     0.275 C 
BRANCH   2   3
ATOM      3  O   UNL A   1      32.972  27.884  26.611  1.00  0.00    -0.459 OA
BRANCH   3   4
ATOM      4  C   UNL A   1      33.343  27.360  25.420  1.00  0.00     0.338 C 
ATOM      5  O   UNL A   1      33.695  27.986  24.431  1.00  0.00    -0.246 OA
BRANCH   4   6
ATOM      6  C   UNL A   1      33.275  25.885  25.447  1.00  0.00     0.087 C 
ATOM      7  C   UNL A   1      34.060  19.497  24.653  1.00  0.00     0.046 C 
ATOM      8  C   UNL A   1      34.254  20.972  24.893  1.00  0.00    -0.033 A 
ATOM      9  C   UNL A   1      33.096  21.754  25.028  1.00  0.00     0.051 A 
ATOM     10  C   UNL A   1      35.513  21.588  25.034  1.00  0.00     0.024 A 
ATOM     11  C   UNL A   1      33.173  23.128  25.230  1.00  0.00     0.128 A 
ATOM     12  C   UNL A   1      35.613  22.989  25.217  1.00  0.00    -0.026 A 
ATOM     13  Br  UNL A   1      37.087  20.498  24.996  1.00  0.00    -0.050 Br
ATOM     14  C   UNL A   1      34.419  23.756  25.304  1.00  0.00     0.021 A 
ATOM     15  O   UNL A   1      31.972  23.771  25.362  1.00  0.00    -0.475 OA
ATOM     16  C   UNL A   1      36.952  23.684  25.343  1.00  0.00     0.046 C 
ATOM     17  C   UNL A   1      34.429  25.208  25.444  1.00  0.00     0.027 C 
ATOM     18  C   UNL A   1      31.939  25.223  25.328  1.00  0.00     0.316 C 
BRANCH  18  19
ATOM     19  C   UNL A   1      31.196  25.669  24.059  1.00  0.00     0.430 C 
ATOM     20  F   UNL A   1      30.544  26.841  24.257  1.00  0.00    -0.167 F 
ATOM     21  F   UNL A   1      32.049  25.878  23.026  1.00  0.00    -0.167 F 
ATOM     22  F   UNL A   1      30.281  24.762  23.650  1.00  0.00    -0.167 F 
ENDBRANCH  18  19
ENDBRANCH   4   6
ENDBRANCH   3   4
ENDBRANCH   2   3
ENDBRANCH   1   2
BRANCH   1  23
ATOM     23  O   UNL A   1      33.474  30.448  26.643  1.00  0.00    -0.458 OA
BRANCH  23  24
ATOM     24  C   UNL A   1      33.999  31.392  27.456  1.00  0.00     0.338 C 
ATOM     25  O   UNL A   1      33.445  32.390  27.885  1.00  0.00    -0.246 OA
BRANCH  24  26
ATOM     26  C   UNL A   1      35.363  31.019  27.859  1.00  0.00     0.060 A 
ATOM     27  C   UNL A   1      35.604  29.701  28.221  1.00  0.00     0.016 A 
ATOM     28  C   UNL A   1      36.334  31.991  28.083  1.00  0.00     0.016 A 
ATOM     29  C   UNL A   1      36.738  29.382  28.961  1.00  0.00     0.010 A 
ATOM     30  C   UNL A   1      37.544  31.631  28.696  1.00  0.00     0.010 A 
ATOM     31  C   UNL A   1      37.740  30.332  29.199  1.00  0.00    -0.014 A 
BRANCH  31  32
ATOM     32  C   UNL A   1      38.956  29.971  29.994  1.00  0.00     0.031 A 
ATOM     33  C   UNL A   1      39.905  28.900  29.502  1.00  0.00     0.074 A 
ATOM     34  C   UNL A   1      39.247  30.619  31.143  1.00  0.00     0.049 A 
ATOM     35  N   UNL A   1      40.877  28.299  30.141  1.00  0.00    -0.248 NA
ATOM     36  C   UNL A   1      39.732  28.434  28.114  1.00  0.00     0.031 C 
ATOM     37  C   UNL A   1      38.481  31.731  31.715  1.00  0.00     0.029 A 
ATOM     38  N   UNL A   1      40.284  30.454  32.031  1.00  0.00    -0.354 N 
ATOM     39  C   UNL A   1      41.384  27.344  29.264  1.00  0.00     0.074 A 
ATOM     40  C   UNL A   1      40.613  27.444  28.044  1.00  0.00     0.031 C 
ATOM     41  C   UNL A   1      39.113  32.197  32.800  1.00  0.00     0.029 A 
ATOM     42  C   UNL A   1      40.245  31.330  33.094  1.00  0.00     0.049 A 
ATOM     43  H   UNL A   1      40.987  29.775  31.918  1.00  0.00     0.167 HD
ATOM     44  C   UNL A   1      42.395  26.462  29.460  1.00  0.00     0.031 A 
ATOM     45  C   UNL A   1      40.987  31.400  34.216  1.00  0.00     0.031 A 
ATOM     46  C   UNL A   1      43.189  26.402  30.662  1.00  0.00     0.049 A 
ATOM     47  C   UNL A   1      42.050  30.368  34.447  1.00  0.00     0.074 A 
ATOM     48  C   UNL A   1      44.221  25.532  30.970  1.00  0.00     0.029 A 
ATOM     49  N   UNL A   1      43.061  27.264  31.741  1.00  0.00    -0.354 N 
ATOM     50  N   UNL A   1      42.430  29.390  33.661  1.00  0.00    -0.248 NA
ATOM     51  C   UNL A   1      42.765  30.431  35.728  1.00  0.00     0.031 C 
ATOM     52  C   UNL A   1      44.683  25.835  32.254  1.00  0.00     0.029 A 
ATOM     53  C   UNL A   1      43.986  26.938  32.719  1.00  0.00     0.049 A 
ATOM     54  H   UNL A   1      42.409  27.998  31.803  1.00  0.00     0.167 HD
ATOM     55  C   UNL A   1      43.445  28.731  34.344  1.00  0.00     0.074 A 
ATOM     56  C   UNL A   1      43.628  29.432  35.599  1.00  0.00     0.031 C 
ATOM     57  C   UNL A   1      44.158  27.643  33.964  1.00  0.00     0.031 A 
BRANCH  44  58
ATOM     58  C   UNL A   1      42.681  25.452  28.375  1.00  0.00    -0.014 A 
ATOM     59  C   UNL A   1      43.670  25.672  27.400  1.00  0.00     0.010 A 
ATOM     60  C   UNL A   1      41.991  24.225  28.378  1.00  0.00     0.010 A 
ATOM     61  C   UNL A   1      43.943  24.695  26.436  1.00  0.00     0.020 A 
ATOM     62  C   UNL A   1      42.280  23.235  27.434  1.00  0.00     0.020 A 
ATOM     63  C   UNL A   1      43.248  23.482  26.460  1.00  0.00     0.054 A 
BRANCH  63  64
ATOM     64  S   UNL A   1      43.650  22.220  25.219  1.00  0.00     0.124 S 
ATOM     65  O   UNL A   1      44.970  21.775  25.657  1.00  0.00    -0.237 OA
ATOM     66  O   UNL A   1      42.572  21.250  25.389  1.00  0.00    -0.237 OA
ATOM     67  O   UNL A   1      43.631  22.955  23.956  1.00  0.00    -0.744 OA
ENDBRANCH  63  64
ENDBRANCH  44  58
BRANCH  45  68
ATOM     68  C   UNL A   1      40.694  32.451  35.231  1.00  0.00    -0.014 A 
ATOM     69  C   UNL A   1      39.794  32.201  36.281  1.00  0.00     0.010 A 
ATOM     70  C   UNL A   1      41.351  33.696  35.178  1.00  0.00     0.010 A 
ATOM     71  C   UNL A   1      39.562  33.172  37.261  1.00  0.00     0.020 A 
ATOM     72  C   UNL A   1      41.151  34.653  36.175  1.00  0.00     0.020 A 
ATOM     73  C   UNL A   1      40.251  34.389  37.207  1.00  0.00     0.054 A 
BRANCH  73  74
ATOM     74  S   UNL A   1      39.994  35.600  38.533  1.00  0.00     0.124 S 
ATOM     75  O   UNL A   1      39.766  36.829  37.782  1.00  0.00    -0.237 OA
ATOM     76  O   UNL A   1      38.832  35.059  39.232  1.00  0.00    -0.237 OA
ATOM     77  O   UNL A   1      41.244  35.550  39.289  1.00  0.00    -0.744 OA
ENDBRANCH  73  74
ENDBRANCH  45  68
BRANCH  57  78
ATOM     78  C   UNL A   1      45.240  27.170  34.896  1.00  0.00    -0.014 A 
ATOM     79  C   UNL A   1      46.543  27.695  34.833  1.00  0.00     0.010 A 
ATOM     80  C   UNL A   1      44.934  26.210  35.878  1.00  0.00     0.010 A 
ATOM     81  C   UNL A   1      47.529  27.241  35.712  1.00  0.00     0.020 A 
ATOM     82  C   UNL A   1      45.909  25.775  36.777  1.00  0.00     0.020 A 
ATOM     83  C   UNL A   1      47.205  26.283  36.679  1.00  0.00     0.054 A 
BRANCH  83  84
ATOM     84  S   UNL A   1      48.497  25.732  37.826  1.00  0.00     0.124 S 
ATOM     85  O   UNL A   1      48.876  24.441  37.259  1.00  0.00    -0.237 OA
ATOM     86  O   UNL A   1      49.499  26.789  37.710  1.00  0.00    -0.237 OA
ATOM     87  O   UNL A   1      47.812  25.668  39.115  1.00  0.00    -0.744 OA
ENDBRANCH  83  84
ENDBRANCH  57  78
ENDBRANCH  31  32
ENDBRANCH  24  26
ENDBRANCH  23  24
ENDBRANCH   1  23
TORSDOF 15
ENDMDL
MODEL 3
REMARK VINA RESULT:     -10.9      2.889      8.997
REMARK SMILES Cc1cc2c(c(C)c1Br)C=C(C(=O)OCCOC(=O)c1ccc(-c3c4nc(c(-c5ccc(S(=O)(=O)[O-])cc5)c5ccc([nH]5)c(-c5ccc(S(=O)(=O)[O-])cc5)c5nc(c(-c6ccc(S(=O)(=O)[O-])cc6)c6ccc3[nH]6)C=C5)C=C4)cc1)[C@@H](C(F)(F)F)O2
REMARK SMILES IDX 16 1 15 2 14 3 12 4 13 5 11 6 1 7 2 8 3 9 8 10 4 11 6 12
REMARK SMILES IDX 9 13 5 14 85 15 7 16 10 17 80 18 81 19 82 20 83 21 84 22
REMARK SMILES IDX 17 23 18 24 19 25 20 26 21 27 79 28 22 29 78 30 23 31 24 32
REMARK SMILES IDX 25 33 72 34 26 35 77 36 71 37 73 38 27 39 76 40 70 41 69 42
REMARK SMILES IDX 28 44 58 45 39 46 57 47 40 48 43 49 56 50 74 51 41 52 42 53
REMARK SMILES IDX 55 55 75 56 44 57 29 58 30 59 38 60 31 61 37 62 32 63 33 64
REMARK SMILES IDX 34 65 35 66 36 67 59 68 60 69 68 70 61 71 67 72 62 73 63 74
REMARK SMILES IDX 64 75 65 76 66 77 45 78 46 79 54 80 47 81 53 82 48 83 49 84
REMARK SMILES IDX 50 85 51 86 52 87
REMARK H PARENT 73 43 43 54
REMARK Flexibility Score: inf
ROOT
ATOM      1  C   UNL A   1      37.391  21.080  24.764  1.00  0.00     0.275 C 
ENDROOT
BRANCH   1   2
ATOM      2  C   UNL A   1      35.946  20.648  25.012  1.00  0.00     0.275 C 
BRANCH   2   3
ATOM      3  O   UNL A   1      35.014  21.418  24.222  1.00  0.00    -0.459 OA
BRANCH   3   4
ATOM      4  C   UNL A   1      33.710  21.252  24.542  1.00  0.00     0.338 C 
ATOM      5  O   UNL A   1      33.075  20.210  24.478  1.00  0.00    -0.246 OA
BRANCH   4   6
ATOM      6  C   UNL A   1      33.113  22.523  24.999  1.00  0.00     0.087 C 
ATOM      7  C   UNL A   1      31.692  28.669  26.503  1.00  0.00     0.046 C 
ATOM      8  C   UNL A   1      32.106  27.394  25.815  1.00  0.00    -0.033 A 
ATOM      9  C   UNL A   1      31.868  26.193  26.502  1.00  0.00     0.051 A 
ATOM     10  C   UNL A   1      32.666  27.341  24.523  1.00  0.00     0.024 A 
ATOM     11  C   UNL A   1      32.234  24.966  25.958  1.00  0.00     0.128 A 
ATOM     12  C   UNL A   1      33.067  26.105  23.961  1.00  0.00    -0.026 A 
ATOM     13  Br  UNL A   1      32.854  28.967  23.529  1.00  0.00    -0.050 Br
ATOM     14  C   UNL A   1      32.850  24.912  24.705  1.00  0.00     0.021 A 
ATOM     15  O   UNL A   1      31.931  23.871  26.721  1.00  0.00    -0.475 OA
ATOM     16  C   UNL A   1      33.697  26.018  22.588  1.00  0.00     0.046 C 
ATOM     17  C   UNL A   1      33.276  23.602  24.225  1.00  0.00     0.027 C 
ATOM     18  C   UNL A   1      32.490  22.580  26.358  1.00  0.00     0.316 C 
BRANCH  18  19
ATOM     19  C   UNL A   1      33.477  22.145  27.453  1.00  0.00     0.430 C 
ATOM     20  F   UNL A   1      33.021  22.475  28.686  1.00  0.00    -0.167 F 
ATOM     21  F   UNL A   1      33.656  20.801  27.461  1.00  0.00    -0.167 F 
ATOM     22  F   UNL A   1      34.694  22.715  27.306  1.00  0.00    -0.167 F 
ENDBRANCH  18  19
ENDBRANCH   4   6
ENDBRANCH   3   4
ENDBRANCH   2   3
ENDBRANCH   1   2
BRANCH   1  23
ATOM     23  O   UNL A   1      37.790  22.093  25.705  1.00  0.00    -0.458 OA
BRANCH  23  24
ATOM     24  C   UNL A   1      39.036  21.944  26.208  1.00  0.00     0.338 C 
ATOM     25  O   UNL A   1      39.778  20.986  26.072  1.00  0.00    -0.246 OA
BRANCH  24  26
ATOM     26  C   UNL A   1      39.456  23.170  26.903  1.00  0.00     0.060 A 
ATOM     27  C   UNL A   1      38.847  24.366  26.553  1.00  0.00     0.016 A 
ATOM     28  C   UNL A   1      40.578  23.175  27.728  1.00  0.00     0.016 A 
ATOM     29  C   UNL A   1      39.453  25.574  26.881  1.00  0.00     0.010 A 
ATOM     30  C   UNL A   1      41.096  24.397  28.181  1.00  0.00     0.010 A 
ATOM     31  C   UNL A   1      40.577  25.619  27.715  1.00  0.00    -0.014 A 
BRANCH  31  32
ATOM     32  C   UNL A   1      41.215  26.929  28.062  1.00  0.00     0.031 A 
ATOM     33  C   UNL A   1      42.694  27.148  27.827  1.00  0.00     0.074 A 
ATOM     34  C   UNL A   1      40.477  27.948  28.553  1.00  0.00     0.049 A 
ATOM     35  N   UNL A   1      43.464  28.116  28.257  1.00  0.00    -0.248 NA
ATOM     36  C   UNL A   1      43.403  26.143  27.015  1.00  0.00     0.031 C 
ATOM     37  C   UNL A   1      39.025  27.928  28.762  1.00  0.00     0.029 A 
ATOM     38  N   UNL A   1      40.840  29.214  28.947  1.00  0.00    -0.354 N 
ATOM     39  C   UNL A   1      44.752  27.804  27.827  1.00  0.00     0.074 A 
ATOM     40  C   UNL A   1      44.661  26.556  27.102  1.00  0.00     0.031 C 
ATOM     41  C   UNL A   1      38.616  29.139  29.163  1.00  0.00     0.029 A 
ATOM     42  C   UNL A   1      39.783  29.980  29.385  1.00  0.00     0.049 A 
ATOM     43  H   UNL A   1      41.767  29.541  28.918  1.00  0.00     0.167 HD
ATOM     44  C   UNL A   1      45.903  28.493  28.026  1.00  0.00     0.031 A 
ATOM     45  C   UNL A   1      39.745  31.197  29.963  1.00  0.00     0.031 A 
ATOM     46  C   UNL A   1      45.976  29.760  28.709  1.00  0.00     0.049 A 
ATOM     47  C   UNL A   1      41.036  31.907  30.241  1.00  0.00     0.074 A 
ATOM     48  C   UNL A   1      47.096  30.528  28.983  1.00  0.00     0.029 A 
ATOM     49  N   UNL A   1      44.884  30.460  29.201  1.00  0.00    -0.354 N 
ATOM     50  N   UNL A   1      42.258  31.536  29.942  1.00  0.00    -0.248 NA
ATOM     51  C   UNL A   1      40.947  33.185  30.958  1.00  0.00     0.031 C 
ATOM     52  C   UNL A   1      46.686  31.666  29.682  1.00  0.00     0.029 A 
ATOM     53  C   UNL A   1      45.305  31.643  29.785  1.00  0.00     0.049 A 
ATOM     54  H   UNL A   1      43.949  30.160  29.143  1.00  0.00     0.167 HD
ATOM     55  C   UNL A   1      43.085  32.546  30.419  1.00  0.00     0.074 A 
ATOM     56  C   UNL A   1      42.222  33.549  31.009  1.00  0.00     0.031 C 
ATOM     57  C   UNL A   1      44.436  32.633  30.371  1.00  0.00     0.031 A 
BRANCH  44  58
ATOM     58  C   UNL A   1      47.194  27.878  27.541  1.00  0.00    -0.014 A 
ATOM     59  C   UNL A   1      47.795  28.271  26.332  1.00  0.00     0.010 A 
ATOM     60  C   UNL A   1      47.855  26.936  28.353  1.00  0.00     0.010 A 
ATOM     61  C   UNL A   1      49.015  27.715  25.934  1.00  0.00     0.020 A 
ATOM     62  C   UNL A   1      49.089  26.400  27.973  1.00  0.00     0.020 A 
ATOM     63  C   UNL A   1      49.656  26.784  26.758  1.00  0.00     0.054 A 
BRANCH  63  64
ATOM     64  S   UNL A   1      51.257  26.108  26.232  1.00  0.00     0.124 S 
ATOM     65  O   UNL A   1      51.117  26.097  24.779  1.00  0.00    -0.237 OA
ATOM     66  O   UNL A   1      52.205  27.084  26.764  1.00  0.00    -0.237 OA
ATOM     67  O   UNL A   1      51.302  24.790  26.862  1.00  0.00    -0.744 OA
ENDBRANCH  63  64
ENDBRANCH  44  58
BRANCH  45  68
ATOM     68  C   UNL A   1      38.437  31.779  30.375  1.00  0.00    -0.014 A 
ATOM     69  C   UNL A   1      37.920  31.541  31.660  1.00  0.00     0.010 A 
ATOM     70  C   UNL A   1      37.721  32.616  29.496  1.00  0.00     0.010 A 
ATOM     71  C   UNL A   1      36.717  32.133  32.060  1.00  0.00     0.020 A 
ATOM     72  C   UNL A   1      36.540  33.239  29.905  1.00  0.00     0.020 A 
ATOM     73  C   UNL A   1      36.040  32.987  31.182  1.00  0.00     0.054 A 
BRANCH  73  74
ATOM     74  S   UNL A   1      34.525  33.805  31.752  1.00  0.00     0.124 S 
ATOM     75  O   UNL A   1      33.910  32.769  32.574  1.00  0.00    -0.237 OA
ATOM     76  O   UNL A   1      35.046  34.962  32.476  1.00  0.00    -0.237 OA
ATOM     77  O   UNL A   1      33.821  34.123  30.512  1.00  0.00    -0.744 OA
ENDBRANCH  73  74
ENDBRANCH  45  68
BRANCH  57  78
ATOM     78  C   UNL A   1      45.067  33.879  30.929  1.00  0.00    -0.014 A 
ATOM     79  C   UNL A   1      45.497  33.947  32.267  1.00  0.00     0.010 A 
ATOM     80  C   UNL A   1      45.267  34.988  30.087  1.00  0.00     0.010 A 
ATOM     81  C   UNL A   1      46.082  35.116  32.759  1.00  0.00     0.020 A 
ATOM     82  C   UNL A   1      45.878  36.147  30.567  1.00  0.00     0.020 A 
ATOM     83  C   UNL A   1      46.269  36.209  31.907  1.00  0.00     0.054 A 
BRANCH  83  84
ATOM     84  S   UNL A   1      47.057  37.702  32.565  1.00  0.00     0.124 S 
ATOM     85  O   UNL A   1      45.904  38.533  32.899  1.00  0.00    -0.237 OA
ATOM     86  O   UNL A   1      47.814  37.189  33.704  1.00  0.00    -0.237 OA
ATOM     87  O   UNL A   1      47.870  38.186  31.451  1.00  0.00    -0.744 OA
ENDBRANCH  83  84
ENDBRANCH  57  78
ENDBRANCH  31  32
ENDBRANCH  24  26
ENDBRANCH  23  24
ENDBRANCH   1  23
TORSDOF 15
ENDMDL
