MODEL 1
REMARK VINA RESULT:      -8.8      0.000      0.000
REMARK SMILES COc1ccc(C(=O)c2ccccc2)cc1[C@@H](C)C(=O)OCCOC(=O)c1ccc(-c2c3nc(c(-c4ccc(S(=O)(=O)[O-])cc4)c4ccc([nH]4)c(-c4ccc(S(=O)(=O)[O-])cc4)c4nc(c(-c5ccc(S(=O)(=O)[O-])cc5)c5ccc2[nH]5)C=C4)C=C3)cc1
REMARK SMILES IDX 22 1 21 2 19 3 20 4 17 5 18 6 16 7 3 8 4 9 5 10 15 11 6 12
REMARK SMILES IDX 2 13 1 14 7 15 8 16 9 17 10 18 14 19 11 20 13 21 12 22 23 23
REMARK SMILES IDX 24 24 25 25 26 26 27 27 28 28 86 29 29 30 85 31 30 32 31 33
REMARK SMILES IDX 32 34 79 35 33 36 84 37 78 38 80 39 34 40 83 41 77 42 76 43
REMARK SMILES IDX 35 45 65 46 46 47 64 48 47 49 50 50 63 51 81 52 48 53 49 54
REMARK SMILES IDX 62 56 82 57 51 58 36 59 37 60 45 61 38 62 44 63 39 64 40 65
REMARK SMILES IDX 41 66 42 67 43 68 66 69 67 70 75 71 68 72 74 73 69 74 70 75
REMARK SMILES IDX 71 76 72 77 73 78 52 79 53 80 61 81 54 82 60 83 55 84 56 85
REMARK SMILES IDX 57 86 58 87 59 88
REMARK H PARENT 80 44 50 55
REMARK Flexibility Score: inf
ROOT
ATOM      1  C   UNL A   1      34.139  34.652  29.317  1.00  0.00     0.274 C 
ENDROOT
BRANCH   1   2
ATOM      2  O   UNL A   1      33.525  34.330  30.580  1.00  0.00    -0.462 OA
BRANCH   2   3
ATOM      3  C   UNL A   1      34.226  33.527  31.420  1.00  0.00     0.313 C 
ATOM      4  O   UNL A   1      34.405  32.327  31.224  1.00  0.00    -0.252 OA
BRANCH   3   5
ATOM      5  C   UNL A   1      34.720  34.216  32.688  1.00  0.00     0.130 C 
ATOM      6  C   UNL A   1      34.105  35.615  32.770  1.00  0.00     0.025 C 
BRANCH   5   7
ATOM      7  C   UNL A   1      36.227  34.272  32.921  1.00  0.00     0.009 A 
ATOM      8  C   UNL A   1      36.766  34.258  34.218  1.00  0.00     0.122 A 
ATOM      9  C   UNL A   1      38.142  34.401  34.424  1.00  0.00     0.047 A 
ATOM     10  C   UNL A   1      39.009  34.518  33.337  1.00  0.00     0.016 A 
ATOM     11  C   UNL A   1      37.119  34.398  31.840  1.00  0.00     0.020 A 
ATOM     12  C   UNL A   1      38.504  34.515  32.035  1.00  0.00     0.023 A 
BRANCH   8  13
ATOM     13  O   UNL A   1      35.907  34.199  35.285  1.00  0.00    -0.496 OA
ATOM     14  C   UNL A   1      36.514  33.603  36.434  1.00  0.00     0.278 C 
ENDBRANCH   8  13
BRANCH  12  15
ATOM     15  C   UNL A   1      39.463  34.608  30.896  1.00  0.00     0.193 C 
ATOM     16  O   UNL A   1      39.177  35.227  29.876  1.00  0.00    -0.289 OA
BRANCH  15  17
ATOM     17  C   UNL A   1      40.803  33.993  30.982  1.00  0.00     0.022 A 
ATOM     18  C   UNL A   1      41.693  34.464  31.951  1.00  0.00     0.012 A 
ATOM     19  C   UNL A   1      41.177  32.958  30.117  1.00  0.00     0.012 A 
ATOM     20  C   UNL A   1      42.944  33.865  32.087  1.00  0.00     0.001 A 
ATOM     21  C   UNL A   1      42.427  32.358  30.261  1.00  0.00     0.001 A 
ATOM     22  C   UNL A   1      43.306  32.809  31.250  1.00  0.00     0.000 A 
ENDBRANCH  15  17
ENDBRANCH  12  15
ENDBRANCH   5   7
ENDBRANCH   3   5
ENDBRANCH   2   3
ENDBRANCH   1   2
BRANCH   1  23
ATOM     23  C   UNL A   1      33.613  33.752  28.201  1.00  0.00     0.275 C 
BRANCH  23  24
ATOM     24  O   UNL A   1      34.674  32.970  27.627  1.00  0.00    -0.458 OA
BRANCH  24  25
ATOM     25  C   UNL A   1      34.535  31.634  27.777  1.00  0.00     0.338 C 
ATOM     26  O   UNL A   1      33.526  30.969  27.625  1.00  0.00    -0.246 OA
BRANCH  25  27
ATOM     27  C   UNL A   1      35.834  31.032  28.099  1.00  0.00     0.060 A 
ATOM     28  C   UNL A   1      35.862  29.703  28.523  1.00  0.00     0.016 A 
ATOM     29  C   UNL A   1      36.982  31.824  28.153  1.00  0.00     0.016 A 
ATOM     30  C   UNL A   1      37.027  29.180  29.079  1.00  0.00     0.010 A 
ATOM     31  C   UNL A   1      38.163  31.281  28.672  1.00  0.00     0.010 A 
ATOM     32  C   UNL A   1      38.181  29.970  29.182  1.00  0.00    -0.014 A 
BRANCH  32  33
ATOM     33  C   UNL A   1      39.367  29.455  29.915  1.00  0.00     0.031 A 
ATOM     34  C   UNL A   1      39.694  29.992  31.284  1.00  0.00     0.074 A 
ATOM     35  C   UNL A   1      40.122  28.471  29.389  1.00  0.00     0.049 A 
ATOM     36  N   UNL A   1      40.734  29.746  32.041  1.00  0.00    -0.248 NA
ATOM     37  C   UNL A   1      38.731  30.934  31.878  1.00  0.00     0.031 C 
ATOM     38  C   UNL A   1      39.892  27.822  28.099  1.00  0.00     0.029 A 
ATOM     39  N   UNL A   1      41.226  27.830  29.894  1.00  0.00    -0.354 N 
ATOM     40  C   UNL A   1      40.580  30.542  33.169  1.00  0.00     0.074 A 
ATOM     41  C   UNL A   1      39.340  31.270  33.007  1.00  0.00     0.031 C 
ATOM     42  C   UNL A   1      40.798  26.845  27.933  1.00  0.00     0.029 A 
ATOM     43  C   UNL A   1      41.704  26.835  29.078  1.00  0.00     0.049 A 
ATOM     44  H   UNL A   1      41.635  28.062  30.758  1.00  0.00     0.167 HD
ATOM     45  C   UNL A   1      41.401  30.666  34.241  1.00  0.00     0.031 A 
ATOM     46  C   UNL A   1      42.762  26.014  29.225  1.00  0.00     0.031 A 
ATOM     47  C   UNL A   1      42.612  29.915  34.428  1.00  0.00     0.049 A 
ATOM     48  C   UNL A   1      43.637  26.141  30.439  1.00  0.00     0.074 A 
ATOM     49  C   UNL A   1      43.531  30.001  35.461  1.00  0.00     0.029 A 
ATOM     50  N   UNL A   1      43.060  28.918  33.577  1.00  0.00    -0.354 N 
ATOM     51  N   UNL A   1      43.526  26.968  31.448  1.00  0.00    -0.248 NA
ATOM     52  C   UNL A   1      44.788  25.231  30.524  1.00  0.00     0.031 C 
ATOM     53  C   UNL A   1      44.539  29.056  35.230  1.00  0.00     0.029 A 
ATOM     54  C   UNL A   1      44.233  28.369  34.067  1.00  0.00     0.049 A 
ATOM     55  H   UNL A   1      42.610  28.640  32.746  1.00  0.00     0.167 HD
ATOM     56  C   UNL A   1      44.597  26.684  32.287  1.00  0.00     0.074 A 
ATOM     57  C   UNL A   1      45.329  25.590  31.680  1.00  0.00     0.031 C 
ATOM     58  C   UNL A   1      44.948  27.284  33.450  1.00  0.00     0.031 A 
BRANCH  45  59
ATOM     59  C   UNL A   1      41.028  31.691  35.274  1.00  0.00    -0.014 A 
ATOM     60  C   UNL A   1      41.641  32.955  35.301  1.00  0.00     0.010 A 
ATOM     61  C   UNL A   1      40.036  31.385  36.222  1.00  0.00     0.010 A 
ATOM     62  C   UNL A   1      41.294  33.885  36.286  1.00  0.00     0.020 A 
ATOM     63  C   UNL A   1      39.674  32.318  37.197  1.00  0.00     0.020 A 
ATOM     64  C   UNL A   1      40.320  33.556  37.235  1.00  0.00     0.054 A 
BRANCH  64  65
ATOM     65  S   UNL A   1      39.869  34.773  38.501  1.00  0.00     0.124 S 
ATOM     66  O   UNL A   1      39.668  35.977  37.698  1.00  0.00    -0.237 OA
ATOM     67  O   UNL A   1      38.660  34.203  39.091  1.00  0.00    -0.237 OA
ATOM     68  O   UNL A   1      41.034  34.798  39.382  1.00  0.00    -0.744 OA
ENDBRANCH  64  65
ENDBRANCH  45  59
BRANCH  46  69
ATOM     69  C   UNL A   1      43.055  25.003  28.177  1.00  0.00    -0.014 A 
ATOM     70  C   UNL A   1      43.966  25.293  27.149  1.00  0.00     0.010 A 
ATOM     71  C   UNL A   1      42.454  23.733  28.229  1.00  0.00     0.010 A 
ATOM     72  C   UNL A   1      44.274  24.328  26.186  1.00  0.00     0.020 A 
ATOM     73  C   UNL A   1      42.774  22.760  27.279  1.00  0.00     0.020 A 
ATOM     74  C   UNL A   1      43.677  23.066  26.259  1.00  0.00     0.054 A 
BRANCH  74  75
ATOM     75  S   UNL A   1      44.147  21.786  25.061  1.00  0.00     0.124 S 
ATOM     76  O   UNL A   1      45.545  21.548  25.406  1.00  0.00    -0.237 OA
ATOM     77  O   UNL A   1      43.224  20.696  25.368  1.00  0.00    -0.237 OA
ATOM     78  O   UNL A   1      43.918  22.437  23.771  1.00  0.00    -0.744 OA
ENDBRANCH  74  75
ENDBRANCH  46  69
BRANCH  58  79
ATOM     79  C   UNL A   1      46.175  26.765  34.142  1.00  0.00    -0.014 A 
ATOM     80  C   UNL A   1      46.082  25.715  35.073  1.00  0.00     0.010 A 
ATOM     81  C   UNL A   1      47.434  27.309  33.838  1.00  0.00     0.010 A 
ATOM     82  C   UNL A   1      47.229  25.236  35.710  1.00  0.00     0.020 A 
ATOM     83  C   UNL A   1      48.585  26.824  34.465  1.00  0.00     0.020 A 
ATOM     84  C   UNL A   1      48.472  25.800  35.409  1.00  0.00     0.054 A 
BRANCH  84  85
ATOM     85  S   UNL A   1      49.958  25.151  36.224  1.00  0.00     0.124 S 
ATOM     86  O   UNL A   1      49.636  23.732  36.351  1.00  0.00    -0.237 OA
ATOM     87  O   UNL A   1      51.020  25.471  35.273  1.00  0.00    -0.237 OA
ATOM     88  O   UNL A   1      50.012  25.895  37.479  1.00  0.00    -0.744 OA
ENDBRANCH  84  85
ENDBRANCH  58  79
ENDBRANCH  32  33
ENDBRANCH  25  27
ENDBRANCH  24  25
ENDBRANCH  23  24
ENDBRANCH   1  23
TORSDOF 18
ENDMDL
MODEL 2
REMARK VINA RESULT:      -8.2      2.875     10.804
REMARK SMILES COc1ccc(C(=O)c2ccccc2)cc1[C@@H](C)C(=O)OCCOC(=O)c1ccc(-c2c3nc(c(-c4ccc(S(=O)(=O)[O-])cc4)c4ccc([nH]4)c(-c4ccc(S(=O)(=O)[O-])cc4)c4nc(c(-c5ccc(S(=O)(=O)[O-])cc5)c5ccc2[nH]5)C=C4)C=C3)cc1
REMARK SMILES IDX 22 1 21 2 19 3 20 4 17 5 18 6 16 7 3 8 4 9 5 10 15 11 6 12
REMARK SMILES IDX 2 13 1 14 7 15 8 16 9 17 10 18 14 19 11 20 13 21 12 22 23 23
REMARK SMILES IDX 24 24 25 25 26 26 27 27 28 28 86 29 29 30 85 31 30 32 31 33
REMARK SMILES IDX 32 34 79 35 33 36 84 37 78 38 80 39 34 40 83 41 77 42 76 43
REMARK SMILES IDX 35 45 65 46 46 47 64 48 47 49 50 50 63 51 81 52 48 53 49 54
REMARK SMILES IDX 62 56 82 57 51 58 36 59 37 60 45 61 38 62 44 63 39 64 40 65
REMARK SMILES IDX 41 66 42 67 43 68 66 69 67 70 75 71 68 72 74 73 69 74 70 75
REMARK SMILES IDX 71 76 72 77 73 78 52 79 53 80 61 81 54 82 60 83 55 84 56 85
REMARK SMILES IDX 57 86 58 87 59 88
REMARK H PARENT 80 44 50 55
REMARK Flexibility Score: inf
ROOT
ATOM      1  C   UNL A   1      41.257  23.286  28.286  1.00  0.00     0.274 C 
ENDROOT
BRANCH   1   2
ATOM      2  O   UNL A   1      42.190  24.198  28.896  1.00  0.00    -0.462 OA
BRANCH   2   3
ATOM      3  C   UNL A   1      43.434  23.724  29.159  1.00  0.00     0.313 C 
ATOM      4  O   UNL A   1      43.655  22.597  29.594  1.00  0.00    -0.252 OA
BRANCH   3   5
ATOM      5  C   UNL A   1      44.554  24.738  28.945  1.00  0.00     0.130 C 
ATOM      6  C   UNL A   1      44.858  25.437  30.271  1.00  0.00     0.025 C 
BRANCH   5   7
ATOM      7  C   UNL A   1      44.380  25.757  27.823  1.00  0.00     0.009 A 
ATOM      8  C   UNL A   1      44.390  25.365  26.474  1.00  0.00     0.122 A 
ATOM      9  C   UNL A   1      44.320  26.317  25.450  1.00  0.00     0.047 A 
ATOM     10  C   UNL A   1      44.197  27.673  25.757  1.00  0.00     0.016 A 
ATOM     11  C   UNL A   1      44.262  27.130  28.108  1.00  0.00     0.020 A 
ATOM     12  C   UNL A   1      44.164  28.090  27.089  1.00  0.00     0.023 A 
BRANCH   8  13
ATOM     13  O   UNL A   1      44.567  24.039  26.176  1.00  0.00    -0.496 OA
ATOM     14  C   UNL A   1      44.335  23.760  24.793  1.00  0.00     0.278 C 
ENDBRANCH   8  13
BRANCH  12  15
ATOM     15  C   UNL A   1      43.997  29.543  27.379  1.00  0.00     0.193 C 
ATOM     16  O   UNL A   1      43.619  30.324  26.511  1.00  0.00    -0.289 OA
BRANCH  15  17
ATOM     17  C   UNL A   1      44.241  30.079  28.734  1.00  0.00     0.022 A 
ATOM     18  C   UNL A   1      45.361  29.628  29.438  1.00  0.00     0.012 A 
ATOM     19  C   UNL A   1      43.375  31.020  29.302  1.00  0.00     0.012 A 
ATOM     20  C   UNL A   1      45.641  30.158  30.697  1.00  0.00     0.001 A 
ATOM     21  C   UNL A   1      43.664  31.550  30.559  1.00  0.00     0.001 A 
ATOM     22  C   UNL A   1      44.799  31.123  31.252  1.00  0.00     0.000 A 
ENDBRANCH  15  17
ENDBRANCH  12  15
ENDBRANCH   5   7
ENDBRANCH   3   5
ENDBRANCH   2   3
ENDBRANCH   1   2
BRANCH   1  23
ATOM     23  C   UNL A   1      40.986  23.662  26.831  1.00  0.00     0.275 C 
BRANCH  23  24
ATOM     24  O   UNL A   1      39.947  24.651  26.740  1.00  0.00    -0.458 OA
BRANCH  24  25
ATOM     25  C   UNL A   1      40.378  25.898  26.444  1.00  0.00     0.338 C 
ATOM     26  O   UNL A   1      40.898  26.280  25.410  1.00  0.00    -0.246 OA
BRANCH  25  27
ATOM     27  C   UNL A   1      40.069  26.807  27.554  1.00  0.00     0.060 A 
ATOM     28  C   UNL A   1      40.571  28.108  27.502  1.00  0.00     0.016 A 
ATOM     29  C   UNL A   1      39.447  26.326  28.705  1.00  0.00     0.016 A 
ATOM     30  C   UNL A   1      40.522  28.912  28.639  1.00  0.00     0.010 A 
ATOM     31  C   UNL A   1      39.359  27.152  29.831  1.00  0.00     0.010 A 
ATOM     32  C   UNL A   1      39.937  28.434  29.821  1.00  0.00    -0.014 A 
BRANCH  32  33
ATOM     33  C   UNL A   1      40.027  29.238  31.068  1.00  0.00     0.031 A 
ATOM     34  C   UNL A   1      41.219  29.083  31.977  1.00  0.00     0.074 A 
ATOM     35  C   UNL A   1      39.078  30.147  31.367  1.00  0.00     0.049 A 
ATOM     36  N   UNL A   1      41.436  29.617  33.153  1.00  0.00    -0.248 NA
ATOM     37  C   UNL A   1      42.306  28.208  31.507  1.00  0.00     0.031 C 
ATOM     38  C   UNL A   1      37.899  30.439  30.553  1.00  0.00     0.029 A 
ATOM     39  N   UNL A   1      38.975  31.009  32.430  1.00  0.00    -0.354 N 
ATOM     40  C   UNL A   1      42.652  29.100  33.586  1.00  0.00     0.074 A 
ATOM     41  C   UNL A   1      43.133  28.221  32.543  1.00  0.00     0.031 C 
ATOM     42  C   UNL A   1      37.213  31.444  31.122  1.00  0.00     0.029 A 
ATOM     43  C   UNL A   1      37.874  31.828  32.367  1.00  0.00     0.049 A 
ATOM     44  H   UNL A   1      39.626  31.037  33.166  1.00  0.00     0.167 HD
ATOM     45  C   UNL A   1      43.304  29.328  34.752  1.00  0.00     0.031 A 
ATOM     46  C   UNL A   1      37.436  32.773  33.221  1.00  0.00     0.031 A 
ATOM     47  C   UNL A   1      42.852  30.232  35.774  1.00  0.00     0.049 A 
ATOM     48  C   UNL A   1      38.195  33.038  34.488  1.00  0.00     0.074 A 
ATOM     49  C   UNL A   1      43.424  30.498  37.007  1.00  0.00     0.029 A 
ATOM     50  N   UNL A   1      41.732  31.041  35.670  1.00  0.00    -0.354 N 
ATOM     51  N   UNL A   1      39.292  32.468  34.923  1.00  0.00    -0.248 NA
ATOM     52  C   UNL A   1      37.648  34.064  35.387  1.00  0.00     0.031 C 
ATOM     53  C   UNL A   1      42.645  31.467  37.651  1.00  0.00     0.029 A 
ATOM     54  C   UNL A   1      41.604  31.819  36.808  1.00  0.00     0.049 A 
ATOM     55  H   UNL A   1      41.119  31.061  34.900  1.00  0.00     0.167 HD
ATOM     56  C   UNL A   1      39.563  33.061  36.150  1.00  0.00     0.074 A 
ATOM     57  C   UNL A   1      38.531  34.053  36.376  1.00  0.00     0.031 C 
ATOM     58  C   UNL A   1      40.571  32.798  37.017  1.00  0.00     0.031 A 
BRANCH  45  59
ATOM     59  C   UNL A   1      44.562  28.543  34.997  1.00  0.00    -0.014 A 
ATOM     60  C   UNL A   1      44.526  27.283  35.617  1.00  0.00     0.010 A 
ATOM     61  C   UNL A   1      45.796  29.074  34.583  1.00  0.00     0.010 A 
ATOM     62  C   UNL A   1      45.712  26.581  35.854  1.00  0.00     0.020 A 
ATOM     63  C   UNL A   1      46.982  28.368  34.803  1.00  0.00     0.020 A 
ATOM     64  C   UNL A   1      46.934  27.134  35.456  1.00  0.00     0.054 A 
BRANCH  64  65
ATOM     65  S   UNL A   1      48.465  26.210  35.759  1.00  0.00     0.124 S 
ATOM     66  O   UNL A   1      49.354  26.766  34.741  1.00  0.00    -0.237 OA
ATOM     67  O   UNL A   1      48.795  26.563  37.138  1.00  0.00    -0.237 OA
ATOM     68  O   UNL A   1      48.072  24.819  35.553  1.00  0.00    -0.744 OA
ENDBRANCH  64  65
ENDBRANCH  45  59
BRANCH  46  69
ATOM     69  C   UNL A   1      36.200  33.532  32.901  1.00  0.00    -0.014 A 
ATOM     70  C   UNL A   1      34.939  32.938  33.077  1.00  0.00     0.010 A 
ATOM     71  C   UNL A   1      36.279  34.864  32.458  1.00  0.00     0.010 A 
ATOM     72  C   UNL A   1      33.775  33.665  32.816  1.00  0.00     0.020 A 
ATOM     73  C   UNL A   1      35.117  35.599  32.215  1.00  0.00     0.020 A 
ATOM     74  C   UNL A   1      33.871  34.992  32.389  1.00  0.00     0.054 A 
BRANCH  74  75
ATOM     75  S   UNL A   1      32.357  35.960  32.137  1.00  0.00     0.124 S 
ATOM     76  O   UNL A   1      31.327  35.037  32.604  1.00  0.00    -0.237 OA
ATOM     77  O   UNL A   1      32.579  37.137  32.973  1.00  0.00    -0.237 OA
ATOM     78  O   UNL A   1      32.363  36.222  30.698  1.00  0.00    -0.744 OA
ENDBRANCH  74  75
ENDBRANCH  46  69
BRANCH  58  79
ATOM     79  C   UNL A   1      40.607  33.602  38.285  1.00  0.00    -0.014 A 
ATOM     80  C   UNL A   1      39.981  33.130  39.451  1.00  0.00     0.010 A 
ATOM     81  C   UNL A   1      41.300  34.824  38.319  1.00  0.00     0.010 A 
ATOM     82  C   UNL A   1      40.021  33.883  40.626  1.00  0.00     0.020 A 
ATOM     83  C   UNL A   1      41.352  35.574  39.497  1.00  0.00     0.020 A 
ATOM     84  C   UNL A   1      40.699  35.106  40.639  1.00  0.00     0.054 A 
BRANCH  84  85
ATOM     85  S   UNL A   1      40.769  36.061  42.180  1.00  0.00     0.124 S 
ATOM     86  O   UNL A   1      39.640  36.974  42.020  1.00  0.00    -0.237 OA
ATOM     87  O   UNL A   1      40.606  35.037  43.209  1.00  0.00    -0.237 OA
ATOM     88  O   UNL A   1      42.089  36.685  42.136  1.00  0.00    -0.744 OA
ENDBRANCH  84  85
ENDBRANCH  58  79
ENDBRANCH  32  33
ENDBRANCH  25  27
ENDBRANCH  24  25
ENDBRANCH  23  24
ENDBRANCH   1  23
TORSDOF 18
ENDMDL
MODEL 3
REMARK VINA RESULT:      -8.1      2.832     11.158
REMARK SMILES COc1ccc(C(=O)c2ccccc2)cc1[C@@H](C)C(=O)OCCOC(=O)c1ccc(-c2c3nc(c(-c4ccc(S(=O)(=O)[O-])cc4)c4ccc([nH]4)c(-c4ccc(S(=O)(=O)[O-])cc4)c4nc(c(-c5ccc(S(=O)(=O)[O-])cc5)c5ccc2[nH]5)C=C4)C=C3)cc1
REMARK SMILES IDX 22 1 21 2 19 3 20 4 17 5 18 6 16 7 3 8 4 9 5 10 15 11 6 12
REMARK SMILES IDX 2 13 1 14 7 15 8 16 9 17 10 18 14 19 11 20 13 21 12 22 23 23
REMARK SMILES IDX 24 24 25 25 26 26 27 27 28 28 86 29 29 30 85 31 30 32 31 33
REMARK SMILES IDX 32 34 79 35 33 36 84 37 78 38 80 39 34 40 83 41 77 42 76 43
REMARK SMILES IDX 35 45 65 46 46 47 64 48 47 49 50 50 63 51 81 52 48 53 49 54
REMARK SMILES IDX 62 56 82 57 51 58 36 59 37 60 45 61 38 62 44 63 39 64 40 65
REMARK SMILES IDX 41 66 42 67 43 68 66 69 67 70 75 71 68 72 74 73 69 74 70 75
REMARK SMILES IDX 71 76 72 77 73 78 52 79 53 80 61 81 54 82 60 83 55 84 56 85
REMARK SMILES IDX 57 86 58 87 59 88
REMARK H PARENT 80 44 50 55
REMARK Flexibility Score: inf
ROOT
ATOM      1  C   UNL A   1      43.667  23.129  24.978  1.00  0.00     0.274 C 
ENDROOT
BRANCH   1   2
ATOM      2  O   UNL A   1      44.595  23.827  25.832  1.00  0.00    -0.462 OA
BRANCH   2   3
ATOM      3  C   UNL A   1      45.830  24.076  25.327  1.00  0.00     0.313 C 
ATOM      4  O   UNL A   1      46.597  23.198  24.940  1.00  0.00    -0.252 OA
BRANCH   3   5
ATOM      5  C   UNL A   1      46.235  25.546  25.347  1.00  0.00     0.130 C 
ATOM      6  C   UNL A   1      47.743  25.654  25.113  1.00  0.00     0.025 C 
BRANCH   5   7
ATOM      7  C   UNL A   1      45.813  26.379  26.554  1.00  0.00     0.009 A 
ATOM      8  C   UNL A   1      44.911  27.448  26.424  1.00  0.00     0.122 A 
ATOM      9  C   UNL A   1      44.601  28.262  27.519  1.00  0.00     0.047 A 
ATOM     10  C   UNL A   1      45.153  27.996  28.773  1.00  0.00     0.016 A 
ATOM     11  C   UNL A   1      46.362  26.133  27.827  1.00  0.00     0.020 A 
ATOM     12  C   UNL A   1      46.036  26.927  28.937  1.00  0.00     0.023 A 
BRANCH   8  13
ATOM     13  O   UNL A   1      44.415  27.741  25.180  1.00  0.00    -0.496 OA
ATOM     14  C   UNL A   1      43.064  27.304  25.021  1.00  0.00     0.278 C 
ENDBRANCH   8  13
BRANCH  12  15
ATOM     15  C   UNL A   1      46.580  26.652  30.299  1.00  0.00     0.193 C 
ATOM     16  O   UNL A   1      47.615  27.184  30.688  1.00  0.00    -0.289 OA
BRANCH  15  17
ATOM     17  C   UNL A   1      45.862  25.763  31.236  1.00  0.00     0.022 A 
ATOM     18  C   UNL A   1      44.901  24.888  30.722  1.00  0.00     0.012 A 
ATOM     19  C   UNL A   1      46.139  25.789  32.607  1.00  0.00     0.012 A 
ATOM     20  C   UNL A   1      44.248  24.002  31.578  1.00  0.00     0.001 A 
ATOM     21  C   UNL A   1      45.487  24.897  33.458  1.00  0.00     0.001 A 
ATOM     22  C   UNL A   1      44.547  24.002  32.941  1.00  0.00     0.000 A 
ENDBRANCH  15  17
ENDBRANCH  12  15
ENDBRANCH   5   7
ENDBRANCH   3   5
ENDBRANCH   2   3
ENDBRANCH   1   2
BRANCH   1  23
ATOM     23  C   UNL A   1      42.329  22.908  25.678  1.00  0.00     0.275 C 
BRANCH  23  24
ATOM     24  O   UNL A   1      41.811  24.143  26.202  1.00  0.00    -0.458 OA
BRANCH  24  25
ATOM     25  C   UNL A   1      40.770  24.003  27.052  1.00  0.00     0.338 C 
ATOM     26  O   UNL A   1      40.111  23.001  27.264  1.00  0.00    -0.246 OA
BRANCH  25  27
ATOM     27  C   UNL A   1      40.554  25.258  27.784  1.00  0.00     0.060 A 
ATOM     28  C   UNL A   1      41.652  26.085  28.018  1.00  0.00     0.016 A 
ATOM     29  C   UNL A   1      39.320  25.520  28.380  1.00  0.00     0.016 A 
ATOM     30  C   UNL A   1      41.541  27.141  28.920  1.00  0.00     0.010 A 
ATOM     31  C   UNL A   1      39.200  26.609  29.251  1.00  0.00     0.010 A 
ATOM     32  C   UNL A   1      40.322  27.399  29.563  1.00  0.00    -0.014 A 
BRANCH  32  33
ATOM     33  C   UNL A   1      40.253  28.427  30.634  1.00  0.00     0.031 A 
ATOM     34  C   UNL A   1      41.263  28.413  31.753  1.00  0.00     0.074 A 
ATOM     35  C   UNL A   1      39.330  29.407  30.585  1.00  0.00     0.049 A 
ATOM     36  N   UNL A   1      41.314  29.159  32.828  1.00  0.00    -0.248 NA
ATOM     37  C   UNL A   1      42.353  27.429  31.654  1.00  0.00     0.031 C 
ATOM     38  C   UNL A   1      38.326  29.574  29.534  1.00  0.00     0.029 A 
ATOM     39  N   UNL A   1      39.106  30.462  31.433  1.00  0.00    -0.354 N 
ATOM     40  C   UNL A   1      42.402  28.697  33.559  1.00  0.00     0.074 A 
ATOM     41  C   UNL A   1      42.993  27.616  32.800  1.00  0.00     0.031 C 
ATOM     42  C   UNL A   1      37.622  30.692  29.776  1.00  0.00     0.029 A 
ATOM     43  C   UNL A   1      38.088  31.289  31.024  1.00  0.00     0.049 A 
ATOM     44  H   UNL A   1      39.624  30.612  32.256  1.00  0.00     0.167 HD
ATOM     45  C   UNL A   1      42.863  29.126  34.759  1.00  0.00     0.031 A 
ATOM     46  C   UNL A   1      37.577  32.396  31.596  1.00  0.00     0.031 A 
ATOM     47  C   UNL A   1      42.306  30.226  35.499  1.00  0.00     0.049 A 
ATOM     48  C   UNL A   1      38.127  32.878  32.906  1.00  0.00     0.074 A 
ATOM     49  C   UNL A   1      42.679  30.708  36.742  1.00  0.00     0.029 A 
ATOM     50  N   UNL A   1      41.276  31.036  35.049  1.00  0.00    -0.354 N 
ATOM     51  N   UNL A   1      39.095  32.368  33.628  1.00  0.00    -0.248 NA
ATOM     52  C   UNL A   1      37.506  34.077  33.486  1.00  0.00     0.031 C 
ATOM     53  C   UNL A   1      41.868  31.809  37.046  1.00  0.00     0.029 A 
ATOM     54  C   UNL A   1      41.009  32.024  35.981  1.00  0.00     0.049 A 
ATOM     55  H   UNL A   1      40.804  30.925  34.192  1.00  0.00     0.167 HD
ATOM     56  C   UNL A   1      39.195  33.180  34.751  1.00  0.00     0.074 A 
ATOM     57  C   UNL A   1      38.208  34.230  34.601  1.00  0.00     0.031 C 
ATOM     58  C   UNL A   1      40.023  33.058  35.817  1.00  0.00     0.031 A 
BRANCH  45  59
ATOM     59  C   UNL A   1      44.006  28.364  35.366  1.00  0.00    -0.014 A 
ATOM     60  C   UNL A   1      43.784  27.251  36.194  1.00  0.00     0.010 A 
ATOM     61  C   UNL A   1      45.325  28.763  35.086  1.00  0.00     0.010 A 
ATOM     62  C   UNL A   1      44.864  26.570  36.764  1.00  0.00     0.020 A 
ATOM     63  C   UNL A   1      46.408  28.075  35.641  1.00  0.00     0.020 A 
ATOM     64  C   UNL A   1      46.169  26.994  36.493  1.00  0.00     0.054 A 
BRANCH  64  65
ATOM     65  S   UNL A   1      47.563  26.098  37.230  1.00  0.00     0.124 S 
ATOM     66  O   UNL A   1      46.877  25.083  38.025  1.00  0.00    -0.237 OA
ATOM     67  O   UNL A   1      48.287  25.598  36.064  1.00  0.00    -0.237 OA
ATOM     68  O   UNL A   1      48.263  27.125  37.998  1.00  0.00    -0.744 OA
ENDBRANCH  64  65
ENDBRANCH  45  59
BRANCH  46  69
ATOM     69  C   UNL A   1      36.464  33.118  30.926  1.00  0.00    -0.014 A 
ATOM     70  C   UNL A   1      35.245  33.316  31.594  1.00  0.00     0.010 A 
ATOM     71  C   UNL A   1      36.636  33.644  29.633  1.00  0.00     0.010 A 
ATOM     72  C   UNL A   1      34.213  34.031  30.980  1.00  0.00     0.020 A 
ATOM     73  C   UNL A   1      35.613  34.375  29.026  1.00  0.00     0.020 A 
ATOM     74  C   UNL A   1      34.404  34.558  29.700  1.00  0.00     0.054 A 
BRANCH  74  75
ATOM     75  S   UNL A   1      33.095  35.561  28.943  1.00  0.00     0.124 S 
ATOM     76  O   UNL A   1      33.856  36.669  28.374  1.00  0.00    -0.237 OA
ATOM     77  O   UNL A   1      32.496  34.643  27.979  1.00  0.00    -0.237 OA
ATOM     78  O   UNL A   1      32.239  35.903  30.078  1.00  0.00    -0.744 OA
ENDBRANCH  74  75
ENDBRANCH  46  69
BRANCH  58  79
ATOM     79  C   UNL A   1      39.898  34.092  36.899  1.00  0.00    -0.014 A 
ATOM     80  C   UNL A   1      40.447  35.375  36.731  1.00  0.00     0.010 A 
ATOM     81  C   UNL A   1      39.200  33.787  38.080  1.00  0.00     0.010 A 
ATOM     82  C   UNL A   1      40.325  36.330  37.742  1.00  0.00     0.020 A 
ATOM     83  C   UNL A   1      39.066  34.746  39.088  1.00  0.00     0.020 A 
ATOM     84  C   UNL A   1      39.642  36.007  38.919  1.00  0.00     0.054 A 
BRANCH  84  85
ATOM     85  S   UNL A   1      39.466  37.266  40.213  1.00  0.00     0.124 S 
ATOM     86  O   UNL A   1      38.831  38.361  39.484  1.00  0.00    -0.237 OA
ATOM     87  O   UNL A   1      38.623  36.601  41.205  1.00  0.00    -0.237 OA
ATOM     88  O   UNL A   1      40.841  37.512  40.640  1.00  0.00    -0.744 OA
ENDBRANCH  84  85
ENDBRANCH  58  79
ENDBRANCH  32  33
ENDBRANCH  25  27
ENDBRANCH  24  25
ENDBRANCH  23  24
ENDBRANCH   1  23
TORSDOF 18
ENDMDL
