MODEL 1
REMARK VINA RESULT:     -10.1      0.000      0.000
REMARK SMILES Cc1cc2c(c(C)c1Cl)C=C(C(=O)OCCOC(=O)c1ccc(-c3c4nc(c(-c5ccc(S(=O)(=O)[O-])cc5)c5ccc([nH]5)c(-c5ccc(S(=O)(=O)[O-])cc5)c5nc(c(-c6ccc(S(=O)(=O)[O-])cc6)c6ccc3[nH]6)C=C5)C=C4)cc1)[C@@H](C(F)(F)F)O2
REMARK SMILES IDX 16 1 15 2 14 3 12 4 13 5 11 6 1 7 2 8 3 9 8 10 4 11 6 12
REMARK SMILES IDX 9 13 5 14 85 15 7 16 10 17 80 18 81 19 82 20 83 21 84 22
REMARK SMILES IDX 17 23 18 24 19 25 20 26 21 27 79 28 22 29 78 30 23 31 24 32
REMARK SMILES IDX 25 33 72 34 26 35 77 36 71 37 73 38 27 39 76 40 70 41 69 42
REMARK SMILES IDX 28 44 58 45 39 46 57 47 40 48 43 49 56 50 74 51 41 52 42 53
REMARK SMILES IDX 55 55 75 56 44 57 29 58 30 59 38 60 31 61 37 62 32 63 33 64
REMARK SMILES IDX 34 65 35 66 36 67 59 68 60 69 68 70 61 71 67 72 62 73 63 74
REMARK SMILES IDX 64 75 65 76 66 77 45 78 46 79 54 80 47 81 53 82 48 83 49 84
REMARK SMILES IDX 50 85 51 86 52 87
REMARK H PARENT 73 43 43 54
REMARK Flexibility Score: inf
ROOT
ATOM      1  C   UNL A   1      40.778  19.848  26.508  1.00  0.00     0.275 C 
ENDROOT
BRANCH   1   2
ATOM      2  C   UNL A   1      42.078  20.162  25.768  1.00  0.00     0.275 C 
BRANCH   2   3
ATOM      3  O   UNL A   1      42.921  21.051  26.535  1.00  0.00    -0.459 OA
BRANCH   3   4
ATOM      4  C   UNL A   1      43.178  22.251  25.963  1.00  0.00     0.338 C 
ATOM      5  O   UNL A   1      42.532  22.787  25.076  1.00  0.00    -0.246 OA
BRANCH   4   6
ATOM      6  C   UNL A   1      44.384  22.861  26.555  1.00  0.00     0.087 C 
ATOM      7  C   UNL A   1      48.922  26.532  29.407  1.00  0.00     0.046 C 
ATOM      8  C   UNL A   1      47.679  25.788  28.999  1.00  0.00    -0.028 A 
ATOM      9  C   UNL A   1      47.752  24.874  27.940  1.00  0.00     0.052 A 
ATOM     10  C   UNL A   1      46.452  25.968  29.664  1.00  0.00     0.047 A 
ATOM     11  C   UNL A   1      46.621  24.176  27.517  1.00  0.00     0.128 A 
ATOM     12  C   UNL A   1      45.293  25.272  29.250  1.00  0.00    -0.021 A 
ATOM     13  Cl  UNL A   1      46.395  27.069  31.008  1.00  0.00    -0.084 Cl
ATOM     14  C   UNL A   1      45.391  24.375  28.152  1.00  0.00     0.022 A 
ATOM     15  O   UNL A   1      46.829  23.305  26.483  1.00  0.00    -0.475 OA
ATOM     16  C   UNL A   1      43.974  25.457  29.963  1.00  0.00     0.047 C 
ATOM     17  C   UNL A   1      44.237  23.649  27.627  1.00  0.00     0.027 C 
ATOM     18  C   UNL A   1      45.688  22.679  25.843  1.00  0.00     0.316 C 
BRANCH  18  19
ATOM     19  C   UNL A   1      45.605  23.168  24.387  1.00  0.00     0.430 C 
ATOM     20  F   UNL A   1      46.837  23.409  23.876  1.00  0.00    -0.167 F 
ATOM     21  F   UNL A   1      45.033  22.240  23.580  1.00  0.00    -0.167 F 
ATOM     22  F   UNL A   1      44.887  24.307  24.267  1.00  0.00    -0.167 F 
ENDBRANCH  18  19
ENDBRANCH   4   6
ENDBRANCH   3   4
ENDBRANCH   2   3
ENDBRANCH   1   2
BRANCH   1  23
ATOM     23  O   UNL A   1      40.342  20.996  27.257  1.00  0.00    -0.458 OA
BRANCH  23  24
ATOM     24  C   UNL A   1      39.600  21.882  26.553  1.00  0.00     0.338 C 
ATOM     25  O   UNL A   1      38.880  21.646  25.598  1.00  0.00    -0.246 OA
BRANCH  24  26
ATOM     26  C   UNL A   1      39.687  23.223  27.153  1.00  0.00     0.060 A 
ATOM     27  C   UNL A   1      39.040  24.277  26.524  1.00  0.00     0.016 A 
ATOM     28  C   UNL A   1      40.604  23.479  28.169  1.00  0.00     0.016 A 
ATOM     29  C   UNL A   1      39.457  25.584  26.763  1.00  0.00     0.010 A 
ATOM     30  C   UNL A   1      40.911  24.803  28.506  1.00  0.00     0.010 A 
ATOM     31  C   UNL A   1      40.411  25.879  27.747  1.00  0.00    -0.014 A 
BRANCH  31  32
ATOM     32  C   UNL A   1      40.960  27.263  27.923  1.00  0.00     0.031 A 
ATOM     33  C   UNL A   1      42.324  27.612  27.358  1.00  0.00     0.074 A 
ATOM     34  C   UNL A   1      40.262  28.241  28.540  1.00  0.00     0.049 A 
ATOM     35  N   UNL A   1      43.117  28.612  27.654  1.00  0.00    -0.248 NA
ATOM     36  C   UNL A   1      42.876  26.702  26.339  1.00  0.00     0.031 C 
ATOM     37  C   UNL A   1      38.891  28.137  29.044  1.00  0.00     0.029 A 
ATOM     38  N   UNL A   1      40.617  29.537  28.842  1.00  0.00    -0.354 N 
ATOM     39  C   UNL A   1      44.286  28.405  26.927  1.00  0.00     0.074 A 
ATOM     40  C   UNL A   1      44.101  27.185  26.172  1.00  0.00     0.031 C 
ATOM     41  C   UNL A   1      38.503  29.325  29.529  1.00  0.00     0.029 A 
ATOM     42  C   UNL A   1      39.642  30.231  29.519  1.00  0.00     0.049 A 
ATOM     43  H   UNL A   1      41.486  29.929  28.597  1.00  0.00     0.167 HD
ATOM     44  C   UNL A   1      45.415  29.157  26.897  1.00  0.00     0.031 A 
ATOM     45  C   UNL A   1      39.667  31.426  30.143  1.00  0.00     0.031 A 
ATOM     46  C   UNL A   1      45.567  30.409  27.597  1.00  0.00     0.049 A 
ATOM     47  C   UNL A   1      40.953  32.201  30.185  1.00  0.00     0.074 A 
ATOM     48  C   UNL A   1      46.672  31.241  27.645  1.00  0.00     0.029 A 
ATOM     49  N   UNL A   1      44.574  31.024  28.344  1.00  0.00    -0.354 N 
ATOM     50  N   UNL A   1      42.102  31.923  29.617  1.00  0.00    -0.248 NA
ATOM     51  C   UNL A   1      40.951  33.433  30.982  1.00  0.00     0.031 C 
ATOM     52  C   UNL A   1      46.365  32.333  28.464  1.00  0.00     0.029 A 
ATOM     53  C   UNL A   1      45.047  32.213  28.876  1.00  0.00     0.049 A 
ATOM     54  H   UNL A   1      43.666  30.668  28.479  1.00  0.00     0.167 HD
ATOM     55  C   UNL A   1      42.962  32.950  29.988  1.00  0.00     0.074 A 
ATOM     56  C   UNL A   1      42.188  33.872  30.796  1.00  0.00     0.031 C 
ATOM     57  C   UNL A   1      44.276  33.111  29.696  1.00  0.00     0.031 A 
BRANCH  44  58
ATOM     58  C   UNL A   1      46.602  28.631  26.127  1.00  0.00    -0.014 A 
ATOM     59  C   UNL A   1      46.502  28.237  24.782  1.00  0.00     0.010 A 
ATOM     60  C   UNL A   1      47.864  28.596  26.754  1.00  0.00     0.010 A 
ATOM     61  C   UNL A   1      47.633  27.791  24.089  1.00  0.00     0.020 A 
ATOM     62  C   UNL A   1      49.001  28.180  26.056  1.00  0.00     0.020 A 
ATOM     63  C   UNL A   1      48.876  27.767  24.729  1.00  0.00     0.054 A 
BRANCH  63  64
ATOM     64  S   UNL A   1      50.330  27.217  23.793  1.00  0.00     0.124 S 
ATOM     65  O   UNL A   1      50.908  26.220  24.692  1.00  0.00    -0.237 OA
ATOM     66  O   UNL A   1      49.739  26.689  22.567  1.00  0.00    -0.237 OA
ATOM     67  O   UNL A   1      51.120  28.435  23.628  1.00  0.00    -0.744 OA
ENDBRANCH  63  64
ENDBRANCH  44  58
BRANCH  45  68
ATOM     68  C   UNL A   1      38.456  31.914  30.862  1.00  0.00    -0.014 A 
ATOM     69  C   UNL A   1      38.143  31.436  32.145  1.00  0.00     0.010 A 
ATOM     70  C   UNL A   1      37.620  32.884  30.273  1.00  0.00     0.010 A 
ATOM     71  C   UNL A   1      37.023  31.920  32.827  1.00  0.00     0.020 A 
ATOM     72  C   UNL A   1      36.522  33.398  30.967  1.00  0.00     0.020 A 
ATOM     73  C   UNL A   1      36.227  32.907  32.238  1.00  0.00     0.054 A 
BRANCH  73  74
ATOM     74  S   UNL A   1      34.826  33.575  33.177  1.00  0.00     0.124 S 
ATOM     75  O   UNL A   1      35.239  33.330  34.555  1.00  0.00    -0.237 OA
ATOM     76  O   UNL A   1      34.809  34.975  32.759  1.00  0.00    -0.237 OA
ATOM     77  O   UNL A   1      33.691  32.781  32.712  1.00  0.00    -0.744 OA
ENDBRANCH  73  74
ENDBRANCH  45  68
BRANCH  57  78
ATOM     78  C   UNL A   1      44.954  34.337  30.247  1.00  0.00    -0.014 A 
ATOM     79  C   UNL A   1      44.929  35.555  29.544  1.00  0.00     0.010 A 
ATOM     80  C   UNL A   1      45.619  34.273  31.485  1.00  0.00     0.010 A 
ATOM     81  C   UNL A   1      45.603  36.672  30.043  1.00  0.00     0.020 A 
ATOM     82  C   UNL A   1      46.267  35.397  32.003  1.00  0.00     0.020 A 
ATOM     83  C   UNL A   1      46.274  36.583  31.267  1.00  0.00     0.054 A 
BRANCH  83  84
ATOM     84  S   UNL A   1      47.144  38.048  31.889  1.00  0.00     0.124 S 
ATOM     85  O   UNL A   1      47.152  38.917  30.716  1.00  0.00    -0.237 OA
ATOM     86  O   UNL A   1      46.288  38.486  32.989  1.00  0.00    -0.237 OA
ATOM     87  O   UNL A   1      48.451  37.531  32.290  1.00  0.00    -0.744 OA
ENDBRANCH  83  84
ENDBRANCH  57  78
ENDBRANCH  31  32
ENDBRANCH  24  26
ENDBRANCH  23  24
ENDBRANCH   1  23
TORSDOF 15
ENDMDL
MODEL 2
REMARK VINA RESULT:      -9.9      4.826     10.963
REMARK SMILES Cc1cc2c(c(C)c1Cl)C=C(C(=O)OCCOC(=O)c1ccc(-c3c4nc(c(-c5ccc(S(=O)(=O)[O-])cc5)c5ccc([nH]5)c(-c5ccc(S(=O)(=O)[O-])cc5)c5nc(c(-c6ccc(S(=O)(=O)[O-])cc6)c6ccc3[nH]6)C=C5)C=C4)cc1)[C@@H](C(F)(F)F)O2
REMARK SMILES IDX 16 1 15 2 14 3 12 4 13 5 11 6 1 7 2 8 3 9 8 10 4 11 6 12
REMARK SMILES IDX 9 13 5 14 85 15 7 16 10 17 80 18 81 19 82 20 83 21 84 22
REMARK SMILES IDX 17 23 18 24 19 25 20 26 21 27 79 28 22 29 78 30 23 31 24 32
REMARK SMILES IDX 25 33 72 34 26 35 77 36 71 37 73 38 27 39 76 40 70 41 69 42
REMARK SMILES IDX 28 44 58 45 39 46 57 47 40 48 43 49 56 50 74 51 41 52 42 53
REMARK SMILES IDX 55 55 75 56 44 57 29 58 30 59 38 60 31 61 37 62 32 63 33 64
REMARK SMILES IDX 34 65 35 66 36 67 59 68 60 69 68 70 61 71 67 72 62 73 63 74
REMARK SMILES IDX 64 75 65 76 66 77 45 78 46 79 54 80 47 81 53 82 48 83 49 84
REMARK SMILES IDX 50 85 51 86 52 87
REMARK H PARENT 73 43 43 54
REMARK Flexibility Score: inf
ROOT
ATOM      1  C   UNL A   1      32.847  30.265  27.251  1.00  0.00     0.275 C 
ENDROOT
BRANCH   1   2
ATOM      2  C   UNL A   1      33.209  28.782  27.168  1.00  0.00     0.275 C 
BRANCH   2   3
ATOM      3  O   UNL A   1      32.458  28.113  26.130  1.00  0.00    -0.459 OA
BRANCH   3   4
ATOM      4  C   UNL A   1      33.196  27.540  25.151  1.00  0.00     0.338 C 
ATOM      5  O   UNL A   1      33.870  28.121  24.314  1.00  0.00    -0.246 OA
BRANCH   4   6
ATOM      6  C   UNL A   1      33.084  26.070  25.206  1.00  0.00     0.087 C 
ATOM      7  C   UNL A   1      33.653  19.615  24.746  1.00  0.00     0.046 C 
ATOM      8  C   UNL A   1      33.852  21.098  24.903  1.00  0.00    -0.028 A 
ATOM      9  C   UNL A   1      32.728  21.932  24.957  1.00  0.00     0.052 A 
ATOM     10  C   UNL A   1      35.133  21.670  25.019  1.00  0.00     0.047 A 
ATOM     11  C   UNL A   1      32.866  23.313  25.084  1.00  0.00     0.128 A 
ATOM     12  C   UNL A   1      35.295  23.068  25.146  1.00  0.00    -0.021 A 
ATOM     13  Cl  UNL A   1      36.513  20.612  25.001  1.00  0.00    -0.084 Cl
ATOM     14  C   UNL A   1      34.137  23.891  25.166  1.00  0.00     0.022 A 
ATOM     15  O   UNL A   1      31.691  24.012  25.137  1.00  0.00    -0.475 OA
ATOM     16  C   UNL A   1      36.667  23.687  25.277  1.00  0.00     0.047 C 
ATOM     17  C   UNL A   1      34.210  25.348  25.248  1.00  0.00     0.027 C 
ATOM     18  C   UNL A   1      31.724  25.461  25.073  1.00  0.00     0.316 C 
BRANCH  18  19
ATOM     19  C   UNL A   1      31.031  25.915  23.777  1.00  0.00     0.430 C 
ATOM     20  F   UNL A   1      29.947  25.149  23.501  1.00  0.00    -0.167 F 
ATOM     21  F   UNL A   1      30.580  27.191  23.873  1.00  0.00    -0.167 F 
ATOM     22  F   UNL A   1      31.852  25.856  22.705  1.00  0.00    -0.167 F 
ENDBRANCH  18  19
ENDBRANCH   4   6
ENDBRANCH   3   4
ENDBRANCH   2   3
ENDBRANCH   1   2
BRANCH   1  23
ATOM     23  O   UNL A   1      34.036  31.071  27.169  1.00  0.00    -0.458 OA
BRANCH  23  24
ATOM     24  C   UNL A   1      34.712  31.203  28.333  1.00  0.00     0.338 C 
ATOM     25  O   UNL A   1      34.411  31.902  29.285  1.00  0.00    -0.246 OA
BRANCH  24  26
ATOM     26  C   UNL A   1      35.867  30.292  28.367  1.00  0.00     0.060 A 
ATOM     27  C   UNL A   1      36.275  29.780  29.592  1.00  0.00     0.016 A 
ATOM     28  C   UNL A   1      36.687  30.156  27.251  1.00  0.00     0.016 A 
ATOM     29  C   UNL A   1      37.581  29.320  29.746  1.00  0.00     0.010 A 
ATOM     30  C   UNL A   1      37.946  29.557  27.386  1.00  0.00     0.010 A 
ATOM     31  C   UNL A   1      38.452  29.211  28.654  1.00  0.00    -0.014 A 
BRANCH  31  32
ATOM     32  C   UNL A   1      39.894  28.841  28.830  1.00  0.00     0.031 A 
ATOM     33  C   UNL A   1      40.876  29.865  29.368  1.00  0.00     0.074 A 
ATOM     34  C   UNL A   1      40.357  27.600  28.562  1.00  0.00     0.049 A 
ATOM     35  N   UNL A   1      42.184  29.877  29.306  1.00  0.00    -0.248 NA
ATOM     36  C   UNL A   1      40.306  31.040  30.052  1.00  0.00     0.031 C 
ATOM     37  C   UNL A   1      39.552  26.449  28.150  1.00  0.00     0.029 A 
ATOM     38  N   UNL A   1      41.638  27.097  28.607  1.00  0.00    -0.354 N 
ATOM     39  C   UNL A   1      42.585  31.090  29.859  1.00  0.00     0.074 A 
ATOM     40  C   UNL A   1      41.382  31.789  30.256  1.00  0.00     0.031 C 
ATOM     41  C   UNL A   1      40.339  25.369  28.044  1.00  0.00     0.029 A 
ATOM     42  C   UNL A   1      41.725  25.779  28.223  1.00  0.00     0.049 A 
ATOM     43  H   UNL A   1      42.417  27.629  28.887  1.00  0.00     0.167 HD
ATOM     44  C   UNL A   1      43.840  31.582  30.014  1.00  0.00     0.031 A 
ATOM     45  C   UNL A   1      42.789  24.996  27.956  1.00  0.00     0.031 A 
ATOM     46  C   UNL A   1      45.038  30.851  29.681  1.00  0.00     0.049 A 
ATOM     47  C   UNL A   1      44.168  25.585  28.037  1.00  0.00     0.074 A 
ATOM     48  C   UNL A   1      46.356  31.262  29.787  1.00  0.00     0.029 A 
ATOM     49  N   UNL A   1      45.065  29.548  29.209  1.00  0.00    -0.354 N 
ATOM     50  N   UNL A   1      44.531  26.785  28.420  1.00  0.00    -0.248 NA
ATOM     51  C   UNL A   1      45.277  24.720  27.617  1.00  0.00     0.031 C 
ATOM     52  C   UNL A   1      47.177  30.226  29.328  1.00  0.00     0.029 A 
ATOM     53  C   UNL A   1      46.374  29.147  28.996  1.00  0.00     0.049 A 
ATOM     54  H   UNL A   1      44.271  28.989  29.047  1.00  0.00     0.167 HD
ATOM     55  C   UNL A   1      45.914  26.820  28.288  1.00  0.00     0.074 A 
ATOM     56  C   UNL A   1      46.322  25.508  27.827  1.00  0.00     0.031 C 
ATOM     57  C   UNL A   1      46.768  27.848  28.517  1.00  0.00     0.031 A 
BRANCH  44  58
ATOM     58  C   UNL A   1      43.994  32.996  30.519  1.00  0.00    -0.014 A 
ATOM     59  C   UNL A   1      44.215  33.283  31.878  1.00  0.00     0.010 A 
ATOM     60  C   UNL A   1      43.983  34.059  29.594  1.00  0.00     0.010 A 
ATOM     61  C   UNL A   1      44.391  34.604  32.303  1.00  0.00     0.020 A 
ATOM     62  C   UNL A   1      44.190  35.377  30.010  1.00  0.00     0.020 A 
ATOM     63  C   UNL A   1      44.380  35.643  31.367  1.00  0.00     0.054 A 
BRANCH  63  64
ATOM     64  S   UNL A   1      44.647  37.342  31.944  1.00  0.00     0.124 S 
ATOM     65  O   UNL A   1      44.286  38.123  30.764  1.00  0.00    -0.237 OA
ATOM     66  O   UNL A   1      43.724  37.444  33.071  1.00  0.00    -0.237 OA
ATOM     67  O   UNL A   1      46.064  37.372  32.298  1.00  0.00    -0.744 OA
ENDBRANCH  63  64
ENDBRANCH  44  58
BRANCH  45  68
ATOM     68  C   UNL A   1      42.581  23.594  27.492  1.00  0.00    -0.014 A 
ATOM     69  C   UNL A   1      42.576  23.288  26.121  1.00  0.00     0.010 A 
ATOM     70  C   UNL A   1      42.413  22.552  28.424  1.00  0.00     0.010 A 
ATOM     71  C   UNL A   1      42.412  21.968  25.692  1.00  0.00     0.020 A 
ATOM     72  C   UNL A   1      42.288  21.226  28.001  1.00  0.00     0.020 A 
ATOM     73  C   UNL A   1      42.282  20.944  26.635  1.00  0.00     0.054 A 
BRANCH  73  74
ATOM     74  S   UNL A   1      42.150  19.230  26.054  1.00  0.00     0.124 S 
ATOM     75  O   UNL A   1      40.727  19.121  25.750  1.00  0.00    -0.237 OA
ATOM     76  O   UNL A   1      43.047  19.222  24.901  1.00  0.00    -0.237 OA
ATOM     77  O   UNL A   1      42.609  18.444  27.197  1.00  0.00    -0.744 OA
ENDBRANCH  73  74
ENDBRANCH  45  68
BRANCH  57  78
ATOM     78  C   UNL A   1      48.231  27.585  28.281  1.00  0.00    -0.014 A 
ATOM     79  C   UNL A   1      49.052  27.083  29.307  1.00  0.00     0.010 A 
ATOM     80  C   UNL A   1      48.793  27.838  27.016  1.00  0.00     0.010 A 
ATOM     81  C   UNL A   1      50.418  26.891  29.089  1.00  0.00     0.020 A 
ATOM     82  C   UNL A   1      50.152  27.615  26.784  1.00  0.00     0.020 A 
ATOM     83  C   UNL A   1      50.961  27.164  27.830  1.00  0.00     0.054 A 
BRANCH  83  84
ATOM     84  S   UNL A   1      52.739  26.909  27.576  1.00  0.00     0.124 S 
ATOM     85  O   UNL A   1      52.757  25.705  26.751  1.00  0.00    -0.237 OA
ATOM     86  O   UNL A   1      53.145  28.140  26.902  1.00  0.00    -0.237 OA
ATOM     87  O   UNL A   1      53.262  26.744  28.930  1.00  0.00    -0.744 OA
ENDBRANCH  83  84
ENDBRANCH  57  78
ENDBRANCH  31  32
ENDBRANCH  24  26
ENDBRANCH  23  24
ENDBRANCH   1  23
TORSDOF 15
ENDMDL
MODEL 3
REMARK VINA RESULT:      -9.5      1.149      8.329
REMARK SMILES Cc1cc2c(c(C)c1Cl)C=C(C(=O)OCCOC(=O)c1ccc(-c3c4nc(c(-c5ccc(S(=O)(=O)[O-])cc5)c5ccc([nH]5)c(-c5ccc(S(=O)(=O)[O-])cc5)c5nc(c(-c6ccc(S(=O)(=O)[O-])cc6)c6ccc3[nH]6)C=C5)C=C4)cc1)[C@@H](C(F)(F)F)O2
REMARK SMILES IDX 16 1 15 2 14 3 12 4 13 5 11 6 1 7 2 8 3 9 8 10 4 11 6 12
REMARK SMILES IDX 9 13 5 14 85 15 7 16 10 17 80 18 81 19 82 20 83 21 84 22
REMARK SMILES IDX 17 23 18 24 19 25 20 26 21 27 79 28 22 29 78 30 23 31 24 32
REMARK SMILES IDX 25 33 72 34 26 35 77 36 71 37 73 38 27 39 76 40 70 41 69 42
REMARK SMILES IDX 28 44 58 45 39 46 57 47 40 48 43 49 56 50 74 51 41 52 42 53
REMARK SMILES IDX 55 55 75 56 44 57 29 58 30 59 38 60 31 61 37 62 32 63 33 64
REMARK SMILES IDX 34 65 35 66 36 67 59 68 60 69 68 70 61 71 67 72 62 73 63 74
REMARK SMILES IDX 64 75 65 76 66 77 45 78 46 79 54 80 47 81 53 82 48 83 49 84
REMARK SMILES IDX 50 85 51 86 52 87
REMARK H PARENT 73 43 43 54
REMARK Flexibility Score: inf
ROOT
ATOM      1  C   UNL A   1      40.348  20.677  26.377  1.00  0.00     0.275 C 
ENDROOT
BRANCH   1   2
ATOM      2  C   UNL A   1      41.834  20.346  26.246  1.00  0.00     0.275 C 
BRANCH   2   3
ATOM      3  O   UNL A   1      42.607  21.514  25.894  1.00  0.00    -0.459 OA
BRANCH   3   4
ATOM      4  C   UNL A   1      43.907  21.286  25.590  1.00  0.00     0.338 C 
ATOM      5  O   UNL A   1      44.334  20.466  24.793  1.00  0.00    -0.246 OA
BRANCH   4   6
ATOM      6  C   UNL A   1      44.787  22.176  26.371  1.00  0.00     0.087 C 
ATOM      7  C   UNL A   1      47.570  26.565  30.269  1.00  0.00     0.046 C 
ATOM      8  C   UNL A   1      46.725  25.496  29.630  1.00  0.00    -0.028 A 
ATOM      9  C   UNL A   1      47.098  24.997  28.375  1.00  0.00     0.052 A 
ATOM     10  C   UNL A   1      45.584  24.971  30.264  1.00  0.00     0.047 A 
ATOM     11  C   UNL A   1      46.335  24.020  27.738  1.00  0.00     0.128 A 
ATOM     12  C   UNL A   1      44.795  23.982  29.633  1.00  0.00    -0.021 A 
ATOM     13  Cl  UNL A   1      45.167  25.569  31.842  1.00  0.00    -0.084 Cl
ATOM     14  C   UNL A   1      45.181  23.517  28.347  1.00  0.00     0.022 A 
ATOM     15  O   UNL A   1      46.814  23.609  26.524  1.00  0.00    -0.475 OA
ATOM     16  C   UNL A   1      43.572  23.409  30.311  1.00  0.00     0.047 C 
ATOM     17  C   UNL A   1      44.401  22.532  27.602  1.00  0.00     0.027 C 
ATOM     18  C   UNL A   1      45.996  22.744  25.695  1.00  0.00     0.316 C 
BRANCH  18  19
ATOM     19  C   UNL A   1      45.616  23.502  24.412  1.00  0.00     0.430 C 
ATOM     20  F   UNL A   1      45.375  22.649  23.387  1.00  0.00    -0.167 F 
ATOM     21  F   UNL A   1      44.482  24.227  24.577  1.00  0.00    -0.167 F 
ATOM     22  F   UNL A   1      46.586  24.354  24.010  1.00  0.00    -0.167 F 
ENDBRANCH  18  19
ENDBRANCH   4   6
ENDBRANCH   3   4
ENDBRANCH   2   3
ENDBRANCH   1   2
BRANCH   1  23
ATOM     23  O   UNL A   1      40.070  21.958  25.783  1.00  0.00    -0.458 OA
BRANCH  23  24
ATOM     24  C   UNL A   1      38.984  22.590  26.283  1.00  0.00     0.338 C 
ATOM     25  O   UNL A   1      37.818  22.253  26.171  1.00  0.00    -0.246 OA
BRANCH  24  26
ATOM     26  C   UNL A   1      39.388  23.744  27.102  1.00  0.00     0.060 A 
ATOM     27  C   UNL A   1      38.785  24.972  26.864  1.00  0.00     0.016 A 
ATOM     28  C   UNL A   1      40.522  23.672  27.906  1.00  0.00     0.016 A 
ATOM     29  C   UNL A   1      39.430  26.144  27.256  1.00  0.00     0.010 A 
ATOM     30  C   UNL A   1      41.082  24.849  28.420  1.00  0.00     0.010 A 
ATOM     31  C   UNL A   1      40.599  26.112  28.029  1.00  0.00    -0.014 A 
BRANCH  31  32
ATOM     32  C   UNL A   1      41.367  27.360  28.345  1.00  0.00     0.031 A 
ATOM     33  C   UNL A   1      40.705  28.474  29.133  1.00  0.00     0.074 A 
ATOM     34  C   UNL A   1      42.660  27.520  27.985  1.00  0.00     0.049 A 
ATOM     35  N   UNL A   1      41.050  29.733  29.246  1.00  0.00    -0.248 NA
ATOM     36  C   UNL A   1      39.482  28.128  29.879  1.00  0.00     0.031 C 
ATOM     37  C   UNL A   1      43.503  26.520  27.328  1.00  0.00     0.029 A 
ATOM     38  N   UNL A   1      43.500  28.601  28.134  1.00  0.00    -0.354 N 
ATOM     39  C   UNL A   1      40.048  30.342  29.996  1.00  0.00     0.074 A 
ATOM     40  C   UNL A   1      39.081  29.314  30.317  1.00  0.00     0.031 C 
ATOM     41  C   UNL A   1      44.745  27.005  27.191  1.00  0.00     0.029 A 
ATOM     42  C   UNL A   1      44.752  28.402  27.601  1.00  0.00     0.049 A 
ATOM     43  H   UNL A   1      43.230  29.436  28.580  1.00  0.00     0.167 HD
ATOM     44  C   UNL A   1      39.938  31.640  30.377  1.00  0.00     0.031 A 
ATOM     45  C   UNL A   1      45.773  29.254  27.380  1.00  0.00     0.031 A 
ATOM     46  C   UNL A   1      40.940  32.643  30.114  1.00  0.00     0.049 A 
ATOM     47  C   UNL A   1      45.598  30.707  27.716  1.00  0.00     0.074 A 
ATOM     48  C   UNL A   1      40.921  33.988  30.444  1.00  0.00     0.029 A 
ATOM     49  N   UNL A   1      42.154  32.405  29.488  1.00  0.00    -0.354 N 
ATOM     50  N   UNL A   1      44.582  31.304  28.292  1.00  0.00    -0.248 NA
ATOM     51  C   UNL A   1      46.696  31.605  27.339  1.00  0.00     0.031 C 
ATOM     52  C   UNL A   1      42.100  34.573  29.969  1.00  0.00     0.029 A 
ATOM     53  C   UNL A   1      42.882  33.581  29.401  1.00  0.00     0.049 A 
ATOM     54  H   UNL A   1      42.455  31.530  29.154  1.00  0.00     0.167 HD
ATOM     55  C   UNL A   1      44.921  32.650  28.349  1.00  0.00     0.074 A 
ATOM     56  C   UNL A   1      46.249  32.771  27.783  1.00  0.00     0.031 C 
ATOM     57  C   UNL A   1      44.193  33.695  28.816  1.00  0.00     0.031 A 
BRANCH  44  58
ATOM     58  C   UNL A   1      38.671  32.074  31.073  1.00  0.00    -0.014 A 
ATOM     59  C   UNL A   1      38.550  32.066  32.473  1.00  0.00     0.010 A 
ATOM     60  C   UNL A   1      37.599  32.564  30.301  1.00  0.00     0.010 A 
ATOM     61  C   UNL A   1      37.373  32.512  33.085  1.00  0.00     0.020 A 
ATOM     62  C   UNL A   1      36.434  33.039  30.908  1.00  0.00     0.020 A 
ATOM     63  C   UNL A   1      36.323  32.998  32.299  1.00  0.00     0.054 A 
BRANCH  63  64
ATOM     64  S   UNL A   1      34.823  33.602  33.122  1.00  0.00     0.124 S 
ATOM     65  O   UNL A   1      35.129  33.353  34.529  1.00  0.00    -0.237 OA
ATOM     66  O   UNL A   1      34.787  35.007  32.727  1.00  0.00    -0.237 OA
ATOM     67  O   UNL A   1      33.759  32.772  32.562  1.00  0.00    -0.744 OA
ENDBRANCH  63  64
ENDBRANCH  44  58
BRANCH  45  68
ATOM     68  C   UNL A   1      47.016  28.766  26.718  1.00  0.00    -0.014 A 
ATOM     69  C   UNL A   1      48.244  28.782  27.400  1.00  0.00     0.010 A 
ATOM     70  C   UNL A   1      46.973  28.257  25.404  1.00  0.00     0.010 A 
ATOM     71  C   UNL A   1      49.401  28.295  26.786  1.00  0.00     0.020 A 
ATOM     72  C   UNL A   1      48.119  27.734  24.801  1.00  0.00     0.020 A 
ATOM     73  C   UNL A   1      49.329  27.763  25.495  1.00  0.00     0.054 A 
BRANCH  73  74
ATOM     74  S   UNL A   1      50.829  27.064  24.751  1.00  0.00     0.124 S 
ATOM     75  O   UNL A   1      50.798  25.689  25.238  1.00  0.00    -0.237 OA
ATOM     76  O   UNL A   1      50.578  27.237  23.323  1.00  0.00    -0.237 OA
ATOM     77  O   UNL A   1      51.900  27.897  25.293  1.00  0.00    -0.744 OA
ENDBRANCH  73  74
ENDBRANCH  45  68
BRANCH  57  78
ATOM     78  C   UNL A   1      44.829  35.057  28.744  1.00  0.00    -0.014 A 
ATOM     79  C   UNL A   1      44.695  35.859  27.596  1.00  0.00     0.010 A 
ATOM     80  C   UNL A   1      45.566  35.545  29.838  1.00  0.00     0.010 A 
ATOM     81  C   UNL A   1      45.332  37.100  27.523  1.00  0.00     0.020 A 
ATOM     82  C   UNL A   1      46.177  36.800  29.781  1.00  0.00     0.020 A 
ATOM     83  C   UNL A   1      46.075  37.560  28.615  1.00  0.00     0.054 A 
BRANCH  83  84
ATOM     84  S   UNL A   1      46.894  39.173  28.490  1.00  0.00     0.124 S 
ATOM     85  O   UNL A   1      45.979  39.912  27.626  1.00  0.00    -0.237 OA
ATOM     86  O   UNL A   1      46.940  39.616  29.882  1.00  0.00    -0.237 OA
ATOM     87  O   UNL A   1      48.193  38.858  27.899  1.00  0.00    -0.744 OA
ENDBRANCH  83  84
ENDBRANCH  57  78
ENDBRANCH  31  32
ENDBRANCH  24  26
ENDBRANCH  23  24
ENDBRANCH   1  23
TORSDOF 15
ENDMDL
