MODEL 1
REMARK VINA RESULT:      -9.9      0.000      0.000
REMARK SMILES CCN(Cc1ccccn1)C(=O)NC(=O)CCCC(=O)OCCOC(=O)c1ccc(-c2c3nc(c(-c4ccc(S(=O)(=O)[O-])cc4)c4ccc([nH]4)c(-c4ccc(S(=O)(=O)[O-])cc4)c4nc(c(-c5ccc(S(=O)(=O)[O-])cc5)c5ccc2[nH]5)C=C4)C=C3)cc1
REMARK SMILES IDX 21 1 19 2 20 3 18 4 17 5 16 6 14 7 11 8 12 9 13 10 15 12
REMARK SMILES IDX 3 13 2 14 1 15 4 16 5 17 6 18 10 19 7 20 9 21 8 22 22 23
REMARK SMILES IDX 23 24 24 25 25 26 26 27 27 28 28 29 86 30 29 31 85 32 30 33
REMARK SMILES IDX 31 34 32 35 79 36 33 37 84 38 78 39 80 40 34 41 83 42 77 43
REMARK SMILES IDX 76 44 35 46 65 47 46 48 64 49 47 50 50 51 63 52 81 53 48 54
REMARK SMILES IDX 49 55 62 57 82 58 51 59 36 60 37 61 45 62 38 63 44 64 39 65
REMARK SMILES IDX 40 66 41 67 42 68 43 69 66 70 67 71 75 72 68 73 74 74 69 75
REMARK SMILES IDX 70 76 71 77 72 78 73 79 52 80 53 81 61 82 54 83 60 84 55 85
REMARK SMILES IDX 56 86 57 87 58 88 59 89
REMARK H PARENT 13 11 80 45 50 56
REMARK Flexibility Score: inf
ROOT
ATOM      1  O   UNL A   1      39.013  21.759  25.785  1.00  0.00    -0.462 OA
ENDROOT
BRANCH   1   2
ATOM      2  C   UNL A   1      37.783  21.750  25.210  1.00  0.00     0.305 C 
ATOM      3  O   UNL A   1      37.140  20.723  25.015  1.00  0.00    -0.252 OA
BRANCH   2   4
ATOM      4  C   UNL A   1      37.280  23.106  24.713  1.00  0.00     0.123 C 
BRANCH   4   5
ATOM      5  C   UNL A   1      35.813  23.333  24.381  1.00  0.00     0.022 C 
BRANCH   5   6
ATOM      6  C   UNL A   1      35.167  22.688  23.154  1.00  0.00     0.101 C 
BRANCH   6   7
ATOM      7  C   UNL A   1      33.803  23.067  22.595  1.00  0.00     0.228 C 
ATOM      8  C   UNL A   1      31.943  22.701  24.420  1.00  0.00     0.324 C 
ATOM      9  O   UNL A   1      30.928  23.377  24.619  1.00  0.00    -0.248 OA
ATOM     10  N   UNL A   1      32.580  22.918  23.220  1.00  0.00    -0.278 N 
ATOM     11  H   UNL A   1      31.884  23.001  22.528  1.00  0.00     0.174 HD
ATOM     12  O   UNL A   1      33.743  23.494  21.432  1.00  0.00    -0.275 OA
BRANCH   8  13
ATOM     13  N   UNL A   1      32.422  21.826  25.347  1.00  0.00    -0.319 N 
BRANCH  13  14
ATOM     14  C   UNL A   1      33.043  22.380  26.567  1.00  0.00     0.118 C 
ATOM     15  C   UNL A   1      34.218  21.577  27.138  1.00  0.00     0.027 C 
ENDBRANCH  13  14
BRANCH  13  16
ATOM     16  C   UNL A   1      32.175  20.388  25.339  1.00  0.00     0.177 C 
BRANCH  16  17
ATOM     17  C   UNL A   1      32.889  19.476  24.370  1.00  0.00     0.060 A 
ATOM     18  C   UNL A   1      34.061  18.821  24.757  1.00  0.00     0.026 A 
ATOM     19  N   UNL A   1      32.183  19.091  23.278  1.00  0.00    -0.259 NA
ATOM     20  C   UNL A   1      34.478  17.698  24.052  1.00  0.00     0.004 A 
ATOM     21  C   UNL A   1      32.620  18.004  22.605  1.00  0.00     0.111 A 
ATOM     22  C   UNL A   1      33.734  17.267  22.964  1.00  0.00     0.020 A 
ENDBRANCH  16  17
ENDBRANCH  13  16
ENDBRANCH   8  13
ENDBRANCH   6   7
ENDBRANCH   5   6
ENDBRANCH   4   5
ENDBRANCH   2   4
ENDBRANCH   1   2
BRANCH   1  23
ATOM     23  C   UNL A   1      39.196  22.680  26.900  1.00  0.00     0.274 C 
BRANCH  23  24
ATOM     24  C   UNL A   1      40.242  23.752  26.571  1.00  0.00     0.275 C 
BRANCH  24  25
ATOM     25  O   UNL A   1      39.593  25.028  26.525  1.00  0.00    -0.458 OA
BRANCH  25  26
ATOM     26  C   UNL A   1      40.464  26.058  26.414  1.00  0.00     0.338 C 
ATOM     27  O   UNL A   1      41.080  26.375  25.407  1.00  0.00    -0.246 OA
BRANCH  26  28
ATOM     28  C   UNL A   1      40.262  26.937  27.584  1.00  0.00     0.060 A 
ATOM     29  C   UNL A   1      40.667  28.271  27.458  1.00  0.00     0.016 A 
ATOM     30  C   UNL A   1      39.589  26.505  28.733  1.00  0.00     0.016 A 
ATOM     31  C   UNL A   1      40.393  29.186  28.466  1.00  0.00     0.010 A 
ATOM     32  C   UNL A   1      39.360  27.406  29.769  1.00  0.00     0.010 A 
ATOM     33  C   UNL A   1      39.788  28.738  29.643  1.00  0.00    -0.014 A 
BRANCH  33  34
ATOM     34  C   UNL A   1      39.903  29.568  30.855  1.00  0.00     0.031 A 
ATOM     35  C   UNL A   1      41.075  29.281  31.751  1.00  0.00     0.074 A 
ATOM     36  C   UNL A   1      39.005  30.522  31.144  1.00  0.00     0.049 A 
ATOM     37  N   UNL A   1      41.379  29.799  32.909  1.00  0.00    -0.248 NA
ATOM     38  C   UNL A   1      42.038  28.272  31.268  1.00  0.00     0.031 C 
ATOM     39  C   UNL A   1      37.880  30.916  30.297  1.00  0.00     0.029 A 
ATOM     40  N   UNL A   1      38.898  31.328  32.247  1.00  0.00    -0.354 N 
ATOM     41  C   UNL A   1      42.565  29.179  33.289  1.00  0.00     0.074 A 
ATOM     42  C   UNL A   1      42.921  28.243  32.251  1.00  0.00     0.031 C 
ATOM     43  C   UNL A   1      37.180  31.878  30.926  1.00  0.00     0.029 A 
ATOM     44  C   UNL A   1      37.787  32.135  32.230  1.00  0.00     0.049 A 
ATOM     45  H   UNL A   1      39.556  31.329  32.979  1.00  0.00     0.167 HD
ATOM     46  C   UNL A   1      43.284  29.366  34.417  1.00  0.00     0.031 A 
ATOM     47  C   UNL A   1      37.309  32.957  33.185  1.00  0.00     0.031 A 
ATOM     48  C   UNL A   1      42.874  30.248  35.470  1.00  0.00     0.049 A 
ATOM     49  C   UNL A   1      38.071  33.067  34.484  1.00  0.00     0.074 A 
ATOM     50  C   UNL A   1      43.490  30.489  36.683  1.00  0.00     0.029 A 
ATOM     51  N   UNL A   1      41.721  31.020  35.437  1.00  0.00    -0.354 N 
ATOM     52  N   UNL A   1      39.192  32.480  34.837  1.00  0.00    -0.248 NA
ATOM     53  C   UNL A   1      37.503  33.947  35.515  1.00  0.00     0.031 C 
ATOM     54  C   UNL A   1      42.678  31.368  37.408  1.00  0.00     0.029 A 
ATOM     55  C   UNL A   1      41.592  31.723  36.619  1.00  0.00     0.049 A 
ATOM     56  H   UNL A   1      41.089  31.061  34.684  1.00  0.00     0.167 HD
ATOM     57  C   UNL A   1      39.478  32.941  36.118  1.00  0.00     0.074 A 
ATOM     58  C   UNL A   1      38.416  33.863  36.472  1.00  0.00     0.031 C 
ATOM     59  C   UNL A   1      40.521  32.636  36.931  1.00  0.00     0.031 A 
BRANCH  46  60
ATOM     60  C   UNL A   1      44.533  28.545  34.575  1.00  0.00    -0.014 A 
ATOM     61  C   UNL A   1      45.775  29.012  34.107  1.00  0.00     0.010 A 
ATOM     62  C   UNL A   1      44.458  27.276  35.174  1.00  0.00     0.010 A 
ATOM     63  C   UNL A   1      46.913  28.206  34.202  1.00  0.00     0.020 A 
ATOM     64  C   UNL A   1      45.598  26.478  35.293  1.00  0.00     0.020 A 
ATOM     65  C   UNL A   1      46.816  26.942  34.792  1.00  0.00     0.054 A 
BRANCH  65  66
ATOM     66  S   UNL A   1      48.309  25.920  34.910  1.00  0.00     0.124 S 
ATOM     67  O   UNL A   1      48.660  25.736  33.504  1.00  0.00    -0.237 OA
ATOM     68  O   UNL A   1      49.217  26.769  35.676  1.00  0.00    -0.237 OA
ATOM     69  O   UNL A   1      47.853  24.717  35.601  1.00  0.00    -0.744 OA
ENDBRANCH  65  66
ENDBRANCH  46  60
BRANCH  47  70
ATOM     70  C   UNL A   1      36.039  33.707  32.970  1.00  0.00    -0.014 A 
ATOM     71  C   UNL A   1      36.056  35.027  32.486  1.00  0.00     0.010 A 
ATOM     72  C   UNL A   1      34.801  33.105  33.260  1.00  0.00     0.010 A 
ATOM     73  C   UNL A   1      34.860  35.736  32.313  1.00  0.00     0.020 A 
ATOM     74  C   UNL A   1      33.603  33.799  33.062  1.00  0.00     0.020 A 
ATOM     75  C   UNL A   1      33.641  35.116  32.602  1.00  0.00     0.054 A 
BRANCH  75  76
ATOM     76  S   UNL A   1      32.102  36.040  32.332  1.00  0.00     0.124 S 
ATOM     77  O   UNL A   1      32.199  36.385  30.917  1.00  0.00    -0.237 OA
ATOM     78  O   UNL A   1      31.078  35.057  32.676  1.00  0.00    -0.237 OA
ATOM     79  O   UNL A   1      32.211  37.165  33.258  1.00  0.00    -0.744 OA
ENDBRANCH  75  76
ENDBRANCH  47  70
BRANCH  59  80
ATOM     80  C   UNL A   1      40.588  33.333  38.262  1.00  0.00    -0.014 A 
ATOM     81  C   UNL A   1      40.171  32.696  39.442  1.00  0.00     0.010 A 
ATOM     82  C   UNL A   1      41.159  34.617  38.334  1.00  0.00     0.010 A 
ATOM     83  C   UNL A   1      40.303  33.343  40.673  1.00  0.00     0.020 A 
ATOM     84  C   UNL A   1      41.319  35.254  39.565  1.00  0.00     0.020 A 
ATOM     85  C   UNL A   1      40.879  34.617  40.726  1.00  0.00     0.054 A 
BRANCH  85  86
ATOM     86  S   UNL A   1      41.093  35.410  42.342  1.00  0.00     0.124 S 
ATOM     87  O   UNL A   1      40.357  36.659  42.167  1.00  0.00    -0.237 OA
ATOM     88  O   UNL A   1      40.486  34.446  43.256  1.00  0.00    -0.237 OA
ATOM     89  O   UNL A   1      42.541  35.553  42.469  1.00  0.00    -0.744 OA
ENDBRANCH  85  86
ENDBRANCH  59  80
ENDBRANCH  33  34
ENDBRANCH  26  28
ENDBRANCH  25  26
ENDBRANCH  24  25
ENDBRANCH  23  24
ENDBRANCH   1  23
TORSDOF 21
ENDMDL
MODEL 2
REMARK VINA RESULT:      -9.8      4.632     10.153
REMARK SMILES CCN(Cc1ccccn1)C(=O)NC(=O)CCCC(=O)OCCOC(=O)c1ccc(-c2c3nc(c(-c4ccc(S(=O)(=O)[O-])cc4)c4ccc([nH]4)c(-c4ccc(S(=O)(=O)[O-])cc4)c4nc(c(-c5ccc(S(=O)(=O)[O-])cc5)c5ccc2[nH]5)C=C4)C=C3)cc1
REMARK SMILES IDX 21 1 19 2 20 3 18 4 17 5 16 6 14 7 11 8 12 9 13 10 15 12
REMARK SMILES IDX 3 13 2 14 1 15 4 16 5 17 6 18 10 19 7 20 9 21 8 22 22 23
REMARK SMILES IDX 23 24 24 25 25 26 26 27 27 28 28 29 86 30 29 31 85 32 30 33
REMARK SMILES IDX 31 34 32 35 79 36 33 37 84 38 78 39 80 40 34 41 83 42 77 43
REMARK SMILES IDX 76 44 35 46 65 47 46 48 64 49 47 50 50 51 63 52 81 53 48 54
REMARK SMILES IDX 49 55 62 57 82 58 51 59 36 60 37 61 45 62 38 63 44 64 39 65
REMARK SMILES IDX 40 66 41 67 42 68 43 69 66 70 67 71 75 72 68 73 74 74 69 75
REMARK SMILES IDX 70 76 71 77 72 78 73 79 52 80 53 81 61 82 54 83 60 84 55 85
REMARK SMILES IDX 56 86 57 87 58 88 59 89
REMARK H PARENT 13 11 80 45 50 56
REMARK Flexibility Score: inf
ROOT
ATOM      1  O   UNL A   1      31.644  27.673  25.548  1.00  0.00    -0.462 OA
ENDROOT
BRANCH   1   2
ATOM      2  C   UNL A   1      31.040  27.000  24.534  1.00  0.00     0.305 C 
ATOM      3  O   UNL A   1      29.860  27.154  24.234  1.00  0.00    -0.252 OA
BRANCH   2   4
ATOM      4  C   UNL A   1      31.903  25.944  23.842  1.00  0.00     0.123 C 
BRANCH   4   5
ATOM      5  C   UNL A   1      32.048  24.542  24.413  1.00  0.00     0.022 C 
BRANCH   5   6
ATOM      6  C   UNL A   1      30.885  23.850  25.127  1.00  0.00     0.101 C 
BRANCH   6   7
ATOM      7  C   UNL A   1      30.999  23.126  26.462  1.00  0.00     0.228 C 
ATOM      8  C   UNL A   1      33.084  21.520  26.446  1.00  0.00     0.324 C 
ATOM      9  O   UNL A   1      33.843  21.251  27.382  1.00  0.00    -0.248 OA
ATOM     10  N   UNL A   1      31.902  22.135  26.794  1.00  0.00    -0.278 N 
ATOM     11  H   UNL A   1      31.567  21.691  27.605  1.00  0.00     0.174 HD
ATOM     12  O   UNL A   1      30.161  23.381  27.341  1.00  0.00    -0.275 OA
BRANCH   8  13
ATOM     13  N   UNL A   1      33.412  21.261  25.151  1.00  0.00    -0.319 N 
BRANCH  13  14
ATOM     14  C   UNL A   1      34.780  21.595  24.702  1.00  0.00     0.118 C 
ATOM     15  C   UNL A   1      35.197  23.060  24.879  1.00  0.00     0.027 C 
ENDBRANCH  13  14
BRANCH  13  16
ATOM     16  C   UNL A   1      32.598  20.478  24.228  1.00  0.00     0.177 C 
BRANCH  16  17
ATOM     17  C   UNL A   1      32.570  18.969  24.293  1.00  0.00     0.060 A 
ATOM     18  C   UNL A   1      33.009  18.212  23.204  1.00  0.00     0.026 A 
ATOM     19  N   UNL A   1      32.414  18.426  25.525  1.00  0.00    -0.259 NA
ATOM     20  C   UNL A   1      33.371  16.883  23.401  1.00  0.00     0.004 A 
ATOM     21  C   UNL A   1      32.760  17.129  25.683  1.00  0.00     0.111 A 
ATOM     22  C   UNL A   1      33.262  16.333  24.669  1.00  0.00     0.020 A 
ENDBRANCH  16  17
ENDBRANCH  13  16
ENDBRANCH   8  13
ENDBRANCH   6   7
ENDBRANCH   5   6
ENDBRANCH   4   5
ENDBRANCH   2   4
ENDBRANCH   1   2
BRANCH   1  23
ATOM     23  C   UNL A   1      32.237  28.959  25.204  1.00  0.00     0.274 C 
BRANCH  23  24
ATOM     24  C   UNL A   1      33.756  28.945  25.413  1.00  0.00     0.275 C 
BRANCH  24  25
ATOM     25  O   UNL A   1      34.027  28.755  26.807  1.00  0.00    -0.458 OA
BRANCH  25  26
ATOM     26  C   UNL A   1      34.359  29.905  27.439  1.00  0.00     0.338 C 
ATOM     27  O   UNL A   1      33.586  30.786  27.785  1.00  0.00    -0.246 OA
BRANCH  26  28
ATOM     28  C   UNL A   1      35.733  29.743  27.959  1.00  0.00     0.060 A 
ATOM     29  C   UNL A   1      36.785  29.951  27.059  1.00  0.00     0.016 A 
ATOM     30  C   UNL A   1      35.994  29.509  29.314  1.00  0.00     0.016 A 
ATOM     31  C   UNL A   1      38.100  29.943  27.503  1.00  0.00     0.010 A 
ATOM     32  C   UNL A   1      37.313  29.446  29.753  1.00  0.00     0.010 A 
ATOM     33  C   UNL A   1      38.363  29.636  28.840  1.00  0.00    -0.014 A 
BRANCH  33  34
ATOM     34  C   UNL A   1      39.718  29.188  29.207  1.00  0.00     0.031 A 
ATOM     35  C   UNL A   1      40.598  30.204  29.881  1.00  0.00     0.074 A 
ATOM     36  C   UNL A   1      40.143  27.942  28.946  1.00  0.00     0.049 A 
ATOM     37  N   UNL A   1      41.848  30.109  30.240  1.00  0.00    -0.248 NA
ATOM     38  C   UNL A   1      39.975  31.505  30.194  1.00  0.00     0.031 C 
ATOM     39  C   UNL A   1      39.334  26.872  28.363  1.00  0.00     0.029 A 
ATOM     40  N   UNL A   1      41.375  27.374  29.134  1.00  0.00    -0.354 N 
ATOM     41  C   UNL A   1      42.157  31.334  30.820  1.00  0.00     0.074 A 
ATOM     42  C   UNL A   1      40.976  32.159  30.758  1.00  0.00     0.031 C 
ATOM     43  C   UNL A   1      40.104  25.778  28.218  1.00  0.00     0.029 A 
ATOM     44  C   UNL A   1      41.462  26.086  28.662  1.00  0.00     0.049 A 
ATOM     45  H   UNL A   1      42.125  27.843  29.565  1.00  0.00     0.167 HD
ATOM     46  C   UNL A   1      43.334  31.740  31.346  1.00  0.00     0.031 A 
ATOM     47  C   UNL A   1      42.534  25.274  28.575  1.00  0.00     0.031 A 
ATOM     48  C   UNL A   1      44.517  30.931  31.332  1.00  0.00     0.049 A 
ATOM     49  C   UNL A   1      43.865  25.789  29.067  1.00  0.00     0.074 A 
ATOM     50  C   UNL A   1      45.783  31.245  31.788  1.00  0.00     0.029 A 
ATOM     51  N   UNL A   1      44.579  29.646  30.809  1.00  0.00    -0.354 N 
ATOM     52  N   UNL A   1      44.151  26.948  29.617  1.00  0.00    -0.248 NA
ATOM     53  C   UNL A   1      45.018  24.890  28.926  1.00  0.00     0.031 C 
ATOM     54  C   UNL A   1      46.624  30.168  31.491  1.00  0.00     0.029 A 
ATOM     55  C   UNL A   1      45.868  29.160  30.911  1.00  0.00     0.049 A 
ATOM     56  H   UNL A   1      43.818  29.155  30.425  1.00  0.00     0.167 HD
ATOM     57  C   UNL A   1      45.510  26.906  29.911  1.00  0.00     0.074 A 
ATOM     58  C   UNL A   1      45.985  25.603  29.488  1.00  0.00     0.031 C 
ATOM     59  C   UNL A   1      46.298  27.852  30.481  1.00  0.00     0.031 A 
BRANCH  46  60
ATOM     60  C   UNL A   1      43.390  33.135  31.900  1.00  0.00    -0.014 A 
ATOM     61  C   UNL A   1      43.862  34.209  31.123  1.00  0.00     0.010 A 
ATOM     62  C   UNL A   1      42.992  33.372  33.227  1.00  0.00     0.010 A 
ATOM     63  C   UNL A   1      43.970  35.487  31.677  1.00  0.00     0.020 A 
ATOM     64  C   UNL A   1      43.074  34.653  33.777  1.00  0.00     0.020 A 
ATOM     65  C   UNL A   1      43.579  35.700  33.002  1.00  0.00     0.054 A 
BRANCH  65  66
ATOM     66  S   UNL A   1      43.722  37.370  33.694  1.00  0.00     0.124 S 
ATOM     67  O   UNL A   1      45.107  37.386  34.159  1.00  0.00    -0.237 OA
ATOM     68  O   UNL A   1      43.439  38.219  32.540  1.00  0.00    -0.237 OA
ATOM     69  O   UNL A   1      42.711  37.398  34.747  1.00  0.00    -0.744 OA
ENDBRANCH  65  66
ENDBRANCH  46  60
BRANCH  47  70
ATOM     70  C   UNL A   1      42.407  23.918  27.972  1.00  0.00    -0.014 A 
ATOM     71  C   UNL A   1      42.430  22.766  28.778  1.00  0.00     0.010 A 
ATOM     72  C   UNL A   1      42.272  23.769  26.579  1.00  0.00     0.010 A 
ATOM     73  C   UNL A   1      42.339  21.493  28.202  1.00  0.00     0.020 A 
ATOM     74  C   UNL A   1      42.153  22.501  26.002  1.00  0.00     0.020 A 
ATOM     75  C   UNL A   1      42.200  21.369  26.817  1.00  0.00     0.054 A 
BRANCH  75  76
ATOM     76  S   UNL A   1      42.043  19.710  26.097  1.00  0.00     0.124 S 
ATOM     77  O   UNL A   1      40.631  19.670  25.732  1.00  0.00    -0.237 OA
ATOM     78  O   UNL A   1      42.985  19.760  24.981  1.00  0.00    -0.237 OA
ATOM     79  O   UNL A   1      42.432  18.823  27.191  1.00  0.00    -0.744 OA
ENDBRANCH  75  76
ENDBRANCH  47  70
BRANCH  59  80
ATOM     80  C   UNL A   1      47.742  27.501  30.717  1.00  0.00    -0.014 A 
ATOM     81  C   UNL A   1      48.128  26.694  31.800  1.00  0.00     0.010 A 
ATOM     82  C   UNL A   1      48.710  27.918  29.786  1.00  0.00     0.010 A 
ATOM     83  C   UNL A   1      49.467  26.330  31.961  1.00  0.00     0.020 A 
ATOM     84  C   UNL A   1      50.043  27.532  29.928  1.00  0.00     0.020 A 
ATOM     85  C   UNL A   1      50.415  26.750  31.022  1.00  0.00     0.054 A 
BRANCH  85  86
ATOM     86  S   UNL A   1      52.136  26.215  31.221  1.00  0.00     0.124 S 
ATOM     87  O   UNL A   1      52.593  26.141  29.837  1.00  0.00    -0.237 OA
ATOM     88  O   UNL A   1      52.716  27.293  32.018  1.00  0.00    -0.237 OA
ATOM     89  O   UNL A   1      52.023  24.932  31.910  1.00  0.00    -0.744 OA
ENDBRANCH  85  86
ENDBRANCH  59  80
ENDBRANCH  33  34
ENDBRANCH  26  28
ENDBRANCH  25  26
ENDBRANCH  24  25
ENDBRANCH  23  24
ENDBRANCH   1  23
TORSDOF 21
ENDMDL
MODEL 3
REMARK VINA RESULT:      -9.7      6.284     11.735
REMARK SMILES CCN(Cc1ccccn1)C(=O)NC(=O)CCCC(=O)OCCOC(=O)c1ccc(-c2c3nc(c(-c4ccc(S(=O)(=O)[O-])cc4)c4ccc([nH]4)c(-c4ccc(S(=O)(=O)[O-])cc4)c4nc(c(-c5ccc(S(=O)(=O)[O-])cc5)c5ccc2[nH]5)C=C4)C=C3)cc1
REMARK SMILES IDX 21 1 19 2 20 3 18 4 17 5 16 6 14 7 11 8 12 9 13 10 15 12
REMARK SMILES IDX 3 13 2 14 1 15 4 16 5 17 6 18 10 19 7 20 9 21 8 22 22 23
REMARK SMILES IDX 23 24 24 25 25 26 26 27 27 28 28 29 86 30 29 31 85 32 30 33
REMARK SMILES IDX 31 34 32 35 79 36 33 37 84 38 78 39 80 40 34 41 83 42 77 43
REMARK SMILES IDX 76 44 35 46 65 47 46 48 64 49 47 50 50 51 63 52 81 53 48 54
REMARK SMILES IDX 49 55 62 57 82 58 51 59 36 60 37 61 45 62 38 63 44 64 39 65
REMARK SMILES IDX 40 66 41 67 42 68 43 69 66 70 67 71 75 72 68 73 74 74 69 75
REMARK SMILES IDX 70 76 71 77 72 78 73 79 52 80 53 81 61 82 54 83 60 84 55 85
REMARK SMILES IDX 56 86 57 87 58 88 59 89
REMARK H PARENT 13 11 80 45 50 56
REMARK Flexibility Score: inf
ROOT
ATOM      1  O   UNL A   1      38.102  21.919  25.053  1.00  0.00    -0.462 OA
ENDROOT
BRANCH   1   2
ATOM      2  C   UNL A   1      36.775  21.929  25.345  1.00  0.00     0.305 C 
ATOM      3  O   UNL A   1      36.084  20.915  25.364  1.00  0.00    -0.252 OA
BRANCH   2   4
ATOM      4  C   UNL A   1      36.159  23.313  25.550  1.00  0.00     0.123 C 
BRANCH   4   5
ATOM      5  C   UNL A   1      34.661  23.491  25.750  1.00  0.00     0.022 C 
BRANCH   5   6
ATOM      6  C   UNL A   1      33.837  24.389  24.826  1.00  0.00     0.101 C 
BRANCH   6   7
ATOM      7  C   UNL A   1      34.075  24.540  23.330  1.00  0.00     0.228 C 
ATOM      8  C   UNL A   1      33.177  26.871  22.501  1.00  0.00     0.324 C 
ATOM      9  O   UNL A   1      33.654  27.603  21.628  1.00  0.00    -0.248 OA
ATOM     10  N   UNL A   1      33.653  25.580  22.523  1.00  0.00    -0.278 N 
ATOM     11  H   UNL A   1      33.722  25.275  21.591  1.00  0.00     0.174 HD
ATOM     12  O   UNL A   1      34.644  23.615  22.730  1.00  0.00    -0.275 OA
BRANCH   8  13
ATOM     13  N   UNL A   1      32.268  27.324  23.407  1.00  0.00    -0.319 N 
BRANCH  13  14
ATOM     14  C   UNL A   1      32.690  28.389  24.339  1.00  0.00     0.118 C 
ATOM     15  C   UNL A   1      33.977  28.112  25.126  1.00  0.00     0.027 C 
ENDBRANCH  13  14
BRANCH  13  16
ATOM     16  C   UNL A   1      30.845  27.002  23.389  1.00  0.00     0.177 C 
BRANCH  16  17
ATOM     17  C   UNL A   1      29.839  27.930  22.752  1.00  0.00     0.060 A 
ATOM     18  C   UNL A   1      28.512  27.933  23.191  1.00  0.00     0.026 A 
ATOM     19  N   UNL A   1      30.345  28.938  22.000  1.00  0.00    -0.259 NA
ATOM     20  C   UNL A   1      27.707  29.033  22.917  1.00  0.00     0.004 A 
ATOM     21  C   UNL A   1      29.535  29.988  21.738  1.00  0.00     0.111 A 
ATOM     22  C   UNL A   1      28.232  30.092  22.191  1.00  0.00     0.020 A 
ENDBRANCH  16  17
ENDBRANCH  13  16
ENDBRANCH   8  13
ENDBRANCH   6   7
ENDBRANCH   5   6
ENDBRANCH   4   5
ENDBRANCH   2   4
ENDBRANCH   1   2
BRANCH   1  23
ATOM     23  C   UNL A   1      38.990  21.448  26.108  1.00  0.00     0.274 C 
BRANCH  23  24
ATOM     24  C   UNL A   1      39.607  20.090  25.752  1.00  0.00     0.275 C 
BRANCH  24  25
ATOM     25  O   UNL A   1      40.633  19.787  26.705  1.00  0.00    -0.458 OA
BRANCH  25  26
ATOM     26  C   UNL A   1      41.880  19.976  26.213  1.00  0.00     0.338 C 
ATOM     27  O   UNL A   1      42.431  19.292  25.365  1.00  0.00    -0.246 OA
BRANCH  26  28
ATOM     28  C   UNL A   1      42.303  21.338  26.597  1.00  0.00     0.060 A 
ATOM     29  C   UNL A   1      42.501  22.260  25.562  1.00  0.00     0.016 A 
ATOM     30  C   UNL A   1      42.393  21.743  27.934  1.00  0.00     0.016 A 
ATOM     31  C   UNL A   1      42.773  23.591  25.850  1.00  0.00     0.010 A 
ATOM     32  C   UNL A   1      42.719  23.063  28.227  1.00  0.00     0.010 A 
ATOM     33  C   UNL A   1      42.936  23.978  27.183  1.00  0.00    -0.014 A 
BRANCH  33  34
ATOM     34  C   UNL A   1      43.650  25.234  27.470  1.00  0.00     0.031 A 
ATOM     35  C   UNL A   1      42.815  26.376  27.978  1.00  0.00     0.074 A 
ATOM     36  C   UNL A   1      44.974  25.350  27.281  1.00  0.00     0.049 A 
ATOM     37  N   UNL A   1      43.163  27.606  28.236  1.00  0.00    -0.248 NA
ATOM     38  C   UNL A   1      41.391  26.084  28.230  1.00  0.00     0.031 C 
ATOM     39  C   UNL A   1      45.871  24.274  26.862  1.00  0.00     0.029 A 
ATOM     40  N   UNL A   1      45.790  26.443  27.411  1.00  0.00    -0.354 N 
ATOM     41  C   UNL A   1      42.004  28.230  28.681  1.00  0.00     0.074 A 
ATOM     42  C   UNL A   1      40.941  27.255  28.649  1.00  0.00     0.031 C 
ATOM     43  C   UNL A   1      47.117  24.770  26.746  1.00  0.00     0.029 A 
ATOM     44  C   UNL A   1      47.092  26.201  27.045  1.00  0.00     0.049 A 
ATOM     45  H   UNL A   1      45.473  27.316  27.735  1.00  0.00     0.167 HD
ATOM     46  C   UNL A   1      41.838  29.514  29.068  1.00  0.00     0.031 A 
ATOM     47  C   UNL A   1      48.126  27.058  26.937  1.00  0.00     0.031 A 
ATOM     48  C   UNL A   1      42.890  30.487  29.023  1.00  0.00     0.049 A 
ATOM     49  C   UNL A   1      47.891  28.512  27.268  1.00  0.00     0.074 A 
ATOM     50  C   UNL A   1      42.837  31.830  29.341  1.00  0.00     0.029 A 
ATOM     51  N   UNL A   1      44.187  30.216  28.608  1.00  0.00    -0.354 N 
ATOM     52  N   UNL A   1      46.793  29.096  27.691  1.00  0.00    -0.248 NA
ATOM     53  C   UNL A   1      49.033  29.422  27.106  1.00  0.00     0.031 C 
ATOM     54  C   UNL A   1      44.093  32.384  29.067  1.00  0.00     0.029 A 
ATOM     55  C   UNL A   1      44.942  31.372  28.641  1.00  0.00     0.049 A 
ATOM     56  H   UNL A   1      44.519  29.332  28.334  1.00  0.00     0.167 HD
ATOM     57  C   UNL A   1      47.118  30.436  27.871  1.00  0.00     0.074 A 
ATOM     58  C   UNL A   1      48.519  30.573  27.522  1.00  0.00     0.031 C 
ATOM     59  C   UNL A   1      46.337  31.464  28.289  1.00  0.00     0.031 A 
BRANCH  46  60
ATOM     60  C   UNL A   1      40.458  29.926  29.495  1.00  0.00    -0.014 A 
ATOM     61  C   UNL A   1      39.435  30.132  28.550  1.00  0.00     0.010 A 
ATOM     62  C   UNL A   1      40.187  30.139  30.858  1.00  0.00     0.010 A 
ATOM     63  C   UNL A   1      38.176  30.581  28.960  1.00  0.00     0.020 A 
ATOM     64  C   UNL A   1      38.922  30.562  31.273  1.00  0.00     0.020 A 
ATOM     65  C   UNL A   1      37.929  30.796  30.319  1.00  0.00     0.054 A 
BRANCH  65  66
ATOM     66  S   UNL A   1      36.285  31.371  30.824  1.00  0.00     0.124 S 
ATOM     67  O   UNL A   1      35.541  31.294  29.569  1.00  0.00    -0.237 OA
ATOM     68  O   UNL A   1      35.904  30.392  31.840  1.00  0.00    -0.237 OA
ATOM     69  O   UNL A   1      36.527  32.721  31.323  1.00  0.00    -0.744 OA
ENDBRANCH  65  66
ENDBRANCH  46  60
BRANCH  47  70
ATOM     70  C   UNL A   1      49.456  26.579  26.465  1.00  0.00    -0.014 A 
ATOM     71  C   UNL A   1      50.384  26.026  27.365  1.00  0.00     0.010 A 
ATOM     72  C   UNL A   1      49.809  26.686  25.106  1.00  0.00     0.010 A 
ATOM     73  C   UNL A   1      51.643  25.605  26.919  1.00  0.00     0.020 A 
ATOM     74  C   UNL A   1      51.054  26.241  24.653  1.00  0.00     0.020 A 
ATOM     75  C   UNL A   1      51.969  25.715  25.565  1.00  0.00     0.054 A 
BRANCH  75  76
ATOM     76  S   UNL A   1      53.592  25.125  25.003  1.00  0.00     0.124 S 
ATOM     77  O   UNL A   1      54.498  25.807  25.922  1.00  0.00    -0.237 OA
ATOM     78  O   UNL A   1      53.481  23.679  25.179  1.00  0.00    -0.237 OA
ATOM     79  O   UNL A   1      53.657  25.574  23.614  1.00  0.00    -0.744 OA
ENDBRANCH  75  76
ENDBRANCH  47  70
BRANCH  59  80
ATOM     80  C   UNL A   1      46.986  32.814  28.431  1.00  0.00    -0.014 A 
ATOM     81  C   UNL A   1      46.832  33.805  27.448  1.00  0.00     0.010 A 
ATOM     82  C   UNL A   1      47.689  33.114  29.612  1.00  0.00     0.010 A 
ATOM     83  C   UNL A   1      47.393  35.071  27.635  1.00  0.00     0.020 A 
ATOM     84  C   UNL A   1      48.225  34.386  29.815  1.00  0.00     0.020 A 
ATOM     85  C   UNL A   1      48.083  35.354  28.818  1.00  0.00     0.054 A 
BRANCH  85  86
ATOM     86  S   UNL A   1      48.751  37.022  29.061  1.00  0.00     0.124 S 
ATOM     87  O   UNL A   1      49.630  37.167  27.905  1.00  0.00    -0.237 OA
ATOM     88  O   UNL A   1      47.551  37.853  29.048  1.00  0.00    -0.237 OA
ATOM     89  O   UNL A   1      49.429  36.938  30.353  1.00  0.00    -0.744 OA
ENDBRANCH  85  86
ENDBRANCH  59  80
ENDBRANCH  33  34
ENDBRANCH  26  28
ENDBRANCH  25  26
ENDBRANCH  24  25
ENDBRANCH  23  24
ENDBRANCH   1  23
TORSDOF 21
ENDMDL
