MODEL 1
REMARK VINA RESULT:     -11.5      0.000      0.000
REMARK SMILES O=C(CSc1ccc(NC(=O)c2cccc3ccccc23)cc1)OCCOC(=O)c1ccc(-c2c3nc(c(-c4ccc(S(=O)(=O)[O-])cc4)c4ccc([nH]4)c(-c4ccc(S(=O)(=O)[O-])cc4)c4nc(c(-c5ccc(S(=O)(=O)[O-])cc5)c5ccc2[nH]5)C=C4)C=C3)cc1
REMARK SMILES IDX 25 1 24 2 2 3 1 4 3 5 4 6 5 7 6 8 23 9 7 10 22 11 8 12 9 13
REMARK SMILES IDX 10 14 11 16 12 17 13 18 21 19 14 20 16 21 20 22 15 23 17 24
REMARK SMILES IDX 19 25 18 26 26 27 27 28 28 29 29 30 30 31 31 32 89 33 32 34
REMARK SMILES IDX 88 35 33 36 34 37 35 38 82 39 36 40 87 41 81 42 83 43 37 44
REMARK SMILES IDX 86 45 80 46 79 47 38 49 68 50 49 51 67 52 50 53 53 54 66 55
REMARK SMILES IDX 84 56 51 57 52 58 65 60 85 61 54 62 39 63 40 64 48 65 41 66
REMARK SMILES IDX 47 67 42 68 43 69 44 70 45 71 46 72 69 73 70 74 78 75 71 76
REMARK SMILES IDX 77 77 72 78 73 79 74 80 75 81 76 82 55 83 56 84 64 85 57 86
REMARK SMILES IDX 63 87 58 88 59 89 60 90 61 91 62 92
REMARK H PARENT 9 15 83 48 53 59
REMARK Flexibility Score: inf
ROOT
ATOM      1  C   UNL A   1      40.925  21.558  26.345  1.00  0.00     0.274 C 
ENDROOT
BRANCH   1   2
ATOM      2  O   UNL A   1      39.686  22.291  26.411  1.00  0.00    -0.461 OA
BRANCH   2   3
ATOM      3  C   UNL A   1      38.547  21.965  25.752  1.00  0.00     0.316 C 
ATOM      4  O   UNL A   1      38.415  20.831  25.294  1.00  0.00    -0.251 OA
BRANCH   3   5
ATOM      5  C   UNL A   1      37.465  23.011  25.582  1.00  0.00     0.197 C 
BRANCH   5   6
ATOM      6  S   UNL A   1      36.640  22.904  23.964  1.00  0.00    -0.114 SA
BRANCH   6   7
ATOM      7  C   UNL A   1      35.037  23.452  24.478  1.00  0.00     0.008 A 
ATOM      8  C   UNL A   1      33.941  23.263  23.643  1.00  0.00     0.017 A 
ATOM      9  C   UNL A   1      34.855  24.010  25.741  1.00  0.00     0.017 A 
ATOM     10  C   UNL A   1      32.657  23.576  24.095  1.00  0.00     0.027 A 
ATOM     11  C   UNL A   1      33.567  24.300  26.194  1.00  0.00     0.027 A 
ATOM     12  C   UNL A   1      32.448  24.035  25.395  1.00  0.00     0.041 A 
BRANCH  12  13
ATOM     13  N   UNL A   1      31.190  24.243  25.992  1.00  0.00    -0.322 N 
ATOM     14  C   UNL A   1      30.305  25.302  25.975  1.00  0.00     0.256 C 
ATOM     15  H   UNL A   1      30.878  23.479  26.529  1.00  0.00     0.170 HD
ATOM     16  O   UNL A   1      29.283  25.249  26.657  1.00  0.00    -0.269 OA
BRANCH  14  17
ATOM     17  C   UNL A   1      30.553  26.487  25.139  1.00  0.00     0.048 A 
ATOM     18  C   UNL A   1      29.996  26.464  23.852  1.00  0.00     0.014 A 
ATOM     19  C   UNL A   1      31.219  27.633  25.650  1.00  0.00    -0.006 A 
ATOM     20  C   UNL A   1      29.988  27.623  23.089  1.00  0.00     0.001 A 
ATOM     21  C   UNL A   1      31.167  28.805  24.868  1.00  0.00    -0.018 A 
ATOM     22  C   UNL A   1      31.911  27.690  26.888  1.00  0.00     0.009 A 
ATOM     23  C   UNL A   1      30.534  28.793  23.613  1.00  0.00     0.009 A 
ATOM     24  C   UNL A   1      31.749  29.982  25.351  1.00  0.00     0.009 A 
ATOM     25  C   UNL A   1      32.489  28.876  27.348  1.00  0.00     0.001 A 
ATOM     26  C   UNL A   1      32.389  30.030  26.587  1.00  0.00     0.001 A 
ENDBRANCH  14  17
ENDBRANCH  12  13
ENDBRANCH   6   7
ENDBRANCH   5   6
ENDBRANCH   3   5
ENDBRANCH   2   3
ENDBRANCH   1   2
BRANCH   1  27
ATOM     27  C   UNL A   1      42.079  22.409  25.811  1.00  0.00     0.275 C 
BRANCH  27  28
ATOM     28  O   UNL A   1      42.474  23.415  26.762  1.00  0.00    -0.458 OA
BRANCH  28  29
ATOM     29  C   UNL A   1      42.507  24.688  26.290  1.00  0.00     0.338 C 
ATOM     30  O   UNL A   1      42.712  25.024  25.135  1.00  0.00    -0.246 OA
BRANCH  29  31
ATOM     31  C   UNL A   1      42.074  25.624  27.355  1.00  0.00     0.060 A 
ATOM     32  C   UNL A   1      42.788  26.818  27.518  1.00  0.00     0.016 A 
ATOM     33  C   UNL A   1      40.984  25.345  28.186  1.00  0.00     0.016 A 
ATOM     34  C   UNL A   1      42.432  27.715  28.531  1.00  0.00     0.010 A 
ATOM     35  C   UNL A   1      40.633  26.243  29.202  1.00  0.00     0.010 A 
ATOM     36  C   UNL A   1      41.367  27.424  29.398  1.00  0.00    -0.014 A 
BRANCH  36  37
ATOM     37  C   UNL A   1      41.092  28.310  30.562  1.00  0.00     0.031 A 
ATOM     38  C   UNL A   1      42.027  28.300  31.739  1.00  0.00     0.074 A 
ATOM     39  C   UNL A   1      40.009  29.108  30.591  1.00  0.00     0.049 A 
ATOM     40  N   UNL A   1      42.008  29.048  32.813  1.00  0.00    -0.248 NA
ATOM     41  C   UNL A   1      43.091  27.284  31.727  1.00  0.00     0.031 C 
ATOM     42  C   UNL A   1      38.960  29.130  29.577  1.00  0.00     0.029 A 
ATOM     43  N   UNL A   1      39.619  30.067  31.500  1.00  0.00    -0.354 N 
ATOM     44  C   UNL A   1      43.028  28.568  33.625  1.00  0.00     0.074 A 
ATOM     45  C   UNL A   1      43.645  27.465  32.918  1.00  0.00     0.031 C 
ATOM     46  C   UNL A   1      38.075  30.093  29.890  1.00  0.00     0.029 A 
ATOM     47  C   UNL A   1      38.513  30.786  31.100  1.00  0.00     0.049 A 
ATOM     48  H   UNL A   1      40.085  30.224  32.352  1.00  0.00     0.167 HD
ATOM     49  C   UNL A   1      43.401  28.992  34.856  1.00  0.00     0.031 A 
ATOM     50  C   UNL A   1      37.954  31.900  31.622  1.00  0.00     0.031 A 
ATOM     51  C   UNL A   1      42.776  30.073  35.573  1.00  0.00     0.049 A 
ATOM     52  C   UNL A   1      38.478  32.440  32.933  1.00  0.00     0.074 A 
ATOM     53  C   UNL A   1      43.094  30.571  36.826  1.00  0.00     0.029 A 
ATOM     54  N   UNL A   1      41.706  30.821  35.111  1.00  0.00    -0.354 N 
ATOM     55  N   UNL A   1      39.484  32.014  33.658  1.00  0.00    -0.248 NA
ATOM     56  C   UNL A   1      37.761  33.587  33.514  1.00  0.00     0.031 C 
ATOM     57  C   UNL A   1      42.183  31.584  37.142  1.00  0.00     0.029 A 
ATOM     58  C   UNL A   1      41.341  31.764  36.058  1.00  0.00     0.049 A 
ATOM     59  H   UNL A   1      41.268  30.701  34.236  1.00  0.00     0.167 HD
ATOM     60  C   UNL A   1      39.500  32.822  34.793  1.00  0.00     0.074 A 
ATOM     61  C   UNL A   1      38.454  33.807  34.623  1.00  0.00     0.031 C 
ATOM     62  C   UNL A   1      40.285  32.731  35.894  1.00  0.00     0.031 A 
BRANCH  49  63
ATOM     63  C   UNL A   1      44.523  28.251  35.534  1.00  0.00    -0.014 A 
ATOM     64  C   UNL A   1      45.850  28.707  35.452  1.00  0.00     0.010 A 
ATOM     65  C   UNL A   1      44.235  27.111  36.307  1.00  0.00     0.010 A 
ATOM     66  C   UNL A   1      46.873  28.021  36.111  1.00  0.00     0.020 A 
ATOM     67  C   UNL A   1      45.251  26.440  36.992  1.00  0.00     0.020 A 
ATOM     68  C   UNL A   1      46.567  26.893  36.879  1.00  0.00     0.054 A 
BRANCH  68  69
ATOM     69  S   UNL A   1      47.910  26.050  37.756  1.00  0.00     0.124 S 
ATOM     70  O   UNL A   1      49.020  26.982  37.574  1.00  0.00    -0.237 OA
ATOM     71  O   UNL A   1      47.389  25.951  39.117  1.00  0.00    -0.237 OA
ATOM     72  O   UNL A   1      48.043  24.778  37.049  1.00  0.00    -0.744 OA
ENDBRANCH  68  69
ENDBRANCH  49  63
BRANCH  50  73
ATOM     73  C   UNL A   1      36.852  32.620  30.914  1.00  0.00    -0.014 A 
ATOM     74  C   UNL A   1      35.518  32.490  31.355  1.00  0.00     0.010 A 
ATOM     75  C   UNL A   1      37.108  33.404  29.778  1.00  0.00     0.010 A 
ATOM     76  C   UNL A   1      34.467  33.099  30.658  1.00  0.00     0.020 A 
ATOM     77  C   UNL A   1      36.068  34.051  29.103  1.00  0.00     0.020 A 
ATOM     78  C   UNL A   1      34.752  33.878  29.535  1.00  0.00     0.054 A 
BRANCH  78  79
ATOM     79  S   UNL A   1      33.393  34.715  28.671  1.00  0.00     0.124 S 
ATOM     80  O   UNL A   1      32.976  33.703  27.707  1.00  0.00    -0.237 OA
ATOM     81  O   UNL A   1      32.452  34.993  29.753  1.00  0.00    -0.237 OA
ATOM     82  O   UNL A   1      34.035  35.900  28.105  1.00  0.00    -0.744 OA
ENDBRANCH  78  79
ENDBRANCH  50  73
BRANCH  62  83
ATOM     83  C   UNL A   1      40.033  33.709  37.013  1.00  0.00    -0.014 A 
ATOM     84  C   UNL A   1      39.329  33.323  38.169  1.00  0.00     0.010 A 
ATOM     85  C   UNL A   1      40.540  35.019  36.930  1.00  0.00     0.010 A 
ATOM     86  C   UNL A   1      39.100  34.239  39.200  1.00  0.00     0.020 A 
ATOM     87  C   UNL A   1      40.340  35.930  37.973  1.00  0.00     0.020 A 
ATOM     88  C   UNL A   1      39.605  35.538  39.094  1.00  0.00     0.054 A 
BRANCH  88  89
ATOM     89  S   UNL A   1      39.315  36.701  40.456  1.00  0.00     0.124 S 
ATOM     90  O   UNL A   1      40.628  36.757  41.092  1.00  0.00    -0.237 OA
ATOM     91  O   UNL A   1      38.903  37.917  39.758  1.00  0.00    -0.237 OA
ATOM     92  O   UNL A   1      38.268  36.058  41.246  1.00  0.00    -0.744 OA
ENDBRANCH  88  89
ENDBRANCH  62  83
ENDBRANCH  36  37
ENDBRANCH  29  31
ENDBRANCH  28  29
ENDBRANCH  27  28
ENDBRANCH   1  27
TORSDOF 18
ENDMDL
MODEL 2
REMARK VINA RESULT:     -11.3      5.836     11.621
REMARK SMILES O=C(CSc1ccc(NC(=O)c2cccc3ccccc23)cc1)OCCOC(=O)c1ccc(-c2c3nc(c(-c4ccc(S(=O)(=O)[O-])cc4)c4ccc([nH]4)c(-c4ccc(S(=O)(=O)[O-])cc4)c4nc(c(-c5ccc(S(=O)(=O)[O-])cc5)c5ccc2[nH]5)C=C4)C=C3)cc1
REMARK SMILES IDX 25 1 24 2 2 3 1 4 3 5 4 6 5 7 6 8 23 9 7 10 22 11 8 12 9 13
REMARK SMILES IDX 10 14 11 16 12 17 13 18 21 19 14 20 16 21 20 22 15 23 17 24
REMARK SMILES IDX 19 25 18 26 26 27 27 28 28 29 29 30 30 31 31 32 89 33 32 34
REMARK SMILES IDX 88 35 33 36 34 37 35 38 82 39 36 40 87 41 81 42 83 43 37 44
REMARK SMILES IDX 86 45 80 46 79 47 38 49 68 50 49 51 67 52 50 53 53 54 66 55
REMARK SMILES IDX 84 56 51 57 52 58 65 60 85 61 54 62 39 63 40 64 48 65 41 66
REMARK SMILES IDX 47 67 42 68 43 69 44 70 45 71 46 72 69 73 70 74 78 75 71 76
REMARK SMILES IDX 77 77 72 78 73 79 74 80 75 81 76 82 55 83 56 84 64 85 57 86
REMARK SMILES IDX 63 87 58 88 59 89 60 90 61 91 62 92
REMARK H PARENT 9 15 83 48 53 59
REMARK Flexibility Score: inf
ROOT
ATOM      1  C   UNL A   1      34.997  31.451  28.203  1.00  0.00     0.274 C 
ENDROOT
BRANCH   1   2
ATOM      2  O   UNL A   1      33.756  31.712  27.517  1.00  0.00    -0.461 OA
BRANCH   2   3
ATOM      3  C   UNL A   1      32.851  30.771  27.150  1.00  0.00     0.316 C 
ATOM      4  O   UNL A   1      31.727  31.119  26.792  1.00  0.00    -0.251 OA
BRANCH   3   5
ATOM      5  C   UNL A   1      33.242  29.309  27.202  1.00  0.00     0.197 C 
BRANCH   5   6
ATOM      6  S   UNL A   1      31.811  28.214  27.456  1.00  0.00    -0.114 SA
BRANCH   6   7
ATOM      7  C   UNL A   1      32.103  27.121  26.094  1.00  0.00     0.008 A 
ATOM      8  C   UNL A   1      31.033  26.476  25.483  1.00  0.00     0.017 A 
ATOM      9  C   UNL A   1      33.390  26.955  25.589  1.00  0.00     0.017 A 
ATOM     10  C   UNL A   1      31.243  25.715  24.332  1.00  0.00     0.027 A 
ATOM     11  C   UNL A   1      33.589  26.211  24.424  1.00  0.00     0.027 A 
ATOM     12  C   UNL A   1      32.509  25.627  23.752  1.00  0.00     0.041 A 
BRANCH  12  13
ATOM     13  N   UNL A   1      32.799  25.007  22.522  1.00  0.00    -0.322 N 
ATOM     14  C   UNL A   1      33.218  23.736  22.185  1.00  0.00     0.256 C 
ATOM     15  H   UNL A   1      32.676  25.599  21.745  1.00  0.00     0.170 HD
ATOM     16  O   UNL A   1      33.472  23.473  21.011  1.00  0.00    -0.269 OA
BRANCH  14  17
ATOM     17  C   UNL A   1      33.351  22.684  23.205  1.00  0.00     0.048 A 
ATOM     18  C   UNL A   1      32.197  21.933  23.473  1.00  0.00     0.014 A 
ATOM     19  C   UNL A   1      34.605  22.373  23.796  1.00  0.00    -0.006 A 
ATOM     20  C   UNL A   1      32.292  20.785  24.247  1.00  0.00     0.001 A 
ATOM     21  C   UNL A   1      34.680  21.183  24.550  1.00  0.00    -0.018 A 
ATOM     22  C   UNL A   1      35.782  23.155  23.670  1.00  0.00     0.009 A 
ATOM     23  C   UNL A   1      33.533  20.394  24.745  1.00  0.00     0.009 A 
ATOM     24  C   UNL A   1      35.905  20.793  25.101  1.00  0.00     0.009 A 
ATOM     25  C   UNL A   1      36.994  22.748  24.233  1.00  0.00     0.001 A 
ATOM     26  C   UNL A   1      37.060  21.552  24.933  1.00  0.00     0.001 A 
ENDBRANCH  14  17
ENDBRANCH  12  13
ENDBRANCH   6   7
ENDBRANCH   5   6
ENDBRANCH   3   5
ENDBRANCH   2   3
ENDBRANCH   1   2
BRANCH   1  27
ATOM     27  C   UNL A   1      35.026  32.055  29.608  1.00  0.00     0.275 C 
BRANCH  27  28
ATOM     28  O   UNL A   1      36.363  32.076  30.142  1.00  0.00    -0.458 OA
BRANCH  28  29
ATOM     29  C   UNL A   1      36.734  30.970  30.838  1.00  0.00     0.338 C 
ATOM     30  O   UNL A   1      36.062  30.380  31.668  1.00  0.00    -0.246 OA
BRANCH  29  31
ATOM     31  C   UNL A   1      38.023  30.461  30.311  1.00  0.00     0.060 A 
ATOM     32  C   UNL A   1      38.952  29.942  31.221  1.00  0.00     0.016 A 
ATOM     33  C   UNL A   1      38.325  30.488  28.945  1.00  0.00     0.016 A 
ATOM     34  C   UNL A   1      40.193  29.480  30.769  1.00  0.00     0.010 A 
ATOM     35  C   UNL A   1      39.570  30.028  28.497  1.00  0.00     0.010 A 
ATOM     36  C   UNL A   1      40.523  29.542  29.406  1.00  0.00    -0.014 A 
BRANCH  36  37
ATOM     37  C   UNL A   1      41.897  29.188  28.957  1.00  0.00     0.031 A 
ATOM     38  C   UNL A   1      42.162  27.828  28.376  1.00  0.00     0.074 A 
ATOM     39  C   UNL A   1      42.916  30.060  29.079  1.00  0.00     0.049 A 
ATOM     40  N   UNL A   1      43.265  27.353  27.858  1.00  0.00    -0.248 NA
ATOM     41  C   UNL A   1      41.053  26.862  28.429  1.00  0.00     0.031 C 
ATOM     42  C   UNL A   1      42.828  31.362  29.730  1.00  0.00     0.029 A 
ATOM     43  N   UNL A   1      44.221  29.987  28.645  1.00  0.00    -0.354 N 
ATOM     44  C   UNL A   1      43.002  26.022  27.563  1.00  0.00     0.074 A 
ATOM     45  C   UNL A   1      41.633  25.766  27.959  1.00  0.00     0.031 C 
ATOM     46  C   UNL A   1      44.011  31.989  29.606  1.00  0.00     0.029 A 
ATOM     47  C   UNL A   1      44.928  31.156  28.830  1.00  0.00     0.049 A 
ATOM     48  H   UNL A   1      44.612  29.179  28.242  1.00  0.00     0.167 HD
ATOM     49  C   UNL A   1      43.831  25.091  27.031  1.00  0.00     0.031 A 
ATOM     50  C   UNL A   1      46.148  31.525  28.381  1.00  0.00     0.031 A 
ATOM     51  C   UNL A   1      45.200  25.334  26.657  1.00  0.00     0.049 A 
ATOM     52  C   UNL A   1      47.007  30.508  27.665  1.00  0.00     0.074 A 
ATOM     53  C   UNL A   1      46.111  24.447  26.107  1.00  0.00     0.029 A 
ATOM     54  N   UNL A   1      45.860  26.544  26.795  1.00  0.00    -0.354 N 
ATOM     55  N   UNL A   1      46.721  29.271  27.336  1.00  0.00    -0.248 NA
ATOM     56  C   UNL A   1      48.369  30.927  27.299  1.00  0.00     0.031 C 
ATOM     57  C   UNL A   1      47.335  25.107  25.962  1.00  0.00     0.029 A 
ATOM     58  C   UNL A   1      47.169  26.423  26.357  1.00  0.00     0.049 A 
ATOM     59  H   UNL A   1      45.458  27.370  27.151  1.00  0.00     0.167 HD
ATOM     60  C   UNL A   1      47.876  28.759  26.752  1.00  0.00     0.074 A 
ATOM     61  C   UNL A   1      48.838  29.839  26.705  1.00  0.00     0.031 C 
ATOM     62  C   UNL A   1      48.131  27.496  26.330  1.00  0.00     0.031 A 
BRANCH  49  63
ATOM     63  C   UNL A   1      43.288  23.697  26.860  1.00  0.00    -0.014 A 
ATOM     64  C   UNL A   1      42.813  23.249  25.615  1.00  0.00     0.010 A 
ATOM     65  C   UNL A   1      43.306  22.806  27.949  1.00  0.00     0.010 A 
ATOM     66  C   UNL A   1      42.340  21.943  25.470  1.00  0.00     0.020 A 
ATOM     67  C   UNL A   1      42.862  21.491  27.800  1.00  0.00     0.020 A 
ATOM     68  C   UNL A   1      42.370  21.071  26.563  1.00  0.00     0.054 A 
BRANCH  68  69
ATOM     69  S   UNL A   1      41.788  19.370  26.331  1.00  0.00     0.124 S 
ATOM     70  O   UNL A   1      42.201  18.738  27.581  1.00  0.00    -0.237 OA
ATOM     71  O   UNL A   1      40.348  19.547  26.161  1.00  0.00    -0.237 OA
ATOM     72  O   UNL A   1      42.502  18.917  25.139  1.00  0.00    -0.744 OA
ENDBRANCH  68  69
ENDBRANCH  49  63
BRANCH  50  73
ATOM     73  C   UNL A   1      46.648  32.923  28.555  1.00  0.00    -0.014 A 
ATOM     74  C   UNL A   1      47.488  33.249  29.641  1.00  0.00     0.010 A 
ATOM     75  C   UNL A   1      46.266  33.947  27.673  1.00  0.00     0.010 A 
ATOM     76  C   UNL A   1      47.904  34.569  29.857  1.00  0.00     0.020 A 
ATOM     77  C   UNL A   1      46.715  35.258  27.859  1.00  0.00     0.020 A 
ATOM     78  C   UNL A   1      47.515  35.565  28.961  1.00  0.00     0.054 A 
BRANCH  78  79
ATOM     79  S   UNL A   1      48.107  37.262  29.211  1.00  0.00     0.124 S 
ATOM     80  O   UNL A   1      46.932  38.050  28.856  1.00  0.00    -0.237 OA
ATOM     81  O   UNL A   1      48.474  37.265  30.625  1.00  0.00    -0.237 OA
ATOM     82  O   UNL A   1      49.237  37.362  28.290  1.00  0.00    -0.744 OA
ENDBRANCH  78  79
ENDBRANCH  50  73
BRANCH  62  83
ATOM     83  C   UNL A   1      49.510  27.205  25.795  1.00  0.00    -0.014 A 
ATOM     84  C   UNL A   1      50.556  26.822  26.656  1.00  0.00     0.010 A 
ATOM     85  C   UNL A   1      49.758  27.272  24.412  1.00  0.00     0.010 A 
ATOM     86  C   UNL A   1      51.831  26.555  26.150  1.00  0.00     0.020 A 
ATOM     87  C   UNL A   1      51.025  26.977  23.898  1.00  0.00     0.020 A 
ATOM     88  C   UNL A   1      52.058  26.637  24.774  1.00  0.00     0.054 A 
BRANCH  88  89
ATOM     89  S   UNL A   1      53.716  26.262  24.139  1.00  0.00     0.124 S 
ATOM     90  O   UNL A   1      53.480  26.181  22.700  1.00  0.00    -0.237 OA
ATOM     91  O   UNL A   1      54.497  27.415  24.582  1.00  0.00    -0.237 OA
ATOM     92  O   UNL A   1      54.059  24.999  24.786  1.00  0.00    -0.744 OA
ENDBRANCH  88  89
ENDBRANCH  62  83
ENDBRANCH  36  37
ENDBRANCH  29  31
ENDBRANCH  28  29
ENDBRANCH  27  28
ENDBRANCH   1  27
TORSDOF 18
ENDMDL
MODEL 3
REMARK VINA RESULT:     -11.3      5.986     11.887
REMARK SMILES O=C(CSc1ccc(NC(=O)c2cccc3ccccc23)cc1)OCCOC(=O)c1ccc(-c2c3nc(c(-c4ccc(S(=O)(=O)[O-])cc4)c4ccc([nH]4)c(-c4ccc(S(=O)(=O)[O-])cc4)c4nc(c(-c5ccc(S(=O)(=O)[O-])cc5)c5ccc2[nH]5)C=C4)C=C3)cc1
REMARK SMILES IDX 25 1 24 2 2 3 1 4 3 5 4 6 5 7 6 8 23 9 7 10 22 11 8 12 9 13
REMARK SMILES IDX 10 14 11 16 12 17 13 18 21 19 14 20 16 21 20 22 15 23 17 24
REMARK SMILES IDX 19 25 18 26 26 27 27 28 28 29 29 30 30 31 31 32 89 33 32 34
REMARK SMILES IDX 88 35 33 36 34 37 35 38 82 39 36 40 87 41 81 42 83 43 37 44
REMARK SMILES IDX 86 45 80 46 79 47 38 49 68 50 49 51 67 52 50 53 53 54 66 55
REMARK SMILES IDX 84 56 51 57 52 58 65 60 85 61 54 62 39 63 40 64 48 65 41 66
REMARK SMILES IDX 47 67 42 68 43 69 44 70 45 71 46 72 69 73 70 74 78 75 71 76
REMARK SMILES IDX 77 77 72 78 73 79 74 80 75 81 76 82 55 83 56 84 64 85 57 86
REMARK SMILES IDX 63 87 58 88 59 89 60 90 61 91 62 92
REMARK H PARENT 9 15 83 48 53 59
REMARK Flexibility Score: inf
ROOT
ATOM      1  C   UNL A   1      33.970  32.007  27.854  1.00  0.00     0.274 C 
ENDROOT
BRANCH   1   2
ATOM      2  O   UNL A   1      33.394  30.730  27.515  1.00  0.00    -0.461 OA
BRANCH   2   3
ATOM      3  C   UNL A   1      32.281  30.548  26.762  1.00  0.00     0.316 C 
ATOM      4  O   UNL A   1      31.537  31.501  26.539  1.00  0.00    -0.251 OA
BRANCH   3   5
ATOM      5  C   UNL A   1      31.971  29.167  26.221  1.00  0.00     0.197 C 
BRANCH   5   6
ATOM      6  S   UNL A   1      31.228  29.220  24.561  1.00  0.00    -0.114 SA
BRANCH   6   7
ATOM      7  C   UNL A   1      31.412  27.505  24.164  1.00  0.00     0.008 A 
ATOM      8  C   UNL A   1      30.668  26.552  24.852  1.00  0.00     0.017 A 
ATOM      9  C   UNL A   1      32.247  27.109  23.122  1.00  0.00     0.017 A 
ATOM     10  C   UNL A   1      30.713  25.214  24.458  1.00  0.00     0.027 A 
ATOM     11  C   UNL A   1      32.269  25.773  22.719  1.00  0.00     0.027 A 
ATOM     12  C   UNL A   1      31.461  24.819  23.348  1.00  0.00     0.041 A 
BRANCH  12  13
ATOM     13  N   UNL A   1      31.462  23.528  22.785  1.00  0.00    -0.322 N 
ATOM     14  C   UNL A   1      32.106  22.356  23.124  1.00  0.00     0.256 C 
ATOM     15  H   UNL A   1      30.886  23.445  21.991  1.00  0.00     0.170 HD
ATOM     16  O   UNL A   1      31.984  21.367  22.402  1.00  0.00    -0.269 OA
BRANCH  14  17
ATOM     17  C   UNL A   1      32.925  22.262  24.343  1.00  0.00     0.048 A 
ATOM     18  C   UNL A   1      32.248  21.895  25.515  1.00  0.00     0.014 A 
ATOM     19  C   UNL A   1      34.336  22.420  24.307  1.00  0.00    -0.006 A 
ATOM     20  C   UNL A   1      32.974  21.564  26.650  1.00  0.00     0.001 A 
ATOM     21  C   UNL A   1      35.051  22.046  25.464  1.00  0.00    -0.018 A 
ATOM     22  C   UNL A   1      35.074  22.905  23.197  1.00  0.00     0.009 A 
ATOM     23  C   UNL A   1      34.367  21.601  26.608  1.00  0.00     0.009 A 
ATOM     24  C   UNL A   1      36.448  22.119  25.464  1.00  0.00     0.009 A 
ATOM     25  C   UNL A   1      36.470  22.974  23.221  1.00  0.00     0.001 A 
ATOM     26  C   UNL A   1      37.159  22.559  24.350  1.00  0.00     0.001 A 
ENDBRANCH  14  17
ENDBRANCH  12  13
ENDBRANCH   6   7
ENDBRANCH   5   6
ENDBRANCH   3   5
ENDBRANCH   2   3
ENDBRANCH   1   2
BRANCH   1  27
ATOM     27  C   UNL A   1      34.846  31.938  29.106  1.00  0.00     0.275 C 
BRANCH  27  28
ATOM     28  O   UNL A   1      35.612  30.719  29.145  1.00  0.00    -0.458 OA
BRANCH  28  29
ATOM     29  C   UNL A   1      36.483  30.607  30.181  1.00  0.00     0.338 C 
ATOM     30  O   UNL A   1      36.226  30.775  31.362  1.00  0.00    -0.246 OA
BRANCH  29  31
ATOM     31  C   UNL A   1      37.773  30.067  29.688  1.00  0.00     0.060 A 
ATOM     32  C   UNL A   1      38.708  29.621  30.630  1.00  0.00     0.016 A 
ATOM     33  C   UNL A   1      38.070  29.994  28.323  1.00  0.00     0.016 A 
ATOM     34  C   UNL A   1      39.949  29.133  30.209  1.00  0.00     0.010 A 
ATOM     35  C   UNL A   1      39.315  29.507  27.905  1.00  0.00     0.010 A 
ATOM     36  C   UNL A   1      40.274  29.095  28.844  1.00  0.00    -0.014 A 
BRANCH  36  37
ATOM     37  C   UNL A   1      41.649  28.716  28.416  1.00  0.00     0.031 A 
ATOM     38  C   UNL A   1      42.770  29.707  28.558  1.00  0.00     0.074 A 
ATOM     39  C   UNL A   1      41.905  27.506  27.885  1.00  0.00     0.049 A 
ATOM     40  N   UNL A   1      44.046  29.547  28.318  1.00  0.00    -0.248 NA
ATOM     41  C   UNL A   1      42.398  31.066  28.980  1.00  0.00     0.031 C 
ATOM     42  C   UNL A   1      40.897  26.497  27.579  1.00  0.00     0.029 A 
ATOM     43  N   UNL A   1      43.094  26.914  27.523  1.00  0.00    -0.354 N 
ATOM     44  C   UNL A   1      44.626  30.793  28.516  1.00  0.00     0.074 A 
ATOM     45  C   UNL A   1      43.561  31.697  28.897  1.00  0.00     0.031 C 
ATOM     46  C   UNL A   1      41.513  25.391  27.128  1.00  0.00     0.029 A 
ATOM     47  C   UNL A   1      42.961  25.593  27.151  1.00  0.00     0.049 A 
ATOM     48  H   UNL A   1      43.957  27.388  27.528  1.00  0.00     0.167 HD
ATOM     49  C   UNL A   1      45.923  31.157  28.372  1.00  0.00     0.031 A 
ATOM     50  C   UNL A   1      43.898  24.649  26.911  1.00  0.00     0.031 A 
ATOM     51  C   UNL A   1      46.982  30.267  27.971  1.00  0.00     0.049 A 
ATOM     52  C   UNL A   1      45.355  25.048  26.890  1.00  0.00     0.074 A 
ATOM     53  C   UNL A   1      48.328  30.553  27.803  1.00  0.00     0.029 A 
ATOM     54  N   UNL A   1      46.822  28.924  27.670  1.00  0.00    -0.354 N 
ATOM     55  N   UNL A   1      45.894  26.217  27.142  1.00  0.00    -0.248 NA
ATOM     56  C   UNL A   1      46.325  24.008  26.511  1.00  0.00     0.031 C 
ATOM     57  C   UNL A   1      48.970  29.396  27.350  1.00  0.00     0.029 A 
ATOM     58  C   UNL A   1      48.039  28.372  27.301  1.00  0.00     0.049 A 
ATOM     59  H   UNL A   1      45.969  28.433  27.711  1.00  0.00     0.167 HD
ATOM     60  C   UNL A   1      47.260  26.057  26.923  1.00  0.00     0.074 A 
ATOM     61  C   UNL A   1      47.473  24.665  26.592  1.00  0.00     0.031 C 
ATOM     62  C   UNL A   1      48.244  26.989  26.954  1.00  0.00     0.031 A 
BRANCH  49  63
ATOM     63  C   UNL A   1      46.268  32.603  28.610  1.00  0.00    -0.014 A 
ATOM     64  C   UNL A   1      46.689  33.052  29.874  1.00  0.00     0.010 A 
ATOM     65  C   UNL A   1      46.222  33.514  27.539  1.00  0.00     0.010 A 
ATOM     66  C   UNL A   1      47.031  34.392  30.068  1.00  0.00     0.020 A 
ATOM     67  C   UNL A   1      46.593  34.848  27.722  1.00  0.00     0.020 A 
ATOM     68  C   UNL A   1      46.984  35.281  28.990  1.00  0.00     0.054 A 
BRANCH  68  69
ATOM     69  S   UNL A   1      47.475  37.004  29.264  1.00  0.00     0.124 S 
ATOM     70  O   UNL A   1      48.932  36.912  29.225  1.00  0.00    -0.237 OA
ATOM     71  O   UNL A   1      46.859  37.694  28.133  1.00  0.00    -0.237 OA
ATOM     72  O   UNL A   1      46.906  37.325  30.571  1.00  0.00    -0.744 OA
ENDBRANCH  68  69
ENDBRANCH  49  63
BRANCH  50  73
ATOM     73  C   UNL A   1      43.519  23.219  26.694  1.00  0.00    -0.014 A 
ATOM     74  C   UNL A   1      42.907  22.480  27.728  1.00  0.00     0.010 A 
ATOM     75  C   UNL A   1      43.797  22.570  25.480  1.00  0.00     0.010 A 
ATOM     76  C   UNL A   1      42.614  21.121  27.564  1.00  0.00     0.020 A 
ATOM     77  C   UNL A   1      43.466  21.224  25.296  1.00  0.00     0.020 A 
ATOM     78  C   UNL A   1      42.894  20.502  26.345  1.00  0.00     0.054 A 
BRANCH  78  79
ATOM     79  S   UNL A   1      42.457  18.756  26.116  1.00  0.00     0.124 S 
ATOM     80  O   UNL A   1      41.065  18.844  25.690  1.00  0.00    -0.237 OA
ATOM     81  O   UNL A   1      43.410  18.320  25.100  1.00  0.00    -0.237 OA
ATOM     82  O   UNL A   1      42.676  18.179  27.442  1.00  0.00    -0.744 OA
ENDBRANCH  78  79
ENDBRANCH  50  73
BRANCH  62  83
ATOM     83  C   UNL A   1      49.640  26.541  26.603  1.00  0.00    -0.014 A 
ATOM     84  C   UNL A   1      50.090  26.543  25.269  1.00  0.00     0.010 A 
ATOM     85  C   UNL A   1      50.531  26.152  27.620  1.00  0.00     0.010 A 
ATOM     86  C   UNL A   1      51.386  26.124  24.955  1.00  0.00     0.020 A 
ATOM     87  C   UNL A   1      51.839  25.761  27.314  1.00  0.00     0.020 A 
ATOM     88  C   UNL A   1      52.252  25.733  25.980  1.00  0.00     0.054 A 
BRANCH  88  89
ATOM     89  S   UNL A   1      53.937  25.217  25.549  1.00  0.00     0.124 S 
ATOM     90  O   UNL A   1      54.493  24.874  26.854  1.00  0.00    -0.237 OA
ATOM     91  O   UNL A   1      53.707  24.090  24.648  1.00  0.00    -0.237 OA
ATOM     92  O   UNL A   1      54.513  26.402  24.919  1.00  0.00    -0.744 OA
ENDBRANCH  88  89
ENDBRANCH  62  83
ENDBRANCH  36  37
ENDBRANCH  29  31
ENDBRANCH  28  29
ENDBRANCH  27  28
ENDBRANCH   1  27
TORSDOF 18
ENDMDL
