MODEL 1
REMARK VINA RESULT:      -9.8      0.000      0.000
REMARK SMILES O=C(COc1cccc(/C=C2\SC(=O)N(c3cccc(Cl)c3)C2=O)c1)OCCOC(=O)c1ccc(-c2c3nc(c(-c4ccc(S(=O)(=O)[O-])cc4)c4ccc([nH]4)c(-c4ccc(S(=O)(=O)[O-])cc4)c4nc(c(-c5ccc(S(=O)(=O)[O-])cc5)c5ccc2[nH]5)C=C4)C=C3)cc1
REMARK SMILES IDX 27 1 26 2 2 3 1 4 3 5 4 6 5 7 6 8 25 9 7 10 9 11 8 12 10 13
REMARK SMILES IDX 11 14 12 15 23 16 13 17 15 18 24 19 14 20 16 21 17 22 22 23
REMARK SMILES IDX 18 24 20 25 19 26 21 27 28 28 29 29 30 30 31 31 32 32 33 33
REMARK SMILES IDX 91 34 34 35 90 36 35 37 36 38 37 39 84 40 38 41 89 42 83 43
REMARK SMILES IDX 85 44 39 45 88 46 82 47 81 48 40 50 70 51 51 52 69 53 52 54
REMARK SMILES IDX 55 55 68 56 86 57 53 58 54 59 67 61 87 62 56 63 41 64 42 65
REMARK SMILES IDX 50 66 43 67 49 68 44 69 45 70 46 71 47 72 48 73 71 74 72 75
REMARK SMILES IDX 80 76 73 77 79 78 74 79 75 80 76 81 77 82 78 83 57 84 58 85
REMARK SMILES IDX 66 86 59 87 65 88 60 89 61 90 62 91 63 92 64 93
REMARK H PARENT 85 49 55 60
REMARK Flexibility Score: inf
ROOT
ATOM      1  C   UNL A   1      34.651  33.500  28.848  1.00  0.00     0.274 C 
ENDROOT
BRANCH   1   2
ATOM      2  O   UNL A   1      34.627  33.454  30.286  1.00  0.00    -0.460 OA
BRANCH   2   3
ATOM      3  C   UNL A   1      33.930  34.332  31.044  1.00  0.00     0.344 C 
ATOM      4  O   UNL A   1      33.067  35.036  30.520  1.00  0.00    -0.248 OA
BRANCH   3   5
ATOM      5  C   UNL A   1      34.174  34.369  32.562  1.00  0.00     0.351 C 
BRANCH   5   6
ATOM      6  O   UNL A   1      34.588  33.188  33.238  1.00  0.00    -0.482 OA
BRANCH   6   7
ATOM      7  C   UNL A   1      35.931  33.161  33.491  1.00  0.00     0.120 A 
ATOM      8  C   UNL A   1      36.574  34.342  33.834  1.00  0.00     0.046 A 
ATOM      9  C   UNL A   1      36.676  32.004  33.331  1.00  0.00     0.054 A 
ATOM     10  C   UNL A   1      37.956  34.334  34.057  1.00  0.00     0.004 A 
ATOM     11  C   UNL A   1      38.063  31.988  33.493  1.00  0.00    -0.021 A 
ATOM     12  C   UNL A   1      38.702  33.158  33.891  1.00  0.00     0.008 A 
BRANCH  11  13
ATOM     13  C   UNL A   1      38.747  30.708  33.264  1.00  0.00     0.029 C 
ATOM     14  C   UNL A   1      39.707  30.219  34.068  1.00  0.00     0.083 C 
ATOM     15  S   UNL A   1      40.182  30.816  35.616  1.00  0.00    -0.022 SA
ATOM     16  C   UNL A   1      40.540  29.042  33.700  1.00  0.00     0.272 C 
ATOM     17  C   UNL A   1      41.431  29.612  35.803  1.00  0.00     0.298 C 
ATOM     18  N   UNL A   1      41.438  28.762  34.722  1.00  0.00    -0.236 N 
ATOM     19  O   UNL A   1      40.372  28.418  32.660  1.00  0.00    -0.268 OA
ATOM     20  O   UNL A   1      42.170  29.611  36.781  1.00  0.00    -0.260 OA
BRANCH  18  21
ATOM     21  C   UNL A   1      42.270  27.612  34.690  1.00  0.00     0.054 A 
ATOM     22  C   UNL A   1      43.541  27.648  34.104  1.00  0.00     0.027 A 
ATOM     23  C   UNL A   1      41.789  26.397  35.199  1.00  0.00     0.047 A 
ATOM     24  C   UNL A   1      44.316  26.489  34.020  1.00  0.00     0.004 A 
ATOM     25  C   UNL A   1      42.547  25.236  35.071  1.00  0.00     0.043 A 
ATOM     26  C   UNL A   1      43.810  25.276  34.489  1.00  0.00     0.020 A 
ATOM     27  Cl  UNL A   1      41.892  23.733  35.598  1.00  0.00    -0.084 Cl
ENDBRANCH  18  21
ENDBRANCH  11  13
ENDBRANCH   6   7
ENDBRANCH   5   6
ENDBRANCH   3   5
ENDBRANCH   2   3
ENDBRANCH   1   2
BRANCH   1  28
ATOM     28  C   UNL A   1      33.740  32.421  28.253  1.00  0.00     0.275 C 
BRANCH  28  29
ATOM     29  O   UNL A   1      34.488  31.562  27.369  1.00  0.00    -0.458 OA
BRANCH  29  30
ATOM     30  C   UNL A   1      34.529  30.243  27.702  1.00  0.00     0.338 C 
ATOM     31  O   UNL A   1      33.648  29.423  27.519  1.00  0.00    -0.246 OA
BRANCH  30  32
ATOM     32  C   UNL A   1      35.914  29.903  28.110  1.00  0.00     0.060 A 
ATOM     33  C   UNL A   1      36.930  29.968  27.146  1.00  0.00     0.016 A 
ATOM     34  C   UNL A   1      36.231  29.587  29.435  1.00  0.00     0.016 A 
ATOM     35  C   UNL A   1      38.257  29.707  27.502  1.00  0.00     0.010 A 
ATOM     36  C   UNL A   1      37.559  29.312  29.787  1.00  0.00     0.010 A 
ATOM     37  C   UNL A   1      38.579  29.349  28.819  1.00  0.00    -0.014 A 
BRANCH  37  38
ATOM     38  C   UNL A   1      39.949  28.875  29.147  1.00  0.00     0.031 A 
ATOM     39  C   UNL A   1      40.884  29.807  29.875  1.00  0.00     0.074 A 
ATOM     40  C   UNL A   1      40.358  27.631  28.835  1.00  0.00     0.049 A 
ATOM     41  N   UNL A   1      42.113  29.602  30.277  1.00  0.00    -0.248 NA
ATOM     42  C   UNL A   1      40.363  31.147  30.192  1.00  0.00     0.031 C 
ATOM     43  C   UNL A   1      39.553  26.617  28.155  1.00  0.00     0.029 A 
ATOM     44  N   UNL A   1      41.566  27.008  29.053  1.00  0.00    -0.354 N 
ATOM     45  C   UNL A   1      42.507  30.778  30.903  1.00  0.00     0.074 A 
ATOM     46  C   UNL A   1      41.405  31.709  30.789  1.00  0.00     0.031 C 
ATOM     47  C   UNL A   1      40.289  25.500  28.010  1.00  0.00     0.029 A 
ATOM     48  C   UNL A   1      41.625  25.724  28.562  1.00  0.00     0.049 A 
ATOM     49  H   UNL A   1      42.317  27.440  29.517  1.00  0.00     0.167 HD
ATOM     50  C   UNL A   1      43.673  31.057  31.534  1.00  0.00     0.031 A 
ATOM     51  C   UNL A   1      42.641  24.836  28.549  1.00  0.00     0.031 A 
ATOM     52  C   UNL A   1      44.783  30.147  31.633  1.00  0.00     0.049 A 
ATOM     53  C   UNL A   1      43.961  25.204  29.185  1.00  0.00     0.074 A 
ATOM     54  C   UNL A   1      46.002  30.344  32.260  1.00  0.00     0.029 A 
ATOM     55  N   UNL A   1      44.817  28.872  31.089  1.00  0.00    -0.354 N 
ATOM     56  N   UNL A   1      44.299  26.305  29.812  1.00  0.00    -0.248 NA
ATOM     57  C   UNL A   1      45.033  24.197  29.123  1.00  0.00     0.031 C 
ATOM     58  C   UNL A   1      46.796  29.214  32.041  1.00  0.00     0.029 A 
ATOM     59  C   UNL A   1      46.046  28.284  31.340  1.00  0.00     0.049 A 
ATOM     60  H   UNL A   1      44.078  28.448  30.598  1.00  0.00     0.167 HD
ATOM     61  C   UNL A   1      45.609  26.109  30.245  1.00  0.00     0.074 A 
ATOM     62  C   UNL A   1      45.991  24.776  29.832  1.00  0.00     0.031 C 
ATOM     63  C   UNL A   1      46.423  26.957  30.923  1.00  0.00     0.031 A 
BRANCH  50  64
ATOM     64  C   UNL A   1      43.819  32.419  32.160  1.00  0.00    -0.014 A 
ATOM     65  C   UNL A   1      44.184  33.535  31.387  1.00  0.00     0.010 A 
ATOM     66  C   UNL A   1      43.515  32.599  33.522  1.00  0.00     0.010 A 
ATOM     67  C   UNL A   1      44.265  34.803  31.968  1.00  0.00     0.020 A 
ATOM     68  C   UNL A   1      43.568  33.869  34.102  1.00  0.00     0.020 A 
ATOM     69  C   UNL A   1      43.952  34.963  33.323  1.00  0.00     0.054 A 
BRANCH  69  70
ATOM     70  S   UNL A   1      44.013  36.629  34.036  1.00  0.00     0.124 S 
ATOM     71  O   UNL A   1      42.596  36.980  34.104  1.00  0.00    -0.237 OA
ATOM     72  O   UNL A   1      44.665  36.401  35.322  1.00  0.00    -0.237 OA
ATOM     73  O   UNL A   1      44.796  37.394  33.068  1.00  0.00    -0.744 OA
ENDBRANCH  69  70
ENDBRANCH  50  64
BRANCH  51  74
ATOM     74  C   UNL A   1      42.477  23.507  27.887  1.00  0.00    -0.014 A 
ATOM     75  C   UNL A   1      41.790  22.458  28.524  1.00  0.00     0.010 A 
ATOM     76  C   UNL A   1      43.064  23.270  26.631  1.00  0.00     0.010 A 
ATOM     77  C   UNL A   1      41.727  21.189  27.938  1.00  0.00     0.020 A 
ATOM     78  C   UNL A   1      42.973  22.012  26.025  1.00  0.00     0.020 A 
ATOM     79  C   UNL A   1      42.321  20.974  26.692  1.00  0.00     0.054 A 
BRANCH  79  80
ATOM     80  S   UNL A   1      42.212  19.327  25.939  1.00  0.00     0.124 S 
ATOM     81  O   UNL A   1      40.780  19.199  25.694  1.00  0.00    -0.237 OA
ATOM     82  O   UNL A   1      43.049  19.469  24.750  1.00  0.00    -0.237 OA
ATOM     83  O   UNL A   1      42.753  18.444  26.970  1.00  0.00    -0.744 OA
ENDBRANCH  79  80
ENDBRANCH  51  74
BRANCH  63  84
ATOM     84  C   UNL A   1      47.799  26.459  31.294  1.00  0.00    -0.014 A 
ATOM     85  C   UNL A   1      48.904  26.652  30.445  1.00  0.00     0.010 A 
ATOM     86  C   UNL A   1      47.995  25.812  32.529  1.00  0.00     0.010 A 
ATOM     87  C   UNL A   1      50.165  26.163  30.800  1.00  0.00     0.020 A 
ATOM     88  C   UNL A   1      49.262  25.353  32.903  1.00  0.00     0.020 A 
ATOM     89  C   UNL A   1      50.335  25.512  32.025  1.00  0.00     0.054 A 
BRANCH  89  90
ATOM     90  S   UNL A   1      51.984  24.900  32.467  1.00  0.00     0.124 S 
ATOM     91  O   UNL A   1      51.801  23.453  32.396  1.00  0.00    -0.237 OA
ATOM     92  O   UNL A   1      52.830  25.479  31.426  1.00  0.00    -0.237 OA
ATOM     93  O   UNL A   1      52.205  25.434  33.809  1.00  0.00    -0.744 OA
ENDBRANCH  89  90
ENDBRANCH  63  84
ENDBRANCH  37  38
ENDBRANCH  30  32
ENDBRANCH  29  30
ENDBRANCH  28  29
ENDBRANCH   1  28
TORSDOF 18
ENDMDL
MODEL 2
REMARK VINA RESULT:      -9.5      5.260     12.499
REMARK SMILES O=C(COc1cccc(/C=C2\SC(=O)N(c3cccc(Cl)c3)C2=O)c1)OCCOC(=O)c1ccc(-c2c3nc(c(-c4ccc(S(=O)(=O)[O-])cc4)c4ccc([nH]4)c(-c4ccc(S(=O)(=O)[O-])cc4)c4nc(c(-c5ccc(S(=O)(=O)[O-])cc5)c5ccc2[nH]5)C=C4)C=C3)cc1
REMARK SMILES IDX 27 1 26 2 2 3 1 4 3 5 4 6 5 7 6 8 25 9 7 10 9 11 8 12 10 13
REMARK SMILES IDX 11 14 12 15 23 16 13 17 15 18 24 19 14 20 16 21 17 22 22 23
REMARK SMILES IDX 18 24 20 25 19 26 21 27 28 28 29 29 30 30 31 31 32 32 33 33
REMARK SMILES IDX 91 34 34 35 90 36 35 37 36 38 37 39 84 40 38 41 89 42 83 43
REMARK SMILES IDX 85 44 39 45 88 46 82 47 81 48 40 50 70 51 51 52 69 53 52 54
REMARK SMILES IDX 55 55 68 56 86 57 53 58 54 59 67 61 87 62 56 63 41 64 42 65
REMARK SMILES IDX 50 66 43 67 49 68 44 69 45 70 46 71 47 72 48 73 71 74 72 75
REMARK SMILES IDX 80 76 73 77 79 78 74 79 75 80 76 81 77 82 78 83 57 84 58 85
REMARK SMILES IDX 66 86 59 87 65 88 60 89 61 90 62 91 63 92 64 93
REMARK H PARENT 85 49 55 60
REMARK Flexibility Score: inf
ROOT
ATOM      1  C   UNL A   1      42.468  21.878  26.609  1.00  0.00     0.274 C 
ENDROOT
BRANCH   1   2
ATOM      2  O   UNL A   1      41.156  21.609  26.082  1.00  0.00    -0.460 OA
BRANCH   2   3
ATOM      3  C   UNL A   1      40.021  22.095  26.636  1.00  0.00     0.344 C 
ATOM      4  O   UNL A   1      40.082  22.721  27.695  1.00  0.00    -0.248 OA
BRANCH   3   5
ATOM      5  C   UNL A   1      38.691  21.929  25.884  1.00  0.00     0.351 C 
BRANCH   5   6
ATOM      6  O   UNL A   1      37.833  23.050  25.713  1.00  0.00    -0.482 OA
BRANCH   6   7
ATOM      7  C   UNL A   1      36.510  22.711  25.688  1.00  0.00     0.120 A 
ATOM      8  C   UNL A   1      36.161  21.374  25.558  1.00  0.00     0.046 A 
ATOM      9  C   UNL A   1      35.513  23.674  25.704  1.00  0.00     0.054 A 
ATOM     10  C   UNL A   1      34.809  21.017  25.491  1.00  0.00     0.004 A 
ATOM     11  C   UNL A   1      34.162  23.343  25.581  1.00  0.00    -0.021 A 
ATOM     12  C   UNL A   1      33.808  21.999  25.506  1.00  0.00     0.008 A 
BRANCH  11  13
ATOM     13  C   UNL A   1      33.200  24.453  25.578  1.00  0.00     0.029 C 
ATOM     14  C   UNL A   1      32.685  24.994  24.460  1.00  0.00     0.083 C 
ATOM     15  S   UNL A   1      32.825  24.398  22.847  1.00  0.00    -0.022 SA
ATOM     16  C   UNL A   1      31.893  26.254  24.469  1.00  0.00     0.272 C 
ATOM     17  C   UNL A   1      31.914  25.725  22.174  1.00  0.00     0.298 C 
ATOM     18  N   UNL A   1      31.486  26.564  23.178  1.00  0.00    -0.236 N 
ATOM     19  O   UNL A   1      31.624  26.854  25.501  1.00  0.00    -0.268 OA
ATOM     20  O   UNL A   1      31.745  25.831  20.966  1.00  0.00    -0.260 OA
BRANCH  18  21
ATOM     21  C   UNL A   1      30.609  27.648  22.911  1.00  0.00     0.054 A 
ATOM     22  C   UNL A   1      31.090  28.872  22.429  1.00  0.00     0.027 A 
ATOM     23  C   UNL A   1      29.242  27.517  23.194  1.00  0.00     0.047 A 
ATOM     24  C   UNL A   1      30.220  29.949  22.240  1.00  0.00     0.004 A 
ATOM     25  C   UNL A   1      28.389  28.609  23.047  1.00  0.00     0.043 A 
ATOM     26  C   UNL A   1      28.871  29.822  22.567  1.00  0.00     0.020 A 
ATOM     27  Cl  UNL A   1      26.737  28.462  23.508  1.00  0.00    -0.084 Cl
ENDBRANCH  18  21
ENDBRANCH  11  13
ENDBRANCH   6   7
ENDBRANCH   5   6
ENDBRANCH   3   5
ENDBRANCH   2   3
ENDBRANCH   1   2
BRANCH   1  28
ATOM     28  C   UNL A   1      43.167  22.976  25.800  1.00  0.00     0.275 C 
BRANCH  28  29
ATOM     29  O   UNL A   1      43.364  24.151  26.611  1.00  0.00    -0.458 OA
BRANCH  29  30
ATOM     30  C   UNL A   1      42.858  25.315  26.120  1.00  0.00     0.338 C 
ATOM     31  O   UNL A   1      42.580  25.550  24.959  1.00  0.00    -0.246 OA
BRANCH  30  32
ATOM     32  C   UNL A   1      42.474  26.181  27.262  1.00  0.00     0.060 A 
ATOM     33  C   UNL A   1      43.156  27.392  27.442  1.00  0.00     0.016 A 
ATOM     34  C   UNL A   1      41.414  25.846  28.112  1.00  0.00     0.016 A 
ATOM     35  C   UNL A   1      42.789  28.261  28.475  1.00  0.00     0.010 A 
ATOM     36  C   UNL A   1      41.058  26.710  29.154  1.00  0.00     0.010 A 
ATOM     37  C   UNL A   1      41.756  27.915  29.357  1.00  0.00    -0.014 A 
BRANCH  37  38
ATOM     38  C   UNL A   1      41.505  28.738  30.569  1.00  0.00     0.031 A 
ATOM     39  C   UNL A   1      40.364  29.722  30.555  1.00  0.00     0.074 A 
ATOM     40  C   UNL A   1      42.254  28.602  31.681  1.00  0.00     0.049 A 
ATOM     41  N   UNL A   1      39.953  30.529  31.500  1.00  0.00    -0.248 NA
ATOM     42  C   UNL A   1      39.584  29.807  29.309  1.00  0.00     0.031 C 
ATOM     43  C   UNL A   1      43.371  27.673  31.845  1.00  0.00     0.029 A 
ATOM     44  N   UNL A   1      42.182  29.255  32.890  1.00  0.00    -0.354 N 
ATOM     45  C   UNL A   1      38.861  31.207  30.970  1.00  0.00     0.074 A 
ATOM     46  C   UNL A   1      38.702  30.752  29.605  1.00  0.00     0.031 C 
ATOM     47  C   UNL A   1      43.881  27.817  33.081  1.00  0.00     0.029 A 
ATOM     48  C   UNL A   1      43.146  28.864  33.790  1.00  0.00     0.049 A 
ATOM     49  H   UNL A   1      41.504  29.938  33.092  1.00  0.00     0.167 HD
ATOM     50  C   UNL A   1      38.050  32.113  31.566  1.00  0.00     0.031 A 
ATOM     51  C   UNL A   1      43.413  29.307  35.037  1.00  0.00     0.031 A 
ATOM     52  C   UNL A   1      38.214  32.589  32.914  1.00  0.00     0.049 A 
ATOM     53  C   UNL A   1      42.544  30.380  35.649  1.00  0.00     0.074 A 
ATOM     54  C   UNL A   1      37.435  33.503  33.603  1.00  0.00     0.029 A 
ATOM     55  N   UNL A   1      39.225  32.198  33.778  1.00  0.00    -0.354 N 
ATOM     56  N   UNL A   1      41.489  30.976  35.147  1.00  0.00    -0.248 NA
ATOM     57  C   UNL A   1      42.898  30.830  37.004  1.00  0.00     0.031 C 
ATOM     58  C   UNL A   1      38.011  33.712  34.860  1.00  0.00     0.029 A 
ATOM     59  C   UNL A   1      39.107  32.875  34.981  1.00  0.00     0.049 A 
ATOM     60  H   UNL A   1      39.924  31.537  33.568  1.00  0.00     0.167 HD
ATOM     61  C   UNL A   1      41.036  31.845  36.138  1.00  0.00     0.074 A 
ATOM     62  C   UNL A   1      41.916  31.677  37.275  1.00  0.00     0.031 C 
ATOM     63  C   UNL A   1      39.988  32.706  36.109  1.00  0.00     0.031 A 
BRANCH  50  64
ATOM     64  C   UNL A   1      36.910  32.669  30.755  1.00  0.00    -0.014 A 
ATOM     65  C   UNL A   1      35.644  32.058  30.773  1.00  0.00     0.010 A 
ATOM     66  C   UNL A   1      37.086  33.858  30.023  1.00  0.00     0.010 A 
ATOM     67  C   UNL A   1      34.580  32.613  30.057  1.00  0.00     0.020 A 
ATOM     68  C   UNL A   1      36.019  34.432  29.328  1.00  0.00     0.020 A 
ATOM     69  C   UNL A   1      34.773  33.800  29.342  1.00  0.00     0.054 A 
BRANCH  69  70
ATOM     70  S   UNL A   1      33.360  34.525  28.468  1.00  0.00     0.124 S 
ATOM     71  O   UNL A   1      32.500  34.937  29.575  1.00  0.00    -0.237 OA
ATOM     72  O   UNL A   1      33.976  35.613  27.714  1.00  0.00    -0.237 OA
ATOM     73  O   UNL A   1      32.846  33.421  27.661  1.00  0.00    -0.744 OA
ENDBRANCH  69  70
ENDBRANCH  50  64
BRANCH  51  74
ATOM     74  C   UNL A   1      44.574  28.762  35.801  1.00  0.00    -0.014 A 
ATOM     75  C   UNL A   1      44.420  27.671  36.677  1.00  0.00     0.010 A 
ATOM     76  C   UNL A   1      45.836  29.375  35.698  1.00  0.00     0.010 A 
ATOM     77  C   UNL A   1      45.492  27.232  37.462  1.00  0.00     0.020 A 
ATOM     78  C   UNL A   1      46.919  28.916  36.454  1.00  0.00     0.020 A 
ATOM     79  C   UNL A   1      46.735  27.859  37.346  1.00  0.00     0.054 A 
BRANCH  79  80
ATOM     80  S   UNL A   1      48.118  27.263  38.358  1.00  0.00     0.124 S 
ATOM     81  O   UNL A   1      49.104  28.323  38.179  1.00  0.00    -0.237 OA
ATOM     82  O   UNL A   1      47.519  27.170  39.686  1.00  0.00    -0.237 OA
ATOM     83  O   UNL A   1      48.459  25.980  37.746  1.00  0.00    -0.744 OA
ENDBRANCH  79  80
ENDBRANCH  51  74
BRANCH  63  84
ATOM     84  C   UNL A   1      39.708  33.510  37.356  1.00  0.00    -0.014 A 
ATOM     85  C   UNL A   1      40.259  34.790  37.544  1.00  0.00     0.010 A 
ATOM     86  C   UNL A   1      38.854  32.985  38.345  1.00  0.00     0.010 A 
ATOM     87  C   UNL A   1      40.003  35.508  38.717  1.00  0.00     0.020 A 
ATOM     88  C   UNL A   1      38.567  33.715  39.503  1.00  0.00     0.020 A 
ATOM     89  C   UNL A   1      39.162  34.963  39.692  1.00  0.00     0.054 A 
BRANCH  89  90
ATOM     90  S   UNL A   1      38.836  35.920  41.197  1.00  0.00     0.124 S 
ATOM     91  O   UNL A   1      38.667  37.271  40.668  1.00  0.00    -0.237 OA
ATOM     92  O   UNL A   1      37.625  35.293  41.719  1.00  0.00    -0.237 OA
ATOM     93  O   UNL A   1      40.035  35.715  42.006  1.00  0.00    -0.744 OA
ENDBRANCH  89  90
ENDBRANCH  63  84
ENDBRANCH  37  38
ENDBRANCH  30  32
ENDBRANCH  29  30
ENDBRANCH  28  29
ENDBRANCH   1  28
TORSDOF 18
ENDMDL
MODEL 3
REMARK VINA RESULT:      -9.1      5.088      6.828
REMARK SMILES O=C(COc1cccc(/C=C2\SC(=O)N(c3cccc(Cl)c3)C2=O)c1)OCCOC(=O)c1ccc(-c2c3nc(c(-c4ccc(S(=O)(=O)[O-])cc4)c4ccc([nH]4)c(-c4ccc(S(=O)(=O)[O-])cc4)c4nc(c(-c5ccc(S(=O)(=O)[O-])cc5)c5ccc2[nH]5)C=C4)C=C3)cc1
REMARK SMILES IDX 27 1 26 2 2 3 1 4 3 5 4 6 5 7 6 8 25 9 7 10 9 11 8 12 10 13
REMARK SMILES IDX 11 14 12 15 23 16 13 17 15 18 24 19 14 20 16 21 17 22 22 23
REMARK SMILES IDX 18 24 20 25 19 26 21 27 28 28 29 29 30 30 31 31 32 32 33 33
REMARK SMILES IDX 91 34 34 35 90 36 35 37 36 38 37 39 84 40 38 41 89 42 83 43
REMARK SMILES IDX 85 44 39 45 88 46 82 47 81 48 40 50 70 51 51 52 69 53 52 54
REMARK SMILES IDX 55 55 68 56 86 57 53 58 54 59 67 61 87 62 56 63 41 64 42 65
REMARK SMILES IDX 50 66 43 67 49 68 44 69 45 70 46 71 47 72 48 73 71 74 72 75
REMARK SMILES IDX 80 76 73 77 79 78 74 79 75 80 76 81 77 82 78 83 57 84 58 85
REMARK SMILES IDX 66 86 59 87 65 88 60 89 61 90 62 91 63 92 64 93
REMARK H PARENT 85 49 55 60
REMARK Flexibility Score: inf
ROOT
ATOM      1  C   UNL A   1      33.295  35.888  28.826  1.00  0.00     0.274 C 
ENDROOT
BRANCH   1   2
ATOM      2  O   UNL A   1      32.443  36.215  29.938  1.00  0.00    -0.460 OA
BRANCH   2   3
ATOM      3  C   UNL A   1      32.903  36.762  31.088  1.00  0.00     0.344 C 
ATOM      4  O   UNL A   1      32.992  37.985  31.186  1.00  0.00    -0.248 OA
BRANCH   3   5
ATOM      5  C   UNL A   1      33.223  35.842  32.278  1.00  0.00     0.351 C 
BRANCH   5   6
ATOM      6  O   UNL A   1      34.506  35.897  32.887  1.00  0.00    -0.482 OA
BRANCH   6   7
ATOM      7  C   UNL A   1      35.162  34.698  32.859  1.00  0.00     0.120 A 
ATOM      8  C   UNL A   1      34.445  33.547  32.567  1.00  0.00     0.046 A 
ATOM      9  C   UNL A   1      36.502  34.596  33.197  1.00  0.00     0.054 A 
ATOM     10  C   UNL A   1      35.097  32.308  32.575  1.00  0.00     0.004 A 
ATOM     11  C   UNL A   1      37.157  33.365  33.266  1.00  0.00    -0.021 A 
ATOM     12  C   UNL A   1      36.453  32.215  32.920  1.00  0.00     0.008 A 
BRANCH  11  13
ATOM     13  C   UNL A   1      38.570  33.381  33.668  1.00  0.00     0.029 C 
ATOM     14  C   UNL A   1      38.991  33.187  34.929  1.00  0.00     0.083 C 
ATOM     15  S   UNL A   1      38.053  32.659  36.278  1.00  0.00    -0.022 SA
ATOM     16  C   UNL A   1      40.397  33.429  35.352  1.00  0.00     0.272 C 
ATOM     17  C   UNL A   1      39.404  32.754  37.378  1.00  0.00     0.298 C 
ATOM     18  N   UNL A   1      40.540  33.139  36.703  1.00  0.00    -0.236 N 
ATOM     19  O   UNL A   1      41.269  33.778  34.567  1.00  0.00    -0.268 OA
ATOM     20  O   UNL A   1      39.268  32.519  38.572  1.00  0.00    -0.260 OA
BRANCH  18  21
ATOM     21  C   UNL A   1      41.807  33.161  37.342  1.00  0.00     0.054 A 
ATOM     22  C   UNL A   1      42.361  34.355  37.821  1.00  0.00     0.027 A 
ATOM     23  C   UNL A   1      42.553  31.977  37.440  1.00  0.00     0.047 A 
ATOM     24  C   UNL A   1      43.639  34.367  38.383  1.00  0.00     0.004 A 
ATOM     25  C   UNL A   1      43.845  32.005  37.959  1.00  0.00     0.043 A 
ATOM     26  C   UNL A   1      44.390  33.193  38.436  1.00  0.00     0.020 A 
ATOM     27  Cl  UNL A   1      44.787  30.564  37.967  1.00  0.00    -0.084 Cl
ENDBRANCH  18  21
ENDBRANCH  11  13
ENDBRANCH   6   7
ENDBRANCH   5   6
ENDBRANCH   3   5
ENDBRANCH   2   3
ENDBRANCH   1   2
BRANCH   1  28
ATOM     28  C   UNL A   1      33.055  34.449  28.359  1.00  0.00     0.275 C 
BRANCH  28  29
ATOM     29  O   UNL A   1      33.818  33.525  29.160  1.00  0.00    -0.458 OA
BRANCH  29  30
ATOM     30  C   UNL A   1      34.582  32.625  28.481  1.00  0.00     0.338 C 
ATOM     31  O   UNL A   1      34.236  31.959  27.523  1.00  0.00    -0.246 OA
BRANCH  30  32
ATOM     32  C   UNL A   1      35.986  32.755  28.945  1.00  0.00     0.060 A 
ATOM     33  C   UNL A   1      36.822  31.634  28.864  1.00  0.00     0.016 A 
ATOM     34  C   UNL A   1      36.499  33.976  29.395  1.00  0.00     0.016 A 
ATOM     35  C   UNL A   1      38.166  31.728  29.241  1.00  0.00     0.010 A 
ATOM     36  C   UNL A   1      37.841  34.064  29.786  1.00  0.00     0.010 A 
ATOM     37  C   UNL A   1      38.680  32.937  29.731  1.00  0.00    -0.014 A 
BRANCH  37  38
ATOM     38  C   UNL A   1      40.044  32.980  30.321  1.00  0.00     0.031 A 
ATOM     39  C   UNL A   1      40.972  34.098  29.918  1.00  0.00     0.074 A 
ATOM     40  C   UNL A   1      40.453  32.066  31.221  1.00  0.00     0.049 A 
ATOM     41  N   UNL A   1      42.195  34.343  30.316  1.00  0.00    -0.248 NA
ATOM     42  C   UNL A   1      40.452  35.066  28.939  1.00  0.00     0.031 C 
ATOM     43  C   UNL A   1      39.653  30.948  31.720  1.00  0.00     0.029 A 
ATOM     44  N   UNL A   1      41.655  31.936  31.877  1.00  0.00    -0.354 N 
ATOM     45  C   UNL A   1      42.586  35.497  29.647  1.00  0.00     0.074 A 
ATOM     46  C   UNL A   1      41.489  35.878  28.783  1.00  0.00     0.031 C 
ATOM     47  C   UNL A   1      40.387  30.245  32.602  1.00  0.00     0.029 A 
ATOM     48  C   UNL A   1      41.716  30.845  32.714  1.00  0.00     0.049 A 
ATOM     49  H   UNL A   1      42.402  32.565  31.760  1.00  0.00     0.167 HD
ATOM     50  C   UNL A   1      43.744  36.192  29.752  1.00  0.00     0.031 A 
ATOM     51  C   UNL A   1      42.729  30.377  33.473  1.00  0.00     0.031 A 
ATOM     52  C   UNL A   1      44.849  35.809  30.590  1.00  0.00     0.049 A 
ATOM     53  C   UNL A   1      44.042  31.124  33.507  1.00  0.00     0.074 A 
ATOM     54  C   UNL A   1      46.060  36.457  30.763  1.00  0.00     0.029 A 
ATOM     55  N   UNL A   1      44.886  34.677  31.390  1.00  0.00    -0.354 N 
ATOM     56  N   UNL A   1      44.375  32.239  32.901  1.00  0.00    -0.248 NA
ATOM     57  C   UNL A   1      45.110  30.553  34.341  1.00  0.00     0.031 C 
ATOM     58  C   UNL A   1      46.853  35.685  31.618  1.00  0.00     0.029 A 
ATOM     59  C   UNL A   1      46.109  34.594  32.034  1.00  0.00     0.049 A 
ATOM     60  H   UNL A   1      44.152  34.030  31.486  1.00  0.00     0.167 HD
ATOM     61  C   UNL A   1      45.679  32.517  33.308  1.00  0.00     0.074 A 
ATOM     62  C   UNL A   1      46.062  31.469  34.230  1.00  0.00     0.031 C 
ATOM     63  C   UNL A   1      46.487  33.547  32.949  1.00  0.00     0.031 A 
BRANCH  50  64
ATOM     64  C   UNL A   1      43.886  37.440  28.922  1.00  0.00    -0.014 A 
ATOM     65  C   UNL A   1      44.397  37.384  27.613  1.00  0.00     0.010 A 
ATOM     66  C   UNL A   1      43.436  38.673  29.430  1.00  0.00     0.010 A 
ATOM     67  C   UNL A   1      44.475  38.542  26.834  1.00  0.00     0.020 A 
ATOM     68  C   UNL A   1      43.486  39.828  28.645  1.00  0.00     0.020 A 
ATOM     69  C   UNL A   1      44.015  39.756  27.354  1.00  0.00     0.054 A 
BRANCH  69  70
ATOM     70  S   UNL A   1      44.079  41.231  26.300  1.00  0.00     0.124 S 
ATOM     71  O   UNL A   1      42.672  41.407  25.943  1.00  0.00    -0.237 OA
ATOM     72  O   UNL A   1      44.630  42.241  27.198  1.00  0.00    -0.237 OA
ATOM     73  O   UNL A   1      44.953  40.833  25.199  1.00  0.00    -0.744 OA
ENDBRANCH  69  70
ENDBRANCH  50  64
BRANCH  51  74
ATOM     74  C   UNL A   1      42.569  29.115  34.255  1.00  0.00    -0.014 A 
ATOM     75  C   UNL A   1      42.842  27.863  33.676  1.00  0.00     0.010 A 
ATOM     76  C   UNL A   1      42.083  29.162  35.574  1.00  0.00     0.010 A 
ATOM     77  C   UNL A   1      42.595  26.682  34.385  1.00  0.00     0.020 A 
ATOM     78  C   UNL A   1      41.869  27.985  36.299  1.00  0.00     0.020 A 
ATOM     79  C   UNL A   1      42.108  26.751  35.693  1.00  0.00     0.054 A 
BRANCH  79  80
ATOM     80  S   UNL A   1      41.812  25.210  36.604  1.00  0.00     0.124 S 
ATOM     81  O   UNL A   1      40.520  25.470  37.228  1.00  0.00    -0.237 OA
ATOM     82  O   UNL A   1      41.813  24.210  35.539  1.00  0.00    -0.237 OA
ATOM     83  O   UNL A   1      42.947  25.133  37.520  1.00  0.00    -0.744 OA
ENDBRANCH  79  80
ENDBRANCH  51  74
BRANCH  63  84
ATOM     84  C   UNL A   1      47.856  33.614  33.582  1.00  0.00    -0.014 A 
ATOM     85  C   UNL A   1      48.975  33.016  32.976  1.00  0.00     0.010 A 
ATOM     86  C   UNL A   1      48.030  34.314  34.791  1.00  0.00     0.010 A 
ATOM     87  C   UNL A   1      50.231  33.073  33.591  1.00  0.00     0.020 A 
ATOM     88  C   UNL A   1      49.290  34.404  35.390  1.00  0.00     0.020 A 
ATOM     89  C   UNL A   1      50.379  33.763  34.797  1.00  0.00     0.054 A 
BRANCH  89  90
ATOM     90  S   UNL A   1      52.020  33.834  35.566  1.00  0.00     0.124 S 
ATOM     91  O   UNL A   1      52.766  34.654  34.616  1.00  0.00    -0.237 OA
ATOM     92  O   UNL A   1      51.742  34.461  36.856  1.00  0.00    -0.237 OA
ATOM     93  O   UNL A   1      52.431  32.433  35.637  1.00  0.00    -0.744 OA
ENDBRANCH  89  90
ENDBRANCH  63  84
ENDBRANCH  37  38
ENDBRANCH  30  32
ENDBRANCH  29  30
ENDBRANCH  28  29
ENDBRANCH   1  28
TORSDOF 18
ENDMDL
