MODEL 1
REMARK VINA RESULT:     -10.6      0.000      0.000
REMARK SMILES C=CC[N@@H+]1C[C@@H](C(=O)OCCOC(=O)c2ccc(-c3c4nc(c(-c5ccc(S(=O)(=O)[O-])cc5)c5ccc([nH]5)c(-c5ccc(S(=O)(=O)[O-])cc5)c5nc(c(-c6ccc(S(=O)(=O)[O-])cc6)c6ccc3[nH]6)C=C5)C=C4)cc2)C2(CC[NH+](C)CC2)C1
REMARK SMILES IDX 11 1 10 2 9 3 7 4 8 5 6 6 4 7 5 8 82 9 75 11 76 12 81 13
REMARK SMILES IDX 77 14 80 15 78 16 79 17 3 19 2 20 1 21 12 22 13 23 14 24
REMARK SMILES IDX 15 25 16 26 74 27 17 28 73 29 18 30 19 31 20 32 67 33 21 34
REMARK SMILES IDX 72 35 66 36 68 37 22 38 71 39 65 40 64 41 23 43 53 44 34 45
REMARK SMILES IDX 52 46 35 47 38 48 51 49 69 50 36 51 37 52 50 54 70 55 39 56
REMARK SMILES IDX 24 57 25 58 33 59 26 60 32 61 27 62 28 63 29 64 30 65 31 66
REMARK SMILES IDX 54 67 55 68 63 69 56 70 62 71 57 72 58 73 59 74 60 75 61 76
REMARK SMILES IDX 40 77 41 78 49 79 42 80 48 81 43 82 44 83 45 84 46 85 47 86
REMARK H PARENT 4 10 78 18 68 42 38 53
REMARK Flexibility Score: inf
ROOT
ATOM      1  C   UNL A   1      38.131  23.142  25.804  1.00  0.00     0.275 C 
ENDROOT
BRANCH   1   2
ATOM      2  C   UNL A   1      36.617  23.304  25.670  1.00  0.00     0.274 C 
BRANCH   2   3
ATOM      3  O   UNL A   1      36.110  22.534  24.562  1.00  0.00    -0.462 OA
BRANCH   3   4
ATOM      4  C   UNL A   1      35.523  21.366  24.911  1.00  0.00     0.315 C 
ATOM      5  O   UNL A   1      36.099  20.279  24.901  1.00  0.00    -0.252 OA
BRANCH   4   6
ATOM      6  C   UNL A   1      34.065  21.461  25.316  1.00  0.00     0.166 C 
ATOM      7  N   UNL A   1      33.199  19.297  24.980  1.00  0.00    -0.330 N 
ATOM      8  C   UNL A   1      33.756  20.143  26.033  1.00  0.00     0.278 C 
ATOM      9  C   UNL A   1      32.593  20.126  23.946  1.00  0.00     0.271 C 
ATOM     10  H   UNL A   1      33.932  18.810  24.466  1.00  0.00     0.348 HD
ATOM     11  C   UNL A   1      32.887  21.594  24.320  1.00  0.00     0.049 C 
ATOM     12  C   UNL A   1      33.073  22.452  23.051  1.00  0.00     0.075 C 
ATOM     13  C   UNL A   1      31.643  22.177  25.076  1.00  0.00     0.075 C 
ATOM     14  C   UNL A   1      33.107  23.955  23.330  1.00  0.00     0.262 C 
ATOM     15  C   UNL A   1      31.724  23.692  25.298  1.00  0.00     0.262 C 
ATOM     16  N   UNL A   1      31.943  24.451  24.067  1.00  0.00    -0.337 N 
ATOM     17  C   UNL A   1      30.743  24.533  23.239  1.00  0.00     0.332 C 
ATOM     18  H   UNL A   1      32.156  25.410  24.342  1.00  0.00     0.347 HD
BRANCH   7  19
ATOM     19  C   UNL A   1      32.521  18.109  25.476  1.00  0.00     0.290 C 
BRANCH  19  20
ATOM     20  C   UNL A   1      33.223  16.800  25.257  1.00  0.00     0.025 C 
ATOM     21  C   UNL A   1      33.589  16.306  24.068  1.00  0.00     0.010 C 
ENDBRANCH  19  20
ENDBRANCH   7  19
ENDBRANCH   4   6
ENDBRANCH   3   4
ENDBRANCH   2   3
ENDBRANCH   1   2
BRANCH   1  22
ATOM     22  O   UNL A   1      38.601  23.810  26.987  1.00  0.00    -0.458 OA
BRANCH  22  23
ATOM     23  C   UNL A   1      39.825  24.381  26.892  1.00  0.00     0.338 C 
ATOM     24  O   UNL A   1      40.744  24.008  26.183  1.00  0.00    -0.246 OA
BRANCH  23  25
ATOM     25  C   UNL A   1      39.923  25.563  27.780  1.00  0.00     0.060 A 
ATOM     26  C   UNL A   1      40.866  26.573  27.564  1.00  0.00     0.016 A 
ATOM     27  C   UNL A   1      39.107  25.611  28.912  1.00  0.00     0.016 A 
ATOM     28  C   UNL A   1      41.029  27.597  28.499  1.00  0.00     0.010 A 
ATOM     29  C   UNL A   1      39.215  26.680  29.805  1.00  0.00     0.010 A 
ATOM     30  C   UNL A   1      40.186  27.678  29.617  1.00  0.00    -0.014 A 
BRANCH  30  31
ATOM     31  C   UNL A   1      40.277  28.810  30.579  1.00  0.00     0.031 A 
ATOM     32  C   UNL A   1      41.269  28.774  31.711  1.00  0.00     0.074 A 
ATOM     33  C   UNL A   1      39.418  29.845  30.481  1.00  0.00     0.049 A 
ATOM     34  N   UNL A   1      41.340  29.541  32.770  1.00  0.00    -0.248 NA
ATOM     35  C   UNL A   1      42.306  27.731  31.651  1.00  0.00     0.031 C 
ATOM     36  C   UNL A   1      38.422  30.025  29.423  1.00  0.00     0.029 A 
ATOM     37  N   UNL A   1      39.233  30.932  31.299  1.00  0.00    -0.354 N 
ATOM     38  C   UNL A   1      42.394  29.044  33.528  1.00  0.00     0.074 A 
ATOM     39  C   UNL A   1      42.935  27.911  32.806  1.00  0.00     0.031 C 
ATOM     40  C   UNL A   1      37.738  31.157  29.649  1.00  0.00     0.029 A 
ATOM     41  C   UNL A   1      38.193  31.742  30.906  1.00  0.00     0.049 A 
ATOM     42  H   UNL A   1      39.790  31.114  32.090  1.00  0.00     0.167 HD
ATOM     43  C   UNL A   1      42.862  29.488  34.720  1.00  0.00     0.031 A 
ATOM     44  C   UNL A   1      37.631  32.808  31.506  1.00  0.00     0.031 A 
ATOM     45  C   UNL A   1      42.342  30.632  35.424  1.00  0.00     0.049 A 
ATOM     46  C   UNL A   1      38.145  33.264  32.839  1.00  0.00     0.074 A 
ATOM     47  C   UNL A   1      42.769  31.170  36.627  1.00  0.00     0.029 A 
ATOM     48  N   UNL A   1      41.288  31.419  34.988  1.00  0.00    -0.354 N 
ATOM     49  N   UNL A   1      39.118  32.762  33.559  1.00  0.00    -0.248 NA
ATOM     50  C   UNL A   1      37.476  34.423  33.446  1.00  0.00     0.031 C 
ATOM     51  C   UNL A   1      41.951  32.263  36.934  1.00  0.00     0.029 A 
ATOM     52  C   UNL A   1      41.042  32.430  35.902  1.00  0.00     0.049 A 
ATOM     53  H   UNL A   1      40.788  31.280  34.152  1.00  0.00     0.167 HD
ATOM     54  C   UNL A   1      39.186  33.550  34.702  1.00  0.00     0.074 A 
ATOM     55  C   UNL A   1      38.166  34.571  34.569  1.00  0.00     0.031 C 
ATOM     56  C   UNL A   1      40.019  33.435  35.764  1.00  0.00     0.031 A 
BRANCH  43  57
ATOM     57  C   UNL A   1      43.977  28.708  35.365  1.00  0.00    -0.014 A 
ATOM     58  C   UNL A   1      45.325  29.030  35.133  1.00  0.00     0.010 A 
ATOM     59  C   UNL A   1      43.665  27.662  36.255  1.00  0.00     0.010 A 
ATOM     60  C   UNL A   1      46.342  28.299  35.752  1.00  0.00     0.020 A 
ATOM     61  C   UNL A   1      44.679  26.943  36.892  1.00  0.00     0.020 A 
ATOM     62  C   UNL A   1      46.013  27.255  36.623  1.00  0.00     0.054 A 
BRANCH  62  63
ATOM     63  S   UNL A   1      47.350  26.333  37.433  1.00  0.00     0.124 S 
ATOM     64  O   UNL A   1      46.834  26.188  38.792  1.00  0.00    -0.237 OA
ATOM     65  O   UNL A   1      47.415  25.100  36.652  1.00  0.00    -0.237 OA
ATOM     66  O   UNL A   1      48.509  27.213  37.297  1.00  0.00    -0.744 OA
ENDBRANCH  62  63
ENDBRANCH  43  57
BRANCH  44  67
ATOM     67  C   UNL A   1      36.481  33.488  30.853  1.00  0.00    -0.014 A 
ATOM     68  C   UNL A   1      35.244  33.581  31.511  1.00  0.00     0.010 A 
ATOM     69  C   UNL A   1      36.638  34.091  29.591  1.00  0.00     0.010 A 
ATOM     70  C   UNL A   1      34.182  34.270  30.920  1.00  0.00     0.020 A 
ATOM     71  C   UNL A   1      35.585  34.800  29.008  1.00  0.00     0.020 A 
ATOM     72  C   UNL A   1      34.360  34.879  29.674  1.00  0.00     0.054 A 
BRANCH  72  73
ATOM     73  S   UNL A   1      33.000  35.847  28.963  1.00  0.00     0.124 S 
ATOM     74  O   UNL A   1      32.345  34.862  28.107  1.00  0.00    -0.237 OA
ATOM     75  O   UNL A   1      32.247  36.258  30.145  1.00  0.00    -0.237 OA
ATOM     76  O   UNL A   1      33.685  36.931  28.263  1.00  0.00    -0.744 OA
ENDBRANCH  72  73
ENDBRANCH  44  67
BRANCH  56  77
ATOM     77  C   UNL A   1      39.880  34.458  36.856  1.00  0.00    -0.014 A 
ATOM     78  C   UNL A   1      40.636  35.644  36.839  1.00  0.00     0.010 A 
ATOM     79  C   UNL A   1      38.954  34.247  37.893  1.00  0.00     0.010 A 
ATOM     80  C   UNL A   1      40.489  36.588  37.858  1.00  0.00     0.020 A 
ATOM     81  C   UNL A   1      38.791  35.198  38.904  1.00  0.00     0.020 A 
ATOM     82  C   UNL A   1      39.571  36.357  38.888  1.00  0.00     0.054 A 
BRANCH  82  83
ATOM     83  S   UNL A   1      39.369  37.609  40.184  1.00  0.00     0.124 S 
ATOM     84  O   UNL A   1      40.673  38.268  40.176  1.00  0.00    -0.237 OA
ATOM     85  O   UNL A   1      38.255  38.415  39.686  1.00  0.00    -0.237 OA
ATOM     86  O   UNL A   1      39.074  36.824  41.380  1.00  0.00    -0.744 OA
ENDBRANCH  82  83
ENDBRANCH  56  77
ENDBRANCH  30  31
ENDBRANCH  23  25
ENDBRANCH  22  23
ENDBRANCH   1  22
TORSDOF 16
ENDMDL
MODEL 2
REMARK VINA RESULT:     -10.5      5.070     10.726
REMARK SMILES C=CC[N@@H+]1C[C@@H](C(=O)OCCOC(=O)c2ccc(-c3c4nc(c(-c5ccc(S(=O)(=O)[O-])cc5)c5ccc([nH]5)c(-c5ccc(S(=O)(=O)[O-])cc5)c5nc(c(-c6ccc(S(=O)(=O)[O-])cc6)c6ccc3[nH]6)C=C5)C=C4)cc2)C2(CC[NH+](C)CC2)C1
REMARK SMILES IDX 11 1 10 2 9 3 7 4 8 5 6 6 4 7 5 8 82 9 75 11 76 12 81 13
REMARK SMILES IDX 77 14 80 15 78 16 79 17 3 19 2 20 1 21 12 22 13 23 14 24
REMARK SMILES IDX 15 25 16 26 74 27 17 28 73 29 18 30 19 31 20 32 67 33 21 34
REMARK SMILES IDX 72 35 66 36 68 37 22 38 71 39 65 40 64 41 23 43 53 44 34 45
REMARK SMILES IDX 52 46 35 47 38 48 51 49 69 50 36 51 37 52 50 54 70 55 39 56
REMARK SMILES IDX 24 57 25 58 33 59 26 60 32 61 27 62 28 63 29 64 30 65 31 66
REMARK SMILES IDX 54 67 55 68 63 69 56 70 62 71 57 72 58 73 59 74 60 75 61 76
REMARK SMILES IDX 40 77 41 78 49 79 42 80 48 81 43 82 44 83 45 84 46 85 47 86
REMARK H PARENT 4 10 78 18 68 42 38 53
REMARK Flexibility Score: inf
ROOT
ATOM      1  C   UNL A   1      32.397  29.588  26.902  1.00  0.00     0.275 C 
ENDROOT
BRANCH   1   2
ATOM      2  C   UNL A   1      31.622  28.271  26.852  1.00  0.00     0.274 C 
BRANCH   2   3
ATOM      3  O   UNL A   1      32.497  27.146  27.073  1.00  0.00    -0.462 OA
BRANCH   3   4
ATOM      4  C   UNL A   1      32.339  26.131  26.193  1.00  0.00     0.315 C 
ATOM      5  O   UNL A   1      31.278  25.534  26.018  1.00  0.00    -0.252 OA
BRANCH   4   6
ATOM      6  C   UNL A   1      33.580  25.740  25.415  1.00  0.00     0.166 C 
ATOM      7  N   UNL A   1      32.943  25.869  23.151  1.00  0.00    -0.330 N 
ATOM      8  C   UNL A   1      33.598  26.660  24.190  1.00  0.00     0.278 C 
ATOM      9  C   UNL A   1      33.108  24.448  23.431  1.00  0.00     0.271 C 
ATOM     10  H   UNL A   1      31.930  25.979  23.181  1.00  0.00     0.348 HD
ATOM     11  C   UNL A   1      33.820  24.341  24.796  1.00  0.00     0.049 C 
ATOM     12  C   UNL A   1      33.340  23.091  25.563  1.00  0.00     0.075 C 
ATOM     13  C   UNL A   1      35.356  24.150  24.546  1.00  0.00     0.075 C 
ATOM     14  C   UNL A   1      34.181  22.773  26.799  1.00  0.00     0.262 C 
ATOM     15  C   UNL A   1      36.139  23.804  25.819  1.00  0.00     0.262 C 
ATOM     16  N   UNL A   1      35.613  22.637  26.527  1.00  0.00    -0.337 N 
ATOM     17  C   UNL A   1      35.944  21.381  25.858  1.00  0.00     0.332 C 
ATOM     18  H   UNL A   1      36.083  22.600  27.432  1.00  0.00     0.347 HD
BRANCH   7  19
ATOM     19  C   UNL A   1      33.132  26.391  21.807  1.00  0.00     0.290 C 
BRANCH  19  20
ATOM     20  C   UNL A   1      32.206  25.862  20.750  1.00  0.00     0.025 C 
ATOM     21  C   UNL A   1      32.586  25.330  19.581  1.00  0.00     0.010 C 
ENDBRANCH  19  20
ENDBRANCH   7  19
ENDBRANCH   4   6
ENDBRANCH   3   4
ENDBRANCH   2   3
ENDBRANCH   1   2
BRANCH   1  22
ATOM     22  O   UNL A   1      33.720  29.368  27.423  1.00  0.00    -0.458 OA
BRANCH  22  23
ATOM     23  C   UNL A   1      34.324  30.451  27.966  1.00  0.00     0.338 C 
ATOM     24  O   UNL A   1      33.800  31.525  28.211  1.00  0.00    -0.246 OA
BRANCH  23  25
ATOM     25  C   UNL A   1      35.752  30.170  28.244  1.00  0.00     0.060 A 
ATOM     26  C   UNL A   1      36.733  30.284  27.253  1.00  0.00     0.016 A 
ATOM     27  C   UNL A   1      36.100  29.691  29.508  1.00  0.00     0.016 A 
ATOM     28  C   UNL A   1      38.043  29.874  27.508  1.00  0.00     0.010 A 
ATOM     29  C   UNL A   1      37.428  29.358  29.786  1.00  0.00     0.010 A 
ATOM     30  C   UNL A   1      38.412  29.432  28.786  1.00  0.00    -0.014 A 
BRANCH  30  31
ATOM     31  C   UNL A   1      39.821  29.077  29.109  1.00  0.00     0.031 A 
ATOM     32  C   UNL A   1      40.762  30.111  29.668  1.00  0.00     0.074 A 
ATOM     33  C   UNL A   1      40.282  27.840  28.831  1.00  0.00     0.049 A 
ATOM     34  N   UNL A   1      42.065  30.059  29.792  1.00  0.00    -0.248 NA
ATOM     35  C   UNL A   1      40.161  31.371  30.136  1.00  0.00     0.031 C 
ATOM     36  C   UNL A   1      39.479  26.732  28.311  1.00  0.00     0.029 A 
ATOM     37  N   UNL A   1      41.546  27.316  28.931  1.00  0.00    -0.354 N 
ATOM     38  C   UNL A   1      42.447  31.295  30.302  1.00  0.00     0.074 A 
ATOM     39  C   UNL A   1      41.237  32.074  30.468  1.00  0.00     0.031 C 
ATOM     40  C   UNL A   1      40.265  25.657  28.146  1.00  0.00     0.029 A 
ATOM     41  C   UNL A   1      41.639  26.021  28.475  1.00  0.00     0.049 A 
ATOM     42  H   UNL A   1      42.312  27.817  29.292  1.00  0.00     0.167 HD
ATOM     43  C   UNL A   1      43.692  31.741  30.598  1.00  0.00     0.031 A 
ATOM     44  C   UNL A   1      42.710  25.226  28.292  1.00  0.00     0.031 A 
ATOM     45  C   UNL A   1      44.892  30.955  30.460  1.00  0.00     0.049 A 
ATOM     46  C   UNL A   1      44.082  25.749  28.598  1.00  0.00     0.074 A 
ATOM     47  C   UNL A   1      46.195  31.315  30.758  1.00  0.00     0.029 A 
ATOM     48  N   UNL A   1      44.936  29.651  29.993  1.00  0.00    -0.354 N 
ATOM     49  N   UNL A   1      44.428  26.931  29.046  1.00  0.00    -0.248 NA
ATOM     50  C   UNL A   1      45.207  24.834  28.362  1.00  0.00     0.031 C 
ATOM     51  C   UNL A   1      47.032  30.240  30.439  1.00  0.00     0.029 A 
ATOM     52  C   UNL A   1      46.244  29.196  29.982  1.00  0.00     0.049 A 
ATOM     53  H   UNL A   1      44.153  29.126  29.710  1.00  0.00     0.167 HD
ATOM     54  C   UNL A   1      45.814  26.900  29.155  1.00  0.00     0.074 A 
ATOM     55  C   UNL A   1      46.238  25.578  28.741  1.00  0.00     0.031 C 
ATOM     56  C   UNL A   1      46.656  27.881  29.561  1.00  0.00     0.031 A 
BRANCH  43  57
ATOM     57  C   UNL A   1      43.829  33.164  31.069  1.00  0.00    -0.014 A 
ATOM     58  C   UNL A   1      43.703  33.501  32.427  1.00  0.00     0.010 A 
ATOM     59  C   UNL A   1      44.135  34.174  30.137  1.00  0.00     0.010 A 
ATOM     60  C   UNL A   1      43.846  34.828  32.841  1.00  0.00     0.020 A 
ATOM     61  C   UNL A   1      44.300  35.498  30.550  1.00  0.00     0.020 A 
ATOM     62  C   UNL A   1      44.137  35.820  31.899  1.00  0.00     0.054 A 
BRANCH  62  63
ATOM     63  S   UNL A   1      44.341  37.534  32.462  1.00  0.00     0.124 S 
ATOM     64  O   UNL A   1      45.790  37.626  32.623  1.00  0.00    -0.237 OA
ATOM     65  O   UNL A   1      43.782  38.307  31.356  1.00  0.00    -0.237 OA
ATOM     66  O   UNL A   1      43.571  37.583  33.703  1.00  0.00    -0.744 OA
ENDBRANCH  62  63
ENDBRANCH  43  57
BRANCH  44  67
ATOM     67  C   UNL A   1      42.514  23.855  27.751  1.00  0.00    -0.014 A 
ATOM     68  C   UNL A   1      42.637  23.611  26.374  1.00  0.00     0.010 A 
ATOM     69  C   UNL A   1      42.255  22.779  28.622  1.00  0.00     0.010 A 
ATOM     70  C   UNL A   1      42.508  22.312  25.874  1.00  0.00     0.020 A 
ATOM     71  C   UNL A   1      42.149  21.478  28.128  1.00  0.00     0.020 A 
ATOM     72  C   UNL A   1      42.270  21.253  26.755  1.00  0.00     0.054 A 
BRANCH  72  73
ATOM     73  S   UNL A   1      42.198  19.562  26.100  1.00  0.00     0.124 S 
ATOM     74  O   UNL A   1      43.108  19.639  24.961  1.00  0.00    -0.237 OA
ATOM     75  O   UNL A   1      42.663  18.761  27.230  1.00  0.00    -0.237 OA
ATOM     76  O   UNL A   1      40.786  19.389  25.765  1.00  0.00    -0.744 OA
ENDBRANCH  72  73
ENDBRANCH  44  67
BRANCH  56  77
ATOM     77  C   UNL A   1      48.121  27.551  29.603  1.00  0.00    -0.014 A 
ATOM     78  C   UNL A   1      48.945  27.764  28.484  1.00  0.00     0.010 A 
ATOM     79  C   UNL A   1      48.689  27.055  30.790  1.00  0.00     0.010 A 
ATOM     80  C   UNL A   1      50.307  27.459  28.542  1.00  0.00     0.020 A 
ATOM     81  C   UNL A   1      50.054  26.766  30.857  1.00  0.00     0.020 A 
ATOM     82  C   UNL A   1      50.852  26.956  29.727  1.00  0.00     0.054 A 
BRANCH  82  83
ATOM     83  S   UNL A   1      52.629  26.597  29.795  1.00  0.00     0.124 S 
ATOM     84  O   UNL A   1      52.891  26.106  28.445  1.00  0.00    -0.237 OA
ATOM     85  O   UNL A   1      53.212  27.899  30.114  1.00  0.00    -0.237 OA
ATOM     86  O   UNL A   1      52.739  25.598  30.856  1.00  0.00    -0.744 OA
ENDBRANCH  82  83
ENDBRANCH  56  77
ENDBRANCH  30  31
ENDBRANCH  23  25
ENDBRANCH  22  23
ENDBRANCH   1  22
TORSDOF 16
ENDMDL
MODEL 3
REMARK VINA RESULT:     -10.5      5.296     11.020
REMARK SMILES C=CC[N@@H+]1C[C@@H](C(=O)OCCOC(=O)c2ccc(-c3c4nc(c(-c5ccc(S(=O)(=O)[O-])cc5)c5ccc([nH]5)c(-c5ccc(S(=O)(=O)[O-])cc5)c5nc(c(-c6ccc(S(=O)(=O)[O-])cc6)c6ccc3[nH]6)C=C5)C=C4)cc2)C2(CC[NH+](C)CC2)C1
REMARK SMILES IDX 11 1 10 2 9 3 7 4 8 5 6 6 4 7 5 8 82 9 75 11 76 12 81 13
REMARK SMILES IDX 77 14 80 15 78 16 79 17 3 19 2 20 1 21 12 22 13 23 14 24
REMARK SMILES IDX 15 25 16 26 74 27 17 28 73 29 18 30 19 31 20 32 67 33 21 34
REMARK SMILES IDX 72 35 66 36 68 37 22 38 71 39 65 40 64 41 23 43 53 44 34 45
REMARK SMILES IDX 52 46 35 47 38 48 51 49 69 50 36 51 37 52 50 54 70 55 39 56
REMARK SMILES IDX 24 57 25 58 33 59 26 60 32 61 27 62 28 63 29 64 30 65 31 66
REMARK SMILES IDX 54 67 55 68 63 69 56 70 62 71 57 72 58 73 59 74 60 75 61 76
REMARK SMILES IDX 40 77 41 78 49 79 42 80 48 81 43 82 44 83 45 84 46 85 47 86
REMARK H PARENT 4 10 78 18 68 42 38 53
REMARK Flexibility Score: inf
ROOT
ATOM      1  C   UNL A   1      33.660  28.639  26.435  1.00  0.00     0.275 C 
ENDROOT
BRANCH   1   2
ATOM      2  C   UNL A   1      33.199  29.607  25.346  1.00  0.00     0.274 C 
BRANCH   2   3
ATOM      3  O   UNL A   1      32.174  29.012  24.525  1.00  0.00    -0.462 OA
BRANCH   3   4
ATOM      4  C   UNL A   1      32.638  28.318  23.461  1.00  0.00     0.315 C 
ATOM      5  O   UNL A   1      33.662  28.611  22.845  1.00  0.00    -0.252 OA
BRANCH   4   6
ATOM      6  C   UNL A   1      31.800  27.128  23.039  1.00  0.00     0.166 C 
ATOM      7  N   UNL A   1      29.580  27.749  23.520  1.00  0.00    -0.330 N 
ATOM      8  C   UNL A   1      30.535  27.723  22.415  1.00  0.00     0.278 C 
ATOM      9  C   UNL A   1      29.915  26.714  24.490  1.00  0.00     0.271 C 
ATOM     10  H   UNL A   1      29.671  28.601  24.073  1.00  0.00     0.348 HD
ATOM     11  C   UNL A   1      31.234  26.067  24.016  1.00  0.00     0.049 C 
ATOM     12  C   UNL A   1      32.089  25.628  25.222  1.00  0.00     0.075 C 
ATOM     13  C   UNL A   1      30.892  24.765  23.212  1.00  0.00     0.075 C 
ATOM     14  C   UNL A   1      33.280  24.750  24.839  1.00  0.00     0.262 C 
ATOM     15  C   UNL A   1      32.125  23.914  22.884  1.00  0.00     0.262 C 
ATOM     16  N   UNL A   1      32.921  23.563  24.060  1.00  0.00    -0.337 N 
ATOM     17  C   UNL A   1      32.293  22.525  24.872  1.00  0.00     0.332 C 
ATOM     18  H   UNL A   1      33.794  23.159  23.720  1.00  0.00     0.347 HD
BRANCH   7  19
ATOM     19  C   UNL A   1      28.202  27.963  23.104  1.00  0.00     0.290 C 
BRANCH  19  20
ATOM     20  C   UNL A   1      27.772  29.391  22.933  1.00  0.00     0.025 C 
ATOM     21  C   UNL A   1      28.053  30.165  21.878  1.00  0.00     0.010 C 
ENDBRANCH  19  20
ENDBRANCH   7  19
ENDBRANCH   4   6
ENDBRANCH   3   4
ENDBRANCH   2   3
ENDBRANCH   1   2
BRANCH   1  22
ATOM     22  O   UNL A   1      33.524  29.247  27.732  1.00  0.00    -0.458 OA
BRANCH  22  23
ATOM     23  C   UNL A   1      34.300  30.333  27.955  1.00  0.00     0.338 C 
ATOM     24  O   UNL A   1      33.940  31.498  27.922  1.00  0.00    -0.246 OA
BRANCH  23  25
ATOM     25  C   UNL A   1      35.692  29.930  28.260  1.00  0.00     0.060 A 
ATOM     26  C   UNL A   1      36.071  29.487  29.531  1.00  0.00     0.016 A 
ATOM     27  C   UNL A   1      36.662  30.088  27.267  1.00  0.00     0.016 A 
ATOM     28  C   UNL A   1      37.416  29.253  29.825  1.00  0.00     0.010 A 
ATOM     29  C   UNL A   1      37.996  29.775  27.539  1.00  0.00     0.010 A 
ATOM     30  C   UNL A   1      38.391  29.367  28.824  1.00  0.00    -0.014 A 
BRANCH  30  31
ATOM     31  C   UNL A   1      39.817  29.034  29.087  1.00  0.00     0.031 A 
ATOM     32  C   UNL A   1      40.768  30.085  29.597  1.00  0.00     0.074 A 
ATOM     33  C   UNL A   1      40.283  27.801  28.798  1.00  0.00     0.049 A 
ATOM     34  N   UNL A   1      42.075  30.052  29.663  1.00  0.00    -0.248 NA
ATOM     35  C   UNL A   1      40.170  31.340  30.080  1.00  0.00     0.031 C 
ATOM     36  C   UNL A   1      39.473  26.677  28.323  1.00  0.00     0.029 A 
ATOM     37  N   UNL A   1      41.558  27.295  28.847  1.00  0.00    -0.354 N 
ATOM     38  C   UNL A   1      42.461  31.297  30.147  1.00  0.00     0.074 A 
ATOM     39  C   UNL A   1      41.249  32.061  30.359  1.00  0.00     0.031 C 
ATOM     40  C   UNL A   1      40.267  25.612  28.132  1.00  0.00     0.029 A 
ATOM     41  C   UNL A   1      41.649  25.998  28.397  1.00  0.00     0.049 A 
ATOM     42  H   UNL A   1      42.332  27.809  29.171  1.00  0.00     0.167 HD
ATOM     43  C   UNL A   1      43.712  31.762  30.384  1.00  0.00     0.031 A 
ATOM     44  C   UNL A   1      42.722  25.215  28.174  1.00  0.00     0.031 A 
ATOM     45  C   UNL A   1      44.915  30.992  30.200  1.00  0.00     0.049 A 
ATOM     46  C   UNL A   1      44.098  25.760  28.416  1.00  0.00     0.074 A 
ATOM     47  C   UNL A   1      46.226  31.372  30.438  1.00  0.00     0.029 A 
ATOM     48  N   UNL A   1      44.958  29.685  29.741  1.00  0.00    -0.354 N 
ATOM     49  N   UNL A   1      44.447  26.950  28.839  1.00  0.00    -0.248 NA
ATOM     50  C   UNL A   1      45.225  24.859  28.137  1.00  0.00     0.031 C 
ATOM     51  C   UNL A   1      47.063  30.306  30.091  1.00  0.00     0.029 A 
ATOM     52  C   UNL A   1      46.270  29.247  29.677  1.00  0.00     0.049 A 
ATOM     53  H   UNL A   1      44.171  29.147  29.498  1.00  0.00     0.167 HD
ATOM     54  C   UNL A   1      45.836  26.939  28.887  1.00  0.00     0.074 A 
ATOM     55  C   UNL A   1      46.261  25.619  28.465  1.00  0.00     0.031 C 
ATOM     56  C   UNL A   1      46.682  27.935  29.248  1.00  0.00     0.031 A 
BRANCH  43  57
ATOM     57  C   UNL A   1      43.850  33.191  30.838  1.00  0.00    -0.014 A 
ATOM     58  C   UNL A   1      43.975  34.243  29.915  1.00  0.00     0.010 A 
ATOM     59  C   UNL A   1      43.806  33.487  32.213  1.00  0.00     0.010 A 
ATOM     60  C   UNL A   1      44.089  35.563  30.360  1.00  0.00     0.020 A 
ATOM     61  C   UNL A   1      43.899  34.807  32.662  1.00  0.00     0.020 A 
ATOM     62  C   UNL A   1      44.057  35.836  31.732  1.00  0.00     0.054 A 
BRANCH  62  63
ATOM     63  S   UNL A   1      44.185  37.560  32.287  1.00  0.00     0.124 S 
ATOM     64  O   UNL A   1      43.216  37.596  33.379  1.00  0.00    -0.237 OA
ATOM     65  O   UNL A   1      45.586  37.669  32.686  1.00  0.00    -0.237 OA
ATOM     66  O   UNL A   1      43.817  38.332  31.102  1.00  0.00    -0.744 OA
ENDBRANCH  62  63
ENDBRANCH  43  57
BRANCH  44  67
ATOM     67  C   UNL A   1      42.522  23.838  27.653  1.00  0.00    -0.014 A 
ATOM     68  C   UNL A   1      42.604  23.581  26.275  1.00  0.00     0.010 A 
ATOM     69  C   UNL A   1      42.299  22.769  28.541  1.00  0.00     0.010 A 
ATOM     70  C   UNL A   1      42.472  22.276  25.792  1.00  0.00     0.020 A 
ATOM     71  C   UNL A   1      42.189  21.461  28.063  1.00  0.00     0.020 A 
ATOM     72  C   UNL A   1      42.271  21.224  26.689  1.00  0.00     0.054 A 
BRANCH  72  73
ATOM     73  S   UNL A   1      42.193  19.526  26.054  1.00  0.00     0.124 S 
ATOM     74  O   UNL A   1      40.774  19.385  25.741  1.00  0.00    -0.237 OA
ATOM     75  O   UNL A   1      43.093  19.572  24.905  1.00  0.00    -0.237 OA
ATOM     76  O   UNL A   1      42.670  18.722  27.177  1.00  0.00    -0.744 OA
ENDBRANCH  72  73
ENDBRANCH  44  67
BRANCH  56  77
ATOM     77  C   UNL A   1      48.152  27.625  29.229  1.00  0.00    -0.014 A 
ATOM     78  C   UNL A   1      48.927  27.863  28.080  1.00  0.00     0.010 A 
ATOM     79  C   UNL A   1      48.773  27.123  30.386  1.00  0.00     0.010 A 
ATOM     80  C   UNL A   1      50.295  27.577  28.081  1.00  0.00     0.020 A 
ATOM     81  C   UNL A   1      50.143  26.853  30.396  1.00  0.00     0.020 A 
ATOM     82  C   UNL A   1      50.893  27.068  29.238  1.00  0.00     0.054 A 
BRANCH  82  83
ATOM     83  S   UNL A   1      52.676  26.733  29.232  1.00  0.00     0.124 S 
ATOM     84  O   UNL A   1      52.847  25.976  30.469  1.00  0.00    -0.237 OA
ATOM     85  O   UNL A   1      52.859  25.971  27.998  1.00  0.00    -0.237 OA
ATOM     86  O   UNL A   1      53.277  28.065  29.227  1.00  0.00    -0.744 OA
ENDBRANCH  82  83
ENDBRANCH  56  77
ENDBRANCH  30  31
ENDBRANCH  23  25
ENDBRANCH  22  23
ENDBRANCH   1  22
TORSDOF 16
ENDMDL
