MODEL 1
REMARK VINA RESULT:      -9.0      0.000      0.000
REMARK SMILES C[C@H]([NH3+])c1ccc(F)cc1OCC(C)(C)C(=O)OCCOC(=O)c1ccc(-c2c3nc(c(-c4ccc(S(=O)(=O)[O-])cc4)c4ccc([nH]4)c(-c4ccc(S(=O)(=O)[O-])cc4)c4nc(c(-c5ccc(S(=O)(=O)[O-])cc5)c5ccc2[nH]5)C=C4)C=C3)cc1
REMARK SMILES IDX 19 1 18 2 16 3 17 4 13 5 14 6 15 7 12 8 11 9 10 10 4 11 5 12
REMARK SMILES IDX 6 13 9 14 7 15 8 16 2 17 1 18 3 19 20 23 21 24 22 25 23 26
REMARK SMILES IDX 24 27 25 28 83 29 26 30 82 31 27 32 28 33 29 34 76 35 30 36
REMARK SMILES IDX 81 37 75 38 77 39 31 40 80 41 74 42 73 43 32 45 62 46 43 47
REMARK SMILES IDX 61 48 44 49 47 50 60 51 78 52 45 53 46 54 59 56 79 57 48 58
REMARK SMILES IDX 33 59 34 60 42 61 35 62 41 63 36 64 37 65 38 66 39 67 40 68
REMARK SMILES IDX 63 69 64 70 72 71 65 72 71 73 66 74 67 75 68 76 69 77 70 78
REMARK SMILES IDX 49 79 50 80 58 81 51 82 57 83 52 84 53 85 54 86 55 87 56 88
REMARK H PARENT 3 20 3 21 3 22 77 44 47 55
REMARK Flexibility Score: inf
ROOT
ATOM      1  C   UNL A   1      37.676  32.005  35.828  1.00  0.00     0.274 C 
ENDROOT
BRANCH   1   2
ATOM      2  O   UNL A   1      36.648  32.692  35.091  1.00  0.00    -0.462 OA
BRANCH   2   3
ATOM      3  C   UNL A   1      36.996  33.882  34.522  1.00  0.00     0.315 C 
ATOM      4  O   UNL A   1      37.803  34.657  35.016  1.00  0.00    -0.251 OA
BRANCH   3   5
ATOM      5  C   UNL A   1      36.158  34.178  33.273  1.00  0.00     0.096 C 
ATOM      6  C   UNL A   1      37.163  34.633  32.210  1.00  0.00     0.027 C 
ATOM      7  C   UNL A   1      35.160  35.331  33.525  1.00  0.00     0.027 C 
BRANCH   5   8
ATOM      8  C   UNL A   1      35.292  32.955  32.871  1.00  0.00     0.247 C 
BRANCH   8   9
ATOM      9  O   UNL A   1      34.348  33.097  31.822  1.00  0.00    -0.492 OA
BRANCH   9  10
ATOM     10  C   UNL A   1      34.606  33.048  30.488  1.00  0.00     0.131 A 
ATOM     11  C   UNL A   1      34.148  33.868  29.437  1.00  0.00     0.051 A 
ATOM     12  C   UNL A   1      34.572  33.543  28.121  1.00  0.00     0.017 A 
ATOM     13  C   UNL A   1      35.394  32.449  27.850  1.00  0.00     0.040 A 
ATOM     14  C   UNL A   1      35.412  31.930  30.193  1.00  0.00     0.086 A 
ATOM     15  C   UNL A   1      35.800  31.643  28.893  1.00  0.00     0.126 A 
ATOM     16  F   UNL A   1      36.574  30.578  28.646  1.00  0.00    -0.207 F 
BRANCH  11  17
ATOM     17  C   UNL A   1      33.153  35.006  29.600  1.00  0.00     0.212 C 
ATOM     18  C   UNL A   1      33.619  36.258  28.858  1.00  0.00     0.081 C 
BRANCH  17  19
ATOM     19  N   UNL A   1      32.849  35.328  31.005  1.00  0.00    -0.351 N 
ATOM     20  H   UNL A   1      32.217  36.128  31.042  1.00  0.00     0.345 HD
ATOM     21  H   UNL A   1      33.714  35.553  31.497  1.00  0.00     0.345 HD
ATOM     22  H   UNL A   1      32.406  34.523  31.450  1.00  0.00     0.345 HD
ENDBRANCH  17  19
ENDBRANCH  11  17
ENDBRANCH   9  10
ENDBRANCH   8   9
ENDBRANCH   5   8
ENDBRANCH   3   5
ENDBRANCH   2   3
ENDBRANCH   1   2
BRANCH   1  23
ATOM     23  C   UNL A   1      38.297  30.886  34.997  1.00  0.00     0.275 C 
BRANCH  23  24
ATOM     24  O   UNL A   1      38.262  31.214  33.596  1.00  0.00    -0.458 OA
BRANCH  24  25
ATOM     25  C   UNL A   1      37.802  30.234  32.787  1.00  0.00     0.338 C 
ATOM     26  O   UNL A   1      36.682  29.756  32.758  1.00  0.00    -0.246 OA
BRANCH  25  27
ATOM     27  C   UNL A   1      38.859  29.836  31.848  1.00  0.00     0.060 A 
ATOM     28  C   UNL A   1      39.856  28.972  32.295  1.00  0.00     0.016 A 
ATOM     29  C   UNL A   1      38.949  30.427  30.592  1.00  0.00     0.016 A 
ATOM     30  C   UNL A   1      40.996  28.763  31.528  1.00  0.00     0.010 A 
ATOM     31  C   UNL A   1      40.054  30.141  29.782  1.00  0.00     0.010 A 
ATOM     32  C   UNL A   1      41.107  29.334  30.255  1.00  0.00    -0.014 A 
BRANCH  32  33
ATOM     33  C   UNL A   1      42.331  29.125  29.433  1.00  0.00     0.031 A 
ATOM     34  C   UNL A   1      42.548  27.810  28.731  1.00  0.00     0.074 A 
ATOM     35  C   UNL A   1      43.250  30.104  29.308  1.00  0.00     0.049 A 
ATOM     36  N   UNL A   1      43.630  27.343  28.163  1.00  0.00    -0.248 NA
ATOM     37  C   UNL A   1      41.397  26.892  28.673  1.00  0.00     0.031 C 
ATOM     38  C   UNL A   1      43.144  31.451  29.873  1.00  0.00     0.029 A 
ATOM     39  N   UNL A   1      44.461  30.113  28.660  1.00  0.00    -0.354 N 
ATOM     40  C   UNL A   1      43.315  26.056  27.743  1.00  0.00     0.074 A 
ATOM     41  C   UNL A   1      41.936  25.817  28.113  1.00  0.00     0.031 C 
ATOM     42  C   UNL A   1      44.226  32.163  29.522  1.00  0.00     0.029 A 
ATOM     43  C   UNL A   1      45.145  31.299  28.791  1.00  0.00     0.049 A 
ATOM     44  H   UNL A   1      44.807  29.345  28.150  1.00  0.00     0.167 HD
ATOM     45  C   UNL A   1      44.107  25.152  27.118  1.00  0.00     0.031 A 
ATOM     46  C   UNL A   1      46.393  31.643  28.416  1.00  0.00     0.031 A 
ATOM     47  C   UNL A   1      45.464  25.414  26.713  1.00  0.00     0.049 A 
ATOM     48  C   UNL A   1      47.265  30.616  27.753  1.00  0.00     0.074 A 
ATOM     49  C   UNL A   1      46.351  24.564  26.074  1.00  0.00     0.029 A 
ATOM     50  N   UNL A   1      46.122  26.621  26.889  1.00  0.00    -0.354 N 
ATOM     51  N   UNL A   1      46.981  29.375  27.435  1.00  0.00    -0.248 NA
ATOM     52  C   UNL A   1      48.635  31.027  27.416  1.00  0.00     0.031 C 
ATOM     53  C   UNL A   1      47.558  25.249  25.894  1.00  0.00     0.029 A 
ATOM     54  C   UNL A   1      47.406  26.538  26.379  1.00  0.00     0.049 A 
ATOM     55  H   UNL A   1      45.734  27.420  27.314  1.00  0.00     0.167 HD
ATOM     56  C   UNL A   1      48.134  28.861  26.855  1.00  0.00     0.074 A 
ATOM     57  C   UNL A   1      49.112  29.929  26.846  1.00  0.00     0.031 C 
ATOM     58  C   UNL A   1      48.365  27.613  26.379  1.00  0.00     0.031 A 
BRANCH  45  59
ATOM     59  C   UNL A   1      43.543  23.777  26.881  1.00  0.00    -0.014 A 
ATOM     60  C   UNL A   1      43.062  23.383  25.621  1.00  0.00     0.010 A 
ATOM     61  C   UNL A   1      43.526  22.851  27.941  1.00  0.00     0.010 A 
ATOM     62  C   UNL A   1      42.537  22.100  25.434  1.00  0.00     0.020 A 
ATOM     63  C   UNL A   1      43.025  21.560  27.753  1.00  0.00     0.020 A 
ATOM     64  C   UNL A   1      42.516  21.199  26.504  1.00  0.00     0.054 A 
BRANCH  64  65
ATOM     65  S   UNL A   1      41.843  19.535  26.234  1.00  0.00     0.124 S 
ATOM     66  O   UNL A   1      42.525  19.132  25.007  1.00  0.00    -0.237 OA
ATOM     67  O   UNL A   1      42.250  18.821  27.441  1.00  0.00    -0.237 OA
ATOM     68  O   UNL A   1      40.405  19.761  26.102  1.00  0.00    -0.744 OA
ENDBRANCH  64  65
ENDBRANCH  45  59
BRANCH  46  69
ATOM     69  C   UNL A   1      46.909  33.003  28.725  1.00  0.00    -0.014 A 
ATOM     70  C   UNL A   1      46.726  34.061  27.818  1.00  0.00     0.010 A 
ATOM     71  C   UNL A   1      47.571  33.252  29.942  1.00  0.00     0.010 A 
ATOM     72  C   UNL A   1      47.204  35.341  28.119  1.00  0.00     0.020 A 
ATOM     73  C   UNL A   1      48.023  34.535  30.258  1.00  0.00     0.020 A 
ATOM     74  C   UNL A   1      47.848  35.569  29.339  1.00  0.00     0.054 A 
BRANCH  74  75
ATOM     75  S   UNL A   1      48.408  37.249  29.739  1.00  0.00     0.124 S 
ATOM     76  O   UNL A   1      49.089  37.641  28.508  1.00  0.00    -0.237 OA
ATOM     77  O   UNL A   1      47.156  37.947  30.019  1.00  0.00    -0.237 OA
ATOM     78  O   UNL A   1      49.275  37.050  30.899  1.00  0.00    -0.744 OA
ENDBRANCH  74  75
ENDBRANCH  46  69
BRANCH  58  79
ATOM     79  C   UNL A   1      49.719  27.346  25.781  1.00  0.00    -0.014 A 
ATOM     80  C   UNL A   1      49.930  27.441  24.395  1.00  0.00     0.010 A 
ATOM     81  C   UNL A   1      50.801  27.039  26.624  1.00  0.00     0.010 A 
ATOM     82  C   UNL A   1      51.199  27.206  23.859  1.00  0.00     0.020 A 
ATOM     83  C   UNL A   1      52.075  26.824  26.094  1.00  0.00     0.020 A 
ATOM     84  C   UNL A   1      52.263  26.897  24.712  1.00  0.00     0.054 A 
BRANCH  84  85
ATOM     85  S   UNL A   1      53.910  26.636  24.000  1.00  0.00     0.124 S 
ATOM     86  O   UNL A   1      54.730  27.559  24.781  1.00  0.00    -0.237 OA
ATOM     87  O   UNL A   1      54.150  25.217  24.252  1.00  0.00    -0.237 OA
ATOM     88  O   UNL A   1      53.738  26.992  22.593  1.00  0.00    -0.744 OA
ENDBRANCH  84  85
ENDBRANCH  58  79
ENDBRANCH  32  33
ENDBRANCH  25  27
ENDBRANCH  24  25
ENDBRANCH  23  24
ENDBRANCH   1  23
TORSDOF 19
ENDMDL
MODEL 2
REMARK VINA RESULT:      -9.0      5.414     13.581
REMARK SMILES C[C@H]([NH3+])c1ccc(F)cc1OCC(C)(C)C(=O)OCCOC(=O)c1ccc(-c2c3nc(c(-c4ccc(S(=O)(=O)[O-])cc4)c4ccc([nH]4)c(-c4ccc(S(=O)(=O)[O-])cc4)c4nc(c(-c5ccc(S(=O)(=O)[O-])cc5)c5ccc2[nH]5)C=C4)C=C3)cc1
REMARK SMILES IDX 19 1 18 2 16 3 17 4 13 5 14 6 15 7 12 8 11 9 10 10 4 11 5 12
REMARK SMILES IDX 6 13 9 14 7 15 8 16 2 17 1 18 3 19 20 23 21 24 22 25 23 26
REMARK SMILES IDX 24 27 25 28 83 29 26 30 82 31 27 32 28 33 29 34 76 35 30 36
REMARK SMILES IDX 81 37 75 38 77 39 31 40 80 41 74 42 73 43 32 45 62 46 43 47
REMARK SMILES IDX 61 48 44 49 47 50 60 51 78 52 45 53 46 54 59 56 79 57 48 58
REMARK SMILES IDX 33 59 34 60 42 61 35 62 41 63 36 64 37 65 38 66 39 67 40 68
REMARK SMILES IDX 63 69 64 70 72 71 65 72 71 73 66 74 67 75 68 76 69 77 70 78
REMARK SMILES IDX 49 79 50 80 58 81 51 82 57 83 52 84 53 85 54 86 55 87 56 88
REMARK H PARENT 3 20 3 21 3 22 77 44 47 55
REMARK Flexibility Score: inf
ROOT
ATOM      1  C   UNL A   1      47.102  25.811  25.347  1.00  0.00     0.274 C 
ENDROOT
BRANCH   1   2
ATOM      2  O   UNL A   1      46.565  24.601  25.913  1.00  0.00    -0.462 OA
BRANCH   2   3
ATOM      3  C   UNL A   1      46.209  23.621  25.035  1.00  0.00     0.315 C 
ATOM      4  O   UNL A   1      46.751  23.455  23.951  1.00  0.00    -0.251 OA
BRANCH   3   5
ATOM      5  C   UNL A   1      44.973  22.852  25.516  1.00  0.00     0.096 C 
ATOM      6  C   UNL A   1      45.357  21.371  25.425  1.00  0.00     0.027 C 
ATOM      7  C   UNL A   1      43.761  23.098  24.590  1.00  0.00     0.027 C 
BRANCH   5   8
ATOM      8  C   UNL A   1      44.527  23.324  26.925  1.00  0.00     0.247 C 
BRANCH   8   9
ATOM      9  O   UNL A   1      43.542  22.576  27.620  1.00  0.00    -0.492 OA
BRANCH   9  10
ATOM     10  C   UNL A   1      42.196  22.657  27.454  1.00  0.00     0.131 A 
ATOM     11  C   UNL A   1      41.285  21.732  26.904  1.00  0.00     0.051 A 
ATOM     12  C   UNL A   1      39.920  22.121  26.835  1.00  0.00     0.017 A 
ATOM     13  C   UNL A   1      39.477  23.371  27.269  1.00  0.00     0.040 A 
ATOM     14  C   UNL A   1      41.735  23.925  27.860  1.00  0.00     0.086 A 
ATOM     15  C   UNL A   1      40.395  24.269  27.770  1.00  0.00     0.126 A 
ATOM     16  F   UNL A   1      39.986  25.479  28.173  1.00  0.00    -0.207 F 
BRANCH  11  17
ATOM     17  C   UNL A   1      41.673  20.399  26.288  1.00  0.00     0.212 C 
ATOM     18  C   UNL A   1      40.441  19.544  25.998  1.00  0.00     0.081 C 
BRANCH  17  19
ATOM     19  N   UNL A   1      42.645  19.637  27.093  1.00  0.00    -0.351 N 
ATOM     20  H   UNL A   1      42.925  20.191  27.903  1.00  0.00     0.345 HD
ATOM     21  H   UNL A   1      43.466  19.426  26.524  1.00  0.00     0.345 HD
ATOM     22  H   UNL A   1      42.217  18.766  27.407  1.00  0.00     0.345 HD
ENDBRANCH  17  19
ENDBRANCH  11  17
ENDBRANCH   9  10
ENDBRANCH   8   9
ENDBRANCH   5   8
ENDBRANCH   3   5
ENDBRANCH   2   3
ENDBRANCH   1   2
BRANCH   1  23
ATOM     23  C   UNL A   1      46.111  26.964  25.468  1.00  0.00     0.275 C 
BRANCH  23  24
ATOM     24  O   UNL A   1      44.759  26.473  25.485  1.00  0.00    -0.458 OA
BRANCH  24  25
ATOM     25  C   UNL A   1      43.801  27.426  25.458  1.00  0.00     0.338 C 
ATOM     26  O   UNL A   1      43.163  27.815  24.495  1.00  0.00    -0.246 OA
BRANCH  25  27
ATOM     27  C   UNL A   1      43.561  27.920  26.821  1.00  0.00     0.060 A 
ATOM     28  C   UNL A   1      42.989  27.056  27.751  1.00  0.00     0.016 A 
ATOM     29  C   UNL A   1      43.759  29.261  27.133  1.00  0.00     0.016 A 
ATOM     30  C   UNL A   1      42.525  27.544  28.967  1.00  0.00     0.010 A 
ATOM     31  C   UNL A   1      43.376  29.731  28.394  1.00  0.00     0.010 A 
ATOM     32  C   UNL A   1      42.723  28.886  29.312  1.00  0.00    -0.014 A 
BRANCH  32  33
ATOM     33  C   UNL A   1      42.216  29.419  30.607  1.00  0.00     0.031 A 
ATOM     34  C   UNL A   1      40.888  30.128  30.659  1.00  0.00     0.074 A 
ATOM     35  C   UNL A   1      42.936  29.272  31.738  1.00  0.00     0.049 A 
ATOM     36  N   UNL A   1      40.375  30.855  31.618  1.00  0.00    -0.248 NA
ATOM     37  C   UNL A   1      40.029  30.014  29.468  1.00  0.00     0.031 C 
ATOM     38  C   UNL A   1      44.205  28.551  31.855  1.00  0.00     0.029 A 
ATOM     39  N   UNL A   1      42.697  29.726  33.012  1.00  0.00    -0.354 N 
ATOM     40  C   UNL A   1      39.171  31.342  31.123  1.00  0.00     0.074 A 
ATOM     41  C   UNL A   1      39.024  30.820  29.781  1.00  0.00     0.031 C 
ATOM     42  C   UNL A   1      44.616  28.584  33.132  1.00  0.00     0.029 A 
ATOM     43  C   UNL A   1      43.694  29.408  33.905  1.00  0.00     0.049 A 
ATOM     44  H   UNL A   1      41.890  30.231  33.263  1.00  0.00     0.167 HD
ATOM     45  C   UNL A   1      38.276  32.160  31.728  1.00  0.00     0.031 A 
ATOM     46  C   UNL A   1      43.880  29.778  35.187  1.00  0.00     0.031 A 
ATOM     47  C   UNL A   1      38.408  32.639  33.080  1.00  0.00     0.049 A 
ATOM     48  C   UNL A   1      42.893  30.711  35.829  1.00  0.00     0.074 A 
ATOM     49  C   UNL A   1      37.556  33.472  33.785  1.00  0.00     0.029 A 
ATOM     50  N   UNL A   1      39.446  32.309  33.936  1.00  0.00    -0.354 N 
ATOM     51  N   UNL A   1      41.799  31.229  35.321  1.00  0.00    -0.248 NA
ATOM     52  C   UNL A   1      43.175  31.126  37.209  1.00  0.00     0.031 C 
ATOM     53  C   UNL A   1      38.099  33.673  35.059  1.00  0.00     0.029 A 
ATOM     54  C   UNL A   1      39.264  32.929  35.161  1.00  0.00     0.049 A 
ATOM     55  H   UNL A   1      40.203  31.722  33.708  1.00  0.00     0.167 HD
ATOM     56  C   UNL A   1      41.260  32.027  36.323  1.00  0.00     0.074 A 
ATOM     57  C   UNL A   1      42.134  31.905  37.472  1.00  0.00     0.031 C 
ATOM     58  C   UNL A   1      40.145  32.796  36.292  1.00  0.00     0.031 A 
BRANCH  45  59
ATOM     59  C   UNL A   1      37.101  32.632  30.914  1.00  0.00    -0.014 A 
ATOM     60  C   UNL A   1      35.835  32.035  31.030  1.00  0.00     0.010 A 
ATOM     61  C   UNL A   1      37.268  33.720  30.036  1.00  0.00     0.010 A 
ATOM     62  C   UNL A   1      34.764  32.493  30.254  1.00  0.00     0.020 A 
ATOM     63  C   UNL A   1      36.196  34.196  29.277  1.00  0.00     0.020 A 
ATOM     64  C   UNL A   1      34.954  33.567  29.377  1.00  0.00     0.054 A 
BRANCH  64  65
ATOM     65  S   UNL A   1      33.547  34.151  28.392  1.00  0.00     0.124 S 
ATOM     66  O   UNL A   1      33.082  32.914  27.771  1.00  0.00    -0.237 OA
ATOM     67  O   UNL A   1      32.658  34.719  29.401  1.00  0.00    -0.237 OA
ATOM     68  O   UNL A   1      34.146  35.121  27.476  1.00  0.00    -0.744 OA
ENDBRANCH  64  65
ENDBRANCH  45  59
BRANCH  46  69
ATOM     69  C   UNL A   1      45.089  29.318  35.922  1.00  0.00    -0.014 A 
ATOM     70  C   UNL A   1      45.063  28.126  36.665  1.00  0.00     0.010 A 
ATOM     71  C   UNL A   1      46.281  30.062  35.863  1.00  0.00     0.010 A 
ATOM     72  C   UNL A   1      46.207  27.692  37.344  1.00  0.00     0.020 A 
ATOM     73  C   UNL A   1      47.433  29.616  36.516  1.00  0.00     0.020 A 
ATOM     74  C   UNL A   1      47.385  28.439  37.263  1.00  0.00     0.054 A 
BRANCH  74  75
ATOM     75  S   UNL A   1      48.875  27.830  38.102  1.00  0.00     0.124 S 
ATOM     76  O   UNL A   1      49.622  29.065  38.324  1.00  0.00    -0.237 OA
ATOM     77  O   UNL A   1      48.332  27.195  39.300  1.00  0.00    -0.237 OA
ATOM     78  O   UNL A   1      49.460  26.910  37.128  1.00  0.00    -0.744 OA
ENDBRANCH  74  75
ENDBRANCH  46  69
BRANCH  58  79
ATOM     79  C   UNL A   1      39.791  33.542  37.549  1.00  0.00    -0.014 A 
ATOM     80  C   UNL A   1      38.938  32.977  38.512  1.00  0.00     0.010 A 
ATOM     81  C   UNL A   1      40.356  34.808  37.786  1.00  0.00     0.010 A 
ATOM     82  C   UNL A   1      38.634  33.679  39.682  1.00  0.00     0.020 A 
ATOM     83  C   UNL A   1      40.071  35.503  38.963  1.00  0.00     0.020 A 
ATOM     84  C   UNL A   1      39.201  34.939  39.899  1.00  0.00     0.054 A 
BRANCH  84  85
ATOM     85  S   UNL A   1      38.826  35.815  41.442  1.00  0.00     0.124 S 
ATOM     86  O   UNL A   1      38.864  37.211  41.016  1.00  0.00    -0.237 OA
ATOM     87  O   UNL A   1      37.503  35.301  41.792  1.00  0.00    -0.237 OA
ATOM     88  O   UNL A   1      39.903  35.406  42.341  1.00  0.00    -0.744 OA
ENDBRANCH  84  85
ENDBRANCH  58  79
ENDBRANCH  32  33
ENDBRANCH  25  27
ENDBRANCH  24  25
ENDBRANCH  23  24
ENDBRANCH   1  23
TORSDOF 19
ENDMDL
MODEL 3
REMARK VINA RESULT:      -8.9      5.794     11.325
REMARK SMILES C[C@H]([NH3+])c1ccc(F)cc1OCC(C)(C)C(=O)OCCOC(=O)c1ccc(-c2c3nc(c(-c4ccc(S(=O)(=O)[O-])cc4)c4ccc([nH]4)c(-c4ccc(S(=O)(=O)[O-])cc4)c4nc(c(-c5ccc(S(=O)(=O)[O-])cc5)c5ccc2[nH]5)C=C4)C=C3)cc1
REMARK SMILES IDX 19 1 18 2 16 3 17 4 13 5 14 6 15 7 12 8 11 9 10 10 4 11 5 12
REMARK SMILES IDX 6 13 9 14 7 15 8 16 2 17 1 18 3 19 20 23 21 24 22 25 23 26
REMARK SMILES IDX 24 27 25 28 83 29 26 30 82 31 27 32 28 33 29 34 76 35 30 36
REMARK SMILES IDX 81 37 75 38 77 39 31 40 80 41 74 42 73 43 32 45 62 46 43 47
REMARK SMILES IDX 61 48 44 49 47 50 60 51 78 52 45 53 46 54 59 56 79 57 48 58
REMARK SMILES IDX 33 59 34 60 42 61 35 62 41 63 36 64 37 65 38 66 39 67 40 68
REMARK SMILES IDX 63 69 64 70 72 71 65 72 71 73 66 74 67 75 68 76 69 77 70 78
REMARK SMILES IDX 49 79 50 80 58 81 51 82 57 83 52 84 53 85 54 86 55 87 56 88
REMARK H PARENT 3 20 3 21 3 22 77 44 47 55
REMARK Flexibility Score: inf
ROOT
ATOM      1  C   UNL A   1      33.471  29.118  25.630  1.00  0.00     0.274 C 
ENDROOT
BRANCH   1   2
ATOM      2  O   UNL A   1      32.467  28.302  25.000  1.00  0.00    -0.462 OA
BRANCH   2   3
ATOM      3  C   UNL A   1      32.900  27.158  24.398  1.00  0.00     0.315 C 
ATOM      4  O   UNL A   1      33.809  27.126  23.580  1.00  0.00    -0.251 OA
BRANCH   3   5
ATOM      5  C   UNL A   1      32.024  25.956  24.771  1.00  0.00     0.096 C 
ATOM      6  C   UNL A   1      30.621  26.304  24.263  1.00  0.00     0.027 C 
ATOM      7  C   UNL A   1      31.954  25.764  26.303  1.00  0.00     0.027 C 
BRANCH   5   8
ATOM      8  C   UNL A   1      32.610  24.633  24.209  1.00  0.00     0.247 C 
BRANCH   8   9
ATOM      9  O   UNL A   1      33.147  23.681  25.113  1.00  0.00    -0.492 OA
BRANCH   9  10
ATOM     10  C   UNL A   1      34.232  22.889  24.906  1.00  0.00     0.131 A 
ATOM     11  C   UNL A   1      34.555  21.624  25.436  1.00  0.00     0.051 A 
ATOM     12  C   UNL A   1      35.797  21.052  25.051  1.00  0.00     0.017 A 
ATOM     13  C   UNL A   1      36.688  21.705  24.199  1.00  0.00     0.040 A 
ATOM     14  C   UNL A   1      35.157  23.547  24.071  1.00  0.00     0.086 A 
ATOM     15  C   UNL A   1      36.362  22.957  23.723  1.00  0.00     0.126 A 
ATOM     16  F   UNL A   1      37.216  23.604  22.919  1.00  0.00    -0.207 F 
BRANCH  11  17
ATOM     17  C   UNL A   1      33.722  20.880  26.466  1.00  0.00     0.212 C 
ATOM     18  C   UNL A   1      32.824  19.837  25.802  1.00  0.00     0.081 C 
BRANCH  17  19
ATOM     19  N   UNL A   1      32.923  21.766  27.331  1.00  0.00    -0.351 N 
ATOM     20  H   UNL A   1      33.545  22.362  27.876  1.00  0.00     0.345 HD
ATOM     21  H   UNL A   1      32.352  21.201  27.961  1.00  0.00     0.345 HD
ATOM     22  H   UNL A   1      32.315  22.347  26.752  1.00  0.00     0.345 HD
ENDBRANCH  17  19
ENDBRANCH  11  17
ENDBRANCH   9  10
ENDBRANCH   8   9
ENDBRANCH   5   8
ENDBRANCH   3   5
ENDBRANCH   2   3
ENDBRANCH   1   2
BRANCH   1  23
ATOM     23  C   UNL A   1      32.845  30.320  26.332  1.00  0.00     0.275 C 
BRANCH  23  24
ATOM     24  O   UNL A   1      33.438  30.517  27.628  1.00  0.00    -0.458 OA
BRANCH  24  25
ATOM     25  C   UNL A   1      34.342  31.520  27.700  1.00  0.00     0.338 C 
ATOM     26  O   UNL A   1      34.160  32.705  27.479  1.00  0.00    -0.246 OA
BRANCH  25  27
ATOM     27  C   UNL A   1      35.629  30.988  28.167  1.00  0.00     0.060 A 
ATOM     28  C   UNL A   1      35.675  29.681  28.644  1.00  0.00     0.016 A 
ATOM     29  C   UNL A   1      36.741  31.817  28.272  1.00  0.00     0.016 A 
ATOM     30  C   UNL A   1      36.802  29.220  29.315  1.00  0.00     0.010 A 
ATOM     31  C   UNL A   1      37.908  31.320  28.863  1.00  0.00     0.010 A 
ATOM     32  C   UNL A   1      37.940  30.028  29.423  1.00  0.00    -0.014 A 
BRANCH  32  33
ATOM     33  C   UNL A   1      39.146  29.546  30.151  1.00  0.00     0.031 A 
ATOM     34  C   UNL A   1      39.555  30.202  31.444  1.00  0.00     0.074 A 
ATOM     35  C   UNL A   1      39.879  28.524  29.665  1.00  0.00     0.049 A 
ATOM     36  N   UNL A   1      40.676  30.094  32.109  1.00  0.00    -0.248 NA
ATOM     37  C   UNL A   1      38.576  31.112  32.064  1.00  0.00     0.031 C 
ATOM     38  C   UNL A   1      39.569  27.747  28.462  1.00  0.00     0.029 A 
ATOM     39  N   UNL A   1      41.043  27.961  30.129  1.00  0.00    -0.354 N 
ATOM     40  C   UNL A   1      40.567  30.971  33.183  1.00  0.00     0.074 A 
ATOM     41  C   UNL A   1      39.266  31.597  33.087  1.00  0.00     0.031 C 
ATOM     42  C   UNL A   1      40.498  26.793  28.301  1.00  0.00     0.029 A 
ATOM     43  C   UNL A   1      41.520  26.948  29.329  1.00  0.00     0.049 A 
ATOM     44  H   UNL A   1      41.493  28.253  30.954  1.00  0.00     0.167 HD
ATOM     45  C   UNL A   1      41.475  31.237  34.153  1.00  0.00     0.031 A 
ATOM     46  C   UNL A   1      42.674  26.255  29.380  1.00  0.00     0.031 A 
ATOM     47  C   UNL A   1      42.749  30.576  34.268  1.00  0.00     0.049 A 
ATOM     48  C   UNL A   1      43.680  26.588  30.444  1.00  0.00     0.074 A 
ATOM     49  C   UNL A   1      43.741  30.775  35.213  1.00  0.00     0.029 A 
ATOM     50  N   UNL A   1      43.199  29.575  33.421  1.00  0.00    -0.354 N 
ATOM     51  N   UNL A   1      43.598  27.477  31.406  1.00  0.00    -0.248 NA
ATOM     52  C   UNL A   1      44.944  25.840  30.419  1.00  0.00     0.031 C 
ATOM     53  C   UNL A   1      44.805  29.916  34.917  1.00  0.00     0.029 A 
ATOM     54  C   UNL A   1      44.456  29.151  33.815  1.00  0.00     0.049 A 
ATOM     55  H   UNL A   1      42.699  29.218  32.651  1.00  0.00     0.167 HD
ATOM     56  C   UNL A   1      44.797  27.390  32.103  1.00  0.00     0.074 A 
ATOM     57  C   UNL A   1      45.577  26.348  31.468  1.00  0.00     0.031 C 
ATOM     58  C   UNL A   1      45.217  28.113  33.170  1.00  0.00     0.031 A 
BRANCH  45  59
ATOM     59  C   UNL A   1      41.144  32.326  35.138  1.00  0.00    -0.014 A 
ATOM     60  C   UNL A   1      41.438  33.675  34.873  1.00  0.00     0.010 A 
ATOM     61  C   UNL A   1      40.496  31.989  36.341  1.00  0.00     0.010 A 
ATOM     62  C   UNL A   1      41.124  34.663  35.812  1.00  0.00     0.020 A 
ATOM     63  C   UNL A   1      40.160  32.976  37.271  1.00  0.00     0.020 A 
ATOM     64  C   UNL A   1      40.492  34.306  37.008  1.00  0.00     0.054 A 
BRANCH  64  65
ATOM     65  S   UNL A   1      40.083  35.608  38.204  1.00  0.00     0.124 S 
ATOM     66  O   UNL A   1      39.852  36.756  37.331  1.00  0.00    -0.237 OA
ATOM     67  O   UNL A   1      38.896  35.076  38.868  1.00  0.00    -0.237 OA
ATOM     68  O   UNL A   1      41.276  35.694  39.044  1.00  0.00    -0.744 OA
ENDBRANCH  64  65
ENDBRANCH  45  59
BRANCH  46  69
ATOM     69  C   UNL A   1      42.964  25.224  28.347  1.00  0.00    -0.014 A 
ATOM     70  C   UNL A   1      43.582  25.579  27.136  1.00  0.00     0.010 A 
ATOM     71  C   UNL A   1      42.641  23.875  28.581  1.00  0.00     0.010 A 
ATOM     72  C   UNL A   1      43.863  24.603  26.174  1.00  0.00     0.020 A 
ATOM     73  C   UNL A   1      42.947  22.894  27.635  1.00  0.00     0.020 A 
ATOM     74  C   UNL A   1      43.545  23.266  26.431  1.00  0.00     0.054 A 
BRANCH  74  75
ATOM     75  S   UNL A   1      43.971  22.006  25.196  1.00  0.00     0.124 S 
ATOM     76  O   UNL A   1      42.967  20.978  25.455  1.00  0.00    -0.237 OA
ATOM     77  O   UNL A   1      43.825  22.730  23.935  1.00  0.00    -0.237 OA
ATOM     78  O   UNL A   1      45.344  21.643  25.542  1.00  0.00    -0.744 OA
ENDBRANCH  74  75
ENDBRANCH  46  69
BRANCH  58  79
ATOM     79  C   UNL A   1      46.570  27.780  33.735  1.00  0.00    -0.014 A 
ATOM     80  C   UNL A   1      47.727  28.432  33.277  1.00  0.00     0.010 A 
ATOM     81  C   UNL A   1      46.675  26.832  34.768  1.00  0.00     0.010 A 
ATOM     82  C   UNL A   1      48.974  28.121  33.827  1.00  0.00     0.020 A 
ATOM     83  C   UNL A   1      47.917  26.534  35.334  1.00  0.00     0.020 A 
ATOM     84  C   UNL A   1      49.062  27.172  34.850  1.00  0.00     0.054 A 
BRANCH  84  85
ATOM     85  S   UNL A   1      50.684  26.814  35.577  1.00  0.00     0.124 S 
ATOM     86  O   UNL A   1      51.455  26.394  34.411  1.00  0.00    -0.237 OA
ATOM     87  O   UNL A   1      51.070  28.099  36.156  1.00  0.00    -0.237 OA
ATOM     88  O   UNL A   1      50.400  25.761  36.550  1.00  0.00    -0.744 OA
ENDBRANCH  84  85
ENDBRANCH  58  79
ENDBRANCH  32  33
ENDBRANCH  25  27
ENDBRANCH  24  25
ENDBRANCH  23  24
ENDBRANCH   1  23
TORSDOF 19
ENDMDL
