MODEL 1
REMARK VINA RESULT:      -9.9      0.000      0.000
REMARK SMILES CNC(=O)[C@H](C)Oc1cc([N+](=O)[O-])c(C(=O)OCCOC(=O)c2ccc(-c3c4nc(c(-c5ccc(S(=O)(=O)[O-])cc5)c5ccc([nH]5)c(-c5ccc(S(=O)(=O)[O-])cc5)c5nc(c(-c6ccc(S(=O)(=O)[O-])cc6)c6ccc3[nH]6)C=C5)C=C4)cc2)cc1OC
REMARK SMILES IDX 18 1 17 2 15 3 16 4 14 5 8 6 9 7 84 8 10 9 83 10 7 11 5 12
REMARK SMILES IDX 6 13 3 14 1 15 2 16 4 18 85 19 86 20 11 21 12 22 13 23 19 24
REMARK SMILES IDX 20 25 21 26 22 27 23 28 24 29 82 30 25 31 81 32 26 33 27 34
REMARK SMILES IDX 28 35 75 36 29 37 80 38 74 39 76 40 30 41 79 42 73 43 72 44
REMARK SMILES IDX 31 46 61 47 42 48 60 49 43 50 46 51 59 52 77 53 44 54 45 55
REMARK SMILES IDX 58 57 78 58 47 59 32 60 33 61 41 62 34 63 40 64 35 65 36 66
REMARK SMILES IDX 37 67 38 68 39 69 62 70 63 71 71 72 64 73 70 74 65 75 66 76
REMARK SMILES IDX 67 77 68 78 69 79 48 80 49 81 57 82 50 83 56 84 51 85 52 86
REMARK SMILES IDX 53 87 54 88 55 89
REMARK H PARENT 2 17 76 45 46 56
REMARK Flexibility Score: inf
ROOT
ATOM      1  C   UNL A   1      33.495  29.126  25.512  1.00  0.00     0.275 C 
ENDROOT
BRANCH   1   2
ATOM      2  O   UNL A   1      32.858  29.228  24.220  1.00  0.00    -0.458 OA
BRANCH   2   3
ATOM      3  C   UNL A   1      31.716  28.518  24.060  1.00  0.00     0.345 C 
ATOM      4  O   UNL A   1      30.576  28.938  24.133  1.00  0.00    -0.246 OA
BRANCH   3   5
ATOM      5  C   UNL A   1      31.980  27.074  23.924  1.00  0.00     0.141 A 
ATOM      6  C   UNL A   1      33.238  24.569  23.833  1.00  0.00     0.169 A 
ATOM      7  C   UNL A   1      32.698  25.020  25.026  1.00  0.00     0.137 A 
ATOM      8  C   UNL A   1      33.011  25.296  22.651  1.00  0.00     0.162 A 
ATOM      9  C   UNL A   1      32.001  26.228  25.034  1.00  0.00     0.287 A 
ATOM     10  C   UNL A   1      32.463  26.584  22.717  1.00  0.00     0.073 A 
BRANCH   6  11
ATOM     11  O   UNL A   1      33.781  23.324  23.815  1.00  0.00    -0.477 OA
BRANCH  11  12
ATOM     12  C   UNL A   1      35.001  23.125  24.531  1.00  0.00     0.259 C 
ATOM     13  C   UNL A   1      34.852  21.716  25.114  1.00  0.00     0.064 C 
BRANCH  12  14
ATOM     14  C   UNL A   1      36.399  23.204  23.852  1.00  0.00     0.260 C 
ATOM     15  C   UNL A   1      37.655  23.855  25.984  1.00  0.00     0.142 C 
ATOM     16  N   UNL A   1      37.508  23.519  24.584  1.00  0.00    -0.356 N 
ATOM     17  H   UNL A   1      38.350  23.515  24.074  1.00  0.00     0.163 HD
ATOM     18  O   UNL A   1      36.550  22.984  22.647  1.00  0.00    -0.271 OA
ENDBRANCH  12  14
ENDBRANCH  11  12
ENDBRANCH   6  11
BRANCH   8  19
ATOM     19  O   UNL A   1      33.257  24.905  21.365  1.00  0.00    -0.493 OA
ATOM     20  C   UNL A   1      32.537  25.560  20.333  1.00  0.00     0.278 C 
ENDBRANCH   8  19
BRANCH   9  21
ATOM     21  N   UNL A   1      30.902  26.262  25.974  1.00  0.00     0.063 N 
ATOM     22  O   UNL A   1      31.071  26.900  27.022  1.00  0.00    -0.258 OA
ATOM     23  O   UNL A   1      29.946  25.516  25.725  1.00  0.00    -0.258 OA
ENDBRANCH   9  21
ENDBRANCH   3   5
ENDBRANCH   2   3
ENDBRANCH   1   2
BRANCH   1  24
ATOM     24  C   UNL A   1      32.785  29.995  26.546  1.00  0.00     0.275 C 
BRANCH  24  25
ATOM     25  O   UNL A   1      33.588  30.069  27.734  1.00  0.00    -0.458 OA
BRANCH  25  26
ATOM     26  C   UNL A   1      34.341  31.184  27.866  1.00  0.00     0.338 C 
ATOM     27  O   UNL A   1      33.986  32.339  27.670  1.00  0.00    -0.246 OA
BRANCH  26  28
ATOM     28  C   UNL A   1      35.692  30.816  28.327  1.00  0.00     0.060 A 
ATOM     29  C   UNL A   1      35.880  29.609  28.984  1.00  0.00     0.016 A 
ATOM     30  C   UNL A   1      36.739  31.733  28.264  1.00  0.00     0.016 A 
ATOM     31  C   UNL A   1      37.039  29.392  29.719  1.00  0.00     0.010 A 
ATOM     32  C   UNL A   1      37.971  31.424  28.861  1.00  0.00     0.010 A 
ATOM     33  C   UNL A   1      38.128  30.262  29.635  1.00  0.00    -0.014 A 
BRANCH  33  34
ATOM     34  C   UNL A   1      39.405  29.927  30.340  1.00  0.00     0.031 A 
ATOM     35  C   UNL A   1      40.329  28.853  29.816  1.00  0.00     0.074 A 
ATOM     36  C   UNL A   1      39.752  30.602  31.459  1.00  0.00     0.049 A 
ATOM     37  N   UNL A   1      41.341  28.274  30.415  1.00  0.00    -0.248 NA
ATOM     38  C   UNL A   1      40.076  28.346  28.457  1.00  0.00     0.031 C 
ATOM     39  C   UNL A   1      38.998  31.711  32.058  1.00  0.00     0.029 A 
ATOM     40  N   UNL A   1      40.836  30.470  32.293  1.00  0.00    -0.354 N 
ATOM     41  C   UNL A   1      41.795  27.290  29.542  1.00  0.00     0.074 A 
ATOM     42  C   UNL A   1      40.952  27.352  28.367  1.00  0.00     0.031 C 
ATOM     43  C   UNL A   1      39.676  32.204  33.100  1.00  0.00     0.029 A 
ATOM     44  C   UNL A   1      40.822  31.347  33.354  1.00  0.00     0.049 A 
ATOM     45  H   UNL A   1      41.554  29.812  32.147  1.00  0.00     0.167 HD
ATOM     46  C   UNL A   1      42.812  26.410  29.714  1.00  0.00     0.031 A 
ATOM     47  C   UNL A   1      41.581  31.419  34.464  1.00  0.00     0.031 A 
ATOM     48  C   UNL A   1      43.672  26.393  30.874  1.00  0.00     0.049 A 
ATOM     49  C   UNL A   1      42.644  30.388  34.671  1.00  0.00     0.074 A 
ATOM     50  C   UNL A   1      44.740  25.553  31.141  1.00  0.00     0.029 A 
ATOM     51  N   UNL A   1      43.568  27.258  31.954  1.00  0.00    -0.354 N 
ATOM     52  N   UNL A   1      43.018  29.422  33.868  1.00  0.00    -0.248 NA
ATOM     53  C   UNL A   1      43.369  30.435  35.947  1.00  0.00     0.031 C 
ATOM     54  C   UNL A   1      45.240  25.869  32.408  1.00  0.00     0.029 A 
ATOM     55  C   UNL A   1      44.529  26.950  32.904  1.00  0.00     0.049 A 
ATOM     56  H   UNL A   1      42.908  27.984  32.034  1.00  0.00     0.167 HD
ATOM     57  C   UNL A   1      44.022  28.742  34.542  1.00  0.00     0.074 A 
ATOM     58  C   UNL A   1      44.222  29.431  35.802  1.00  0.00     0.031 C 
ATOM     59  C   UNL A   1      44.707  27.636  34.159  1.00  0.00     0.031 A 
BRANCH  46  60
ATOM     60  C   UNL A   1      43.027  25.349  28.662  1.00  0.00    -0.014 A 
ATOM     61  C   UNL A   1      42.207  24.210  28.571  1.00  0.00     0.010 A 
ATOM     62  C   UNL A   1      44.039  25.534  27.698  1.00  0.00     0.010 A 
ATOM     63  C   UNL A   1      42.418  23.264  27.560  1.00  0.00     0.020 A 
ATOM     64  C   UNL A   1      44.234  24.607  26.670  1.00  0.00     0.020 A 
ATOM     65  C   UNL A   1      43.430  23.468  26.616  1.00  0.00     0.054 A 
BRANCH  65  66
ATOM     66  S   UNL A   1      43.661  22.238  25.301  1.00  0.00     0.124 S 
ATOM     67  O   UNL A   1      43.307  23.003  24.107  1.00  0.00    -0.237 OA
ATOM     68  O   UNL A   1      45.075  21.895  25.429  1.00  0.00    -0.237 OA
ATOM     69  O   UNL A   1      42.729  21.170  25.654  1.00  0.00    -0.744 OA
ENDBRANCH  65  66
ENDBRANCH  46  60
BRANCH  47  70
ATOM     70  C   UNL A   1      41.277  32.446  35.501  1.00  0.00    -0.014 A 
ATOM     71  C   UNL A   1      41.938  33.685  35.500  1.00  0.00     0.010 A 
ATOM     72  C   UNL A   1      40.286  32.200  36.473  1.00  0.00     0.010 A 
ATOM     73  C   UNL A   1      41.613  34.659  36.450  1.00  0.00     0.020 A 
ATOM     74  C   UNL A   1      39.929  33.186  37.396  1.00  0.00     0.020 A 
ATOM     75  C   UNL A   1      40.603  34.406  37.385  1.00  0.00     0.054 A 
BRANCH  75  76
ATOM     76  S   UNL A   1      40.149  35.713  38.558  1.00  0.00     0.124 S 
ATOM     77  O   UNL A   1      41.395  35.909  39.290  1.00  0.00    -0.237 OA
ATOM     78  O   UNL A   1      39.755  36.806  37.673  1.00  0.00    -0.237 OA
ATOM     79  O   UNL A   1      39.057  35.119  39.326  1.00  0.00    -0.744 OA
ENDBRANCH  75  76
ENDBRANCH  47  70
BRANCH  59  80
ATOM     80  C   UNL A   1      45.746  27.117  35.112  1.00  0.00    -0.014 A 
ATOM     81  C   UNL A   1      47.048  27.650  35.124  1.00  0.00     0.010 A 
ATOM     82  C   UNL A   1      45.409  26.105  36.029  1.00  0.00     0.010 A 
ATOM     83  C   UNL A   1      48.003  27.159  36.016  1.00  0.00     0.020 A 
ATOM     84  C   UNL A   1      46.352  25.632  36.943  1.00  0.00     0.020 A 
ATOM     85  C   UNL A   1      47.648  26.154  36.922  1.00  0.00     0.054 A 
BRANCH  85  86
ATOM     86  S   UNL A   1      48.895  25.566  38.099  1.00  0.00     0.124 S 
ATOM     87  O   UNL A   1      49.977  25.148  37.212  1.00  0.00    -0.237 OA
ATOM     88  O   UNL A   1      49.163  26.757  38.901  1.00  0.00    -0.237 OA
ATOM     89  O   UNL A   1      48.219  24.482  38.809  1.00  0.00    -0.744 OA
ENDBRANCH  85  86
ENDBRANCH  59  80
ENDBRANCH  33  34
ENDBRANCH  26  28
ENDBRANCH  25  26
ENDBRANCH  24  25
ENDBRANCH   1  24
TORSDOF 19
ENDMDL
MODEL 2
REMARK VINA RESULT:      -9.3      1.513      2.333
REMARK SMILES CNC(=O)[C@H](C)Oc1cc([N+](=O)[O-])c(C(=O)OCCOC(=O)c2ccc(-c3c4nc(c(-c5ccc(S(=O)(=O)[O-])cc5)c5ccc([nH]5)c(-c5ccc(S(=O)(=O)[O-])cc5)c5nc(c(-c6ccc(S(=O)(=O)[O-])cc6)c6ccc3[nH]6)C=C5)C=C4)cc2)cc1OC
REMARK SMILES IDX 18 1 17 2 15 3 16 4 14 5 8 6 9 7 84 8 10 9 83 10 7 11 5 12
REMARK SMILES IDX 6 13 3 14 1 15 2 16 4 18 85 19 86 20 11 21 12 22 13 23 19 24
REMARK SMILES IDX 20 25 21 26 22 27 23 28 24 29 82 30 25 31 81 32 26 33 27 34
REMARK SMILES IDX 28 35 75 36 29 37 80 38 74 39 76 40 30 41 79 42 73 43 72 44
REMARK SMILES IDX 31 46 61 47 42 48 60 49 43 50 46 51 59 52 77 53 44 54 45 55
REMARK SMILES IDX 58 57 78 58 47 59 32 60 33 61 41 62 34 63 40 64 35 65 36 66
REMARK SMILES IDX 37 67 38 68 39 69 62 70 63 71 71 72 64 73 70 74 65 75 66 76
REMARK SMILES IDX 67 77 68 78 69 79 48 80 49 81 57 82 50 83 56 84 51 85 52 86
REMARK SMILES IDX 53 87 54 88 55 89
REMARK H PARENT 2 17 76 45 46 56
REMARK Flexibility Score: inf
ROOT
ATOM      1  C   UNL A   1      33.344  28.883  27.055  1.00  0.00     0.275 C 
ENDROOT
BRANCH   1   2
ATOM      2  O   UNL A   1      32.459  28.238  26.112  1.00  0.00    -0.458 OA
BRANCH   2   3
ATOM      3  C   UNL A   1      31.620  27.307  26.623  1.00  0.00     0.345 C 
ATOM      4  O   UNL A   1      30.867  27.440  27.570  1.00  0.00    -0.246 OA
BRANCH   3   5
ATOM      5  C   UNL A   1      31.807  25.989  25.989  1.00  0.00     0.141 A 
ATOM      6  C   UNL A   1      31.724  23.243  25.424  1.00  0.00     0.169 A 
ATOM      7  C   UNL A   1      30.744  24.076  24.911  1.00  0.00     0.137 A 
ATOM      8  C   UNL A   1      32.832  23.802  26.087  1.00  0.00     0.162 A 
ATOM      9  C   UNL A   1      30.848  25.450  25.129  1.00  0.00     0.287 A 
ATOM     10  C   UNL A   1      32.823  25.157  26.442  1.00  0.00     0.073 A 
BRANCH   6  11
ATOM     11  O   UNL A   1      31.686  21.931  25.075  1.00  0.00    -0.477 OA
BRANCH  11  12
ATOM     12  C   UNL A   1      32.605  21.487  24.076  1.00  0.00     0.259 C 
ATOM     13  C   UNL A   1      32.769  19.993  24.375  1.00  0.00     0.064 C 
BRANCH  12  14
ATOM     14  C   UNL A   1      32.326  21.631  22.551  1.00  0.00     0.260 C 
ATOM     15  C   UNL A   1      33.369  23.958  22.346  1.00  0.00     0.142 C 
ATOM     16  N   UNL A   1      32.718  22.753  21.879  1.00  0.00    -0.356 N 
ATOM     17  H   UNL A   1      32.525  22.740  20.914  1.00  0.00     0.163 HD
ATOM     18  O   UNL A   1      31.756  20.746  21.908  1.00  0.00    -0.271 OA
ENDBRANCH  12  14
ENDBRANCH  11  12
ENDBRANCH   6  11
BRANCH   8  19
ATOM     19  O   UNL A   1      33.992  23.180  26.454  1.00  0.00    -0.493 OA
ATOM     20  C   UNL A   1      33.922  22.232  27.506  1.00  0.00     0.278 C 
ENDBRANCH   8  19
BRANCH   9  21
ATOM     21  N   UNL A   1      30.337  26.255  24.041  1.00  0.00     0.063 N 
ATOM     22  O   UNL A   1      29.108  26.332  23.921  1.00  0.00    -0.258 OA
ATOM     23  O   UNL A   1      31.173  26.665  23.225  1.00  0.00    -0.258 OA
ENDBRANCH   9  21
ENDBRANCH   3   5
ENDBRANCH   2   3
ENDBRANCH   1   2
BRANCH   1  24
ATOM     24  C   UNL A   1      32.968  30.349  27.247  1.00  0.00     0.275 C 
BRANCH  24  25
ATOM     25  O   UNL A   1      34.144  31.161  27.115  1.00  0.00    -0.458 OA
BRANCH  25  26
ATOM     26  C   UNL A   1      34.524  31.834  28.225  1.00  0.00     0.338 C 
ATOM     27  O   UNL A   1      33.873  32.671  28.835  1.00  0.00    -0.246 OA
BRANCH  26  28
ATOM     28  C   UNL A   1      35.865  31.385  28.639  1.00  0.00     0.060 A 
ATOM     29  C   UNL A   1      36.014  30.132  29.217  1.00  0.00     0.016 A 
ATOM     30  C   UNL A   1      36.947  32.262  28.617  1.00  0.00     0.016 A 
ATOM     31  C   UNL A   1      37.173  29.825  29.918  1.00  0.00     0.010 A 
ATOM     32  C   UNL A   1      38.174  31.869  29.174  1.00  0.00     0.010 A 
ATOM     33  C   UNL A   1      38.295  30.656  29.871  1.00  0.00    -0.014 A 
BRANCH  33  34
ATOM     34  C   UNL A   1      39.567  30.227  30.533  1.00  0.00     0.031 A 
ATOM     35  C   UNL A   1      40.424  29.131  29.945  1.00  0.00     0.074 A 
ATOM     36  C   UNL A   1      39.971  30.837  31.670  1.00  0.00     0.049 A 
ATOM     37  N   UNL A   1      41.417  28.477  30.498  1.00  0.00    -0.248 NA
ATOM     38  C   UNL A   1      40.117  28.694  28.573  1.00  0.00     0.031 C 
ATOM     39  C   UNL A   1      39.287  31.956  32.331  1.00  0.00     0.029 A 
ATOM     40  N   UNL A   1      41.064  30.615  32.474  1.00  0.00    -0.354 N 
ATOM     41  C   UNL A   1      41.802  27.508  29.575  1.00  0.00     0.074 A 
ATOM     42  C   UNL A   1      40.940  27.663  28.423  1.00  0.00     0.031 C 
ATOM     43  C   UNL A   1      40.010  32.371  33.376  1.00  0.00     0.029 A 
ATOM     44  C   UNL A   1      41.116  31.448  33.570  1.00  0.00     0.049 A 
ATOM     45  H   UNL A   1      41.744  29.929  32.285  1.00  0.00     0.167 HD
ATOM     46  C   UNL A   1      42.776  26.572  29.689  1.00  0.00     0.031 A 
ATOM     47  C   UNL A   1      41.900  31.435  34.664  1.00  0.00     0.031 A 
ATOM     48  C   UNL A   1      43.657  26.463  30.828  1.00  0.00     0.049 A 
ATOM     49  C   UNL A   1      42.913  30.343  34.806  1.00  0.00     0.074 A 
ATOM     50  C   UNL A   1      44.686  25.561  31.036  1.00  0.00     0.029 A 
ATOM     51  N   UNL A   1      43.619  27.287  31.943  1.00  0.00    -0.354 N 
ATOM     52  N   UNL A   1      43.220  29.394  33.956  1.00  0.00    -0.248 NA
ATOM     53  C   UNL A   1      43.665  30.301  36.065  1.00  0.00     0.031 C 
ATOM     54  C   UNL A   1      45.227  25.798  32.303  1.00  0.00     0.029 A 
ATOM     55  C   UNL A   1      44.582  26.891  32.858  1.00  0.00     0.049 A 
ATOM     56  H   UNL A   1      43.000  28.041  32.068  1.00  0.00     0.167 HD
ATOM     57  C   UNL A   1      44.201  28.637  34.579  1.00  0.00     0.074 A 
ATOM     58  C   UNL A   1      44.462  29.262  35.861  1.00  0.00     0.031 C 
ATOM     59  C   UNL A   1      44.821  27.515  34.136  1.00  0.00     0.031 A 
BRANCH  46  60
ATOM     60  C   UNL A   1      42.914  25.546  28.589  1.00  0.00    -0.014 A 
ATOM     61  C   UNL A   1      43.837  25.696  27.540  1.00  0.00     0.010 A 
ATOM     62  C   UNL A   1      42.140  24.370  28.649  1.00  0.00     0.010 A 
ATOM     63  C   UNL A   1      43.959  24.707  26.556  1.00  0.00     0.020 A 
ATOM     64  C   UNL A   1      42.278  23.366  27.685  1.00  0.00     0.020 A 
ATOM     65  C   UNL A   1      43.178  23.548  26.635  1.00  0.00     0.054 A 
BRANCH  65  66
ATOM     66  S   UNL A   1      43.378  22.271  25.360  1.00  0.00     0.124 S 
ATOM     67  O   UNL A   1      42.231  21.403  25.620  1.00  0.00    -0.237 OA
ATOM     68  O   UNL A   1      43.312  23.042  24.121  1.00  0.00    -0.237 OA
ATOM     69  O   UNL A   1      44.681  21.683  25.656  1.00  0.00    -0.744 OA
ENDBRANCH  65  66
ENDBRANCH  46  60
BRANCH  47  70
ATOM     70  C   UNL A   1      41.670  32.431  35.749  1.00  0.00    -0.014 A 
ATOM     71  C   UNL A   1      40.768  32.162  36.791  1.00  0.00     0.010 A 
ATOM     72  C   UNL A   1      42.393  33.641  35.766  1.00  0.00     0.010 A 
ATOM     73  C   UNL A   1      40.593  33.083  37.829  1.00  0.00     0.020 A 
ATOM     74  C   UNL A   1      42.252  34.544  36.822  1.00  0.00     0.020 A 
ATOM     75  C   UNL A   1      41.345  34.263  37.842  1.00  0.00     0.054 A 
BRANCH  75  76
ATOM     76  S   UNL A   1      41.155  35.406  39.238  1.00  0.00     0.124 S 
ATOM     77  O   UNL A   1      40.923  34.491  40.350  1.00  0.00    -0.237 OA
ATOM     78  O   UNL A   1      42.439  36.104  39.249  1.00  0.00    -0.237 OA
ATOM     79  O   UNL A   1      40.011  36.230  38.854  1.00  0.00    -0.744 OA
ENDBRANCH  75  76
ENDBRANCH  47  70
BRANCH  59  80
ATOM     80  C   UNL A   1      45.852  26.905  35.043  1.00  0.00    -0.014 A 
ATOM     81  C   UNL A   1      45.503  25.896  35.959  1.00  0.00     0.010 A 
ATOM     82  C   UNL A   1      47.192  27.323  34.957  1.00  0.00     0.010 A 
ATOM     83  C   UNL A   1      46.473  25.338  36.796  1.00  0.00     0.020 A 
ATOM     84  C   UNL A   1      48.170  26.745  35.770  1.00  0.00     0.020 A 
ATOM     85  C   UNL A   1      47.801  25.765  36.693  1.00  0.00     0.054 A 
BRANCH  85  86
ATOM     86  S   UNL A   1      49.046  24.991  37.760  1.00  0.00     0.124 S 
ATOM     87  O   UNL A   1      48.494  23.652  37.950  1.00  0.00    -0.237 OA
ATOM     88  O   UNL A   1      50.255  25.063  36.944  1.00  0.00    -0.237 OA
ATOM     89  O   UNL A   1      49.054  25.836  38.952  1.00  0.00    -0.744 OA
ENDBRANCH  85  86
ENDBRANCH  59  80
ENDBRANCH  33  34
ENDBRANCH  26  28
ENDBRANCH  25  26
ENDBRANCH  24  25
ENDBRANCH   1  24
TORSDOF 19
ENDMDL
MODEL 3
REMARK VINA RESULT:      -9.3      6.023     11.289
REMARK SMILES CNC(=O)[C@H](C)Oc1cc([N+](=O)[O-])c(C(=O)OCCOC(=O)c2ccc(-c3c4nc(c(-c5ccc(S(=O)(=O)[O-])cc5)c5ccc([nH]5)c(-c5ccc(S(=O)(=O)[O-])cc5)c5nc(c(-c6ccc(S(=O)(=O)[O-])cc6)c6ccc3[nH]6)C=C5)C=C4)cc2)cc1OC
REMARK SMILES IDX 18 1 17 2 15 3 16 4 14 5 8 6 9 7 84 8 10 9 83 10 7 11 5 12
REMARK SMILES IDX 6 13 3 14 1 15 2 16 4 18 85 19 86 20 11 21 12 22 13 23 19 24
REMARK SMILES IDX 20 25 21 26 22 27 23 28 24 29 82 30 25 31 81 32 26 33 27 34
REMARK SMILES IDX 28 35 75 36 29 37 80 38 74 39 76 40 30 41 79 42 73 43 72 44
REMARK SMILES IDX 31 46 61 47 42 48 60 49 43 50 46 51 59 52 77 53 44 54 45 55
REMARK SMILES IDX 58 57 78 58 47 59 32 60 33 61 41 62 34 63 40 64 35 65 36 66
REMARK SMILES IDX 37 67 38 68 39 69 62 70 63 71 71 72 64 73 70 74 65 75 66 76
REMARK SMILES IDX 67 77 68 78 69 79 48 80 49 81 57 82 50 83 56 84 51 85 52 86
REMARK SMILES IDX 53 87 54 88 55 89
REMARK H PARENT 2 17 76 45 46 56
REMARK Flexibility Score: inf
ROOT
ATOM      1  C   UNL A   1      41.902  19.946  27.705  1.00  0.00     0.275 C 
ENDROOT
BRANCH   1   2
ATOM      2  O   UNL A   1      40.637  20.645  27.710  1.00  0.00    -0.458 OA
BRANCH   2   3
ATOM      3  C   UNL A   1      40.698  21.991  27.582  1.00  0.00     0.345 C 
ATOM      4  O   UNL A   1      41.432  22.752  28.186  1.00  0.00    -0.246 OA
BRANCH   3   5
ATOM      5  C   UNL A   1      39.637  22.509  26.699  1.00  0.00     0.141 A 
ATOM      6  C   UNL A   1      37.147  23.214  25.618  1.00  0.00     0.169 A 
ATOM      7  C   UNL A   1      37.827  24.119  26.416  1.00  0.00     0.137 A 
ATOM      8  C   UNL A   1      37.780  22.020  25.230  1.00  0.00     0.162 A 
ATOM      9  C   UNL A   1      39.101  23.786  26.874  1.00  0.00     0.287 A 
ATOM     10  C   UNL A   1      38.980  21.635  25.842  1.00  0.00     0.073 A 
BRANCH   6  11
ATOM     11  O   UNL A   1      35.975  23.616  25.061  1.00  0.00    -0.477 OA
BRANCH  11  12
ATOM     12  C   UNL A   1      34.808  22.847  25.351  1.00  0.00     0.259 C 
ATOM     13  C   UNL A   1      33.936  23.808  26.166  1.00  0.00     0.064 C 
BRANCH  12  14
ATOM     14  C   UNL A   1      33.909  22.227  24.242  1.00  0.00     0.260 C 
ATOM     15  C   UNL A   1      33.260  20.158  25.600  1.00  0.00     0.142 C 
ATOM     16  N   UNL A   1      33.258  21.046  24.458  1.00  0.00    -0.356 N 
ATOM     17  H   UNL A   1      32.690  20.750  23.710  1.00  0.00     0.163 HD
ATOM     18  O   UNL A   1      33.754  22.777  23.149  1.00  0.00    -0.271 OA
ENDBRANCH  12  14
ENDBRANCH  11  12
ENDBRANCH   6  11
BRANCH   8  19
ATOM     19  O   UNL A   1      37.375  21.125  24.280  1.00  0.00    -0.493 OA
ATOM     20  C   UNL A   1      36.982  19.836  24.721  1.00  0.00     0.278 C 
ENDBRANCH   8  19
BRANCH   9  21
ATOM     21  N   UNL A   1      39.992  24.919  26.998  1.00  0.00     0.063 N 
ATOM     22  O   UNL A   1      39.836  25.659  27.978  1.00  0.00    -0.258 OA
ATOM     23  O   UNL A   1      40.727  25.145  26.028  1.00  0.00    -0.258 OA
ENDBRANCH   9  21
ENDBRANCH   3   5
ENDBRANCH   2   3
ENDBRANCH   1   2
BRANCH   1  24
ATOM     24  C   UNL A   1      42.149  19.265  26.362  1.00  0.00     0.275 C 
BRANCH  24  25
ATOM     25  O   UNL A   1      42.390  20.266  25.361  1.00  0.00    -0.458 OA
BRANCH  25  26
ATOM     26  C   UNL A   1      43.663  20.359  24.917  1.00  0.00     0.338 C 
ATOM     27  O   UNL A   1      44.287  19.510  24.292  1.00  0.00    -0.246 OA
BRANCH  26  28
ATOM     28  C   UNL A   1      44.214  21.679  25.268  1.00  0.00     0.060 A 
ATOM     29  C   UNL A   1      45.267  21.759  26.168  1.00  0.00     0.016 A 
ATOM     30  C   UNL A   1      43.584  22.848  24.844  1.00  0.00     0.016 A 
ATOM     31  C   UNL A   1      45.574  22.972  26.771  1.00  0.00     0.010 A 
ATOM     32  C   UNL A   1      44.024  24.090  25.328  1.00  0.00     0.010 A 
ATOM     33  C   UNL A   1      45.002  24.169  26.333  1.00  0.00    -0.014 A 
BRANCH  33  34
ATOM     34  C   UNL A   1      45.454  25.469  26.921  1.00  0.00     0.031 A 
ATOM     35  C   UNL A   1      44.551  26.275  27.824  1.00  0.00     0.074 A 
ATOM     36  C   UNL A   1      46.697  25.930  26.655  1.00  0.00     0.049 A 
ATOM     37  N   UNL A   1      44.685  27.516  28.225  1.00  0.00    -0.248 NA
ATOM     38  C   UNL A   1      43.333  25.618  28.326  1.00  0.00     0.031 C 
ATOM     39  C   UNL A   1      47.713  25.238  25.851  1.00  0.00     0.029 A 
ATOM     40  N   UNL A   1      47.333  27.086  27.040  1.00  0.00    -0.354 N 
ATOM     41  C   UNL A   1      43.539  27.810  28.959  1.00  0.00     0.074 A 
ATOM     42  C   UNL A   1      42.722  26.615  28.954  1.00  0.00     0.031 C 
ATOM     43  C   UNL A   1      48.854  25.934  25.873  1.00  0.00     0.029 A 
ATOM     44  C   UNL A   1      48.611  27.201  26.541  1.00  0.00     0.049 A 
ATOM     45  H   UNL A   1      46.915  27.766  27.617  1.00  0.00     0.167 HD
ATOM     46  C   UNL A   1      43.199  28.973  29.567  1.00  0.00     0.031 A 
ATOM     47  C   UNL A   1      49.477  28.232  26.533  1.00  0.00     0.031 A 
ATOM     48  C   UNL A   1      44.048  30.140  29.600  1.00  0.00     0.049 A 
ATOM     49  C   UNL A   1      49.048  29.531  27.138  1.00  0.00     0.074 A 
ATOM     50  C   UNL A   1      43.805  31.364  30.201  1.00  0.00     0.029 A 
ATOM     51  N   UNL A   1      45.303  30.227  29.016  1.00  0.00    -0.354 N 
ATOM     52  N   UNL A   1      47.935  29.814  27.770  1.00  0.00    -0.248 NA
ATOM     53  C   UNL A   1      49.977  30.660  27.005  1.00  0.00     0.031 C 
ATOM     54  C   UNL A   1      44.885  32.209  29.926  1.00  0.00     0.029 A 
ATOM     55  C   UNL A   1      45.831  31.494  29.212  1.00  0.00     0.049 A 
ATOM     56  H   UNL A   1      45.753  29.497  28.533  1.00  0.00     0.167 HD
ATOM     57  C   UNL A   1      48.027  31.157  28.107  1.00  0.00     0.074 A 
ATOM     58  C   UNL A   1      49.321  31.618  27.644  1.00  0.00     0.031 C 
ATOM     59  C   UNL A   1      47.115  31.942  28.733  1.00  0.00     0.031 A 
BRANCH  46  60
ATOM     60  C   UNL A   1      41.831  29.077  30.199  1.00  0.00    -0.014 A 
ATOM     61  C   UNL A   1      40.715  29.555  29.490  1.00  0.00     0.010 A 
ATOM     62  C   UNL A   1      41.650  28.622  31.521  1.00  0.00     0.010 A 
ATOM     63  C   UNL A   1      39.456  29.606  30.100  1.00  0.00     0.020 A 
ATOM     64  C   UNL A   1      40.390  28.644  32.124  1.00  0.00     0.020 A 
ATOM     65  C   UNL A   1      39.301  29.151  31.414  1.00  0.00     0.054 A 
BRANCH  65  66
ATOM     66  S   UNL A   1      37.651  29.203  32.169  1.00  0.00     0.124 S 
ATOM     67  O   UNL A   1      37.683  28.035  33.046  1.00  0.00    -0.237 OA
ATOM     68  O   UNL A   1      37.651  30.497  32.848  1.00  0.00    -0.237 OA
ATOM     69  O   UNL A   1      36.742  29.101  31.031  1.00  0.00    -0.744 OA
ENDBRANCH  65  66
ENDBRANCH  46  60
BRANCH  47  70
ATOM     70  C   UNL A   1      50.786  28.092  25.833  1.00  0.00    -0.014 A 
ATOM     71  C   UNL A   1      51.950  27.763  26.546  1.00  0.00     0.010 A 
ATOM     72  C   UNL A   1      50.862  28.246  24.434  1.00  0.00     0.010 A 
ATOM     73  C   UNL A   1      53.163  27.589  25.875  1.00  0.00     0.020 A 
ATOM     74  C   UNL A   1      52.063  28.031  23.755  1.00  0.00     0.020 A 
ATOM     75  C   UNL A   1      53.209  27.714  24.482  1.00  0.00     0.054 A 
BRANCH  75  76
ATOM     76  S   UNL A   1      54.780  27.410  23.626  1.00  0.00     0.124 S 
ATOM     77  O   UNL A   1      55.622  28.480  24.150  1.00  0.00    -0.237 OA
ATOM     78  O   UNL A   1      55.122  26.060  24.068  1.00  0.00    -0.237 OA
ATOM     79  O   UNL A   1      54.427  27.523  22.213  1.00  0.00    -0.744 OA
ENDBRANCH  75  76
ENDBRANCH  47  70
BRANCH  59  80
ATOM     80  C   UNL A   1      47.498  33.376  28.962  1.00  0.00    -0.014 A 
ATOM     81  C   UNL A   1      48.218  33.759  30.108  1.00  0.00     0.010 A 
ATOM     82  C   UNL A   1      47.161  34.351  28.004  1.00  0.00     0.010 A 
ATOM     83  C   UNL A   1      48.569  35.096  30.307  1.00  0.00     0.020 A 
ATOM     84  C   UNL A   1      47.536  35.683  28.185  1.00  0.00     0.020 A 
ATOM     85  C   UNL A   1      48.227  36.050  29.342  1.00  0.00     0.054 A 
BRANCH  85  86
ATOM     86  S   UNL A   1      48.734  37.771  29.605  1.00  0.00     0.124 S 
ATOM     87  O   UNL A   1      47.510  38.500  29.286  1.00  0.00    -0.237 OA
ATOM     88  O   UNL A   1      49.121  37.777  31.013  1.00  0.00    -0.237 OA
ATOM     89  O   UNL A   1      49.833  37.957  28.661  1.00  0.00    -0.744 OA
ENDBRANCH  85  86
ENDBRANCH  59  80
ENDBRANCH  33  34
ENDBRANCH  26  28
ENDBRANCH  25  26
ENDBRANCH  24  25
ENDBRANCH   1  24
TORSDOF 19
ENDMDL
