MODEL 1
REMARK VINA RESULT:     -10.2      0.000      0.000
REMARK SMILES COCCCC(=O)N[C@H]1CC[C@@H](C(=O)OCCOC(=O)c2ccc(-c3c4nc(c(-c5ccc(S(=O)(=O)[O-])cc5)c5ccc([nH]5)c(-c5ccc(S(=O)(=O)[O-])cc5)c5nc(c(-c6ccc(S(=O)(=O)[O-])cc6)c6ccc3[nH]6)C=C5)C=C4)cc2)CC1
REMARK SMILES IDX 16 1 15 2 13 3 14 4 12 5 9 6 10 7 82 8 11 9 81 10 8 11 6 12
REMARK SMILES IDX 7 13 5 15 4 16 3 17 2 18 1 19 17 20 18 21 19 22 20 23 21 24
REMARK SMILES IDX 22 25 80 26 23 27 79 28 24 29 25 30 26 31 73 32 27 33 78 34
REMARK SMILES IDX 72 35 74 36 28 37 77 38 71 39 70 40 29 42 59 43 40 44 58 45
REMARK SMILES IDX 41 46 44 47 57 48 75 49 42 50 43 51 56 53 76 54 45 55 30 56
REMARK SMILES IDX 31 57 39 58 32 59 38 60 33 61 34 62 35 63 36 64 37 65 60 66
REMARK SMILES IDX 61 67 69 68 62 69 68 70 63 71 64 72 65 73 66 74 67 75 46 76
REMARK SMILES IDX 47 77 55 78 48 79 54 80 49 81 50 82 51 83 52 84 53 85
REMARK H PARENT 8 14 74 41 44 52
REMARK Flexibility Score: inf
ROOT
ATOM      1  C   UNL A   1      33.405  29.749  26.948  1.00  0.00     0.274 C 
ENDROOT
BRANCH   1   2
ATOM      2  O   UNL A   1      33.363  29.115  25.656  1.00  0.00    -0.462 OA
BRANCH   2   3
ATOM      3  C   UNL A   1      32.413  28.171  25.455  1.00  0.00     0.309 C 
ATOM      4  O   UNL A   1      31.485  27.947  26.223  1.00  0.00    -0.252 OA
BRANCH   3   5
ATOM      5  C   UNL A   1      32.622  27.374  24.161  1.00  0.00     0.099 C 
ATOM      6  C   UNL A   1      30.063  28.083  22.788  1.00  0.00     0.082 C 
ATOM      7  C   UNL A   1      31.280  29.000  22.846  1.00  0.00     0.026 C 
ATOM      8  C   UNL A   1      30.197  26.791  23.626  1.00  0.00     0.026 C 
ATOM      9  C   UNL A   1      32.633  28.324  22.970  1.00  0.00     0.017 C 
ATOM     10  C   UNL A   1      31.610  26.271  23.873  1.00  0.00     0.017 C 
BRANCH   6  11
ATOM     11  N   UNL A   1      28.789  28.720  23.197  1.00  0.00    -0.353 N 
ATOM     12  C   UNL A   1      27.919  29.627  22.683  1.00  0.00     0.220 C 
ATOM     13  O   UNL A   1      26.992  29.990  23.414  1.00  0.00    -0.275 OA
ATOM     14  H   UNL A   1      28.494  28.398  24.079  1.00  0.00     0.163 HD
BRANCH  12  15
ATOM     15  C   UNL A   1      28.043  30.191  21.285  1.00  0.00     0.102 C 
BRANCH  15  16
ATOM     16  C   UNL A   1      27.653  31.672  21.195  1.00  0.00     0.038 C 
BRANCH  16  17
ATOM     17  C   UNL A   1      28.780  32.647  21.555  1.00  0.00     0.160 C 
BRANCH  17  18
ATOM     18  O   UNL A   1      28.385  33.530  22.605  1.00  0.00    -0.385 OA
ATOM     19  C   UNL A   1      29.450  33.831  23.501  1.00  0.00     0.194 C 
ENDBRANCH  17  18
ENDBRANCH  16  17
ENDBRANCH  15  16
ENDBRANCH  12  15
ENDBRANCH   6  11
ENDBRANCH   3   5
ENDBRANCH   2   3
ENDBRANCH   1   2
BRANCH   1  20
ATOM     20  C   UNL A   1      34.632  29.270  27.721  1.00  0.00     0.275 C 
BRANCH  20  21
ATOM     21  O   UNL A   1      35.658  30.278  27.702  1.00  0.00    -0.458 OA
BRANCH  21  22
ATOM     22  C   UNL A   1      36.314  30.455  28.871  1.00  0.00     0.338 C 
ATOM     23  O   UNL A   1      35.865  30.867  29.930  1.00  0.00    -0.246 OA
BRANCH  22  24
ATOM     24  C   UNL A   1      37.685  29.966  28.717  1.00  0.00     0.060 A 
ATOM     25  C   UNL A   1      38.471  29.791  29.857  1.00  0.00     0.016 A 
ATOM     26  C   UNL A   1      38.211  29.746  27.446  1.00  0.00     0.016 A 
ATOM     27  C   UNL A   1      39.803  29.422  29.736  1.00  0.00     0.010 A 
ATOM     28  C   UNL A   1      39.537  29.328  27.327  1.00  0.00     0.010 A 
ATOM     29  C   UNL A   1      40.341  29.173  28.470  1.00  0.00    -0.014 A 
BRANCH  29  30
ATOM     30  C   UNL A   1      41.748  28.740  28.343  1.00  0.00     0.031 A 
ATOM     31  C   UNL A   1      42.850  29.750  28.449  1.00  0.00     0.074 A 
ATOM     32  C   UNL A   1      42.019  27.440  28.120  1.00  0.00     0.049 A 
ATOM     33  N   UNL A   1      44.125  29.604  28.204  1.00  0.00    -0.248 NA
ATOM     34  C   UNL A   1      42.467  31.104  28.883  1.00  0.00     0.031 C 
ATOM     35  C   UNL A   1      41.025  26.365  28.058  1.00  0.00     0.029 A 
ATOM     36  N   UNL A   1      43.212  26.804  27.895  1.00  0.00    -0.354 N 
ATOM     37  C   UNL A   1      44.693  30.854  28.416  1.00  0.00     0.074 A 
ATOM     38  C   UNL A   1      43.625  31.747  28.810  1.00  0.00     0.031 C 
ATOM     39  C   UNL A   1      41.649  25.204  27.808  1.00  0.00     0.029 A 
ATOM     40  C   UNL A   1      43.072  25.463  27.626  1.00  0.00     0.049 A 
ATOM     41  H   UNL A   1      44.083  27.263  27.922  1.00  0.00     0.167 HD
ATOM     42  C   UNL A   1      45.990  31.219  28.280  1.00  0.00     0.031 A 
ATOM     43  C   UNL A   1      43.983  24.556  27.226  1.00  0.00     0.031 A 
ATOM     44  C   UNL A   1      47.039  30.315  27.889  1.00  0.00     0.049 A 
ATOM     45  C   UNL A   1      45.402  25.001  27.018  1.00  0.00     0.074 A 
ATOM     46  C   UNL A   1      48.388  30.576  27.729  1.00  0.00     0.029 A 
ATOM     47  N   UNL A   1      46.853  28.972  27.594  1.00  0.00    -0.354 N 
ATOM     48  N   UNL A   1      45.924  26.191  27.198  1.00  0.00    -0.248 NA
ATOM     49  C   UNL A   1      46.349  23.988  26.537  1.00  0.00     0.031 C 
ATOM     50  C   UNL A   1      49.009  29.400  27.293  1.00  0.00     0.029 A 
ATOM     51  C   UNL A   1      48.056  28.396  27.228  1.00  0.00     0.049 A 
ATOM     52  H   UNL A   1      45.991  28.498  27.640  1.00  0.00     0.167 HD
ATOM     53  C   UNL A   1      47.265  26.069  26.856  1.00  0.00     0.074 A 
ATOM     54  C   UNL A   1      47.476  24.685  26.481  1.00  0.00     0.031 C 
ATOM     55  C   UNL A   1      48.234  27.018  26.847  1.00  0.00     0.031 A 
BRANCH  42  56
ATOM     56  C   UNL A   1      46.331  32.665  28.507  1.00  0.00    -0.014 A 
ATOM     57  C   UNL A   1      46.164  33.626  27.496  1.00  0.00     0.010 A 
ATOM     58  C   UNL A   1      46.807  33.073  29.768  1.00  0.00     0.010 A 
ATOM     59  C   UNL A   1      46.499  34.964  27.730  1.00  0.00     0.020 A 
ATOM     60  C   UNL A   1      47.123  34.412  30.013  1.00  0.00     0.020 A 
ATOM     61  C   UNL A   1      46.983  35.347  28.985  1.00  0.00     0.054 A 
BRANCH  61  62
ATOM     62  S   UNL A   1      47.397  37.090  29.267  1.00  0.00     0.124 S 
ATOM     63  O   UNL A   1      47.875  37.065  30.647  1.00  0.00    -0.237 OA
ATOM     64  O   UNL A   1      48.419  37.347  28.254  1.00  0.00    -0.237 OA
ATOM     65  O   UNL A   1      46.130  37.786  29.059  1.00  0.00    -0.744 OA
ENDBRANCH  61  62
ENDBRANCH  42  56
BRANCH  43  66
ATOM     66  C   UNL A   1      43.557  23.160  26.940  1.00  0.00    -0.014 A 
ATOM     67  C   UNL A   1      43.812  22.574  25.690  1.00  0.00     0.010 A 
ATOM     68  C   UNL A   1      42.916  22.399  27.936  1.00  0.00     0.010 A 
ATOM     69  C   UNL A   1      43.431  21.253  25.438  1.00  0.00     0.020 A 
ATOM     70  C   UNL A   1      42.558  21.070  27.698  1.00  0.00     0.020 A 
ATOM     71  C   UNL A   1      42.808  20.508  26.444  1.00  0.00     0.054 A 
BRANCH  71  72
ATOM     72  S   UNL A   1      42.381  18.774  26.121  1.00  0.00     0.124 S 
ATOM     73  O   UNL A   1      42.660  18.149  27.410  1.00  0.00    -0.237 OA
ATOM     74  O   UNL A   1      40.971  18.858  25.751  1.00  0.00    -0.237 OA
ATOM     75  O   UNL A   1      43.281  18.399  25.033  1.00  0.00    -0.744 OA
ENDBRANCH  71  72
ENDBRANCH  43  66
BRANCH  55  76
ATOM     76  C   UNL A   1      49.609  26.581  26.428  1.00  0.00    -0.014 A 
ATOM     77  C   UNL A   1      50.499  26.014  27.357  1.00  0.00     0.010 A 
ATOM     78  C   UNL A   1      49.996  26.697  25.082  1.00  0.00     0.010 A 
ATOM     79  C   UNL A   1      51.765  25.591  26.950  1.00  0.00     0.020 A 
ATOM     80  C   UNL A   1      51.255  26.255  24.667  1.00  0.00     0.020 A 
ATOM     81  C   UNL A   1      52.136  25.717  25.607  1.00  0.00     0.054 A 
BRANCH  81  82
ATOM     82  S   UNL A   1      53.769  25.121  25.091  1.00  0.00     0.124 S 
ATOM     83  O   UNL A   1      54.617  25.568  26.193  1.00  0.00    -0.237 OA
ATOM     84  O   UNL A   1      53.571  23.677  24.996  1.00  0.00    -0.237 OA
ATOM     85  O   UNL A   1      53.996  25.798  23.815  1.00  0.00    -0.744 OA
ENDBRANCH  81  82
ENDBRANCH  55  76
ENDBRANCH  29  30
ENDBRANCH  22  24
ENDBRANCH  21  22
ENDBRANCH  20  21
ENDBRANCH   1  20
TORSDOF 19
ENDMDL
MODEL 2
REMARK VINA RESULT:      -9.9      6.910     12.325
REMARK SMILES COCCCC(=O)N[C@H]1CC[C@@H](C(=O)OCCOC(=O)c2ccc(-c3c4nc(c(-c5ccc(S(=O)(=O)[O-])cc5)c5ccc([nH]5)c(-c5ccc(S(=O)(=O)[O-])cc5)c5nc(c(-c6ccc(S(=O)(=O)[O-])cc6)c6ccc3[nH]6)C=C5)C=C4)cc2)CC1
REMARK SMILES IDX 16 1 15 2 13 3 14 4 12 5 9 6 10 7 82 8 11 9 81 10 8 11 6 12
REMARK SMILES IDX 7 13 5 15 4 16 3 17 2 18 1 19 17 20 18 21 19 22 20 23 21 24
REMARK SMILES IDX 22 25 80 26 23 27 79 28 24 29 25 30 26 31 73 32 27 33 78 34
REMARK SMILES IDX 72 35 74 36 28 37 77 38 71 39 70 40 29 42 59 43 40 44 58 45
REMARK SMILES IDX 41 46 44 47 57 48 75 49 42 50 43 51 56 53 76 54 45 55 30 56
REMARK SMILES IDX 31 57 39 58 32 59 38 60 33 61 34 62 35 63 36 64 37 65 60 66
REMARK SMILES IDX 61 67 69 68 62 69 68 70 63 71 64 72 65 73 66 74 67 75 46 76
REMARK SMILES IDX 47 77 55 78 48 79 54 80 49 81 50 82 51 83 52 84 53 85
REMARK H PARENT 8 14 74 41 44 52
REMARK Flexibility Score: inf
ROOT
ATOM      1  C   UNL A   1      38.939  21.653  25.713  1.00  0.00     0.274 C 
ENDROOT
BRANCH   1   2
ATOM      2  O   UNL A   1      37.542  21.718  26.057  1.00  0.00    -0.462 OA
BRANCH   2   3
ATOM      3  C   UNL A   1      36.645  21.528  25.060  1.00  0.00     0.309 C 
ATOM      4  O   UNL A   1      35.993  20.502  24.901  1.00  0.00    -0.252 OA
BRANCH   3   5
ATOM      5  C   UNL A   1      36.533  22.730  24.114  1.00  0.00     0.099 C 
ATOM      6  C   UNL A   1      34.024  23.925  25.214  1.00  0.00     0.082 C 
ATOM      7  C   UNL A   1      35.398  24.096  25.851  1.00  0.00     0.026 C 
ATOM      8  C   UNL A   1      33.994  22.954  24.011  1.00  0.00     0.026 C 
ATOM      9  C   UNL A   1      36.592  24.022  24.919  1.00  0.00     0.017 C 
ATOM     10  C   UNL A   1      35.293  22.784  23.229  1.00  0.00     0.017 C 
BRANCH   6  11
ATOM     11  N   UNL A   1      32.962  23.475  26.144  1.00  0.00    -0.353 N 
ATOM     12  C   UNL A   1      31.738  23.908  26.543  1.00  0.00     0.220 C 
ATOM     13  O   UNL A   1      31.193  23.281  27.457  1.00  0.00    -0.275 OA
ATOM     14  H   UNL A   1      33.210  22.635  26.594  1.00  0.00     0.163 HD
BRANCH  12  15
ATOM     15  C   UNL A   1      31.038  25.097  25.921  1.00  0.00     0.102 C 
BRANCH  15  16
ATOM     16  C   UNL A   1      31.738  26.429  26.214  1.00  0.00     0.038 C 
BRANCH  16  17
ATOM     17  C   UNL A   1      31.146  27.633  25.471  1.00  0.00     0.160 C 
BRANCH  17  18
ATOM     18  O   UNL A   1      31.619  28.863  26.017  1.00  0.00    -0.385 OA
ATOM     19  C   UNL A   1      31.771  28.815  27.433  1.00  0.00     0.194 C 
ENDBRANCH  17  18
ENDBRANCH  16  17
ENDBRANCH  15  16
ENDBRANCH  12  15
ENDBRANCH   6  11
ENDBRANCH   3   5
ENDBRANCH   2   3
ENDBRANCH   1   2
BRANCH   1  20
ATOM     20  C   UNL A   1      39.772  22.322  26.804  1.00  0.00     0.275 C 
BRANCH  20  21
ATOM     21  O   UNL A   1      39.683  23.753  26.693  1.00  0.00    -0.458 OA
BRANCH  21  22
ATOM     22  C   UNL A   1      40.865  24.409  26.728  1.00  0.00     0.338 C 
ATOM     23  O   UNL A   1      41.847  24.226  26.024  1.00  0.00    -0.246 OA
BRANCH  22  24
ATOM     24  C   UNL A   1      40.771  25.492  27.708  1.00  0.00     0.060 A 
ATOM     25  C   UNL A   1      41.845  26.374  27.843  1.00  0.00     0.016 A 
ATOM     26  C   UNL A   1      39.654  25.594  28.534  1.00  0.00     0.016 A 
ATOM     27  C   UNL A   1      41.825  27.349  28.829  1.00  0.00     0.010 A 
ATOM     28  C   UNL A   1      39.614  26.606  29.493  1.00  0.00     0.010 A 
ATOM     29  C   UNL A   1      40.702  27.482  29.651  1.00  0.00    -0.014 A 
BRANCH  29  30
ATOM     30  C   UNL A   1      40.663  28.548  30.674  1.00  0.00     0.031 A 
ATOM     31  C   UNL A   1      41.585  28.483  31.854  1.00  0.00     0.074 A 
ATOM     32  C   UNL A   1      39.786  29.560  30.537  1.00  0.00     0.049 A 
ATOM     33  N   UNL A   1      41.594  29.219  32.933  1.00  0.00    -0.248 NA
ATOM     34  C   UNL A   1      42.634  27.449  31.816  1.00  0.00     0.031 C 
ATOM     35  C   UNL A   1      38.883  29.751  29.398  1.00  0.00     0.029 A 
ATOM     36  N   UNL A   1      39.503  30.614  31.367  1.00  0.00    -0.354 N 
ATOM     37  C   UNL A   1      42.620  28.716  33.722  1.00  0.00     0.074 A 
ATOM     38  C   UNL A   1      43.214  27.613  32.998  1.00  0.00     0.031 C 
ATOM     39  C   UNL A   1      38.146  30.853  29.603  1.00  0.00     0.029 A 
ATOM     40  C   UNL A   1      38.474  31.404  30.913  1.00  0.00     0.049 A 
ATOM     41  H   UNL A   1      39.988  30.786  32.206  1.00  0.00     0.167 HD
ATOM     42  C   UNL A   1      43.020  29.137  34.946  1.00  0.00     0.031 A 
ATOM     43  C   UNL A   1      37.833  32.427  31.509  1.00  0.00     0.031 A 
ATOM     44  C   UNL A   1      42.418  30.238  35.648  1.00  0.00     0.049 A 
ATOM     45  C   UNL A   1      38.249  32.830  32.894  1.00  0.00     0.074 A 
ATOM     46  C   UNL A   1      42.749  30.754  36.888  1.00  0.00     0.029 A 
ATOM     47  N   UNL A   1      41.357  30.994  35.169  1.00  0.00    -0.354 N 
ATOM     48  N   UNL A   1      39.206  32.333  33.642  1.00  0.00    -0.248 NA
ATOM     49  C   UNL A   1      37.492  33.919  33.522  1.00  0.00     0.031 C 
ATOM     50  C   UNL A   1      41.857  31.794  37.178  1.00  0.00     0.029 A 
ATOM     51  C   UNL A   1      41.003  31.955  36.099  1.00  0.00     0.049 A 
ATOM     52  H   UNL A   1      40.921  30.866  34.296  1.00  0.00     0.167 HD
ATOM     53  C   UNL A   1      39.169  33.052  34.830  1.00  0.00     0.074 A 
ATOM     54  C   UNL A   1      38.110  34.032  34.690  1.00  0.00     0.031 C 
ATOM     55  C   UNL A   1      39.936  32.911  35.938  1.00  0.00     0.031 A 
BRANCH  42  56
ATOM     56  C   UNL A   1      44.123  28.368  35.617  1.00  0.00    -0.014 A 
ATOM     57  C   UNL A   1      45.476  28.647  35.357  1.00  0.00     0.010 A 
ATOM     58  C   UNL A   1      43.798  27.362  36.546  1.00  0.00     0.010 A 
ATOM     59  C   UNL A   1      46.483  27.910  35.987  1.00  0.00     0.020 A 
ATOM     60  C   UNL A   1      44.802  26.637  37.195  1.00  0.00     0.020 A 
ATOM     61  C   UNL A   1      46.140  26.905  36.897  1.00  0.00     0.054 A 
BRANCH  61  62
ATOM     62  S   UNL A   1      47.465  25.972  37.712  1.00  0.00     0.124 S 
ATOM     63  O   UNL A   1      47.403  24.691  37.013  1.00  0.00    -0.237 OA
ATOM     64  O   UNL A   1      48.648  26.782  37.433  1.00  0.00    -0.237 OA
ATOM     65  O   UNL A   1      47.054  25.938  39.113  1.00  0.00    -0.744 OA
ENDBRANCH  61  62
ENDBRANCH  42  56
BRANCH  43  66
ATOM     66  C   UNL A   1      36.695  33.088  30.817  1.00  0.00    -0.014 A 
ATOM     67  C   UNL A   1      35.368  32.766  31.149  1.00  0.00     0.010 A 
ATOM     68  C   UNL A   1      36.937  34.069  29.838  1.00  0.00     0.010 A 
ATOM     69  C   UNL A   1      34.304  33.411  30.512  1.00  0.00     0.020 A 
ATOM     70  C   UNL A   1      35.876  34.735  29.217  1.00  0.00     0.020 A 
ATOM     71  C   UNL A   1      34.565  34.393  29.552  1.00  0.00     0.054 A 
BRANCH  71  72
ATOM     72  S   UNL A   1      33.172  35.265  28.783  1.00  0.00     0.124 S 
ATOM     73  O   UNL A   1      32.427  35.730  29.949  1.00  0.00    -0.237 OA
ATOM     74  O   UNL A   1      33.839  36.305  28.004  1.00  0.00    -0.237 OA
ATOM     75  O   UNL A   1      32.515  34.228  27.991  1.00  0.00    -0.744 OA
ENDBRANCH  71  72
ENDBRANCH  43  66
BRANCH  55  76
ATOM     76  C   UNL A   1      39.661  33.848  37.079  1.00  0.00    -0.014 A 
ATOM     77  C   UNL A   1      38.909  33.429  38.191  1.00  0.00     0.010 A 
ATOM     78  C   UNL A   1      40.200  35.146  37.060  1.00  0.00     0.010 A 
ATOM     79  C   UNL A   1      38.680  34.303  39.255  1.00  0.00     0.020 A 
ATOM     80  C   UNL A   1      39.991  36.016  38.132  1.00  0.00     0.020 A 
ATOM     81  C   UNL A   1      39.221  35.593  39.218  1.00  0.00     0.054 A 
BRANCH  81  82
ATOM     82  S   UNL A   1      38.948  36.696  40.630  1.00  0.00     0.124 S 
ATOM     83  O   UNL A   1      38.363  37.871  39.989  1.00  0.00    -0.237 OA
ATOM     84  O   UNL A   1      38.040  35.923  41.474  1.00  0.00    -0.237 OA
ATOM     85  O   UNL A   1      40.289  36.888  41.181  1.00  0.00    -0.744 OA
ENDBRANCH  81  82
ENDBRANCH  55  76
ENDBRANCH  29  30
ENDBRANCH  22  24
ENDBRANCH  21  22
ENDBRANCH  20  21
ENDBRANCH   1  20
TORSDOF 19
ENDMDL
MODEL 3
REMARK VINA RESULT:      -9.6      2.694      8.872
REMARK SMILES COCCCC(=O)N[C@H]1CC[C@@H](C(=O)OCCOC(=O)c2ccc(-c3c4nc(c(-c5ccc(S(=O)(=O)[O-])cc5)c5ccc([nH]5)c(-c5ccc(S(=O)(=O)[O-])cc5)c5nc(c(-c6ccc(S(=O)(=O)[O-])cc6)c6ccc3[nH]6)C=C5)C=C4)cc2)CC1
REMARK SMILES IDX 16 1 15 2 13 3 14 4 12 5 9 6 10 7 82 8 11 9 81 10 8 11 6 12
REMARK SMILES IDX 7 13 5 15 4 16 3 17 2 18 1 19 17 20 18 21 19 22 20 23 21 24
REMARK SMILES IDX 22 25 80 26 23 27 79 28 24 29 25 30 26 31 73 32 27 33 78 34
REMARK SMILES IDX 72 35 74 36 28 37 77 38 71 39 70 40 29 42 59 43 40 44 58 45
REMARK SMILES IDX 41 46 44 47 57 48 75 49 42 50 43 51 56 53 76 54 45 55 30 56
REMARK SMILES IDX 31 57 39 58 32 59 38 60 33 61 34 62 35 63 36 64 37 65 60 66
REMARK SMILES IDX 61 67 69 68 62 69 68 70 63 71 64 72 65 73 66 74 67 75 46 76
REMARK SMILES IDX 47 77 55 78 48 79 54 80 49 81 50 82 51 83 52 84 53 85
REMARK H PARENT 8 14 74 41 44 52
REMARK Flexibility Score: inf
ROOT
ATOM      1  C   UNL A   1      38.800  20.777  25.446  1.00  0.00     0.274 C 
ENDROOT
BRANCH   1   2
ATOM      2  O   UNL A   1      37.633  20.321  24.735  1.00  0.00    -0.462 OA
BRANCH   2   3
ATOM      3  C   UNL A   1      36.512  21.076  24.826  1.00  0.00     0.309 C 
ATOM      4  O   UNL A   1      35.480  20.721  25.382  1.00  0.00    -0.252 OA
BRANCH   3   5
ATOM      5  C   UNL A   1      36.647  22.438  24.133  1.00  0.00     0.099 C 
ATOM      6  C   UNL A   1      34.464  23.884  25.576  1.00  0.00     0.082 C 
ATOM      7  C   UNL A   1      35.851  23.638  26.159  1.00  0.00     0.026 C 
ATOM      8  C   UNL A   1      34.213  23.198  24.213  1.00  0.00     0.026 C 
ATOM      9  C   UNL A   1      36.990  23.505  25.166  1.00  0.00     0.017 C 
ATOM     10  C   UNL A   1      35.436  22.921  23.344  1.00  0.00     0.017 C 
BRANCH   6  11
ATOM     11  N   UNL A   1      33.342  23.488  26.459  1.00  0.00    -0.353 N 
ATOM     12  C   UNL A   1      32.065  23.889  26.687  1.00  0.00     0.220 C 
ATOM     13  O   UNL A   1      31.468  23.349  27.624  1.00  0.00    -0.275 OA
ATOM     14  H   UNL A   1      33.589  22.729  27.035  1.00  0.00     0.163 HD
BRANCH  12  15
ATOM     15  C   UNL A   1      31.368  24.943  25.855  1.00  0.00     0.102 C 
BRANCH  15  16
ATOM     16  C   UNL A   1      31.725  26.375  26.272  1.00  0.00     0.038 C 
BRANCH  16  17
ATOM     17  C   UNL A   1      32.233  27.260  25.127  1.00  0.00     0.160 C 
BRANCH  17  18
ATOM     18  O   UNL A   1      31.149  27.793  24.366  1.00  0.00    -0.385 OA
ATOM     19  C   UNL A   1      31.210  27.426  22.991  1.00  0.00     0.194 C 
ENDBRANCH  17  18
ENDBRANCH  16  17
ENDBRANCH  15  16
ENDBRANCH  12  15
ENDBRANCH   6  11
ENDBRANCH   3   5
ENDBRANCH   2   3
ENDBRANCH   1   2
BRANCH   1  20
ATOM     20  C   UNL A   1      39.622  19.578  25.913  1.00  0.00     0.275 C 
BRANCH  20  21
ATOM     21  O   UNL A   1      40.919  19.590  25.290  1.00  0.00    -0.458 OA
BRANCH  21  22
ATOM     22  C   UNL A   1      41.967  19.490  26.138  1.00  0.00     0.338 C 
ATOM     23  O   UNL A   1      42.520  18.474  26.532  1.00  0.00    -0.246 OA
BRANCH  22  24
ATOM     24  C   UNL A   1      42.439  20.837  26.461  1.00  0.00     0.060 A 
ATOM     25  C   UNL A   1      42.858  21.671  25.422  1.00  0.00     0.016 A 
ATOM     26  C   UNL A   1      42.530  21.248  27.789  1.00  0.00     0.016 A 
ATOM     27  C   UNL A   1      43.402  22.916  25.705  1.00  0.00     0.010 A 
ATOM     28  C   UNL A   1      43.031  22.519  28.069  1.00  0.00     0.010 A 
ATOM     29  C   UNL A   1      43.477  23.355  27.030  1.00  0.00    -0.014 A 
BRANCH  29  30
ATOM     30  C   UNL A   1      44.017  24.698  27.329  1.00  0.00     0.031 A 
ATOM     31  C   UNL A   1      43.089  25.798  27.748  1.00  0.00     0.074 A 
ATOM     32  C   UNL A   1      45.340  24.917  27.209  1.00  0.00     0.049 A 
ATOM     33  N   UNL A   1      43.337  27.072  27.893  1.00  0.00    -0.248 NA
ATOM     34  C   UNL A   1      41.697  25.414  28.038  1.00  0.00     0.031 C 
ATOM     35  C   UNL A   1      46.340  23.903  26.864  1.00  0.00     0.029 A 
ATOM     36  N   UNL A   1      46.070  26.069  27.352  1.00  0.00    -0.354 N 
ATOM     37  C   UNL A   1      42.127  27.651  28.253  1.00  0.00     0.074 A 
ATOM     38  C   UNL A   1      41.145  26.589  28.306  1.00  0.00     0.031 C 
ATOM     39  C   UNL A   1      47.551  24.477  26.820  1.00  0.00     0.029 A 
ATOM     40  C   UNL A   1      47.405  25.907  27.065  1.00  0.00     0.049 A 
ATOM     41  H   UNL A   1      45.677  26.926  27.632  1.00  0.00     0.167 HD
ATOM     42  C   UNL A   1      41.863  28.955  28.505  1.00  0.00     0.031 A 
ATOM     43  C   UNL A   1      48.390  26.819  26.961  1.00  0.00     0.031 A 
ATOM     44  C   UNL A   1      42.855  29.996  28.449  1.00  0.00     0.049 A 
ATOM     45  C   UNL A   1      48.058  28.267  27.178  1.00  0.00     0.074 A 
ATOM     46  C   UNL A   1      42.700  31.349  28.694  1.00  0.00     0.029 A 
ATOM     47  N   UNL A   1      44.189  29.798  28.124  1.00  0.00    -0.354 N 
ATOM     48  N   UNL A   1      46.905  28.807  27.495  1.00  0.00    -0.248 NA
ATOM     49  C   UNL A   1      49.154  29.229  27.009  1.00  0.00     0.031 C 
ATOM     50  C   UNL A   1      43.932  31.975  28.472  1.00  0.00     0.029 A 
ATOM     51  C   UNL A   1      44.864  31.006  28.136  1.00  0.00     0.049 A 
ATOM     52  H   UNL A   1      44.596  28.926  27.916  1.00  0.00     0.167 HD
ATOM     53  C   UNL A   1      47.137  30.175  27.567  1.00  0.00     0.074 A 
ATOM     54  C   UNL A   1      48.544  30.375  27.283  1.00  0.00     0.031 C 
ATOM     55  C   UNL A   1      46.263  31.176  27.837  1.00  0.00     0.031 A 
BRANCH  42  56
ATOM     56  C   UNL A   1      40.440  29.329  28.810  1.00  0.00    -0.014 A 
ATOM     57  C   UNL A   1      40.003  29.538  30.130  1.00  0.00     0.010 A 
ATOM     58  C   UNL A   1      39.528  29.499  27.751  1.00  0.00     0.010 A 
ATOM     59  C   UNL A   1      38.670  29.875  30.387  1.00  0.00     0.020 A 
ATOM     60  C   UNL A   1      38.200  29.856  28.003  1.00  0.00     0.020 A 
ATOM     61  C   UNL A   1      37.776  30.025  29.323  1.00  0.00     0.054 A 
BRANCH  61  62
ATOM     62  S   UNL A   1      36.056  30.476  29.682  1.00  0.00     0.124 S 
ATOM     63  O   UNL A   1      35.325  29.669  28.708  1.00  0.00    -0.237 OA
ATOM     64  O   UNL A   1      35.901  30.069  31.077  1.00  0.00    -0.237 OA
ATOM     65  O   UNL A   1      36.020  31.918  29.450  1.00  0.00    -0.744 OA
ENDBRANCH  61  62
ENDBRANCH  42  56
BRANCH  43  66
ATOM     66  C   UNL A   1      49.759  26.385  26.574  1.00  0.00    -0.014 A 
ATOM     67  C   UNL A   1      50.667  25.928  27.543  1.00  0.00     0.010 A 
ATOM     68  C   UNL A   1      50.149  26.401  25.222  1.00  0.00     0.010 A 
ATOM     69  C   UNL A   1      51.943  25.498  27.167  1.00  0.00     0.020 A 
ATOM     70  C   UNL A   1      51.414  25.948  24.839  1.00  0.00     0.020 A 
ATOM     71  C   UNL A   1      52.308  25.509  25.818  1.00  0.00     0.054 A 
BRANCH  71  72
ATOM     72  S   UNL A   1      53.944  24.885  25.342  1.00  0.00     0.124 S 
ATOM     73  O   UNL A   1      53.651  23.497  25.001  1.00  0.00    -0.237 OA
ATOM     74  O   UNL A   1      54.301  25.750  24.221  1.00  0.00    -0.237 OA
ATOM     75  O   UNL A   1      54.746  25.079  26.548  1.00  0.00    -0.744 OA
ENDBRANCH  71  72
ENDBRANCH  43  66
BRANCH  55  76
ATOM     76  C   UNL A   1      46.814  32.574  27.848  1.00  0.00    -0.014 A 
ATOM     77  C   UNL A   1      46.938  33.308  26.656  1.00  0.00     0.010 A 
ATOM     78  C   UNL A   1      47.167  33.174  29.069  1.00  0.00     0.010 A 
ATOM     79  C   UNL A   1      47.430  34.615  26.683  1.00  0.00     0.020 A 
ATOM     80  C   UNL A   1      47.639  34.488  29.102  1.00  0.00     0.020 A 
ATOM     81  C   UNL A   1      47.780  35.196  27.906  1.00  0.00     0.054 A 
BRANCH  81  82
ATOM     82  S   UNL A   1      48.374  36.908  27.923  1.00  0.00     0.124 S 
ATOM     83  O   UNL A   1      47.415  37.571  27.043  1.00  0.00    -0.237 OA
ATOM     84  O   UNL A   1      48.284  37.268  29.336  1.00  0.00    -0.237 OA
ATOM     85  O   UNL A   1      49.735  36.806  27.399  1.00  0.00    -0.744 OA
ENDBRANCH  81  82
ENDBRANCH  55  76
ENDBRANCH  29  30
ENDBRANCH  22  24
ENDBRANCH  21  22
ENDBRANCH  20  21
ENDBRANCH   1  20
TORSDOF 19
ENDMDL
