MODEL 1
REMARK VINA RESULT:     -12.2      0.000      0.000
REMARK SMILES Cc1cccc(-c2ccc(Cl)c(C(=O)OCCOC(=O)c3ccc(-c4c5nc(c(-c6ccc(S(=O)(=O)[O-])cc6)c6ccc([nH]6)c(-c6ccc(S(=O)(=O)[O-])cc6)c6nc(c(-c7ccc(S(=O)(=O)[O-])cc7)c7ccc4[nH]7)C=C6)C=C5)cc3)c2)c1
REMARK SMILES IDX 17 1 16 2 15 3 13 4 14 5 12 6 7 7 8 8 81 9 9 10 10 11 11 12
REMARK SMILES IDX 6 13 1 14 2 15 3 16 82 17 4 18 5 19 18 20 19 21 20 22 21 23
REMARK SMILES IDX 22 24 80 25 23 26 79 27 24 28 25 29 26 30 73 31 27 32 78 33
REMARK SMILES IDX 72 34 74 35 28 36 77 37 71 38 70 39 29 41 59 42 40 43 58 44
REMARK SMILES IDX 41 45 44 46 57 47 75 48 42 49 43 50 56 52 76 53 45 54 30 55
REMARK SMILES IDX 31 56 39 57 32 58 38 59 33 60 34 61 35 62 36 63 37 64 60 65
REMARK SMILES IDX 61 66 69 67 62 68 68 69 63 70 64 71 65 72 66 73 67 74 46 75
REMARK SMILES IDX 47 76 55 77 48 78 54 79 49 80 50 81 51 82 52 83 53 84
REMARK H PARENT 74 40 44 51
REMARK Flexibility Score: inf
ROOT
ATOM      1  C   UNL A   1      34.710  29.753  27.775  1.00  0.00     0.275 C 
ENDROOT
BRANCH   1   2
ATOM      2  C   UNL A   1      33.583  29.274  26.840  1.00  0.00     0.275 C 
BRANCH   2   3
ATOM      3  O   UNL A   1      33.573  27.873  26.508  1.00  0.00    -0.458 OA
BRANCH   3   4
ATOM      4  C   UNL A   1      32.302  27.437  26.259  1.00  0.00     0.339 C 
ATOM      5  O   UNL A   1      31.639  26.738  27.016  1.00  0.00    -0.246 OA
BRANCH   4   6
ATOM      6  C   UNL A   1      31.789  27.741  24.907  1.00  0.00     0.079 A 
ATOM      7  C   UNL A   1      30.340  29.004  23.379  1.00  0.00    -0.017 A 
ATOM      8  C   UNL A   1      30.528  27.986  22.425  1.00  0.00     0.010 A 
ATOM      9  C   UNL A   1      30.984  28.868  24.634  1.00  0.00     0.026 A 
ATOM     10  C   UNL A   1      31.338  26.884  22.685  1.00  0.00     0.022 A 
ATOM     11  C   UNL A   1      31.975  26.763  23.916  1.00  0.00     0.055 A 
ATOM     12  Cl  UNL A   1      33.014  25.390  24.115  1.00  0.00    -0.083 Cl
BRANCH   7  13
ATOM     13  C   UNL A   1      29.516  30.173  22.994  1.00  0.00    -0.018 A 
ATOM     14  C   UNL A   1      27.873  31.663  19.859  1.00  0.00     0.044 C 
ATOM     15  C   UNL A   1      28.349  31.492  21.272  1.00  0.00    -0.051 A 
ATOM     16  C   UNL A   1      28.163  32.526  22.193  1.00  0.00     0.003 A 
ATOM     17  C   UNL A   1      29.016  30.324  21.682  1.00  0.00     0.012 A 
ATOM     18  C   UNL A   1      28.626  32.386  23.499  1.00  0.00     0.001 A 
ATOM     19  C   UNL A   1      29.303  31.227  23.889  1.00  0.00     0.009 A 
ENDBRANCH   7  13
ENDBRANCH   4   6
ENDBRANCH   3   4
ENDBRANCH   2   3
ENDBRANCH   1   2
BRANCH   1  20
ATOM     20  O   UNL A   1      35.980  30.145  27.207  1.00  0.00    -0.458 OA
BRANCH  20  21
ATOM     21  C   UNL A   1      36.949  30.661  28.005  1.00  0.00     0.338 C 
ATOM     22  O   UNL A   1      37.002  31.798  28.434  1.00  0.00    -0.246 OA
BRANCH  21  23
ATOM     23  C   UNL A   1      38.014  29.698  28.229  1.00  0.00     0.060 A 
ATOM     24  C   UNL A   1      38.175  29.128  29.497  1.00  0.00     0.016 A 
ATOM     25  C   UNL A   1      38.745  29.298  27.110  1.00  0.00     0.016 A 
ATOM     26  C   UNL A   1      39.161  28.183  29.688  1.00  0.00     0.010 A 
ATOM     27  C   UNL A   1      39.644  28.277  27.268  1.00  0.00     0.010 A 
ATOM     28  C   UNL A   1      39.913  27.817  28.574  1.00  0.00    -0.014 A 
BRANCH  28  29
ATOM     29  C   UNL A   1      41.299  27.427  28.726  1.00  0.00     0.031 A 
ATOM     30  C   UNL A   1      41.707  26.030  28.616  1.00  0.00     0.074 A 
ATOM     31  C   UNL A   1      42.074  28.534  28.679  1.00  0.00     0.049 A 
ATOM     32  N   UNL A   1      42.891  25.600  28.870  1.00  0.00    -0.248 NA
ATOM     33  C   UNL A   1      40.778  24.957  28.264  1.00  0.00     0.031 C 
ATOM     34  C   UNL A   1      43.457  28.747  28.312  1.00  0.00     0.029 A 
ATOM     35  N   UNL A   1      41.663  29.787  29.153  1.00  0.00    -0.354 N 
ATOM     36  C   UNL A   1      42.968  24.333  28.329  1.00  0.00     0.074 A 
ATOM     37  C   UNL A   1      41.604  23.912  28.155  1.00  0.00     0.031 C 
ATOM     38  C   UNL A   1      43.854  29.929  28.833  1.00  0.00     0.029 A 
ATOM     39  C   UNL A   1      42.774  30.411  29.698  1.00  0.00     0.049 A 
ATOM     40  H   UNL A   1      40.752  30.158  29.106  1.00  0.00     0.167 HD
ATOM     41  C   UNL A   1      44.176  23.905  27.863  1.00  0.00     0.031 A 
ATOM     42  C   UNL A   1      42.832  30.466  31.065  1.00  0.00     0.031 A 
ATOM     43  C   UNL A   1      45.206  24.897  28.182  1.00  0.00     0.049 A 
ATOM     44  C   UNL A   1      43.957  29.573  31.549  1.00  0.00     0.074 A 
ATOM     45  C   UNL A   1      45.785  25.906  27.430  1.00  0.00     0.029 A 
ATOM     46  N   UNL A   1      45.443  25.217  29.517  1.00  0.00    -0.354 N 
ATOM     47  N   UNL A   1      44.270  28.411  31.028  1.00  0.00    -0.248 NA
ATOM     48  C   UNL A   1      44.932  30.039  32.527  1.00  0.00     0.031 C 
ATOM     49  C   UNL A   1      46.248  26.905  28.333  1.00  0.00     0.029 A 
ATOM     50  C   UNL A   1      45.951  26.499  29.627  1.00  0.00     0.049 A 
ATOM     51  H   UNL A   1      45.272  24.614  30.277  1.00  0.00     0.167 HD
ATOM     52  C   UNL A   1      45.530  28.064  31.450  1.00  0.00     0.074 A 
ATOM     53  C   UNL A   1      45.875  29.087  32.429  1.00  0.00     0.031 C 
ATOM     54  C   UNL A   1      46.280  27.040  30.939  1.00  0.00     0.031 A 
BRANCH  41  55
ATOM     55  C   UNL A   1      44.346  22.807  26.828  1.00  0.00    -0.014 A 
ATOM     56  C   UNL A   1      43.281  21.912  26.589  1.00  0.00     0.010 A 
ATOM     57  C   UNL A   1      45.528  22.558  26.103  1.00  0.00     0.010 A 
ATOM     58  C   UNL A   1      43.409  20.802  25.736  1.00  0.00     0.020 A 
ATOM     59  C   UNL A   1      45.680  21.441  25.263  1.00  0.00     0.020 A 
ATOM     60  C   UNL A   1      44.617  20.563  25.087  1.00  0.00     0.054 A 
BRANCH  60  61
ATOM     61  S   UNL A   1      44.771  19.121  24.002  1.00  0.00     0.124 S 
ATOM     62  O   UNL A   1      44.426  19.672  22.693  1.00  0.00    -0.237 OA
ATOM     63  O   UNL A   1      46.170  18.743  24.177  1.00  0.00    -0.237 OA
ATOM     64  O   UNL A   1      43.802  18.170  24.544  1.00  0.00    -0.744 OA
ENDBRANCH  60  61
ENDBRANCH  41  55
BRANCH  42  65
ATOM     65  C   UNL A   1      41.512  30.733  31.759  1.00  0.00    -0.014 A 
ATOM     66  C   UNL A   1      40.788  31.895  31.379  1.00  0.00     0.010 A 
ATOM     67  C   UNL A   1      40.839  29.802  32.570  1.00  0.00     0.010 A 
ATOM     68  C   UNL A   1      39.431  32.068  31.689  1.00  0.00     0.020 A 
ATOM     69  C   UNL A   1      39.474  29.981  32.907  1.00  0.00     0.020 A 
ATOM     70  C   UNL A   1      38.771  31.101  32.441  1.00  0.00     0.054 A 
BRANCH  70  71
ATOM     71  S   UNL A   1      36.953  31.208  32.588  1.00  0.00     0.124 S 
ATOM     72  O   UNL A   1      36.772  31.945  33.834  1.00  0.00    -0.237 OA
ATOM     73  O   UNL A   1      36.564  31.917  31.373  1.00  0.00    -0.237 OA
ATOM     74  O   UNL A   1      36.538  29.810  32.607  1.00  0.00    -0.744 OA
ENDBRANCH  70  71
ENDBRANCH  42  65
BRANCH  54  75
ATOM     75  C   UNL A   1      47.491  26.448  31.618  1.00  0.00    -0.014 A 
ATOM     76  C   UNL A   1      47.425  25.759  32.835  1.00  0.00     0.010 A 
ATOM     77  C   UNL A   1      48.715  26.388  30.904  1.00  0.00     0.010 A 
ATOM     78  C   UNL A   1      48.535  25.074  33.338  1.00  0.00     0.020 A 
ATOM     79  C   UNL A   1      49.806  25.656  31.365  1.00  0.00     0.020 A 
ATOM     80  C   UNL A   1      49.714  25.018  32.593  1.00  0.00     0.054 A 
BRANCH  80  81
ATOM     81  S   UNL A   1      51.096  24.025  33.197  1.00  0.00     0.124 S 
ATOM     82  O   UNL A   1      50.621  22.668  32.940  1.00  0.00    -0.237 OA
ATOM     83  O   UNL A   1      52.208  24.470  32.357  1.00  0.00    -0.237 OA
ATOM     84  O   UNL A   1      51.200  24.400  34.604  1.00  0.00    -0.744 OA
ENDBRANCH  80  81
ENDBRANCH  54  75
ENDBRANCH  28  29
ENDBRANCH  21  23
ENDBRANCH  20  21
ENDBRANCH   1  20
TORSDOF 15
ENDMDL
MODEL 2
REMARK VINA RESULT:     -12.1      3.350      5.684
REMARK SMILES Cc1cccc(-c2ccc(Cl)c(C(=O)OCCOC(=O)c3ccc(-c4c5nc(c(-c6ccc(S(=O)(=O)[O-])cc6)c6ccc([nH]6)c(-c6ccc(S(=O)(=O)[O-])cc6)c6nc(c(-c7ccc(S(=O)(=O)[O-])cc7)c7ccc4[nH]7)C=C6)C=C5)cc3)c2)c1
REMARK SMILES IDX 17 1 16 2 15 3 13 4 14 5 12 6 7 7 8 8 81 9 9 10 10 11 11 12
REMARK SMILES IDX 6 13 1 14 2 15 3 16 82 17 4 18 5 19 18 20 19 21 20 22 21 23
REMARK SMILES IDX 22 24 80 25 23 26 79 27 24 28 25 29 26 30 73 31 27 32 78 33
REMARK SMILES IDX 72 34 74 35 28 36 77 37 71 38 70 39 29 41 59 42 40 43 58 44
REMARK SMILES IDX 41 45 44 46 57 47 75 48 42 49 43 50 56 52 76 53 45 54 30 55
REMARK SMILES IDX 31 56 39 57 32 58 38 59 33 60 34 61 35 62 36 63 37 64 60 65
REMARK SMILES IDX 61 66 69 67 62 68 68 69 63 70 64 71 65 72 66 73 67 74 46 75
REMARK SMILES IDX 47 76 55 77 48 78 54 79 49 80 50 81 51 82 52 83 53 84
REMARK H PARENT 74 40 44 51
REMARK Flexibility Score: inf
ROOT
ATOM      1  C   UNL A   1      33.525  28.005  26.083  1.00  0.00     0.275 C 
ENDROOT
BRANCH   1   2
ATOM      2  C   UNL A   1      32.924  26.604  25.859  1.00  0.00     0.275 C 
BRANCH   2   3
ATOM      3  O   UNL A   1      32.466  26.305  24.527  1.00  0.00    -0.458 OA
BRANCH   3   4
ATOM      4  C   UNL A   1      33.488  25.838  23.749  1.00  0.00     0.339 C 
ATOM      5  O   UNL A   1      33.860  26.349  22.699  1.00  0.00    -0.246 OA
BRANCH   4   6
ATOM      6  C   UNL A   1      34.060  24.544  24.176  1.00  0.00     0.079 A 
ATOM      7  C   UNL A   1      35.955  23.137  24.853  1.00  0.00    -0.017 A 
ATOM      8  C   UNL A   1      35.172  22.008  24.547  1.00  0.00     0.010 A 
ATOM      9  C   UNL A   1      35.380  24.418  24.659  1.00  0.00     0.026 A 
ATOM     10  C   UNL A   1      33.864  22.130  24.090  1.00  0.00     0.022 A 
ATOM     11  C   UNL A   1      33.303  23.391  23.912  1.00  0.00     0.055 A 
ATOM     12  Cl  UNL A   1      31.646  23.433  23.403  1.00  0.00    -0.083 Cl
BRANCH   7  13
ATOM     13  C   UNL A   1      37.314  22.913  25.397  1.00  0.00    -0.018 A 
ATOM     14  C   UNL A   1      39.834  20.049  25.834  1.00  0.00     0.044 C 
ATOM     15  C   UNL A   1      39.188  21.401  25.915  1.00  0.00    -0.051 A 
ATOM     16  C   UNL A   1      39.796  22.414  26.661  1.00  0.00     0.003 A 
ATOM     17  C   UNL A   1      37.958  21.662  25.285  1.00  0.00     0.012 A 
ATOM     18  C   UNL A   1      39.190  23.664  26.763  1.00  0.00     0.001 A 
ATOM     19  C   UNL A   1      37.959  23.904  26.146  1.00  0.00     0.009 A 
ENDBRANCH   7  13
ENDBRANCH   4   6
ENDBRANCH   3   4
ENDBRANCH   2   3
ENDBRANCH   1   2
BRANCH   1  20
ATOM     20  O   UNL A   1      33.937  28.392  27.413  1.00  0.00    -0.458 OA
BRANCH  20  21
ATOM     21  C   UNL A   1      34.255  29.686  27.674  1.00  0.00     0.338 C 
ATOM     22  O   UNL A   1      33.535  30.654  27.517  1.00  0.00    -0.246 OA
BRANCH  21  23
ATOM     23  C   UNL A   1      35.641  29.811  28.092  1.00  0.00     0.060 A 
ATOM     24  C   UNL A   1      36.632  30.055  27.133  1.00  0.00     0.016 A 
ATOM     25  C   UNL A   1      35.886  29.808  29.465  1.00  0.00     0.016 A 
ATOM     26  C   UNL A   1      37.939  30.216  27.545  1.00  0.00     0.010 A 
ATOM     27  C   UNL A   1      37.161  30.085  29.885  1.00  0.00     0.010 A 
ATOM     28  C   UNL A   1      38.181  30.173  28.916  1.00  0.00    -0.014 A 
BRANCH  28  29
ATOM     29  C   UNL A   1      39.437  29.656  29.418  1.00  0.00     0.031 A 
ATOM     30  C   UNL A   1      39.783  28.244  29.280  1.00  0.00     0.074 A 
ATOM     31  C   UNL A   1      40.250  30.694  29.718  1.00  0.00     0.049 A 
ATOM     32  N   UNL A   1      40.814  27.697  29.816  1.00  0.00    -0.248 NA
ATOM     33  C   UNL A   1      38.944  27.288  28.560  1.00  0.00     0.031 C 
ATOM     34  C   UNL A   1      41.689  30.822  29.792  1.00  0.00     0.029 A 
ATOM     35  N   UNL A   1      39.785  31.931  30.186  1.00  0.00    -0.354 N 
ATOM     36  C   UNL A   1      40.979  26.480  29.187  1.00  0.00     0.074 A 
ATOM     37  C   UNL A   1      39.707  26.192  28.581  1.00  0.00     0.031 C 
ATOM     38  C   UNL A   1      41.978  31.916  30.529  1.00  0.00     0.029 A 
ATOM     39  C   UNL A   1      40.718  32.409  31.093  1.00  0.00     0.049 A 
ATOM     40  H   UNL A   1      38.951  32.379  29.919  1.00  0.00     0.167 HD
ATOM     41  C   UNL A   1      42.246  25.995  29.045  1.00  0.00     0.031 A 
ATOM     42  C   UNL A   1      40.371  32.339  32.416  1.00  0.00     0.031 A 
ATOM     43  C   UNL A   1      43.187  26.866  29.754  1.00  0.00     0.049 A 
ATOM     44  C   UNL A   1      41.254  31.316  33.104  1.00  0.00     0.074 A 
ATOM     45  C   UNL A   1      44.017  27.886  29.315  1.00  0.00     0.029 A 
ATOM     46  N   UNL A   1      43.036  27.047  31.127  1.00  0.00    -0.354 N 
ATOM     47  N   UNL A   1      41.643  30.182  32.573  1.00  0.00    -0.248 NA
ATOM     48  C   UNL A   1      41.920  31.611  34.366  1.00  0.00     0.031 C 
ATOM     49  C   UNL A   1      44.245  28.760  30.417  1.00  0.00     0.029 A 
ATOM     50  C   UNL A   1      43.557  28.267  31.518  1.00  0.00     0.049 A 
ATOM     51  H   UNL A   1      42.616  26.395  31.735  1.00  0.00     0.167 HD
ATOM     52  C   UNL A   1      42.701  29.695  33.301  1.00  0.00     0.074 A 
ATOM     53  C   UNL A   1      42.796  30.596  34.443  1.00  0.00     0.031 C 
ATOM     54  C   UNL A   1      43.512  28.661  32.919  1.00  0.00     0.031 A 
BRANCH  41  55
ATOM     55  C   UNL A   1      42.654  24.983  27.991  1.00  0.00    -0.014 A 
ATOM     56  C   UNL A   1      42.840  23.634  28.363  1.00  0.00     0.010 A 
ATOM     57  C   UNL A   1      42.929  25.288  26.643  1.00  0.00     0.010 A 
ATOM     58  C   UNL A   1      43.333  22.668  27.468  1.00  0.00     0.020 A 
ATOM     59  C   UNL A   1      43.443  24.340  25.741  1.00  0.00     0.020 A 
ATOM     60  C   UNL A   1      43.647  23.032  26.162  1.00  0.00     0.054 A 
BRANCH  60  61
ATOM     61  S   UNL A   1      44.295  21.779  25.024  1.00  0.00     0.124 S 
ATOM     62  O   UNL A   1      45.686  21.654  25.450  1.00  0.00    -0.237 OA
ATOM     63  O   UNL A   1      43.444  20.627  25.306  1.00  0.00    -0.237 OA
ATOM     64  O   UNL A   1      44.107  22.377  23.702  1.00  0.00    -0.744 OA
ENDBRANCH  60  61
ENDBRANCH  41  55
BRANCH  42  65
ATOM     65  C   UNL A   1      38.922  32.653  32.724  1.00  0.00    -0.014 A 
ATOM     66  C   UNL A   1      38.454  33.964  32.438  1.00  0.00     0.010 A 
ATOM     67  C   UNL A   1      37.952  31.687  33.043  1.00  0.00     0.010 A 
ATOM     68  C   UNL A   1      37.088  34.271  32.358  1.00  0.00     0.020 A 
ATOM     69  C   UNL A   1      36.569  31.996  32.987  1.00  0.00     0.020 A 
ATOM     70  C   UNL A   1      36.146  33.281  32.618  1.00  0.00     0.054 A 
BRANCH  70  71
ATOM     71  S   UNL A   1      34.394  33.628  32.233  1.00  0.00     0.124 S 
ATOM     72  O   UNL A   1      34.170  32.855  31.017  1.00  0.00    -0.237 OA
ATOM     73  O   UNL A   1      33.693  33.152  33.423  1.00  0.00    -0.237 OA
ATOM     74  O   UNL A   1      34.367  35.078  32.081  1.00  0.00    -0.744 OA
ENDBRANCH  70  71
ENDBRANCH  42  65
BRANCH  54  75
ATOM     75  C   UNL A   1      44.435  27.913  33.851  1.00  0.00    -0.014 A 
ATOM     76  C   UNL A   1      45.798  28.210  33.978  1.00  0.00     0.010 A 
ATOM     77  C   UNL A   1      43.874  27.020  34.799  1.00  0.00     0.010 A 
ATOM     78  C   UNL A   1      46.575  27.617  34.977  1.00  0.00     0.020 A 
ATOM     79  C   UNL A   1      44.625  26.474  35.837  1.00  0.00     0.020 A 
ATOM     80  C   UNL A   1      45.981  26.762  35.906  1.00  0.00     0.054 A 
BRANCH  80  81
ATOM     81  S   UNL A   1      46.972  26.104  37.265  1.00  0.00     0.124 S 
ATOM     82  O   UNL A   1      46.551  24.706  37.289  1.00  0.00    -0.237 OA
ATOM     83  O   UNL A   1      48.342  26.340  36.813  1.00  0.00    -0.237 OA
ATOM     84  O   UNL A   1      46.556  26.907  38.412  1.00  0.00    -0.744 OA
ENDBRANCH  80  81
ENDBRANCH  54  75
ENDBRANCH  28  29
ENDBRANCH  21  23
ENDBRANCH  20  21
ENDBRANCH   1  20
TORSDOF 15
ENDMDL
MODEL 3
REMARK VINA RESULT:     -12.0      4.542     10.382
REMARK SMILES Cc1cccc(-c2ccc(Cl)c(C(=O)OCCOC(=O)c3ccc(-c4c5nc(c(-c6ccc(S(=O)(=O)[O-])cc6)c6ccc([nH]6)c(-c6ccc(S(=O)(=O)[O-])cc6)c6nc(c(-c7ccc(S(=O)(=O)[O-])cc7)c7ccc4[nH]7)C=C6)C=C5)cc3)c2)c1
REMARK SMILES IDX 17 1 16 2 15 3 13 4 14 5 12 6 7 7 8 8 81 9 9 10 10 11 11 12
REMARK SMILES IDX 6 13 1 14 2 15 3 16 82 17 4 18 5 19 18 20 19 21 20 22 21 23
REMARK SMILES IDX 22 24 80 25 23 26 79 27 24 28 25 29 26 30 73 31 27 32 78 33
REMARK SMILES IDX 72 34 74 35 28 36 77 37 71 38 70 39 29 41 59 42 40 43 58 44
REMARK SMILES IDX 41 45 44 46 57 47 75 48 42 49 43 50 56 52 76 53 45 54 30 55
REMARK SMILES IDX 31 56 39 57 32 58 38 59 33 60 34 61 35 62 36 63 37 64 60 65
REMARK SMILES IDX 61 66 69 67 62 68 68 69 63 70 64 71 65 72 66 73 67 74 46 75
REMARK SMILES IDX 47 76 55 77 48 78 54 79 49 80 50 81 51 82 52 83 53 84
REMARK H PARENT 74 40 44 51
REMARK Flexibility Score: inf
ROOT
ATOM      1  C   UNL A   1      39.040  22.813  26.224  1.00  0.00     0.275 C 
ENDROOT
BRANCH   1   2
ATOM      2  C   UNL A   1      37.789  22.409  25.422  1.00  0.00     0.275 C 
BRANCH   2   3
ATOM      3  O   UNL A   1      36.942  23.479  24.965  1.00  0.00    -0.458 OA
BRANCH   3   4
ATOM      4  C   UNL A   1      36.248  23.114  23.846  1.00  0.00     0.339 C 
ATOM      5  O   UNL A   1      36.754  22.849  22.762  1.00  0.00    -0.246 OA
BRANCH   4   6
ATOM      6  C   UNL A   1      34.777  23.195  23.967  1.00  0.00     0.079 A 
ATOM      7  C   UNL A   1      32.681  24.472  24.034  1.00  0.00    -0.017 A 
ATOM      8  C   UNL A   1      32.069  23.356  24.635  1.00  0.00     0.010 A 
ATOM      9  C   UNL A   1      34.055  24.378  23.700  1.00  0.00     0.026 A 
ATOM     10  C   UNL A   1      32.774  22.182  24.880  1.00  0.00     0.022 A 
ATOM     11  C   UNL A   1      34.121  22.094  24.541  1.00  0.00     0.055 A 
ATOM     12  Cl  UNL A   1      34.890  20.567  24.826  1.00  0.00    -0.083 Cl
BRANCH   7  13
ATOM     13  C   UNL A   1      31.839  25.656  23.748  1.00  0.00    -0.018 A 
ATOM     14  C   UNL A   1      28.152  26.713  23.933  1.00  0.00     0.044 C 
ATOM     15  C   UNL A   1      29.627  26.736  23.658  1.00  0.00    -0.051 A 
ATOM     16  C   UNL A   1      30.184  27.816  22.969  1.00  0.00     0.003 A 
ATOM     17  C   UNL A   1      30.460  25.672  24.048  1.00  0.00     0.012 A 
ATOM     18  C   UNL A   1      31.548  27.833  22.686  1.00  0.00     0.001 A 
ATOM     19  C   UNL A   1      32.361  26.760  23.064  1.00  0.00     0.009 A 
ENDBRANCH   7  13
ENDBRANCH   4   6
ENDBRANCH   3   4
ENDBRANCH   2   3
ENDBRANCH   1   2
BRANCH   1  20
ATOM     20  O   UNL A   1      38.935  23.860  27.215  1.00  0.00    -0.458 OA
BRANCH  20  21
ATOM     21  C   UNL A   1      40.054  24.340  27.815  1.00  0.00     0.338 C 
ATOM     22  O   UNL A   1      41.050  23.703  28.104  1.00  0.00    -0.246 OA
BRANCH  21  23
ATOM     23  C   UNL A   1      39.898  25.738  28.178  1.00  0.00     0.060 A 
ATOM     24  C   UNL A   1      40.407  26.732  27.334  1.00  0.00     0.016 A 
ATOM     25  C   UNL A   1      39.123  26.012  29.305  1.00  0.00     0.016 A 
ATOM     26  C   UNL A   1      40.216  28.057  27.665  1.00  0.00     0.010 A 
ATOM     27  C   UNL A   1      38.829  27.323  29.572  1.00  0.00     0.010 A 
ATOM     28  C   UNL A   1      39.473  28.322  28.814  1.00  0.00    -0.014 A 
BRANCH  28  29
ATOM     29  C   UNL A   1      39.759  29.496  29.612  1.00  0.00     0.031 A 
ATOM     30  C   UNL A   1      38.972  30.717  29.470  1.00  0.00     0.074 A 
ATOM     31  C   UNL A   1      40.600  29.151  30.612  1.00  0.00     0.049 A 
ATOM     32  N   UNL A   1      39.253  31.830  30.047  1.00  0.00    -0.248 NA
ATOM     33  C   UNL A   1      37.805  30.811  28.594  1.00  0.00     0.031 C 
ATOM     34  C   UNL A   1      40.850  29.715  31.922  1.00  0.00     0.029 A 
ATOM     35  N   UNL A   1      41.577  28.153  30.494  1.00  0.00    -0.354 N 
ATOM     36  C   UNL A   1      38.121  32.613  29.952  1.00  0.00     0.074 A 
ATOM     37  C   UNL A   1      37.346  32.032  28.888  1.00  0.00     0.031 C 
ATOM     38  C   UNL A   1      42.053  29.274  32.348  1.00  0.00     0.029 A 
ATOM     39  C   UNL A   1      42.677  28.557  31.233  1.00  0.00     0.049 A 
ATOM     40  H   UNL A   1      41.496  27.317  29.980  1.00  0.00     0.167 HD
ATOM     41  C   UNL A   1      37.867  33.501  30.955  1.00  0.00     0.031 A 
ATOM     42  C   UNL A   1      43.758  29.005  30.521  1.00  0.00     0.031 A 
ATOM     43  C   UNL A   1      38.990  33.515  31.896  1.00  0.00     0.049 A 
ATOM     44  C   UNL A   1      43.923  30.493  30.757  1.00  0.00     0.074 A 
ATOM     45  C   UNL A   1      39.185  32.888  33.116  1.00  0.00     0.029 A 
ATOM     46  N   UNL A   1      40.255  33.870  31.430  1.00  0.00    -0.354 N 
ATOM     47  N   UNL A   1      42.937  31.350  30.862  1.00  0.00    -0.248 NA
ATOM     48  C   UNL A   1      45.218  31.072  31.093  1.00  0.00     0.031 C 
ATOM     49  C   UNL A   1      40.589  32.746  33.308  1.00  0.00     0.029 A 
ATOM     50  C   UNL A   1      41.240  33.288  32.209  1.00  0.00     0.049 A 
ATOM     51  H   UNL A   1      40.423  34.453  30.655  1.00  0.00     0.167 HD
ATOM     52  C   UNL A   1      43.415  32.505  31.430  1.00  0.00     0.074 A 
ATOM     53  C   UNL A   1      44.857  32.300  31.501  1.00  0.00     0.031 C 
ATOM     54  C   UNL A   1      42.643  33.531  31.904  1.00  0.00     0.031 A 
BRANCH  41  55
ATOM     55  C   UNL A   1      36.489  34.055  31.270  1.00  0.00    -0.014 A 
ATOM     56  C   UNL A   1      35.487  34.020  30.277  1.00  0.00     0.010 A 
ATOM     57  C   UNL A   1      36.125  34.672  32.483  1.00  0.00     0.010 A 
ATOM     58  C   UNL A   1      34.229  34.621  30.456  1.00  0.00     0.020 A 
ATOM     59  C   UNL A   1      34.880  35.297  32.671  1.00  0.00     0.020 A 
ATOM     60  C   UNL A   1      33.937  35.271  31.651  1.00  0.00     0.054 A 
BRANCH  60  61
ATOM     61  S   UNL A   1      32.316  36.054  31.863  1.00  0.00     0.124 S 
ATOM     62  O   UNL A   1      31.906  36.308  30.484  1.00  0.00    -0.237 OA
ATOM     63  O   UNL A   1      31.559  35.024  32.566  1.00  0.00    -0.237 OA
ATOM     64  O   UNL A   1      32.607  37.252  32.649  1.00  0.00    -0.744 OA
ENDBRANCH  60  61
ENDBRANCH  41  55
BRANCH  42  65
ATOM     65  C   UNL A   1      44.057  28.240  29.248  1.00  0.00    -0.014 A 
ATOM     66  C   UNL A   1      43.952  26.824  29.286  1.00  0.00     0.010 A 
ATOM     67  C   UNL A   1      44.194  28.833  27.980  1.00  0.00     0.010 A 
ATOM     68  C   UNL A   1      43.869  26.046  28.122  1.00  0.00     0.020 A 
ATOM     69  C   UNL A   1      44.134  28.052  26.799  1.00  0.00     0.020 A 
ATOM     70  C   UNL A   1      43.945  26.665  26.878  1.00  0.00     0.054 A 
BRANCH  70  71
ATOM     71  S   UNL A   1      43.553  25.676  25.392  1.00  0.00     0.124 S 
ATOM     72  O   UNL A   1      42.526  26.474  24.733  1.00  0.00    -0.237 OA
ATOM     73  O   UNL A   1      44.836  25.599  24.698  1.00  0.00    -0.237 OA
ATOM     74  O   UNL A   1      43.112  24.402  25.947  1.00  0.00    -0.744 OA
ENDBRANCH  70  71
ENDBRANCH  42  65
BRANCH  54  75
ATOM     75  C   UNL A   1      43.158  34.918  32.202  1.00  0.00    -0.014 A 
ATOM     76  C   UNL A   1      43.786  35.723  31.243  1.00  0.00     0.010 A 
ATOM     77  C   UNL A   1      42.805  35.530  33.432  1.00  0.00     0.010 A 
ATOM     78  C   UNL A   1      44.085  37.062  31.509  1.00  0.00     0.020 A 
ATOM     79  C   UNL A   1      43.041  36.880  33.682  1.00  0.00     0.020 A 
ATOM     80  C   UNL A   1      43.700  37.634  32.722  1.00  0.00     0.054 A 
BRANCH  80  81
ATOM     81  S   UNL A   1      43.980  39.397  33.000  1.00  0.00     0.124 S 
ATOM     82  O   UNL A   1      43.744  39.947  31.668  1.00  0.00    -0.237 OA
ATOM     83  O   UNL A   1      42.971  39.732  34.004  1.00  0.00    -0.237 OA
ATOM     84  O   UNL A   1      45.360  39.454  33.471  1.00  0.00    -0.744 OA
ENDBRANCH  80  81
ENDBRANCH  54  75
ENDBRANCH  28  29
ENDBRANCH  21  23
ENDBRANCH  20  21
ENDBRANCH   1  20
TORSDOF 15
ENDMDL
