MODEL 1
REMARK VINA RESULT:     -10.2      0.000      0.000
REMARK SMILES O=C(OCCOC(=O)[C@@H]1[C@H](C(=O)NCc2ccncc2)[C@H]2C=C[C@@H]1O2)c1ccc(-c2c3nc(c(-c4ccc(S(=O)(=O)[O-])cc4)c4ccc([nH]4)c(-c4ccc(S(=O)(=O)[O-])cc4)c4nc(c(-c5ccc(S(=O)(=O)[O-])cc5)c5ccc2[nH]5)C=C4)C=C3)cc1
REMARK SMILES IDX 4 1 3 2 2 3 1 4 26 5 27 6 85 7 28 8 84 9 29 10 30 11 31 12
REMARK SMILES IDX 78 13 32 14 83 15 77 16 79 17 33 18 82 19 76 20 75 21 34 23
REMARK SMILES IDX 64 24 45 25 63 26 46 27 49 28 62 29 80 30 47 31 48 32 61 34
REMARK SMILES IDX 81 35 50 36 35 37 36 38 44 39 37 40 43 41 38 42 39 43 40 44
REMARK SMILES IDX 41 45 42 46 65 47 66 48 74 49 67 50 73 51 68 52 69 53 70 54
REMARK SMILES IDX 71 55 72 56 51 57 52 58 60 59 53 60 59 61 54 62 55 63 56 64
REMARK SMILES IDX 57 65 58 66 5 67 6 68 7 69 8 70 9 71 10 72 24 73 21 74 23 75
REMARK SMILES IDX 25 76 22 77 11 78 12 79 13 80 14 82 15 83 16 84 20 85 17 86
REMARK SMILES IDX 19 87 18 88
REMARK H PARENT 79 22 49 33 13 81
REMARK Flexibility Score: inf
ROOT
ATOM      1  C   UNL A   1      36.454  23.594  24.836  1.00  0.00     0.275 C 
ENDROOT
BRANCH   1   2
ATOM      2  O   UNL A   1      37.222  23.126  25.952  1.00  0.00    -0.458 OA
BRANCH   2   3
ATOM      3  C   UNL A   1      38.551  23.237  26.176  1.00  0.00     0.338 C 
ATOM      4  O   UNL A   1      39.274  22.269  25.944  1.00  0.00    -0.246 OA
BRANCH   3   5
ATOM      5  C   UNL A   1      39.170  24.443  26.807  1.00  0.00     0.060 A 
ATOM      6  C   UNL A   1      40.100  25.290  26.194  1.00  0.00     0.016 A 
ATOM      7  C   UNL A   1      38.746  24.753  28.111  1.00  0.00     0.016 A 
ATOM      8  C   UNL A   1      40.470  26.497  26.778  1.00  0.00     0.010 A 
ATOM      9  C   UNL A   1      39.180  25.919  28.743  1.00  0.00     0.010 A 
ATOM     10  C   UNL A   1      40.012  26.815  28.055  1.00  0.00    -0.014 A 
BRANCH  10  11
ATOM     11  C   UNL A   1      40.677  27.922  28.759  1.00  0.00     0.031 A 
ATOM     12  C   UNL A   1      39.854  29.164  28.868  1.00  0.00     0.074 A 
ATOM     13  C   UNL A   1      41.867  27.790  29.374  1.00  0.00     0.049 A 
ATOM     14  N   UNL A   1      40.073  30.222  29.589  1.00  0.00    -0.248 NA
ATOM     15  C   UNL A   1      38.568  29.171  28.143  1.00  0.00     0.031 C 
ATOM     16  C   UNL A   1      42.634  26.554  29.486  1.00  0.00     0.029 A 
ATOM     17  N   UNL A   1      42.648  28.702  30.031  1.00  0.00    -0.354 N 
ATOM     18  C   UNL A   1      38.919  30.979  29.467  1.00  0.00     0.074 A 
ATOM     19  C   UNL A   1      38.031  30.301  28.557  1.00  0.00     0.031 C 
ATOM     20  C   UNL A   1      43.822  26.798  30.062  1.00  0.00     0.029 A 
ATOM     21  C   UNL A   1      43.871  28.202  30.429  1.00  0.00     0.049 A 
ATOM     22  H   UNL A   1      42.364  29.629  30.203  1.00  0.00     0.167 HD
ATOM     23  C   UNL A   1      38.625  32.136  30.093  1.00  0.00     0.031 A 
ATOM     24  C   UNL A   1      44.895  28.815  31.052  1.00  0.00     0.031 A 
ATOM     25  C   UNL A   1      39.585  32.835  30.889  1.00  0.00     0.049 A 
ATOM     26  C   UNL A   1      44.636  30.217  31.531  1.00  0.00     0.074 A 
ATOM     27  C   UNL A   1      39.481  34.078  31.478  1.00  0.00     0.029 A 
ATOM     28  N   UNL A   1      40.861  32.354  31.164  1.00  0.00    -0.354 N 
ATOM     29  N   UNL A   1      43.534  30.925  31.423  1.00  0.00    -0.248 NA
ATOM     30  C   UNL A   1      45.717  30.883  32.264  1.00  0.00     0.031 C 
ATOM     31  C   UNL A   1      40.724  34.379  32.044  1.00  0.00     0.029 A 
ATOM     32  C   UNL A   1      41.573  33.291  31.880  1.00  0.00     0.049 A 
ATOM     33  H   UNL A   1      41.205  31.473  30.887  1.00  0.00     0.167 HD
ATOM     34  C   UNL A   1      43.760  32.092  32.135  1.00  0.00     0.074 A 
ATOM     35  C   UNL A   1      45.113  31.997  32.656  1.00  0.00     0.031 C 
ATOM     36  C   UNL A   1      42.925  33.136  32.362  1.00  0.00     0.031 A 
BRANCH  23  37
ATOM     37  C   UNL A   1      37.266  32.701  29.814  1.00  0.00    -0.014 A 
ATOM     38  C   UNL A   1      37.034  33.509  28.682  1.00  0.00     0.010 A 
ATOM     39  C   UNL A   1      36.247  32.539  30.765  1.00  0.00     0.010 A 
ATOM     40  C   UNL A   1      35.820  34.185  28.536  1.00  0.00     0.020 A 
ATOM     41  C   UNL A   1      35.024  33.195  30.610  1.00  0.00     0.020 A 
ATOM     42  C   UNL A   1      34.826  34.029  29.507  1.00  0.00     0.054 A 
BRANCH  42  43
ATOM     43  S   UNL A   1      33.268  34.934  29.310  1.00  0.00     0.124 S 
ATOM     44  O   UNL A   1      32.577  34.129  28.305  1.00  0.00    -0.237 OA
ATOM     45  O   UNL A   1      32.699  34.884  30.654  1.00  0.00    -0.237 OA
ATOM     46  O   UNL A   1      33.691  36.258  28.863  1.00  0.00    -0.744 OA
ENDBRANCH  42  43
ENDBRANCH  23  37
BRANCH  24  47
ATOM     47  C   UNL A   1      46.191  28.116  31.301  1.00  0.00    -0.014 A 
ATOM     48  C   UNL A   1      46.433  27.423  32.500  1.00  0.00     0.010 A 
ATOM     49  C   UNL A   1      47.218  28.168  30.337  1.00  0.00     0.010 A 
ATOM     50  C   UNL A   1      47.680  26.831  32.748  1.00  0.00     0.020 A 
ATOM     51  C   UNL A   1      48.459  27.561  30.571  1.00  0.00     0.020 A 
ATOM     52  C   UNL A   1      48.688  26.910  31.783  1.00  0.00     0.054 A 
BRANCH  52  53
ATOM     53  S   UNL A   1      50.296  26.137  32.130  1.00  0.00     0.124 S 
ATOM     54  O   UNL A   1      50.127  24.807  31.552  1.00  0.00    -0.237 OA
ATOM     55  O   UNL A   1      51.225  27.018  31.428  1.00  0.00    -0.237 OA
ATOM     56  O   UNL A   1      50.389  26.177  33.587  1.00  0.00    -0.744 OA
ENDBRANCH  52  53
ENDBRANCH  24  47
BRANCH  36  57
ATOM     57  C   UNL A   1      43.444  34.228  33.250  1.00  0.00    -0.014 A 
ATOM     58  C   UNL A   1      44.106  35.346  32.720  1.00  0.00     0.010 A 
ATOM     59  C   UNL A   1      43.189  34.154  34.631  1.00  0.00     0.010 A 
ATOM     60  C   UNL A   1      44.535  36.365  33.567  1.00  0.00     0.020 A 
ATOM     61  C   UNL A   1      43.583  35.189  35.474  1.00  0.00     0.020 A 
ATOM     62  C   UNL A   1      44.267  36.281  34.938  1.00  0.00     0.054 A 
BRANCH  62  63
ATOM     63  S   UNL A   1      44.784  37.645  36.009  1.00  0.00     0.124 S 
ATOM     64  O   UNL A   1      46.237  37.606  35.865  1.00  0.00    -0.237 OA
ATOM     65  O   UNL A   1      44.120  38.797  35.401  1.00  0.00    -0.237 OA
ATOM     66  O   UNL A   1      44.277  37.263  37.324  1.00  0.00    -0.744 OA
ENDBRANCH  62  63
ENDBRANCH  36  57
ENDBRANCH  10  11
ENDBRANCH   3   5
ENDBRANCH   2   3
ENDBRANCH   1   2
BRANCH   1  67
ATOM     67  C   UNL A   1      35.228  24.432  25.184  1.00  0.00     0.274 C 
BRANCH  67  68
ATOM     68  O   UNL A   1      34.304  24.716  24.117  1.00  0.00    -0.462 OA
BRANCH  68  69
ATOM     69  C   UNL A   1      33.744  25.955  24.073  1.00  0.00     0.312 C 
ATOM     70  O   UNL A   1      33.403  26.520  23.036  1.00  0.00    -0.252 OA
BRANCH  69  71
ATOM     71  C   UNL A   1      33.509  26.563  25.437  1.00  0.00     0.147 C 
ATOM     72  C   UNL A   1      32.111  26.360  26.074  1.00  0.00     0.128 C 
ATOM     73  C   UNL A   1      33.611  28.084  25.503  1.00  0.00     0.157 C 
ATOM     74  C   UNL A   1      31.681  27.789  26.442  1.00  0.00     0.155 C 
ATOM     75  C   UNL A   1      33.771  28.535  26.928  1.00  0.00     0.004 C 
ATOM     76  O   UNL A   1      32.230  28.486  25.303  1.00  0.00    -0.365 OA
ATOM     77  C   UNL A   1      32.576  28.358  27.506  1.00  0.00     0.004 C 
BRANCH  72  78
ATOM     78  C   UNL A   1      30.992  25.648  25.339  1.00  0.00     0.227 C 
ATOM     79  O   UNL A   1      30.506  26.203  24.344  1.00  0.00    -0.275 OA
ATOM     80  N   UNL A   1      30.505  24.417  25.607  1.00  0.00    -0.352 N 
ATOM     81  H   UNL A   1      29.853  24.118  24.933  1.00  0.00     0.163 HD
BRANCH  80  82
ATOM     82  C   UNL A   1      30.712  23.428  26.650  1.00  0.00     0.151 C 
BRANCH  82  83
ATOM     83  C   UNL A   1      32.037  22.704  26.506  1.00  0.00    -0.026 A 
ATOM     84  C   UNL A   1      32.383  21.995  25.348  1.00  0.00     0.025 A 
ATOM     85  C   UNL A   1      32.897  22.608  27.607  1.00  0.00     0.025 A 
ATOM     86  C   UNL A   1      33.513  21.188  25.359  1.00  0.00     0.111 A 
ATOM     87  C   UNL A   1      34.017  21.789  27.515  1.00  0.00     0.111 A 
ATOM     88  N   UNL A   1      34.330  21.060  26.423  1.00  0.00    -0.265 NA
ENDBRANCH  82  83
ENDBRANCH  80  82
ENDBRANCH  72  78
ENDBRANCH  69  71
ENDBRANCH  68  69
ENDBRANCH  67  68
ENDBRANCH   1  67
TORSDOF 17
ENDMDL
MODEL 2
REMARK VINA RESULT:     -10.1      3.185      8.108
REMARK SMILES O=C(OCCOC(=O)[C@@H]1[C@H](C(=O)NCc2ccncc2)[C@H]2C=C[C@@H]1O2)c1ccc(-c2c3nc(c(-c4ccc(S(=O)(=O)[O-])cc4)c4ccc([nH]4)c(-c4ccc(S(=O)(=O)[O-])cc4)c4nc(c(-c5ccc(S(=O)(=O)[O-])cc5)c5ccc2[nH]5)C=C4)C=C3)cc1
REMARK SMILES IDX 4 1 3 2 2 3 1 4 26 5 27 6 85 7 28 8 84 9 29 10 30 11 31 12
REMARK SMILES IDX 78 13 32 14 83 15 77 16 79 17 33 18 82 19 76 20 75 21 34 23
REMARK SMILES IDX 64 24 45 25 63 26 46 27 49 28 62 29 80 30 47 31 48 32 61 34
REMARK SMILES IDX 81 35 50 36 35 37 36 38 44 39 37 40 43 41 38 42 39 43 40 44
REMARK SMILES IDX 41 45 42 46 65 47 66 48 74 49 67 50 73 51 68 52 69 53 70 54
REMARK SMILES IDX 71 55 72 56 51 57 52 58 60 59 53 60 59 61 54 62 55 63 56 64
REMARK SMILES IDX 57 65 58 66 5 67 6 68 7 69 8 70 9 71 10 72 24 73 21 74 23 75
REMARK SMILES IDX 25 76 22 77 11 78 12 79 13 80 14 82 15 83 16 84 20 85 17 86
REMARK SMILES IDX 19 87 18 88
REMARK H PARENT 79 22 49 33 13 81
REMARK Flexibility Score: inf
ROOT
ATOM      1  C   UNL A   1      32.248  30.281  26.871  1.00  0.00     0.275 C 
ENDROOT
BRANCH   1   2
ATOM      2  O   UNL A   1      33.653  30.106  27.094  1.00  0.00    -0.458 OA
BRANCH   2   3
ATOM      3  C   UNL A   1      34.455  30.723  27.992  1.00  0.00     0.338 C 
ATOM      4  O   UNL A   1      34.087  31.791  28.478  1.00  0.00    -0.246 OA
BRANCH   3   5
ATOM      5  C   UNL A   1      35.824  30.228  28.331  1.00  0.00     0.060 A 
ATOM      6  C   UNL A   1      36.227  29.761  29.587  1.00  0.00     0.016 A 
ATOM      7  C   UNL A   1      36.760  30.210  27.282  1.00  0.00     0.016 A 
ATOM      8  C   UNL A   1      37.457  29.135  29.762  1.00  0.00     0.010 A 
ATOM      9  C   UNL A   1      38.030  29.662  27.471  1.00  0.00     0.010 A 
ATOM     10  C   UNL A   1      38.363  29.085  28.705  1.00  0.00    -0.014 A 
BRANCH  10  11
ATOM     11  C   UNL A   1      39.752  28.717  29.017  1.00  0.00     0.031 A 
ATOM     12  C   UNL A   1      40.522  29.774  29.738  1.00  0.00     0.074 A 
ATOM     13  C   UNL A   1      40.250  27.485  28.798  1.00  0.00     0.049 A 
ATOM     14  N   UNL A   1      41.681  29.681  30.319  1.00  0.00    -0.248 NA
ATOM     15  C   UNL A   1      39.852  31.079  29.909  1.00  0.00     0.031 C 
ATOM     16  C   UNL A   1      39.501  26.342  28.289  1.00  0.00     0.029 A 
ATOM     17  N   UNL A   1      41.508  26.977  28.982  1.00  0.00    -0.354 N 
ATOM     18  C   UNL A   1      41.839  30.884  30.989  1.00  0.00     0.074 A 
ATOM     19  C   UNL A   1      40.699  31.716  30.695  1.00  0.00     0.031 C 
ATOM     20  C   UNL A   1      40.325  25.302  28.086  1.00  0.00     0.029 A 
ATOM     21  C   UNL A   1      41.656  25.683  28.524  1.00  0.00     0.049 A 
ATOM     22  H   UNL A   1      42.240  27.486  29.400  1.00  0.00     0.167 HD
ATOM     23  C   UNL A   1      42.848  31.244  31.804  1.00  0.00     0.031 A 
ATOM     24  C   UNL A   1      42.745  24.892  28.501  1.00  0.00     0.031 A 
ATOM     25  C   UNL A   1      44.018  30.438  31.968  1.00  0.00     0.049 A 
ATOM     26  C   UNL A   1      43.963  25.421  29.209  1.00  0.00     0.074 A 
ATOM     27  C   UNL A   1      45.179  30.725  32.654  1.00  0.00     0.029 A 
ATOM     28  N   UNL A   1      44.184  29.186  31.384  1.00  0.00    -0.354 N 
ATOM     29  N   UNL A   1      44.102  26.558  29.854  1.00  0.00    -0.248 NA
ATOM     30  C   UNL A   1      45.143  24.553  29.247  1.00  0.00     0.031 C 
ATOM     31  C   UNL A   1      46.076  29.678  32.419  1.00  0.00     0.029 A 
ATOM     32  C   UNL A   1      45.445  28.702  31.657  1.00  0.00     0.049 A 
ATOM     33  H   UNL A   1      43.501  28.715  30.853  1.00  0.00     0.167 HD
ATOM     34  C   UNL A   1      45.358  26.514  30.436  1.00  0.00     0.074 A 
ATOM     35  C   UNL A   1      45.942  25.241  30.052  1.00  0.00     0.031 C 
ATOM     36  C   UNL A   1      45.968  27.425  31.235  1.00  0.00     0.031 A 
BRANCH  23  37
ATOM     37  C   UNL A   1      42.722  32.593  32.445  1.00  0.00    -0.014 A 
ATOM     38  C   UNL A   1      43.272  33.739  31.837  1.00  0.00     0.010 A 
ATOM     39  C   UNL A   1      42.170  32.693  33.731  1.00  0.00     0.010 A 
ATOM     40  C   UNL A   1      43.316  34.951  32.530  1.00  0.00     0.020 A 
ATOM     41  C   UNL A   1      42.192  33.908  34.417  1.00  0.00     0.020 A 
ATOM     42  C   UNL A   1      42.783  35.024  33.821  1.00  0.00     0.054 A 
BRANCH  42  43
ATOM     43  S   UNL A   1      42.872  36.601  34.711  1.00  0.00     0.124 S 
ATOM     44  O   UNL A   1      42.978  37.561  33.616  1.00  0.00    -0.237 OA
ATOM     45  O   UNL A   1      41.610  36.622  35.446  1.00  0.00    -0.237 OA
ATOM     46  O   UNL A   1      44.070  36.464  35.537  1.00  0.00    -0.744 OA
ENDBRANCH  42  43
ENDBRANCH  23  37
BRANCH  24  47
ATOM     47  C   UNL A   1      42.722  23.546  27.857  1.00  0.00    -0.014 A 
ATOM     48  C   UNL A   1      43.176  23.354  26.540  1.00  0.00     0.010 A 
ATOM     49  C   UNL A   1      42.210  22.436  28.557  1.00  0.00     0.010 A 
ATOM     50  C   UNL A   1      43.084  22.098  25.925  1.00  0.00     0.020 A 
ATOM     51  C   UNL A   1      42.133  21.173  27.955  1.00  0.00     0.020 A 
ATOM     52  C   UNL A   1      42.556  21.015  26.635  1.00  0.00     0.054 A 
BRANCH  52  53
ATOM     53  S   UNL A   1      42.444  19.398  25.813  1.00  0.00     0.124 S 
ATOM     54  O   UNL A   1      41.034  19.342  25.439  1.00  0.00    -0.237 OA
ATOM     55  O   UNL A   1      43.387  19.544  24.706  1.00  0.00    -0.237 OA
ATOM     56  O   UNL A   1      42.854  18.456  26.851  1.00  0.00    -0.744 OA
ENDBRANCH  52  53
ENDBRANCH  24  47
BRANCH  36  57
ATOM     57  C   UNL A   1      47.313  27.045  31.778  1.00  0.00    -0.014 A 
ATOM     58  C   UNL A   1      47.440  26.320  32.973  1.00  0.00     0.010 A 
ATOM     59  C   UNL A   1      48.459  27.363  31.027  1.00  0.00     0.010 A 
ATOM     60  C   UNL A   1      48.702  25.943  33.427  1.00  0.00     0.020 A 
ATOM     61  C   UNL A   1      49.718  26.955  31.458  1.00  0.00     0.020 A 
ATOM     62  C   UNL A   1      49.831  26.260  32.664  1.00  0.00     0.054 A 
BRANCH  62  63
ATOM     63  S   UNL A   1      51.454  25.709  33.245  1.00  0.00     0.124 S 
ATOM     64  O   UNL A   1      52.036  26.954  33.738  1.00  0.00    -0.237 OA
ATOM     65  O   UNL A   1      51.109  24.726  34.270  1.00  0.00    -0.237 OA
ATOM     66  O   UNL A   1      52.082  25.157  32.047  1.00  0.00    -0.744 OA
ENDBRANCH  62  63
ENDBRANCH  36  57
ENDBRANCH  10  11
ENDBRANCH   3   5
ENDBRANCH   2   3
ENDBRANCH   1   2
BRANCH   1  67
ATOM     67  C   UNL A   1      31.708  29.696  25.571  1.00  0.00     0.274 C 
BRANCH  67  68
ATOM     68  O   UNL A   1      32.391  28.547  25.035  1.00  0.00    -0.462 OA
BRANCH  68  69
ATOM     69  C   UNL A   1      32.001  27.317  25.467  1.00  0.00     0.312 C 
ATOM     70  O   UNL A   1      31.571  27.088  26.595  1.00  0.00    -0.252 OA
BRANCH  69  71
ATOM     71  C   UNL A   1      32.080  26.247  24.402  1.00  0.00     0.147 C 
ATOM     72  C   UNL A   1      30.814  26.007  23.541  1.00  0.00     0.128 C 
ATOM     73  C   UNL A   1      32.325  24.830  24.912  1.00  0.00     0.157 C 
ATOM     74  C   UNL A   1      30.586  24.492  23.665  1.00  0.00     0.155 C 
ATOM     75  C   UNL A   1      32.788  23.944  23.790  1.00  0.00     0.004 C 
ATOM     76  O   UNL A   1      30.971  24.322  25.046  1.00  0.00    -0.365 OA
ATOM     77  C   UNL A   1      31.711  23.730  23.023  1.00  0.00     0.004 C 
BRANCH  72  78
ATOM     78  C   UNL A   1      29.519  26.754  23.797  1.00  0.00     0.227 C 
ATOM     79  O   UNL A   1      28.705  26.252  24.584  1.00  0.00    -0.275 OA
ATOM     80  N   UNL A   1      29.177  27.967  23.310  1.00  0.00    -0.352 N 
ATOM     81  H   UNL A   1      28.334  28.300  23.694  1.00  0.00     0.163 HD
BRANCH  80  82
ATOM     82  C   UNL A   1      29.754  28.898  22.357  1.00  0.00     0.151 C 
BRANCH  82  83
ATOM     83  C   UNL A   1      28.991  30.207  22.293  1.00  0.00    -0.026 A 
ATOM     84  C   UNL A   1      28.681  30.837  21.080  1.00  0.00     0.025 A 
ATOM     85  C   UNL A   1      28.703  30.899  23.476  1.00  0.00     0.025 A 
ATOM     86  C   UNL A   1      28.168  32.127  21.098  1.00  0.00     0.111 A 
ATOM     87  C   UNL A   1      28.170  32.180  23.392  1.00  0.00     0.111 A 
ATOM     88  N   UNL A   1      27.917  32.817  22.228  1.00  0.00    -0.265 NA
ENDBRANCH  82  83
ENDBRANCH  80  82
ENDBRANCH  72  78
ENDBRANCH  69  71
ENDBRANCH  68  69
ENDBRANCH  67  68
ENDBRANCH   1  67
TORSDOF 17
ENDMDL
MODEL 3
REMARK VINA RESULT:     -10.1      2.457      8.606
REMARK SMILES O=C(OCCOC(=O)[C@@H]1[C@H](C(=O)NCc2ccncc2)[C@H]2C=C[C@@H]1O2)c1ccc(-c2c3nc(c(-c4ccc(S(=O)(=O)[O-])cc4)c4ccc([nH]4)c(-c4ccc(S(=O)(=O)[O-])cc4)c4nc(c(-c5ccc(S(=O)(=O)[O-])cc5)c5ccc2[nH]5)C=C4)C=C3)cc1
REMARK SMILES IDX 4 1 3 2 2 3 1 4 26 5 27 6 85 7 28 8 84 9 29 10 30 11 31 12
REMARK SMILES IDX 78 13 32 14 83 15 77 16 79 17 33 18 82 19 76 20 75 21 34 23
REMARK SMILES IDX 64 24 45 25 63 26 46 27 49 28 62 29 80 30 47 31 48 32 61 34
REMARK SMILES IDX 81 35 50 36 35 37 36 38 44 39 37 40 43 41 38 42 39 43 40 44
REMARK SMILES IDX 41 45 42 46 65 47 66 48 74 49 67 50 73 51 68 52 69 53 70 54
REMARK SMILES IDX 71 55 72 56 51 57 52 58 60 59 53 60 59 61 54 62 55 63 56 64
REMARK SMILES IDX 57 65 58 66 5 67 6 68 7 69 8 70 9 71 10 72 24 73 21 74 23 75
REMARK SMILES IDX 25 76 22 77 11 78 12 79 13 80 14 82 15 83 16 84 20 85 17 86
REMARK SMILES IDX 19 87 18 88
REMARK H PARENT 79 22 49 33 13 81
REMARK Flexibility Score: inf
ROOT
ATOM      1  C   UNL A   1      36.903  21.967  25.726  1.00  0.00     0.275 C 
ENDROOT
BRANCH   1   2
ATOM      2  O   UNL A   1      38.189  22.547  25.471  1.00  0.00    -0.458 OA
BRANCH   2   3
ATOM      3  C   UNL A   1      39.234  22.701  26.315  1.00  0.00     0.338 C 
ATOM      4  O   UNL A   1      39.778  21.698  26.773  1.00  0.00    -0.246 OA
BRANCH   3   5
ATOM      5  C   UNL A   1      39.682  24.037  26.815  1.00  0.00     0.060 A 
ATOM      6  C   UNL A   1      40.336  25.009  26.050  1.00  0.00     0.016 A 
ATOM      7  C   UNL A   1      39.386  24.334  28.158  1.00  0.00     0.016 A 
ATOM      8  C   UNL A   1      40.536  26.296  26.539  1.00  0.00     0.010 A 
ATOM      9  C   UNL A   1      39.664  25.596  28.685  1.00  0.00     0.010 A 
ATOM     10  C   UNL A   1      40.202  26.593  27.859  1.00  0.00    -0.014 A 
BRANCH  10  11
ATOM     11  C   UNL A   1      40.725  27.845  28.427  1.00  0.00     0.031 A 
ATOM     12  C   UNL A   1      42.214  27.907  28.516  1.00  0.00     0.074 A 
ATOM     13  C   UNL A   1      39.941  28.901  28.715  1.00  0.00     0.049 A 
ATOM     14  N   UNL A   1      42.971  28.931  28.776  1.00  0.00    -0.248 NA
ATOM     15  C   UNL A   1      42.949  26.673  28.168  1.00  0.00     0.031 C 
ATOM     16  C   UNL A   1      38.508  28.991  28.464  1.00  0.00     0.029 A 
ATOM     17  N   UNL A   1      40.235  30.114  29.279  1.00  0.00    -0.354 N 
ATOM     18  C   UNL A   1      44.262  28.485  28.546  1.00  0.00     0.074 A 
ATOM     19  C   UNL A   1      44.200  27.090  28.190  1.00  0.00     0.031 C 
ATOM     20  C   UNL A   1      38.020  30.134  28.972  1.00  0.00     0.029 A 
ATOM     21  C   UNL A   1      39.125  30.896  29.523  1.00  0.00     0.049 A 
ATOM     22  H   UNL A   1      41.153  30.401  29.492  1.00  0.00     0.167 HD
ATOM     23  C   UNL A   1      45.402  29.201  28.604  1.00  0.00     0.031 A 
ATOM     24  C   UNL A   1      39.032  32.111  30.097  1.00  0.00     0.031 A 
ATOM     25  C   UNL A   1      45.429  30.549  29.082  1.00  0.00     0.049 A 
ATOM     26  C   UNL A   1      40.333  32.806  30.392  1.00  0.00     0.074 A 
ATOM     27  C   UNL A   1      46.517  31.361  29.322  1.00  0.00     0.029 A 
ATOM     28  N   UNL A   1      44.292  31.267  29.440  1.00  0.00    -0.354 N 
ATOM     29  N   UNL A   1      41.555  32.382  30.159  1.00  0.00    -0.248 NA
ATOM     30  C   UNL A   1      40.255  34.153  30.964  1.00  0.00     0.031 C 
ATOM     31  C   UNL A   1      46.040  32.542  29.900  1.00  0.00     0.029 A 
ATOM     32  C   UNL A   1      44.652  32.499  29.941  1.00  0.00     0.049 A 
ATOM     33  H   UNL A   1      43.367  30.941  29.351  1.00  0.00     0.167 HD
ATOM     34  C   UNL A   1      42.392  33.436  30.487  1.00  0.00     0.074 A 
ATOM     35  C   UNL A   1      41.532  34.512  30.950  1.00  0.00     0.031 C 
ATOM     36  C   UNL A   1      43.742  33.524  30.394  1.00  0.00     0.031 A 
BRANCH  23  37
ATOM     37  C   UNL A   1      46.655  28.466  28.241  1.00  0.00    -0.014 A 
ATOM     38  C   UNL A   1      47.151  28.483  26.921  1.00  0.00     0.010 A 
ATOM     39  C   UNL A   1      47.265  27.636  29.195  1.00  0.00     0.010 A 
ATOM     40  C   UNL A   1      48.205  27.644  26.553  1.00  0.00     0.020 A 
ATOM     41  C   UNL A   1      48.333  26.813  28.836  1.00  0.00     0.020 A 
ATOM     42  C   UNL A   1      48.783  26.807  27.514  1.00  0.00     0.054 A 
BRANCH  42  43
ATOM     43  S   UNL A   1      50.134  25.708  27.009  1.00  0.00     0.124 S 
ATOM     44  O   UNL A   1      50.051  25.777  25.552  1.00  0.00    -0.237 OA
ATOM     45  O   UNL A   1      51.304  26.350  27.603  1.00  0.00    -0.237 OA
ATOM     46  O   UNL A   1      49.768  24.420  27.593  1.00  0.00    -0.744 OA
ENDBRANCH  42  43
ENDBRANCH  23  37
BRANCH  24  47
ATOM     47  C   UNL A   1      37.710  32.748  30.369  1.00  0.00    -0.014 A 
ATOM     48  C   UNL A   1      37.062  33.538  29.402  1.00  0.00     0.010 A 
ATOM     49  C   UNL A   1      37.095  32.593  31.628  1.00  0.00     0.010 A 
ATOM     50  C   UNL A   1      35.855  34.187  29.697  1.00  0.00     0.020 A 
ATOM     51  C   UNL A   1      35.879  33.222  31.922  1.00  0.00     0.020 A 
ATOM     52  C   UNL A   1      35.274  34.030  30.959  1.00  0.00     0.054 A 
BRANCH  52  53
ATOM     53  S   UNL A   1      33.710  34.884  31.316  1.00  0.00     0.124 S 
ATOM     54  O   UNL A   1      32.979  34.719  30.063  1.00  0.00    -0.237 OA
ATOM     55  O   UNL A   1      33.193  34.128  32.454  1.00  0.00    -0.237 OA
ATOM     56  O   UNL A   1      34.126  36.251  31.621  1.00  0.00    -0.744 OA
ENDBRANCH  52  53
ENDBRANCH  24  47
BRANCH  36  57
ATOM     57  C   UNL A   1      44.355  34.844  30.756  1.00  0.00    -0.014 A 
ATOM     58  C   UNL A   1      44.601  35.825  29.783  1.00  0.00     0.010 A 
ATOM     59  C   UNL A   1      44.613  35.120  32.110  1.00  0.00     0.010 A 
ATOM     60  C   UNL A   1      45.129  37.059  30.159  1.00  0.00     0.020 A 
ATOM     61  C   UNL A   1      45.104  36.365  32.493  1.00  0.00     0.020 A 
ATOM     62  C   UNL A   1      45.373  37.321  31.511  1.00  0.00     0.054 A 
BRANCH  62  63
ATOM     63  S   UNL A   1      46.004  38.951  31.980  1.00  0.00     0.124 S 
ATOM     64  O   UNL A   1      45.795  39.718  30.755  1.00  0.00    -0.237 OA
ATOM     65  O   UNL A   1      45.145  39.314  33.105  1.00  0.00    -0.237 OA
ATOM     66  O   UNL A   1      47.400  38.695  32.325  1.00  0.00    -0.744 OA
ENDBRANCH  62  63
ENDBRANCH  36  57
ENDBRANCH  10  11
ENDBRANCH   3   5
ENDBRANCH   2   3
ENDBRANCH   1   2
BRANCH   1  67
ATOM     67  C   UNL A   1      35.704  22.860  25.423  1.00  0.00     0.274 C 
BRANCH  67  68
ATOM     68  O   UNL A   1      35.394  23.092  24.037  1.00  0.00    -0.462 OA
BRANCH  68  69
ATOM     69  C   UNL A   1      34.395  23.969  23.748  1.00  0.00     0.312 C 
ATOM     70  O   UNL A   1      34.309  24.591  22.691  1.00  0.00    -0.252 OA
BRANCH  69  71
ATOM     71  C   UNL A   1      33.341  24.066  24.827  1.00  0.00     0.147 C 
ATOM     72  C   UNL A   1      32.267  22.951  24.874  1.00  0.00     0.128 C 
ATOM     73  C   UNL A   1      32.441  25.296  24.756  1.00  0.00     0.157 C 
ATOM     74  C   UNL A   1      30.945  23.734  24.876  1.00  0.00     0.155 C 
ATOM     75  C   UNL A   1      31.733  25.502  26.066  1.00  0.00     0.004 C 
ATOM     76  O   UNL A   1      31.318  24.802  23.979  1.00  0.00    -0.365 OA
ATOM     77  C   UNL A   1      30.805  24.540  26.137  1.00  0.00     0.004 C 
BRANCH  72  78
ATOM     78  C   UNL A   1      32.218  21.842  23.840  1.00  0.00     0.227 C 
ATOM     79  O   UNL A   1      31.668  22.083  22.756  1.00  0.00    -0.275 OA
ATOM     80  N   UNL A   1      32.784  20.620  23.939  1.00  0.00    -0.352 N 
ATOM     81  H   UNL A   1      32.712  20.105  23.102  1.00  0.00     0.163 HD
BRANCH  80  82
ATOM     82  C   UNL A   1      33.474  19.882  24.982  1.00  0.00     0.151 C 
BRANCH  82  83
ATOM     83  C   UNL A   1      33.345  18.381  24.811  1.00  0.00    -0.026 A 
ATOM     84  C   UNL A   1      32.674  17.574  25.740  1.00  0.00     0.025 A 
ATOM     85  C   UNL A   1      34.032  17.740  23.772  1.00  0.00     0.025 A 
ATOM     86  C   UNL A   1      32.770  16.193  25.633  1.00  0.00     0.111 A 
ATOM     87  C   UNL A   1      34.054  16.351  23.737  1.00  0.00     0.111 A 
ATOM     88  N   UNL A   1      33.456  15.564  24.658  1.00  0.00    -0.265 NA
ENDBRANCH  82  83
ENDBRANCH  80  82
ENDBRANCH  72  78
ENDBRANCH  69  71
ENDBRANCH  68  69
ENDBRANCH  67  68
ENDBRANCH   1  67
TORSDOF 17
ENDMDL
