MODEL 1
REMARK VINA RESULT:     -11.9      0.000      0.000
REMARK SMILES O=C(OCCOC(=O)c1ccc(-c2c3nc(c(-c4ccc(S(=O)(=O)[O-])cc4)c4ccc([nH]4)c(-c4ccc(S(=O)(=O)[O-])cc4)c4nc(c(-c5ccc(S(=O)(=O)[O-])cc5)c5ccc2[nH]5)C=C4)C=C3)cc1)C1=Cc2cc(S(F)(F)(F)(F)F)ccc2O[C@@H]1C(F)(F)F
REMARK SMILES IDX 5 1 4 2 3 3 2 4 1 5 69 6 70 7 84 8 71 9 83 10 72 11 82 12
REMARK SMILES IDX 73 13 81 14 80 15 85 16 86 17 87 18 88 19 74 20 75 21 76 22
REMARK SMILES IDX 77 23 78 24 79 25 6 26 7 27 8 28 9 29 10 30 68 31 11 32
REMARK SMILES IDX 67 33 12 34 13 35 14 36 61 37 15 38 66 39 60 40 62 41 16 42
REMARK SMILES IDX 65 43 59 44 58 45 17 47 47 48 28 49 46 50 29 51 32 52 45 53
REMARK SMILES IDX 63 54 30 55 31 56 44 58 64 59 33 60 18 61 19 62 27 63 20 64
REMARK SMILES IDX 26 65 21 66 22 67 23 68 24 69 25 70 48 71 49 72 57 73 50 74
REMARK SMILES IDX 56 75 51 76 52 77 53 78 54 79 55 80 34 81 35 82 43 83 36 84
REMARK SMILES IDX 42 85 37 86 38 87 39 88 40 89 41 90
REMARK H PARENT 62 46 32 57
REMARK Flexibility Score: inf
ROOT
ATOM      1  C   UNL A   1      38.347  23.757  26.064  1.00  0.00     0.275 C 
ENDROOT
BRANCH   1   2
ATOM      2  C   UNL A   1      36.832  23.645  25.990  1.00  0.00     0.275 C 
BRANCH   2   3
ATOM      3  O   UNL A   1      36.394  24.003  24.687  1.00  0.00    -0.459 OA
BRANCH   3   4
ATOM      4  C   UNL A   1      35.539  23.134  23.961  1.00  0.00     0.338 C 
ATOM      5  O   UNL A   1      35.754  22.916  22.727  1.00  0.00    -0.246 OA
BRANCH   4   6
ATOM      6  C   UNL A   1      34.368  22.462  24.659  1.00  0.00     0.087 C 
ATOM      7  C   UNL A   1      33.357  23.216  25.169  1.00  0.00     0.027 C 
ATOM      8  C   UNL A   1      34.326  20.948  24.786  1.00  0.00     0.316 C 
ATOM      9  C   UNL A   1      33.400  24.730  25.041  1.00  0.00     0.019 A 
ATOM     10  O   UNL A   1      34.205  24.451  22.823  1.00  0.00    -0.475 OA
ATOM     11  C   UNL A   1      33.086  25.513  26.140  1.00  0.00     0.036 A 
ATOM     12  C   UNL A   1      33.736  25.276  23.879  1.00  0.00     0.128 A 
ATOM     13  C   UNL A   1      32.874  26.878  25.829  1.00  0.00     0.107 A 
ATOM     14  C   UNL A   1      33.633  26.634  23.688  1.00  0.00     0.048 A 
ATOM     15  C   UNL A   1      33.272  27.463  24.714  1.00  0.00     0.028 A 
BRANCH   8  16
ATOM     16  C   UNL A   1      33.083  20.415  24.091  1.00  0.00     0.430 C 
ATOM     17  F   UNL A   1      32.055  20.445  24.935  1.00  0.00    -0.167 F 
ATOM     18  F   UNL A   1      32.809  21.171  23.032  1.00  0.00    -0.167 F 
ATOM     19  F   UNL A   1      33.297  19.162  23.698  1.00  0.00    -0.167 F 
ENDBRANCH   8  16
BRANCH  13  20
ATOM     20  S   UNL A   1      31.998  27.892  27.045  1.00  0.00     0.310 S 
ATOM     21  F   UNL A   1      31.592  28.965  25.950  1.00  0.00    -0.094 F 
ATOM     22  F   UNL A   1      33.320  28.719  27.267  1.00  0.00    -0.094 F 
ATOM     23  F   UNL A   1      31.245  28.764  28.090  1.00  0.00    -0.094 F 
ATOM     24  F   UNL A   1      30.648  27.145  26.708  1.00  0.00    -0.094 F 
ATOM     25  F   UNL A   1      32.720  27.074  25.901  1.00  0.00    -0.094 F 
ENDBRANCH  13  20
ENDBRANCH   4   6
ENDBRANCH   3   4
ENDBRANCH   2   3
ENDBRANCH   1   2
BRANCH   1  26
ATOM     26  O   UNL A   1      38.714  24.395  27.278  1.00  0.00    -0.458 OA
BRANCH  26  27
ATOM     27  C   UNL A   1      39.587  25.515  27.257  1.00  0.00     0.338 C 
ATOM     28  O   UNL A   1      40.258  25.777  26.209  1.00  0.00    -0.246 OA
BRANCH  27  29
ATOM     29  C   UNL A   1      39.720  26.399  28.485  1.00  0.00     0.060 A 
ATOM     30  C   UNL A   1      38.943  26.136  29.600  1.00  0.00     0.016 A 
ATOM     31  C   UNL A   1      40.582  27.410  28.470  1.00  0.00     0.016 A 
ATOM     32  C   UNL A   1      38.938  27.179  30.556  1.00  0.00     0.010 A 
ATOM     33  C   UNL A   1      40.616  28.316  29.502  1.00  0.00     0.010 A 
ATOM     34  C   UNL A   1      39.831  28.150  30.610  1.00  0.00    -0.014 A 
BRANCH  34  35
ATOM     35  C   UNL A   1      39.979  29.034  31.836  1.00  0.00     0.031 A 
ATOM     36  C   UNL A   1      41.037  28.772  32.709  1.00  0.00     0.074 A 
ATOM     37  C   UNL A   1      39.056  30.049  32.022  1.00  0.00     0.049 A 
ATOM     38  N   UNL A   1      41.364  29.442  33.816  1.00  0.00    -0.248 NA
ATOM     39  C   UNL A   1      41.998  27.674  32.533  1.00  0.00     0.031 C 
ATOM     40  C   UNL A   1      37.991  30.325  31.142  1.00  0.00     0.029 A 
ATOM     41  N   UNL A   1      38.992  30.954  33.057  1.00  0.00    -0.354 N 
ATOM     42  C   UNL A   1      42.450  28.905  34.375  1.00  0.00     0.074 A 
ATOM     43  C   UNL A   1      42.870  27.756  33.561  1.00  0.00     0.031 C 
ATOM     44  C   UNL A   1      37.289  31.374  31.645  1.00  0.00     0.029 A 
ATOM     45  C   UNL A   1      37.904  31.772  32.848  1.00  0.00     0.049 A 
ATOM     46  H   UNL A   1      39.617  31.009  33.816  1.00  0.00     0.167 HD
ATOM     47  C   UNL A   1      43.108  29.330  35.531  1.00  0.00     0.031 A 
ATOM     48  C   UNL A   1      37.455  32.810  33.649  1.00  0.00     0.031 A 
ATOM     49  C   UNL A   1      42.683  30.395  36.309  1.00  0.00     0.049 A 
ATOM     50  C   UNL A   1      38.079  33.198  34.837  1.00  0.00     0.074 A 
ATOM     51  C   UNL A   1      43.340  30.841  37.472  1.00  0.00     0.029 A 
ATOM     52  N   UNL A   1      41.581  31.197  36.113  1.00  0.00    -0.354 N 
ATOM     53  N   UNL A   1      39.187  32.687  35.375  1.00  0.00    -0.248 NA
ATOM     54  C   UNL A   1      37.594  34.274  35.711  1.00  0.00     0.031 C 
ATOM     55  C   UNL A   1      42.637  31.891  37.976  1.00  0.00     0.029 A 
ATOM     56  C   UNL A   1      41.530  32.117  37.136  1.00  0.00     0.049 A 
ATOM     57  H   UNL A   1      40.939  31.124  35.369  1.00  0.00     0.167 HD
ATOM     58  C   UNL A   1      39.490  33.330  36.504  1.00  0.00     0.074 A 
ATOM     59  C   UNL A   1      38.465  34.356  36.740  1.00  0.00     0.031 C 
ATOM     60  C   UNL A   1      40.581  33.106  37.345  1.00  0.00     0.031 A 
BRANCH  47  61
ATOM     61  C   UNL A   1      44.360  28.582  35.960  1.00  0.00    -0.014 A 
ATOM     62  C   UNL A   1      44.232  27.503  36.819  1.00  0.00     0.010 A 
ATOM     63  C   UNL A   1      45.546  28.961  35.502  1.00  0.00     0.010 A 
ATOM     64  C   UNL A   1      45.459  27.061  37.371  1.00  0.00     0.020 A 
ATOM     65  C   UNL A   1      46.698  28.393  35.988  1.00  0.00     0.020 A 
ATOM     66  C   UNL A   1      46.650  27.361  36.884  1.00  0.00     0.054 A 
BRANCH  66  67
ATOM     67  S   UNL A   1      48.137  26.454  37.377  1.00  0.00     0.124 S 
ATOM     68  O   UNL A   1      49.375  27.297  37.068  1.00  0.00    -0.237 OA
ATOM     69  O   UNL A   1      48.080  26.160  38.878  1.00  0.00    -0.237 OA
ATOM     70  O   UNL A   1      48.219  24.982  36.511  1.00  0.00    -0.744 OA
ENDBRANCH  66  67
ENDBRANCH  47  61
BRANCH  48  71
ATOM     71  C   UNL A   1      36.212  33.568  33.211  1.00  0.00    -0.014 A 
ATOM     72  C   UNL A   1      36.369  34.789  32.576  1.00  0.00     0.010 A 
ATOM     73  C   UNL A   1      35.007  33.059  33.437  1.00  0.00     0.010 A 
ATOM     74  C   UNL A   1      35.175  35.539  32.473  1.00  0.00     0.020 A 
ATOM     75  C   UNL A   1      33.877  33.799  33.186  1.00  0.00     0.020 A 
ATOM     76  C   UNL A   1      33.961  35.038  32.614  1.00  0.00     0.054 A 
BRANCH  76  77
ATOM     77  S   UNL A   1      32.488  35.943  32.077  1.00  0.00     0.124 S 
ATOM     78  O   UNL A   1      32.344  35.830  30.558  1.00  0.00    -0.237 OA
ATOM     79  O   UNL A   1      31.250  35.350  32.752  1.00  0.00    -0.237 OA
ATOM     80  O   UNL A   1      32.641  37.589  32.514  1.00  0.00    -0.744 OA
ENDBRANCH  76  77
ENDBRANCH  48  71
BRANCH  60  81
ATOM     81  C   UNL A   1      40.739  34.000  38.564  1.00  0.00    -0.014 A 
ATOM     82  C   UNL A   1      40.157  33.622  39.763  1.00  0.00     0.010 A 
ATOM     83  C   UNL A   1      41.432  35.128  38.460  1.00  0.00     0.010 A 
ATOM     84  C   UNL A   1      40.120  34.653  40.732  1.00  0.00     0.020 A 
ATOM     85  C   UNL A   1      41.463  36.029  39.497  1.00  0.00     0.020 A 
ATOM     86  C   UNL A   1      40.859  35.746  40.691  1.00  0.00     0.054 A 
BRANCH  86  87
ATOM     87  S   UNL A   1      41.064  36.814  42.138  1.00  0.00     0.124 S 
ATOM     88  O   UNL A   1      41.565  35.981  43.320  1.00  0.00    -0.237 OA
ATOM     89  O   UNL A   1      42.082  37.913  41.822  1.00  0.00    -0.237 OA
ATOM     90  O   UNL A   1      39.562  37.526  42.539  1.00  0.00    -0.744 OA
ENDBRANCH  86  87
ENDBRANCH  60  81
ENDBRANCH  34  35
ENDBRANCH  27  29
ENDBRANCH  26  27
ENDBRANCH   1  26
TORSDOF 16
ENDMDL
MODEL 2
REMARK VINA RESULT:     -11.8      0.495      8.146
REMARK SMILES O=C(OCCOC(=O)c1ccc(-c2c3nc(c(-c4ccc(S(=O)(=O)[O-])cc4)c4ccc([nH]4)c(-c4ccc(S(=O)(=O)[O-])cc4)c4nc(c(-c5ccc(S(=O)(=O)[O-])cc5)c5ccc2[nH]5)C=C4)C=C3)cc1)C1=Cc2cc(S(F)(F)(F)(F)F)ccc2O[C@@H]1C(F)(F)F
REMARK SMILES IDX 5 1 4 2 3 3 2 4 1 5 69 6 70 7 84 8 71 9 83 10 72 11 82 12
REMARK SMILES IDX 73 13 81 14 80 15 85 16 86 17 87 18 88 19 74 20 75 21 76 22
REMARK SMILES IDX 77 23 78 24 79 25 6 26 7 27 8 28 9 29 10 30 68 31 11 32
REMARK SMILES IDX 67 33 12 34 13 35 14 36 61 37 15 38 66 39 60 40 62 41 16 42
REMARK SMILES IDX 65 43 59 44 58 45 17 47 47 48 28 49 46 50 29 51 32 52 45 53
REMARK SMILES IDX 63 54 30 55 31 56 44 58 64 59 33 60 18 61 19 62 27 63 20 64
REMARK SMILES IDX 26 65 21 66 22 67 23 68 24 69 25 70 48 71 49 72 57 73 50 74
REMARK SMILES IDX 56 75 51 76 52 77 53 78 54 79 55 80 34 81 35 82 43 83 36 84
REMARK SMILES IDX 42 85 37 86 38 87 39 88 40 89 41 90
REMARK H PARENT 62 46 32 57
REMARK Flexibility Score: inf
ROOT
ATOM      1  C   UNL A   1      38.360  23.749  25.893  1.00  0.00     0.275 C 
ENDROOT
BRANCH   1   2
ATOM      2  C   UNL A   1      36.916  23.283  25.784  1.00  0.00     0.275 C 
BRANCH   2   3
ATOM      3  O   UNL A   1      36.315  23.870  24.639  1.00  0.00    -0.459 OA
BRANCH   3   4
ATOM      4  C   UNL A   1      35.261  23.197  23.967  1.00  0.00     0.338 C 
ATOM      5  O   UNL A   1      35.351  22.957  22.722  1.00  0.00    -0.246 OA
BRANCH   4   6
ATOM      6  C   UNL A   1      34.024  22.762  24.737  1.00  0.00     0.087 C 
ATOM      7  C   UNL A   1      33.140  23.693  25.185  1.00  0.00     0.027 C 
ATOM      8  C   UNL A   1      33.777  21.287  25.007  1.00  0.00     0.316 C 
ATOM      9  C   UNL A   1      33.388  25.168  24.916  1.00  0.00     0.019 A 
ATOM     10  O   UNL A   1      34.094  24.578  22.725  1.00  0.00    -0.475 OA
ATOM     11  C   UNL A   1      33.211  26.084  25.939  1.00  0.00     0.036 A 
ATOM     12  C   UNL A   1      33.769  25.554  23.703  1.00  0.00     0.128 A 
ATOM     13  C   UNL A   1      33.182  27.431  25.504  1.00  0.00     0.107 A 
ATOM     14  C   UNL A   1      33.850  26.889  23.387  1.00  0.00     0.048 A 
ATOM     15  C   UNL A   1      33.630  27.851  24.335  1.00  0.00     0.028 A 
BRANCH   8  16
ATOM     16  C   UNL A   1      32.456  20.871  24.378  1.00  0.00     0.430 C 
ATOM     17  F   UNL A   1      32.450  21.214  23.093  1.00  0.00    -0.167 F 
ATOM     18  F   UNL A   1      32.309  19.554  24.486  1.00  0.00    -0.167 F 
ATOM     19  F   UNL A   1      31.454  21.482  25.004  1.00  0.00    -0.167 F 
ENDBRANCH   8  16
BRANCH  13  20
ATOM     20  S   UNL A   1      32.483  28.664  26.629  1.00  0.00     0.310 S 
ATOM     21  F   UNL A   1      31.890  27.547  27.586  1.00  0.00    -0.094 F 
ATOM     22  F   UNL A   1      31.131  28.592  25.822  1.00  0.00    -0.094 F 
ATOM     23  F   UNL A   1      31.881  29.725  27.595  1.00  0.00    -0.094 F 
ATOM     24  F   UNL A   1      33.794  28.620  27.507  1.00  0.00    -0.094 F 
ATOM     25  F   UNL A   1      33.066  27.507  25.724  1.00  0.00    -0.094 F 
ENDBRANCH  13  20
ENDBRANCH   4   6
ENDBRANCH   3   4
ENDBRANCH   2   3
ENDBRANCH   1   2
BRANCH   1  26
ATOM     26  O   UNL A   1      38.511  24.550  27.055  1.00  0.00    -0.458 OA
BRANCH  26  27
ATOM     27  C   UNL A   1      39.549  25.517  27.122  1.00  0.00     0.338 C 
ATOM     28  O   UNL A   1      40.368  25.637  26.158  1.00  0.00    -0.246 OA
BRANCH  27  29
ATOM     29  C   UNL A   1      39.682  26.406  28.347  1.00  0.00     0.060 A 
ATOM     30  C   UNL A   1      38.956  26.107  29.487  1.00  0.00     0.016 A 
ATOM     31  C   UNL A   1      40.494  27.457  28.304  1.00  0.00     0.016 A 
ATOM     32  C   UNL A   1      38.934  27.149  30.444  1.00  0.00     0.010 A 
ATOM     33  C   UNL A   1      40.520  28.363  29.336  1.00  0.00     0.010 A 
ATOM     34  C   UNL A   1      39.782  28.161  30.469  1.00  0.00    -0.014 A 
BRANCH  34  35
ATOM     35  C   UNL A   1      39.929  29.051  31.691  1.00  0.00     0.031 A 
ATOM     36  C   UNL A   1      38.999  30.077  31.870  1.00  0.00     0.074 A 
ATOM     37  C   UNL A   1      40.979  28.798  32.557  1.00  0.00     0.049 A 
ATOM     38  N   UNL A   1      38.928  30.943  32.883  1.00  0.00    -0.248 NA
ATOM     39  C   UNL A   1      37.904  30.370  30.935  1.00  0.00     0.031 C 
ATOM     40  C   UNL A   1      41.917  27.761  32.387  1.00  0.00     0.029 A 
ATOM     41  N   UNL A   1      41.306  29.477  33.709  1.00  0.00    -0.354 N 
ATOM     42  C   UNL A   1      37.890  31.764  32.715  1.00  0.00     0.074 A 
ATOM     43  C   UNL A   1      37.219  31.411  31.456  1.00  0.00     0.031 C 
ATOM     44  C   UNL A   1      42.802  27.820  33.416  1.00  0.00     0.029 A 
ATOM     45  C   UNL A   1      42.434  28.896  34.247  1.00  0.00     0.049 A 
ATOM     46  H   UNL A   1      40.819  30.246  34.085  1.00  0.00     0.167 HD
ATOM     47  C   UNL A   1      37.474  32.792  33.563  1.00  0.00     0.031 A 
ATOM     48  C   UNL A   1      43.118  29.269  35.393  1.00  0.00     0.031 A 
ATOM     49  C   UNL A   1      38.134  33.138  34.732  1.00  0.00     0.049 A 
ATOM     50  C   UNL A   1      42.736  30.335  36.211  1.00  0.00     0.074 A 
ATOM     51  C   UNL A   1      37.723  34.165  35.603  1.00  0.00     0.029 A 
ATOM     52  N   UNL A   1      39.275  32.572  35.256  1.00  0.00    -0.354 N 
ATOM     53  N   UNL A   1      41.676  31.130  36.064  1.00  0.00    -0.248 NA
ATOM     54  C   UNL A   1      43.471  30.760  37.409  1.00  0.00     0.031 C 
ATOM     55  C   UNL A   1      38.611  34.225  36.631  1.00  0.00     0.029 A 
ATOM     56  C   UNL A   1      39.590  33.236  36.420  1.00  0.00     0.049 A 
ATOM     57  H   UNL A   1      39.779  31.821  34.865  1.00  0.00     0.167 HD
ATOM     58  C   UNL A   1      41.629  32.023  37.054  1.00  0.00     0.074 A 
ATOM     59  C   UNL A   1      42.788  31.802  37.930  1.00  0.00     0.031 C 
ATOM     60  C   UNL A   1      40.665  33.011  37.265  1.00  0.00     0.031 A 
BRANCH  47  61
ATOM     61  C   UNL A   1      36.229  33.577  33.183  1.00  0.00    -0.014 A 
ATOM     62  C   UNL A   1      36.378  34.810  32.570  1.00  0.00     0.010 A 
ATOM     63  C   UNL A   1      35.027  33.071  33.432  1.00  0.00     0.010 A 
ATOM     64  C   UNL A   1      35.185  35.570  32.515  1.00  0.00     0.020 A 
ATOM     65  C   UNL A   1      33.896  33.823  33.228  1.00  0.00     0.020 A 
ATOM     66  C   UNL A   1      33.972  35.073  32.680  1.00  0.00     0.054 A 
BRANCH  66  67
ATOM     67  S   UNL A   1      32.490  35.998  32.204  1.00  0.00     0.124 S 
ATOM     68  O   UNL A   1      31.244  35.227  32.643  1.00  0.00    -0.237 OA
ATOM     69  O   UNL A   1      32.506  37.370  32.882  1.00  0.00    -0.237 OA
ATOM     70  O   UNL A   1      32.466  36.201  30.507  1.00  0.00    -0.744 OA
ENDBRANCH  66  67
ENDBRANCH  47  61
BRANCH  48  71
ATOM     71  C   UNL A   1      44.354  28.474  35.781  1.00  0.00    -0.014 A 
ATOM     72  C   UNL A   1      44.202  27.374  36.610  1.00  0.00     0.010 A 
ATOM     73  C   UNL A   1      45.548  28.834  35.327  1.00  0.00     0.010 A 
ATOM     74  C   UNL A   1      45.418  26.885  37.141  1.00  0.00     0.020 A 
ATOM     75  C   UNL A   1      46.687  28.221  35.790  1.00  0.00     0.020 A 
ATOM     76  C   UNL A   1      46.614  27.166  36.656  1.00  0.00     0.054 A 
BRANCH  76  77
ATOM     77  S   UNL A   1      48.078  26.205  37.115  1.00  0.00     0.124 S 
ATOM     78  O   UNL A   1      48.013  24.828  36.451  1.00  0.00    -0.237 OA
ATOM     79  O   UNL A   1      49.337  26.938  36.648  1.00  0.00    -0.237 OA
ATOM     80  O   UNL A   1      48.126  26.017  38.814  1.00  0.00    -0.744 OA
ENDBRANCH  76  77
ENDBRANCH  48  71
BRANCH  60  81
ATOM     81  C   UNL A   1      40.803  33.892  38.496  1.00  0.00    -0.014 A 
ATOM     82  C   UNL A   1      41.532  35.067  38.412  1.00  0.00     0.010 A 
ATOM     83  C   UNL A   1      40.223  33.521  39.631  1.00  0.00     0.010 A 
ATOM     84  C   UNL A   1      41.834  35.646  39.667  1.00  0.00     0.020 A 
ATOM     85  C   UNL A   1      40.456  34.214  40.795  1.00  0.00     0.020 A 
ATOM     86  C   UNL A   1      41.216  35.351  40.796  1.00  0.00     0.054 A 
BRANCH  86  87
ATOM     87  S   UNL A   1      41.363  36.397  42.265  1.00  0.00     0.124 S 
ATOM     88  O   UNL A   1      42.690  36.104  42.969  1.00  0.00    -0.237 OA
ATOM     89  O   UNL A   1      41.321  37.870  41.850  1.00  0.00    -0.237 OA
ATOM     90  O   UNL A   1      40.068  36.068  43.332  1.00  0.00    -0.744 OA
ENDBRANCH  86  87
ENDBRANCH  60  81
ENDBRANCH  34  35
ENDBRANCH  27  29
ENDBRANCH  26  27
ENDBRANCH   1  26
TORSDOF 16
ENDMDL
MODEL 3
REMARK VINA RESULT:     -11.7      3.527      9.097
REMARK SMILES O=C(OCCOC(=O)c1ccc(-c2c3nc(c(-c4ccc(S(=O)(=O)[O-])cc4)c4ccc([nH]4)c(-c4ccc(S(=O)(=O)[O-])cc4)c4nc(c(-c5ccc(S(=O)(=O)[O-])cc5)c5ccc2[nH]5)C=C4)C=C3)cc1)C1=Cc2cc(S(F)(F)(F)(F)F)ccc2O[C@@H]1C(F)(F)F
REMARK SMILES IDX 5 1 4 2 3 3 2 4 1 5 69 6 70 7 84 8 71 9 83 10 72 11 82 12
REMARK SMILES IDX 73 13 81 14 80 15 85 16 86 17 87 18 88 19 74 20 75 21 76 22
REMARK SMILES IDX 77 23 78 24 79 25 6 26 7 27 8 28 9 29 10 30 68 31 11 32
REMARK SMILES IDX 67 33 12 34 13 35 14 36 61 37 15 38 66 39 60 40 62 41 16 42
REMARK SMILES IDX 65 43 59 44 58 45 17 47 47 48 28 49 46 50 29 51 32 52 45 53
REMARK SMILES IDX 63 54 30 55 31 56 44 58 64 59 33 60 18 61 19 62 27 63 20 64
REMARK SMILES IDX 26 65 21 66 22 67 23 68 24 69 25 70 48 71 49 72 57 73 50 74
REMARK SMILES IDX 56 75 51 76 52 77 53 78 54 79 55 80 34 81 35 82 43 83 36 84
REMARK SMILES IDX 42 85 37 86 38 87 39 88 40 89 41 90
REMARK H PARENT 62 46 32 57
REMARK Flexibility Score: inf
ROOT
ATOM      1  C   UNL A   1      37.209  22.164  24.475  1.00  0.00     0.275 C 
ENDROOT
BRANCH   1   2
ATOM      2  C   UNL A   1      36.838  22.790  23.139  1.00  0.00     0.275 C 
BRANCH   2   3
ATOM      3  O   UNL A   1      35.875  23.813  23.346  1.00  0.00    -0.459 OA
BRANCH   3   4
ATOM      4  C   UNL A   1      34.491  23.514  23.254  1.00  0.00     0.338 C 
ATOM      5  O   UNL A   1      33.926  23.462  22.117  1.00  0.00    -0.246 OA
BRANCH   4   6
ATOM      6  C   UNL A   1      33.684  23.256  24.516  1.00  0.00     0.087 C 
ATOM      7  C   UNL A   1      33.205  24.301  25.243  1.00  0.00     0.027 C 
ATOM      8  C   UNL A   1      33.412  21.829  24.966  1.00  0.00     0.316 C 
ATOM      9  C   UNL A   1      33.477  25.727  24.793  1.00  0.00     0.019 A 
ATOM     10  O   UNL A   1      33.064  25.028  22.560  1.00  0.00    -0.475 OA
ATOM     11  C   UNL A   1      33.881  26.668  25.726  1.00  0.00     0.036 A 
ATOM     12  C   UNL A   1      33.322  26.047  23.514  1.00  0.00     0.128 A 
ATOM     13  C   UNL A   1      33.819  28.003  25.259  1.00  0.00     0.107 A 
ATOM     14  C   UNL A   1      33.409  27.357  23.105  1.00  0.00     0.048 A 
ATOM     15  C   UNL A   1      33.747  28.348  23.986  1.00  0.00     0.028 A 
BRANCH   8  16
ATOM     16  C   UNL A   1      31.911  21.589  25.009  1.00  0.00     0.430 C 
ATOM     17  F   UNL A   1      31.327  22.252  24.015  1.00  0.00    -0.167 F 
ATOM     18  F   UNL A   1      31.666  20.289  24.880  1.00  0.00    -0.167 F 
ATOM     19  F   UNL A   1      31.427  22.018  26.172  1.00  0.00    -0.167 F 
ENDBRANCH   8  16
BRANCH  13  20
ATOM     20  S   UNL A   1      33.840  29.328  26.490  1.00  0.00     0.310 S 
ATOM     21  F   UNL A   1      33.726  28.299  27.692  1.00  0.00    -0.094 F 
ATOM     22  F   UNL A   1      32.265  29.351  26.451  1.00  0.00    -0.094 F 
ATOM     23  F   UNL A   1      33.858  30.468  27.549  1.00  0.00    -0.094 F 
ATOM     24  F   UNL A   1      35.408  29.195  26.620  1.00  0.00    -0.094 F 
ATOM     25  F   UNL A   1      33.831  28.095  25.501  1.00  0.00    -0.094 F 
ENDBRANCH  13  20
ENDBRANCH   4   6
ENDBRANCH   3   4
ENDBRANCH   2   3
ENDBRANCH   1   2
BRANCH   1  26
ATOM     26  O   UNL A   1      37.491  23.191  25.414  1.00  0.00    -0.458 OA
BRANCH  26  27
ATOM     27  C   UNL A   1      38.719  23.184  26.127  1.00  0.00     0.338 C 
ATOM     28  O   UNL A   1      39.428  22.129  26.162  1.00  0.00    -0.246 OA
BRANCH  27  29
ATOM     29  C   UNL A   1      39.187  24.437  26.849  1.00  0.00     0.060 A 
ATOM     30  C   UNL A   1      39.998  25.342  26.185  1.00  0.00     0.016 A 
ATOM     31  C   UNL A   1      38.808  24.645  28.105  1.00  0.00     0.016 A 
ATOM     32  C   UNL A   1      40.599  26.302  27.032  1.00  0.00     0.010 A 
ATOM     33  C   UNL A   1      39.335  25.685  28.832  1.00  0.00     0.010 A 
ATOM     34  C   UNL A   1      40.190  26.583  28.255  1.00  0.00    -0.014 A 
BRANCH  34  35
ATOM     35  C   UNL A   1      40.644  27.838  28.983  1.00  0.00     0.031 A 
ATOM     36  C   UNL A   1      39.753  28.910  29.057  1.00  0.00     0.074 A 
ATOM     37  C   UNL A   1      41.916  27.848  29.529  1.00  0.00     0.049 A 
ATOM     38  N   UNL A   1      39.938  30.080  29.672  1.00  0.00    -0.248 NA
ATOM     39  C   UNL A   1      38.415  28.914  28.449  1.00  0.00     0.031 C 
ATOM     40  C   UNL A   1      42.817  26.768  29.465  1.00  0.00     0.029 A 
ATOM     41  N   UNL A   1      42.532  28.871  30.215  1.00  0.00    -0.354 N 
ATOM     42  C   UNL A   1      38.852  30.845  29.543  1.00  0.00     0.074 A 
ATOM     43  C   UNL A   1      37.859  30.108  28.748  1.00  0.00     0.031 C 
ATOM     44  C   UNL A   1      43.963  27.137  30.094  1.00  0.00     0.029 A 
ATOM     45  C   UNL A   1      43.799  28.455  30.562  1.00  0.00     0.049 A 
ATOM     46  H   UNL A   1      42.136  29.748  30.423  1.00  0.00     0.167 HD
ATOM     47  C   UNL A   1      38.650  32.127  30.057  1.00  0.00     0.031 A 
ATOM     48  C   UNL A   1      44.770  29.169  31.245  1.00  0.00     0.031 A 
ATOM     49  C   UNL A   1      39.607  32.825  30.777  1.00  0.00     0.049 A 
ATOM     50  C   UNL A   1      44.590  30.474  31.709  1.00  0.00     0.074 A 
ATOM     51  C   UNL A   1      39.416  34.114  31.310  1.00  0.00     0.029 A 
ATOM     52  N   UNL A   1      40.882  32.418  31.102  1.00  0.00    -0.354 N 
ATOM     53  N   UNL A   1      43.491  31.224  31.614  1.00  0.00    -0.248 NA
ATOM     54  C   UNL A   1      45.622  31.253  32.405  1.00  0.00     0.031 C 
ATOM     55  C   UNL A   1      40.564  34.484  31.938  1.00  0.00     0.029 A 
ATOM     56  C   UNL A   1      41.490  33.432  31.808  1.00  0.00     0.049 A 
ATOM     57  H   UNL A   1      41.288  31.552  30.869  1.00  0.00     0.167 HD
ATOM     58  C   UNL A   1      43.690  32.409  32.192  1.00  0.00     0.074 A 
ATOM     59  C   UNL A   1      45.067  32.448  32.704  1.00  0.00     0.031 C 
ATOM     60  C   UNL A   1      42.779  33.460  32.318  1.00  0.00     0.031 A 
BRANCH  47  61
ATOM     61  C   UNL A   1      37.307  32.795  29.813  1.00  0.00    -0.014 A 
ATOM     62  C   UNL A   1      37.112  33.493  28.633  1.00  0.00     0.010 A 
ATOM     63  C   UNL A   1      36.343  32.692  30.721  1.00  0.00     0.010 A 
ATOM     64  C   UNL A   1      35.948  34.299  28.629  1.00  0.00     0.020 A 
ATOM     65  C   UNL A   1      35.176  33.405  30.586  1.00  0.00     0.020 A 
ATOM     66  C   UNL A   1      34.940  34.163  29.473  1.00  0.00     0.054 A 
BRANCH  66  67
ATOM     67  S   UNL A   1      33.333  34.938  29.169  1.00  0.00     0.124 S 
ATOM     68  O   UNL A   1      32.546  35.012  30.480  1.00  0.00    -0.237 OA
ATOM     69  O   UNL A   1      33.544  36.351  28.620  1.00  0.00    -0.237 OA
ATOM     70  O   UNL A   1      32.458  34.009  28.032  1.00  0.00    -0.744 OA
ENDBRANCH  66  67
ENDBRANCH  47  61
BRANCH  48  71
ATOM     71  C   UNL A   1      46.108  28.495  31.503  1.00  0.00    -0.014 A 
ATOM     72  C   UNL A   1      47.106  28.616  30.550  1.00  0.00     0.010 A 
ATOM     73  C   UNL A   1      46.304  27.811  32.624  1.00  0.00     0.010 A 
ATOM     74  C   UNL A   1      48.191  27.729  30.742  1.00  0.00     0.020 A 
ATOM     75  C   UNL A   1      47.449  27.073  32.801  1.00  0.00     0.020 A 
ATOM     76  C   UNL A   1      48.452  27.098  31.873  1.00  0.00     0.054 A 
BRANCH  76  77
ATOM     77  S   UNL A   1      50.053  26.310  32.176  1.00  0.00     0.124 S 
ATOM     78  O   UNL A   1      50.146  25.892  33.645  1.00  0.00    -0.237 OA
ATOM     79  O   UNL A   1      50.192  25.075  31.284  1.00  0.00    -0.237 OA
ATOM     80  O   UNL A   1      51.308  27.415  31.819  1.00  0.00    -0.744 OA
ENDBRANCH  76  77
ENDBRANCH  48  71
BRANCH  60  81
ATOM     81  C   UNL A   1      43.227  34.709  33.059  1.00  0.00    -0.014 A 
ATOM     82  C   UNL A   1      43.040  34.788  34.429  1.00  0.00     0.010 A 
ATOM     83  C   UNL A   1      43.790  35.702  32.382  1.00  0.00     0.010 A 
ATOM     84  C   UNL A   1      43.221  36.088  34.959  1.00  0.00     0.020 A 
ATOM     85  C   UNL A   1      44.064  36.901  32.996  1.00  0.00     0.020 A 
ATOM     86  C   UNL A   1      43.848  37.069  34.336  1.00  0.00     0.054 A 
BRANCH  86  87
ATOM     87  S   UNL A   1      44.396  38.557  35.209  1.00  0.00     0.124 S 
ATOM     88  O   UNL A   1      44.025  38.445  36.690  1.00  0.00    -0.237 OA
ATOM     89  O   UNL A   1      45.915  38.699  35.074  1.00  0.00    -0.237 OA
ATOM     90  O   UNL A   1      43.633  39.929  34.533  1.00  0.00    -0.744 OA
ENDBRANCH  86  87
ENDBRANCH  60  81
ENDBRANCH  34  35
ENDBRANCH  27  29
ENDBRANCH  26  27
ENDBRANCH   1  26
TORSDOF 16
ENDMDL
