MODEL 1
REMARK VINA RESULT:     -10.6      0.000      0.000
REMARK SMILES CC[C@](C)(NC(=O)c1cc(F)ccc1C)C(=O)OCCOC(=O)c1ccc(-c2c3nc(c(-c4ccc(S(=O)(=O)[O-])cc4)c4ccc([nH]4)c(-c4ccc(S(=O)(=O)[O-])cc4)c4nc(c(-c5ccc(S(=O)(=O)[O-])cc5)c5ccc2[nH]5)C=C4)C=C3)cc1
REMARK SMILES IDX 20 1 19 2 18 3 16 4 17 5 3 6 4 7 2 8 1 9 5 10 6 11 7 13 8 14
REMARK SMILES IDX 9 15 14 16 10 17 13 18 15 19 11 20 12 21 21 22 22 23 23 24
REMARK SMILES IDX 24 25 25 26 83 27 26 28 82 29 27 30 28 31 29 32 76 33 30 34
REMARK SMILES IDX 81 35 75 36 77 37 31 38 80 39 74 40 73 41 32 43 62 44 43 45
REMARK SMILES IDX 61 46 44 47 47 48 60 49 78 50 45 51 46 52 59 54 79 55 48 56
REMARK SMILES IDX 33 57 34 58 42 59 35 60 41 61 36 62 37 63 38 64 39 65 40 66
REMARK SMILES IDX 63 67 64 68 72 69 65 70 71 71 66 72 67 73 68 74 69 75 70 76
REMARK SMILES IDX 49 77 50 78 58 79 51 80 57 81 52 82 53 83 54 84 55 85 56 86
REMARK H PARENT 5 12 77 42 47 53
REMARK Flexibility Score: inf
ROOT
ATOM      1  C   UNL A   1      33.004  29.966  26.284  1.00  0.00     0.275 C 
ENDROOT
BRANCH   1   2
ATOM      2  C   UNL A   1      32.885  28.769  25.350  1.00  0.00     0.274 C 
BRANCH   2   3
ATOM      3  O   UNL A   1      33.157  27.549  26.077  1.00  0.00    -0.460 OA
BRANCH   3   4
ATOM      4  C   UNL A   1      32.142  26.667  26.197  1.00  0.00     0.331 C 
ATOM      5  O   UNL A   1      31.164  26.861  26.918  1.00  0.00    -0.249 OA
BRANCH   4   6
ATOM      6  C   UNL A   1      32.353  25.325  25.432  1.00  0.00     0.135 C 
ATOM      7  C   UNL A   1      30.990  25.039  24.745  1.00  0.00     0.047 C 
BRANCH   6   8
ATOM      8  C   UNL A   1      32.566  24.269  26.560  1.00  0.00     0.037 C 
ATOM      9  C   UNL A   1      31.430  23.281  26.791  1.00  0.00     0.007 C 
ENDBRANCH   6   8
BRANCH   6  10
ATOM     10  N   UNL A   1      33.349  25.150  24.329  1.00  0.00    -0.336 N 
ATOM     11  C   UNL A   1      33.740  24.176  23.457  1.00  0.00     0.252 C 
ATOM     12  H   UNL A   1      33.872  25.974  24.193  1.00  0.00     0.165 HD
ATOM     13  O   UNL A   1      34.060  24.505  22.314  1.00  0.00    -0.269 OA
BRANCH  11  14
ATOM     14  C   UNL A   1      34.042  22.797  23.867  1.00  0.00     0.045 A 
ATOM     15  C   UNL A   1      32.986  21.879  23.764  1.00  0.00     0.053 A 
ATOM     16  C   UNL A   1      35.235  22.432  24.513  1.00  0.00    -0.038 A 
ATOM     17  C   UNL A   1      33.145  20.587  24.247  1.00  0.00     0.124 A 
ATOM     18  C   UNL A   1      35.375  21.111  24.980  1.00  0.00     0.007 A 
ATOM     19  C   UNL A   1      36.335  23.411  24.779  1.00  0.00     0.045 C 
ATOM     20  F   UNL A   1      32.135  19.711  24.156  1.00  0.00    -0.207 F 
ATOM     21  C   UNL A   1      34.335  20.190  24.840  1.00  0.00     0.039 A 
ENDBRANCH  11  14
ENDBRANCH   6  10
ENDBRANCH   4   6
ENDBRANCH   3   4
ENDBRANCH   2   3
ENDBRANCH   1   2
BRANCH   1  22
ATOM     22  O   UNL A   1      33.786  29.573  27.420  1.00  0.00    -0.458 OA
BRANCH  22  23
ATOM     23  C   UNL A   1      34.432  30.579  28.047  1.00  0.00     0.338 C 
ATOM     24  O   UNL A   1      34.004  31.664  28.385  1.00  0.00    -0.246 OA
BRANCH  23  25
ATOM     25  C   UNL A   1      35.797  30.142  28.321  1.00  0.00     0.060 A 
ATOM     26  C   UNL A   1      36.734  30.148  27.289  1.00  0.00     0.016 A 
ATOM     27  C   UNL A   1      36.119  29.675  29.591  1.00  0.00     0.016 A 
ATOM     28  C   UNL A   1      38.001  29.637  27.509  1.00  0.00     0.010 A 
ATOM     29  C   UNL A   1      37.427  29.278  29.842  1.00  0.00     0.010 A 
ATOM     30  C   UNL A   1      38.375  29.264  28.804  1.00  0.00    -0.014 A 
BRANCH  30  31
ATOM     31  C   UNL A   1      39.788  28.962  29.111  1.00  0.00     0.031 A 
ATOM     32  C   UNL A   1      40.686  30.041  29.631  1.00  0.00     0.074 A 
ATOM     33  C   UNL A   1      40.253  27.731  28.820  1.00  0.00     0.049 A 
ATOM     34  N   UNL A   1      41.989  30.055  29.711  1.00  0.00    -0.248 NA
ATOM     35  C   UNL A   1      40.035  31.278  30.092  1.00  0.00     0.031 C 
ATOM     36  C   UNL A   1      39.442  26.614  28.320  1.00  0.00     0.029 A 
ATOM     37  N   UNL A   1      41.519  27.212  28.882  1.00  0.00    -0.354 N 
ATOM     38  C   UNL A   1      42.321  31.325  30.169  1.00  0.00     0.074 A 
ATOM     39  C   UNL A   1      41.081  32.047  30.358  1.00  0.00     0.031 C 
ATOM     40  C   UNL A   1      40.223  25.543  28.139  1.00  0.00     0.029 A 
ATOM     41  C   UNL A   1      41.601  25.921  28.413  1.00  0.00     0.049 A 
ATOM     42  H   UNL A   1      42.294  27.712  29.228  1.00  0.00     0.167 HD
ATOM     43  C   UNL A   1      43.557  31.834  30.385  1.00  0.00     0.031 A 
ATOM     44  C   UNL A   1      42.672  25.147  28.168  1.00  0.00     0.031 A 
ATOM     45  C   UNL A   1      44.764  31.074  30.187  1.00  0.00     0.049 A 
ATOM     46  C   UNL A   1      44.028  25.729  28.421  1.00  0.00     0.074 A 
ATOM     47  C   UNL A   1      46.075  31.467  30.383  1.00  0.00     0.029 A 
ATOM     48  N   UNL A   1      44.799  29.755  29.750  1.00  0.00    -0.354 N 
ATOM     49  N   UNL A   1      44.333  26.936  28.837  1.00  0.00    -0.248 NA
ATOM     50  C   UNL A   1      45.182  24.862  28.165  1.00  0.00     0.031 C 
ATOM     51  C   UNL A   1      46.904  30.396  30.027  1.00  0.00     0.029 A 
ATOM     52  C   UNL A   1      46.110  29.322  29.657  1.00  0.00     0.049 A 
ATOM     53  H   UNL A   1      44.008  29.211  29.536  1.00  0.00     0.167 HD
ATOM     54  C   UNL A   1      45.717  26.975  28.900  1.00  0.00     0.074 A 
ATOM     55  C   UNL A   1      46.187  25.662  28.496  1.00  0.00     0.031 C 
ATOM     56  C   UNL A   1      46.529  28.003  29.251  1.00  0.00     0.031 A 
BRANCH  43  57
ATOM     57  C   UNL A   1      43.652  33.283  30.788  1.00  0.00    -0.014 A 
ATOM     58  C   UNL A   1      43.686  34.316  29.833  1.00  0.00     0.010 A 
ATOM     59  C   UNL A   1      43.721  33.616  32.154  1.00  0.00     0.010 A 
ATOM     60  C   UNL A   1      43.846  35.647  30.234  1.00  0.00     0.020 A 
ATOM     61  C   UNL A   1      43.854  34.948  32.560  1.00  0.00     0.020 A 
ATOM     62  C   UNL A   1      43.941  35.953  31.596  1.00  0.00     0.054 A 
BRANCH  62  63
ATOM     63  S   UNL A   1      44.167  37.684  32.091  1.00  0.00     0.124 S 
ATOM     64  O   UNL A   1      43.779  38.397  30.877  1.00  0.00    -0.237 OA
ATOM     65  O   UNL A   1      43.248  37.820  33.219  1.00  0.00    -0.237 OA
ATOM     66  O   UNL A   1      45.584  37.764  32.434  1.00  0.00    -0.744 OA
ENDBRANCH  62  63
ENDBRANCH  43  57
BRANCH  44  67
ATOM     67  C   UNL A   1      42.475  23.781  27.613  1.00  0.00    -0.014 A 
ATOM     68  C   UNL A   1      42.694  23.524  26.250  1.00  0.00     0.010 A 
ATOM     69  C   UNL A   1      42.164  22.706  28.468  1.00  0.00     0.010 A 
ATOM     70  C   UNL A   1      42.614  22.219  25.753  1.00  0.00     0.020 A 
ATOM     71  C   UNL A   1      42.110  21.396  27.982  1.00  0.00     0.020 A 
ATOM     72  C   UNL A   1      42.331  21.162  26.625  1.00  0.00     0.054 A 
BRANCH  72  73
ATOM     73  S   UNL A   1      42.329  19.466  25.977  1.00  0.00     0.124 S 
ATOM     74  O   UNL A   1      42.898  18.715  27.090  1.00  0.00    -0.237 OA
ATOM     75  O   UNL A   1      40.911  19.229  25.711  1.00  0.00    -0.237 OA
ATOM     76  O   UNL A   1      43.169  19.555  24.784  1.00  0.00    -0.744 OA
ENDBRANCH  72  73
ENDBRANCH  44  67
BRANCH  56  77
ATOM     77  C   UNL A   1      48.004  27.729  29.239  1.00  0.00    -0.014 A 
ATOM     78  C   UNL A   1      48.646  27.184  30.364  1.00  0.00     0.010 A 
ATOM     79  C   UNL A   1      48.737  27.954  28.061  1.00  0.00     0.010 A 
ATOM     80  C   UNL A   1      50.006  26.877  30.313  1.00  0.00     0.020 A 
ATOM     81  C   UNL A   1      50.092  27.628  28.000  1.00  0.00     0.020 A 
ATOM     82  C   UNL A   1      50.720  27.099  29.130  1.00  0.00     0.054 A 
BRANCH  82  83
ATOM     83  S   UNL A   1      52.468  26.625  29.064  1.00  0.00     0.124 S 
ATOM     84  O   UNL A   1      52.632  25.897  30.319  1.00  0.00    -0.237 OA
ATOM     85  O   UNL A   1      52.534  25.813  27.852  1.00  0.00    -0.237 OA
ATOM     86  O   UNL A   1      53.170  27.904  28.987  1.00  0.00    -0.744 OA
ENDBRANCH  82  83
ENDBRANCH  56  77
ENDBRANCH  30  31
ENDBRANCH  23  25
ENDBRANCH  22  23
ENDBRANCH   1  22
TORSDOF 17
ENDMDL
MODEL 2
REMARK VINA RESULT:     -10.3      3.398      9.664
REMARK SMILES CC[C@](C)(NC(=O)c1cc(F)ccc1C)C(=O)OCCOC(=O)c1ccc(-c2c3nc(c(-c4ccc(S(=O)(=O)[O-])cc4)c4ccc([nH]4)c(-c4ccc(S(=O)(=O)[O-])cc4)c4nc(c(-c5ccc(S(=O)(=O)[O-])cc5)c5ccc2[nH]5)C=C4)C=C3)cc1
REMARK SMILES IDX 20 1 19 2 18 3 16 4 17 5 3 6 4 7 2 8 1 9 5 10 6 11 7 13 8 14
REMARK SMILES IDX 9 15 14 16 10 17 13 18 15 19 11 20 12 21 21 22 22 23 23 24
REMARK SMILES IDX 24 25 25 26 83 27 26 28 82 29 27 30 28 31 29 32 76 33 30 34
REMARK SMILES IDX 81 35 75 36 77 37 31 38 80 39 74 40 73 41 32 43 62 44 43 45
REMARK SMILES IDX 61 46 44 47 47 48 60 49 78 50 45 51 46 52 59 54 79 55 48 56
REMARK SMILES IDX 33 57 34 58 42 59 35 60 41 61 36 62 37 63 38 64 39 65 40 66
REMARK SMILES IDX 63 67 64 68 72 69 65 70 71 71 66 72 67 73 68 74 69 75 70 76
REMARK SMILES IDX 49 77 50 78 58 79 51 80 57 81 52 82 53 83 54 84 55 85 56 86
REMARK H PARENT 5 12 77 42 47 53
REMARK Flexibility Score: inf
ROOT
ATOM      1  C   UNL A   1      36.669  22.475  25.966  1.00  0.00     0.275 C 
ENDROOT
BRANCH   1   2
ATOM      2  C   UNL A   1      36.203  21.486  24.906  1.00  0.00     0.274 C 
BRANCH   2   3
ATOM      3  O   UNL A   1      35.284  22.135  23.997  1.00  0.00    -0.460 OA
BRANCH   3   4
ATOM      4  C   UNL A   1      33.966  21.994  24.253  1.00  0.00     0.331 C 
ATOM      5  O   UNL A   1      33.397  20.904  24.272  1.00  0.00    -0.249 OA
BRANCH   4   6
ATOM      6  C   UNL A   1      33.190  23.337  24.417  1.00  0.00     0.135 C 
ATOM      7  C   UNL A   1      31.834  23.104  23.697  1.00  0.00     0.047 C 
BRANCH   6   8
ATOM      8  C   UNL A   1      34.018  24.363  23.585  1.00  0.00     0.037 C 
ATOM      9  C   UNL A   1      33.279  25.090  22.469  1.00  0.00     0.007 C 
ENDBRANCH   6   8
BRANCH   6  10
ATOM     10  N   UNL A   1      32.794  23.906  25.743  1.00  0.00    -0.336 N 
ATOM     11  C   UNL A   1      32.057  24.949  26.223  1.00  0.00     0.252 C 
ATOM     12  H   UNL A   1      33.174  23.376  26.481  1.00  0.00     0.165 HD
ATOM     13  O   UNL A   1      31.392  24.778  27.245  1.00  0.00    -0.269 OA
BRANCH  11  14
ATOM     14  C   UNL A   1      32.200  26.330  25.740  1.00  0.00     0.045 A 
ATOM     15  C   UNL A   1      33.325  27.030  26.202  1.00  0.00     0.053 A 
ATOM     16  C   UNL A   1      31.194  27.003  25.025  1.00  0.00    -0.038 A 
ATOM     17  C   UNL A   1      33.472  28.377  25.899  1.00  0.00     0.124 A 
ATOM     18  C   UNL A   1      31.377  28.364  24.718  1.00  0.00     0.007 A 
ATOM     19  C   UNL A   1      29.911  26.341  24.635  1.00  0.00     0.045 C 
ATOM     20  F   UNL A   1      34.542  29.049  26.345  1.00  0.00    -0.207 F 
ATOM     21  C   UNL A   1      32.516  29.047  25.148  1.00  0.00     0.039 A 
ENDBRANCH  11  14
ENDBRANCH   6  10
ENDBRANCH   4   6
ENDBRANCH   3   4
ENDBRANCH   2   3
ENDBRANCH   1   2
BRANCH   1  22
ATOM     22  O   UNL A   1      37.806  23.180  25.453  1.00  0.00    -0.458 OA
BRANCH  22  23
ATOM     23  C   UNL A   1      38.964  22.957  26.112  1.00  0.00     0.338 C 
ATOM     24  O   UNL A   1      39.650  21.955  26.127  1.00  0.00    -0.246 OA
BRANCH  23  25
ATOM     25  C   UNL A   1      39.329  24.182  26.816  1.00  0.00     0.060 A 
ATOM     26  C   UNL A   1      38.869  24.380  28.117  1.00  0.00     0.016 A 
ATOM     27  C   UNL A   1      40.079  25.148  26.156  1.00  0.00     0.016 A 
ATOM     28  C   UNL A   1      39.119  25.581  28.758  1.00  0.00     0.010 A 
ATOM     29  C   UNL A   1      40.434  26.302  26.846  1.00  0.00     0.010 A 
ATOM     30  C   UNL A   1      39.961  26.520  28.152  1.00  0.00    -0.014 A 
BRANCH  30  31
ATOM     31  C   UNL A   1      40.447  27.686  28.918  1.00  0.00     0.031 A 
ATOM     32  C   UNL A   1      41.753  27.610  29.645  1.00  0.00     0.074 A 
ATOM     33  C   UNL A   1      39.643  28.762  29.016  1.00  0.00     0.049 A 
ATOM     34  N   UNL A   1      42.226  28.403  30.567  1.00  0.00    -0.248 NA
ATOM     35  C   UNL A   1      42.630  26.474  29.312  1.00  0.00     0.031 C 
ATOM     36  C   UNL A   1      38.355  28.924  28.329  1.00  0.00     0.029 A 
ATOM     37  N   UNL A   1      39.772  29.916  29.743  1.00  0.00    -0.354 N 
ATOM     38  C   UNL A   1      43.424  27.830  30.976  1.00  0.00     0.074 A 
ATOM     39  C   UNL A   1      43.610  26.628  30.191  1.00  0.00     0.031 C 
ATOM     40  C   UNL A   1      37.825  30.110  28.651  1.00  0.00     0.029 A 
ATOM     41  C   UNL A   1      38.681  30.748  29.640  1.00  0.00     0.049 A 
ATOM     42  H   UNL A   1      40.566  30.130  30.283  1.00  0.00     0.167 HD
ATOM     43  C   UNL A   1      44.271  28.268  31.937  1.00  0.00     0.031 A 
ATOM     44  C   UNL A   1      38.370  31.868  30.315  1.00  0.00     0.031 A 
ATOM     45  C   UNL A   1      44.046  29.475  32.689  1.00  0.00     0.049 A 
ATOM     46  C   UNL A   1      39.325  32.338  31.368  1.00  0.00     0.074 A 
ATOM     47  C   UNL A   1      44.832  30.037  33.679  1.00  0.00     0.029 A 
ATOM     48  N   UNL A   1      42.947  30.310  32.525  1.00  0.00    -0.354 N 
ATOM     49  N   UNL A   1      40.447  31.780  31.759  1.00  0.00    -0.248 NA
ATOM     50  C   UNL A   1      38.976  33.572  32.078  1.00  0.00     0.031 C 
ATOM     51  C   UNL A   1      44.187  31.191  34.139  1.00  0.00     0.029 A 
ATOM     52  C   UNL A   1      43.026  31.376  33.403  1.00  0.00     0.049 A 
ATOM     53  H   UNL A   1      42.219  30.163  31.880  1.00  0.00     0.167 HD
ATOM     54  C   UNL A   1      40.946  32.598  32.761  1.00  0.00     0.074 A 
ATOM     55  C   UNL A   1      40.010  33.699  32.900  1.00  0.00     0.031 C 
ATOM     56  C   UNL A   1      42.070  32.451  33.504  1.00  0.00     0.031 A 
BRANCH  43  57
ATOM     57  C   UNL A   1      45.462  27.404  32.262  1.00  0.00    -0.014 A 
ATOM     58  C   UNL A   1      45.396  26.387  33.231  1.00  0.00     0.010 A 
ATOM     59  C   UNL A   1      46.679  27.626  31.590  1.00  0.00     0.010 A 
ATOM     60  C   UNL A   1      46.537  25.648  33.562  1.00  0.00     0.020 A 
ATOM     61  C   UNL A   1      47.815  26.871  31.899  1.00  0.00     0.020 A 
ATOM     62  C   UNL A   1      47.743  25.903  32.901  1.00  0.00     0.054 A 
BRANCH  62  63
ATOM     63  S   UNL A   1      49.214  24.945  33.361  1.00  0.00     0.124 S 
ATOM     64  O   UNL A   1      49.848  24.725  32.064  1.00  0.00    -0.237 OA
ATOM     65  O   UNL A   1      49.923  25.854  34.259  1.00  0.00    -0.237 OA
ATOM     66  O   UNL A   1      48.665  23.751  33.997  1.00  0.00    -0.744 OA
ENDBRANCH  62  63
ENDBRANCH  43  57
BRANCH  44  67
ATOM     67  C   UNL A   1      37.084  32.560  30.030  1.00  0.00    -0.014 A 
ATOM     68  C   UNL A   1      35.982  32.403  30.887  1.00  0.00     0.010 A 
ATOM     69  C   UNL A   1      36.986  33.461  28.952  1.00  0.00     0.010 A 
ATOM     70  C   UNL A   1      34.811  33.139  30.678  1.00  0.00     0.020 A 
ATOM     71  C   UNL A   1      35.828  34.219  28.755  1.00  0.00     0.020 A 
ATOM     72  C   UNL A   1      34.745  34.049  29.617  1.00  0.00     0.054 A 
BRANCH  72  73
ATOM     73  S   UNL A   1      33.252  35.064  29.423  1.00  0.00     0.124 S 
ATOM     74  O   UNL A   1      32.640  34.958  30.743  1.00  0.00    -0.237 OA
ATOM     75  O   UNL A   1      33.801  36.375  29.083  1.00  0.00    -0.237 OA
ATOM     76  O   UNL A   1      32.529  34.402  28.340  1.00  0.00    -0.744 OA
ENDBRANCH  72  73
ENDBRANCH  44  67
BRANCH  56  77
ATOM     77  C   UNL A   1      42.356  33.526  34.511  1.00  0.00    -0.014 A 
ATOM     78  C   UNL A   1      41.786  33.481  35.796  1.00  0.00     0.010 A 
ATOM     79  C   UNL A   1      43.263  34.549  34.189  1.00  0.00     0.010 A 
ATOM     80  C   UNL A   1      42.113  34.454  36.740  1.00  0.00     0.020 A 
ATOM     81  C   UNL A   1      43.609  35.511  35.137  1.00  0.00     0.020 A 
ATOM     82  C   UNL A   1      43.025  35.462  36.406  1.00  0.00     0.054 A 
BRANCH  82  83
ATOM     83  S   UNL A   1      43.491  36.672  37.671  1.00  0.00     0.124 S 
ATOM     84  O   UNL A   1      42.464  36.460  38.686  1.00  0.00    -0.237 OA
ATOM     85  O   UNL A   1      44.839  36.247  38.041  1.00  0.00    -0.237 OA
ATOM     86  O   UNL A   1      43.420  37.951  36.968  1.00  0.00    -0.744 OA
ENDBRANCH  82  83
ENDBRANCH  56  77
ENDBRANCH  30  31
ENDBRANCH  23  25
ENDBRANCH  22  23
ENDBRANCH   1  22
TORSDOF 17
ENDMDL
MODEL 3
REMARK VINA RESULT:     -10.2      1.429      2.648
REMARK SMILES CC[C@](C)(NC(=O)c1cc(F)ccc1C)C(=O)OCCOC(=O)c1ccc(-c2c3nc(c(-c4ccc(S(=O)(=O)[O-])cc4)c4ccc([nH]4)c(-c4ccc(S(=O)(=O)[O-])cc4)c4nc(c(-c5ccc(S(=O)(=O)[O-])cc5)c5ccc2[nH]5)C=C4)C=C3)cc1
REMARK SMILES IDX 20 1 19 2 18 3 16 4 17 5 3 6 4 7 2 8 1 9 5 10 6 11 7 13 8 14
REMARK SMILES IDX 9 15 14 16 10 17 13 18 15 19 11 20 12 21 21 22 22 23 23 24
REMARK SMILES IDX 24 25 25 26 83 27 26 28 82 29 27 30 28 31 29 32 76 33 30 34
REMARK SMILES IDX 81 35 75 36 77 37 31 38 80 39 74 40 73 41 32 43 62 44 43 45
REMARK SMILES IDX 61 46 44 47 47 48 60 49 78 50 45 51 46 52 59 54 79 55 48 56
REMARK SMILES IDX 33 57 34 58 42 59 35 60 41 61 36 62 37 63 38 64 39 65 40 66
REMARK SMILES IDX 63 67 64 68 72 69 65 70 71 71 66 72 67 73 68 74 69 75 70 76
REMARK SMILES IDX 49 77 50 78 58 79 51 80 57 81 52 82 53 83 54 84 55 85 56 86
REMARK H PARENT 5 12 77 42 47 53
REMARK Flexibility Score: inf
ROOT
ATOM      1  C   UNL A   1      32.816  28.709  26.416  1.00  0.00     0.275 C 
ENDROOT
BRANCH   1   2
ATOM      2  C   UNL A   1      31.903  27.500  26.579  1.00  0.00     0.274 C 
BRANCH   2   3
ATOM      3  O   UNL A   1      32.696  26.308  26.782  1.00  0.00    -0.460 OA
BRANCH   3   4
ATOM      4  C   UNL A   1      32.205  25.153  26.286  1.00  0.00     0.331 C 
ATOM      5  O   UNL A   1      31.169  24.632  26.695  1.00  0.00    -0.249 OA
BRANCH   4   6
ATOM      6  C   UNL A   1      33.113  24.466  25.221  1.00  0.00     0.135 C 
ATOM      7  C   UNL A   1      33.007  22.946  25.527  1.00  0.00     0.047 C 
BRANCH   6   8
ATOM      8  C   UNL A   1      34.554  24.940  25.581  1.00  0.00     0.037 C 
ATOM      9  C   UNL A   1      35.703  24.099  25.041  1.00  0.00     0.007 C 
ENDBRANCH   6   8
BRANCH   6  10
ATOM     10  N   UNL A   1      32.866  24.548  23.747  1.00  0.00    -0.336 N 
ATOM     11  C   UNL A   1      32.794  25.507  22.780  1.00  0.00     0.252 C 
ATOM     12  H   UNL A   1      32.713  23.652  23.366  1.00  0.00     0.165 HD
ATOM     13  O   UNL A   1      33.233  25.247  21.660  1.00  0.00    -0.269 OA
BRANCH  11  14
ATOM     14  C   UNL A   1      32.003  26.738  22.920  1.00  0.00     0.045 A 
ATOM     15  C   UNL A   1      30.618  26.567  23.073  1.00  0.00     0.053 A 
ATOM     16  C   UNL A   1      32.537  28.022  22.718  1.00  0.00    -0.038 A 
ATOM     17  C   UNL A   1      29.783  27.675  23.085  1.00  0.00     0.124 A 
ATOM     18  C   UNL A   1      31.668  29.130  22.750  1.00  0.00     0.007 A 
ATOM     19  C   UNL A   1      33.983  28.248  22.406  1.00  0.00     0.045 C 
ATOM     20  F   UNL A   1      28.460  27.513  23.224  1.00  0.00    -0.207 F 
ATOM     21  C   UNL A   1      30.297  28.956  22.941  1.00  0.00     0.039 A 
ENDBRANCH  11  14
ENDBRANCH   6  10
ENDBRANCH   4   6
ENDBRANCH   3   4
ENDBRANCH   2   3
ENDBRANCH   1   2
BRANCH   1  22
ATOM     22  O   UNL A   1      33.725  28.737  27.523  1.00  0.00    -0.458 OA
BRANCH  22  23
ATOM     23  C   UNL A   1      34.243  29.951  27.810  1.00  0.00     0.338 C 
ATOM     24  O   UNL A   1      33.683  31.028  27.842  1.00  0.00    -0.246 OA
BRANCH  23  25
ATOM     25  C   UNL A   1      35.653  29.778  28.141  1.00  0.00     0.060 A 
ATOM     26  C   UNL A   1      36.006  29.391  29.433  1.00  0.00     0.016 A 
ATOM     27  C   UNL A   1      36.617  30.056  27.178  1.00  0.00     0.016 A 
ATOM     28  C   UNL A   1      37.341  29.325  29.789  1.00  0.00     0.010 A 
ATOM     29  C   UNL A   1      37.955  29.869  27.502  1.00  0.00     0.010 A 
ATOM     30  C   UNL A   1      38.323  29.496  28.807  1.00  0.00    -0.014 A 
BRANCH  30  31
ATOM     31  C   UNL A   1      39.735  29.179  29.105  1.00  0.00     0.031 A 
ATOM     32  C   UNL A   1      40.654  30.253  29.596  1.00  0.00     0.074 A 
ATOM     33  C   UNL A   1      40.179  27.937  28.829  1.00  0.00     0.049 A 
ATOM     34  N   UNL A   1      41.957  30.250  29.663  1.00  0.00    -0.248 NA
ATOM     35  C   UNL A   1      40.025  31.507  30.044  1.00  0.00     0.031 C 
ATOM     36  C   UNL A   1      39.346  26.824  28.356  1.00  0.00     0.029 A 
ATOM     37  N   UNL A   1      41.438  27.400  28.886  1.00  0.00    -0.354 N 
ATOM     38  C   UNL A   1      42.312  31.522  30.096  1.00  0.00     0.074 A 
ATOM     39  C   UNL A   1      41.085  32.265  30.286  1.00  0.00     0.031 C 
ATOM     40  C   UNL A   1      40.110  25.738  28.185  1.00  0.00     0.029 A 
ATOM     41  C   UNL A   1      41.496  26.101  28.438  1.00  0.00     0.049 A 
ATOM     42  H   UNL A   1      42.223  27.895  29.215  1.00  0.00     0.167 HD
ATOM     43  C   UNL A   1      43.558  32.017  30.290  1.00  0.00     0.031 A 
ATOM     44  C   UNL A   1      42.554  25.308  28.194  1.00  0.00     0.031 A 
ATOM     45  C   UNL A   1      44.751  31.236  30.093  1.00  0.00     0.049 A 
ATOM     46  C   UNL A   1      43.920  25.874  28.423  1.00  0.00     0.074 A 
ATOM     47  C   UNL A   1      46.070  31.613  30.269  1.00  0.00     0.029 A 
ATOM     48  N   UNL A   1      44.763  29.910  29.677  1.00  0.00    -0.354 N 
ATOM     49  N   UNL A   1      44.247  27.083  28.816  1.00  0.00    -0.248 NA
ATOM     50  C   UNL A   1      45.059  24.986  28.169  1.00  0.00     0.031 C 
ATOM     51  C   UNL A   1      46.880  30.525  29.921  1.00  0.00     0.029 A 
ATOM     52  C   UNL A   1      46.066  29.456  29.577  1.00  0.00     0.049 A 
ATOM     53  H   UNL A   1      43.962  29.374  29.480  1.00  0.00     0.167 HD
ATOM     54  C   UNL A   1      45.632  27.103  28.863  1.00  0.00     0.074 A 
ATOM     55  C   UNL A   1      46.079  25.777  28.477  1.00  0.00     0.031 C 
ATOM     56  C   UNL A   1      46.462  28.125  29.189  1.00  0.00     0.031 A 
BRANCH  43  57
ATOM     57  C   UNL A   1      43.677  33.471  30.668  1.00  0.00    -0.014 A 
ATOM     58  C   UNL A   1      43.797  34.480  29.696  1.00  0.00     0.010 A 
ATOM     59  C   UNL A   1      43.683  33.832  32.029  1.00  0.00     0.010 A 
ATOM     60  C   UNL A   1      43.978  35.814  30.078  1.00  0.00     0.020 A 
ATOM     61  C   UNL A   1      43.837  35.167  32.414  1.00  0.00     0.020 A 
ATOM     62  C   UNL A   1      44.008  36.147  31.436  1.00  0.00     0.054 A 
BRANCH  62  63
ATOM     63  S   UNL A   1      44.264  37.881  31.908  1.00  0.00     0.124 S 
ATOM     64  O   UNL A   1      45.709  37.927  32.114  1.00  0.00    -0.237 OA
ATOM     65  O   UNL A   1      43.773  38.609  30.739  1.00  0.00    -0.237 OA
ATOM     66  O   UNL A   1      43.457  38.035  33.115  1.00  0.00    -0.744 OA
ENDBRANCH  62  63
ENDBRANCH  43  57
BRANCH  44  67
ATOM     67  C   UNL A   1      42.331  23.935  27.664  1.00  0.00    -0.014 A 
ATOM     68  C   UNL A   1      42.423  23.677  26.287  1.00  0.00     0.010 A 
ATOM     69  C   UNL A   1      42.124  22.858  28.548  1.00  0.00     0.010 A 
ATOM     70  C   UNL A   1      42.321  22.368  25.803  1.00  0.00     0.020 A 
ATOM     71  C   UNL A   1      42.050  21.546  28.072  1.00  0.00     0.020 A 
ATOM     72  C   UNL A   1      42.144  21.309  26.701  1.00  0.00     0.054 A 
BRANCH  72  73
ATOM     73  S   UNL A   1      42.113  19.611  26.060  1.00  0.00     0.124 S 
ATOM     74  O   UNL A   1      40.708  19.448  25.701  1.00  0.00    -0.237 OA
ATOM     75  O   UNL A   1      43.050  19.676  24.941  1.00  0.00    -0.237 OA
ATOM     76  O   UNL A   1      42.568  18.810  27.195  1.00  0.00    -0.744 OA
ENDBRANCH  72  73
ENDBRANCH  44  67
BRANCH  56  77
ATOM     77  C   UNL A   1      47.933  27.830  29.166  1.00  0.00    -0.014 A 
ATOM     78  C   UNL A   1      48.538  27.094  30.199  1.00  0.00     0.010 A 
ATOM     79  C   UNL A   1      48.700  28.233  28.059  1.00  0.00     0.010 A 
ATOM     80  C   UNL A   1      49.894  26.775  30.130  1.00  0.00     0.020 A 
ATOM     81  C   UNL A   1      50.051  27.897  27.977  1.00  0.00     0.020 A 
ATOM     82  C   UNL A   1      50.641  27.176  29.017  1.00  0.00     0.054 A 
BRANCH  82  83
ATOM     83  S   UNL A   1      52.383  26.687  28.913  1.00  0.00     0.124 S 
ATOM     84  O   UNL A   1      52.336  25.604  27.936  1.00  0.00    -0.237 OA
ATOM     85  O   UNL A   1      53.035  27.915  28.463  1.00  0.00    -0.237 OA
ATOM     86  O   UNL A   1      52.710  26.283  30.279  1.00  0.00    -0.744 OA
ENDBRANCH  82  83
ENDBRANCH  56  77
ENDBRANCH  30  31
ENDBRANCH  23  25
ENDBRANCH  22  23
ENDBRANCH   1  22
TORSDOF 17
ENDMDL
