MODEL 1
REMARK VINA RESULT:     -12.0      0.000      0.000
REMARK SMILES C[NH+]1CCN(c2nc3c(cc2F)c(=O)c(C(=O)OCCOC(=O)c2ccc(-c4c5nc(c(-c6ccc(S(=O)(=O)[O-])cc6)c6ccc([nH]6)c(-c6ccc(S(=O)(=O)[O-])cc6)c6nc(c(-c7ccc(S(=O)(=O)[O-])cc7)c7ccc4[nH]7)C=C6)C=C5)cc2)cn3-c2ccc(F)cc2F)CC1
REMARK SMILES IDX 20 1 19 2 18 3 16 4 17 5 15 6 6 7 7 8 11 9 8 10 10 11 12 12
REMARK SMILES IDX 9 13 85 14 13 15 84 16 14 17 5 18 1 19 2 20 3 21 95 22 4 24
REMARK SMILES IDX 94 25 86 26 87 27 92 28 88 29 91 30 93 31 89 32 90 33 21 34
REMARK SMILES IDX 22 35 23 36 24 37 25 38 83 39 26 40 82 41 27 42 28 43 29 44
REMARK SMILES IDX 76 45 30 46 81 47 75 48 77 49 31 50 80 51 74 52 73 53 32 55
REMARK SMILES IDX 62 56 43 57 61 58 44 59 47 60 60 61 78 62 45 63 46 64 59 66
REMARK SMILES IDX 79 67 48 68 33 69 34 70 42 71 35 72 41 73 36 74 37 75 38 76
REMARK SMILES IDX 39 77 40 78 63 79 64 80 72 81 65 82 71 83 66 84 67 85 68 86
REMARK SMILES IDX 69 87 70 88 49 89 50 90 58 91 51 92 57 93 52 94 53 95 54 96
REMARK SMILES IDX 55 97 56 98
REMARK H PARENT 2 23 77 54 47 65
REMARK Flexibility Score: inf
ROOT
ATOM      1  C   UNL A   1      42.125  23.327  26.098  1.00  0.00     0.275 C 
ENDROOT
BRANCH   1   2
ATOM      2  C   UNL A   1      41.390  21.990  26.074  1.00  0.00     0.275 C 
BRANCH   2   3
ATOM      3  O   UNL A   1      39.979  22.193  26.271  1.00  0.00    -0.458 OA
BRANCH   3   4
ATOM      4  C   UNL A   1      39.152  21.248  25.770  1.00  0.00     0.343 C 
ATOM      5  O   UNL A   1      39.470  20.110  25.450  1.00  0.00    -0.246 OA
BRANCH   4   6
ATOM      6  C   UNL A   1      37.763  21.730  25.724  1.00  0.00     0.124 A 
ATOM      7  C   UNL A   1      33.350  24.108  25.029  1.00  0.00     0.167 A 
ATOM      8  N   UNL A   1      33.696  22.807  25.167  1.00  0.00    -0.209 NA
ATOM      9  C   UNL A   1      34.295  25.131  25.178  1.00  0.00     0.166 A 
ATOM     10  C   UNL A   1      35.001  22.491  25.396  1.00  0.00     0.151 A 
ATOM     11  C   UNL A   1      35.607  24.832  25.477  1.00  0.00     0.059 A 
ATOM     12  F   UNL A   1      33.940  26.421  25.051  1.00  0.00    -0.203 F 
ATOM     13  C   UNL A   1      35.967  23.492  25.573  1.00  0.00     0.069 A 
ATOM     14  N   UNL A   1      35.417  21.120  25.424  1.00  0.00    -0.297 N 
ATOM     15  C   UNL A   1      37.387  23.152  25.804  1.00  0.00     0.205 A 
ATOM     16  C   UNL A   1      36.773  20.845  25.535  1.00  0.00     0.113 A 
ATOM     17  O   UNL A   1      38.209  24.046  25.971  1.00  0.00    -0.288 OA
BRANCH   7  18
ATOM     18  N   UNL A   1      32.050  24.425  24.728  1.00  0.00    -0.343 N 
ATOM     19  C   UNL A   1      28.725  26.782  23.737  1.00  0.00     0.332 C 
ATOM     20  N   UNL A   1      29.506  25.578  24.022  1.00  0.00    -0.334 N 
ATOM     21  C   UNL A   1      30.044  25.627  25.409  1.00  0.00     0.283 C 
ATOM     22  C   UNL A   1      30.614  25.456  23.045  1.00  0.00     0.283 C 
ATOM     23  H   UNL A   1      28.898  24.763  23.941  1.00  0.00     0.347 HD
ATOM     24  C   UNL A   1      31.014  24.461  25.752  1.00  0.00     0.179 C 
ATOM     25  C   UNL A   1      31.571  24.289  23.357  1.00  0.00     0.179 C 
ENDBRANCH   7  18
BRANCH  14  26
ATOM     26  C   UNL A   1      34.499  20.034  25.280  1.00  0.00     0.083 A 
ATOM     27  C   UNL A   1      34.605  19.148  24.197  1.00  0.00     0.033 A 
ATOM     28  C   UNL A   1      33.491  19.800  26.235  1.00  0.00     0.150 A 
ATOM     29  C   UNL A   1      33.734  18.062  24.084  1.00  0.00     0.041 A 
ATOM     30  C   UNL A   1      32.607  18.732  26.117  1.00  0.00     0.080 A 
ATOM     31  F   UNL A   1      33.363  20.624  27.288  1.00  0.00    -0.205 F 
ATOM     32  C   UNL A   1      32.742  17.869  25.040  1.00  0.00     0.126 A 
ATOM     33  F   UNL A   1      31.904  16.832  24.913  1.00  0.00    -0.207 F 
ENDBRANCH  14  26
ENDBRANCH   4   6
ENDBRANCH   3   4
ENDBRANCH   2   3
ENDBRANCH   1   2
BRANCH   1  34
ATOM     34  O   UNL A   1      41.202  24.392  26.388  1.00  0.00    -0.458 OA
BRANCH  34  35
ATOM     35  C   UNL A   1      41.648  25.636  26.105  1.00  0.00     0.338 C 
ATOM     36  O   UNL A   1      42.257  26.002  25.115  1.00  0.00    -0.246 OA
BRANCH  35  37
ATOM     37  C   UNL A   1      41.237  26.556  27.174  1.00  0.00     0.060 A 
ATOM     38  C   UNL A   1      41.916  27.764  27.323  1.00  0.00     0.016 A 
ATOM     39  C   UNL A   1      40.283  26.162  28.110  1.00  0.00     0.016 A 
ATOM     40  C   UNL A   1      41.727  28.533  28.466  1.00  0.00     0.010 A 
ATOM     41  C   UNL A   1      40.024  26.985  29.209  1.00  0.00     0.010 A 
ATOM     42  C   UNL A   1      40.774  28.157  29.421  1.00  0.00    -0.014 A 
BRANCH  42  43
ATOM     43  C   UNL A   1      40.591  28.957  30.659  1.00  0.00     0.031 A 
ATOM     44  C   UNL A   1      39.506  29.998  30.726  1.00  0.00     0.074 A 
ATOM     45  C   UNL A   1      41.377  28.742  31.734  1.00  0.00     0.049 A 
ATOM     46  N   UNL A   1      39.297  30.913  31.638  1.00  0.00    -0.248 NA
ATOM     47  C   UNL A   1      38.526  30.016  29.626  1.00  0.00     0.031 C 
ATOM     48  C   UNL A   1      42.414  27.712  31.837  1.00  0.00     0.029 A 
ATOM     49  N   UNL A   1      41.414  29.371  32.954  1.00  0.00    -0.354 N 
ATOM     50  C   UNL A   1      38.196  31.640  31.203  1.00  0.00     0.074 A 
ATOM     51  C   UNL A   1      37.775  31.061  29.945  1.00  0.00     0.031 C 
ATOM     52  C   UNL A   1      42.955  27.753  33.064  1.00  0.00     0.029 A 
ATOM     53  C   UNL A   1      42.366  28.862  33.807  1.00  0.00     0.049 A 
ATOM     54  H   UNL A   1      40.818  30.115  33.195  1.00  0.00     0.167 HD
ATOM     55  C   UNL A   1      37.596  32.698  31.797  1.00  0.00     0.031 A 
ATOM     56  C   UNL A   1      42.749  29.261  35.035  1.00  0.00     0.031 A 
ATOM     57  C   UNL A   1      37.999  33.253  33.060  1.00  0.00     0.049 A 
ATOM     58  C   UNL A   1      42.110  30.473  35.647  1.00  0.00     0.074 A 
ATOM     59  C   UNL A   1      37.476  34.349  33.725  1.00  0.00     0.029 A 
ATOM     60  N   UNL A   1      39.004  32.739  33.864  1.00  0.00    -0.354 N 
ATOM     61  N   UNL A   1      41.147  31.222  35.167  1.00  0.00    -0.248 NA
ATOM     62  C   UNL A   1      42.622  30.908  36.954  1.00  0.00     0.031 C 
ATOM     63  C   UNL A   1      38.181  34.512  34.921  1.00  0.00     0.029 A 
ATOM     64  C   UNL A   1      39.116  33.495  35.019  1.00  0.00     0.049 A 
ATOM     65  H   UNL A   1      39.557  31.955  33.647  1.00  0.00     0.167 HD
ATOM     66  C   UNL A   1      40.929  32.210  36.118  1.00  0.00     0.074 A 
ATOM     67  C   UNL A   1      41.854  31.962  37.204  1.00  0.00     0.031 C 
ATOM     68  C   UNL A   1      40.039  33.231  36.090  1.00  0.00     0.031 A 
BRANCH  55  69
ATOM     69  C   UNL A   1      36.451  33.353  31.074  1.00  0.00    -0.014 A 
ATOM     70  C   UNL A   1      35.179  33.445  31.664  1.00  0.00     0.010 A 
ATOM     71  C   UNL A   1      36.676  33.952  29.821  1.00  0.00     0.010 A 
ATOM     72  C   UNL A   1      34.146  34.118  31.006  1.00  0.00     0.020 A 
ATOM     73  C   UNL A   1      35.650  34.641  29.168  1.00  0.00     0.020 A 
ATOM     74  C   UNL A   1      34.390  34.717  29.765  1.00  0.00     0.054 A 
BRANCH  74  75
ATOM     75  S   UNL A   1      33.036  35.615  28.955  1.00  0.00     0.124 S 
ATOM     76  O   UNL A   1      33.760  36.615  28.172  1.00  0.00    -0.237 OA
ATOM     77  O   UNL A   1      32.379  34.566  28.182  1.00  0.00    -0.237 OA
ATOM     78  O   UNL A   1      32.257  36.150  30.070  1.00  0.00    -0.744 OA
ENDBRANCH  74  75
ENDBRANCH  55  69
BRANCH  56  79
ATOM     79  C   UNL A   1      43.821  28.517  35.746  1.00  0.00    -0.014 A 
ATOM     80  C   UNL A   1      43.495  27.447  36.598  1.00  0.00     0.010 A 
ATOM     81  C   UNL A   1      45.175  28.839  35.534  1.00  0.00     0.010 A 
ATOM     82  C   UNL A   1      44.505  26.707  37.218  1.00  0.00     0.020 A 
ATOM     83  C   UNL A   1      46.186  28.087  36.136  1.00  0.00     0.020 A 
ATOM     84  C   UNL A   1      45.844  27.024  36.973  1.00  0.00     0.054 A 
BRANCH  84  85
ATOM     85  S   UNL A   1      47.132  25.998  37.735  1.00  0.00     0.124 S 
ATOM     86  O   UNL A   1      48.150  26.986  38.078  1.00  0.00    -0.237 OA
ATOM     87  O   UNL A   1      46.424  25.402  38.865  1.00  0.00    -0.237 OA
ATOM     88  O   UNL A   1      47.501  25.062  36.675  1.00  0.00    -0.744 OA
ENDBRANCH  84  85
ENDBRANCH  56  79
BRANCH  68  89
ATOM     89  C   UNL A   1      39.992  34.146  37.281  1.00  0.00    -0.014 A 
ATOM     90  C   UNL A   1      40.694  35.363  37.284  1.00  0.00     0.010 A 
ATOM     91  C   UNL A   1      39.160  33.824  38.368  1.00  0.00     0.010 A 
ATOM     92  C   UNL A   1      40.568  36.243  38.362  1.00  0.00     0.020 A 
ATOM     93  C   UNL A   1      39.019  34.709  39.439  1.00  0.00     0.020 A 
ATOM     94  C   UNL A   1      39.726  35.912  39.429  1.00  0.00     0.054 A 
BRANCH  94  95
ATOM     95  S   UNL A   1      39.542  37.102  40.786  1.00  0.00     0.124 S 
ATOM     96  O   UNL A   1      38.934  38.246  40.112  1.00  0.00    -0.237 OA
ATOM     97  O   UNL A   1      38.673  36.386  41.717  1.00  0.00    -0.237 OA
ATOM     98  O   UNL A   1      40.910  37.314  41.254  1.00  0.00    -0.744 OA
ENDBRANCH  94  95
ENDBRANCH  68  89
ENDBRANCH  42  43
ENDBRANCH  35  37
ENDBRANCH  34  35
ENDBRANCH   1  34
TORSDOF 16
ENDMDL
MODEL 2
REMARK VINA RESULT:     -12.0      7.221     14.127
REMARK SMILES C[NH+]1CCN(c2nc3c(cc2F)c(=O)c(C(=O)OCCOC(=O)c2ccc(-c4c5nc(c(-c6ccc(S(=O)(=O)[O-])cc6)c6ccc([nH]6)c(-c6ccc(S(=O)(=O)[O-])cc6)c6nc(c(-c7ccc(S(=O)(=O)[O-])cc7)c7ccc4[nH]7)C=C6)C=C5)cc2)cn3-c2ccc(F)cc2F)CC1
REMARK SMILES IDX 20 1 19 2 18 3 16 4 17 5 15 6 6 7 7 8 11 9 8 10 10 11 12 12
REMARK SMILES IDX 9 13 85 14 13 15 84 16 14 17 5 18 1 19 2 20 3 21 95 22 4 24
REMARK SMILES IDX 94 25 86 26 87 27 92 28 88 29 91 30 93 31 89 32 90 33 21 34
REMARK SMILES IDX 22 35 23 36 24 37 25 38 83 39 26 40 82 41 27 42 28 43 29 44
REMARK SMILES IDX 76 45 30 46 81 47 75 48 77 49 31 50 80 51 74 52 73 53 32 55
REMARK SMILES IDX 62 56 43 57 61 58 44 59 47 60 60 61 78 62 45 63 46 64 59 66
REMARK SMILES IDX 79 67 48 68 33 69 34 70 42 71 35 72 41 73 36 74 37 75 38 76
REMARK SMILES IDX 39 77 40 78 63 79 64 80 72 81 65 82 71 83 66 84 67 85 68 86
REMARK SMILES IDX 69 87 70 88 49 89 50 90 58 91 51 92 57 93 52 94 53 95 54 96
REMARK SMILES IDX 55 97 56 98
REMARK H PARENT 2 23 77 54 47 65
REMARK Flexibility Score: inf
ROOT
ATOM      1  C   UNL A   1      35.053  29.801  27.952  1.00  0.00     0.275 C 
ENDROOT
BRANCH   1   2
ATOM      2  C   UNL A   1      34.485  31.058  27.300  1.00  0.00     0.275 C 
BRANCH   2   3
ATOM      3  O   UNL A   1      35.348  32.182  27.546  1.00  0.00    -0.458 OA
BRANCH   3   4
ATOM      4  C   UNL A   1      34.792  33.255  28.153  1.00  0.00     0.343 C 
ATOM      5  O   UNL A   1      33.770  33.829  27.802  1.00  0.00    -0.246 OA
BRANCH   4   6
ATOM      6  C   UNL A   1      35.535  33.620  29.368  1.00  0.00     0.124 A 
ATOM      7  C   UNL A   1      37.465  34.292  33.998  1.00  0.00     0.167 A 
ATOM      8  N   UNL A   1      38.005  34.271  32.758  1.00  0.00    -0.209 NA
ATOM      9  C   UNL A   1      36.079  34.216  34.189  1.00  0.00     0.166 A 
ATOM     10  C   UNL A   1      37.185  34.111  31.682  1.00  0.00     0.151 A 
ATOM     11  C   UNL A   1      35.229  34.122  33.108  1.00  0.00     0.059 A 
ATOM     12  F   UNL A   1      35.551  34.250  35.424  1.00  0.00    -0.203 F 
ATOM     13  C   UNL A   1      35.791  34.055  31.837  1.00  0.00     0.069 A 
ATOM     14  N   UNL A   1      37.738  33.962  30.369  1.00  0.00    -0.297 N 
ATOM     15  C   UNL A   1      34.900  33.864  30.675  1.00  0.00     0.205 A 
ATOM     16  C   UNL A   1      36.875  33.677  29.319  1.00  0.00     0.113 A 
ATOM     17  O   UNL A   1      33.685  33.834  30.836  1.00  0.00    -0.288 OA
BRANCH   7  18
ATOM     18  N   UNL A   1      38.295  34.381  35.087  1.00  0.00    -0.343 N 
ATOM     19  C   UNL A   1      39.639  35.484  38.904  1.00  0.00     0.332 C 
ATOM     20  N   UNL A   1      39.637  34.827  37.597  1.00  0.00    -0.334 N 
ATOM     21  C   UNL A   1      39.629  35.841  36.508  1.00  0.00     0.283 C 
ATOM     22  C   UNL A   1      38.454  33.941  37.482  1.00  0.00     0.283 C 
ATOM     23  H   UNL A   1      40.484  34.265  37.509  1.00  0.00     0.347 HD
ATOM     24  C   UNL A   1      39.474  35.237  35.083  1.00  0.00     0.179 C 
ATOM     25  C   UNL A   1      38.298  33.316  36.083  1.00  0.00     0.179 C 
ENDBRANCH   7  18
BRANCH  14  26
ATOM     26  C   UNL A   1      39.142  34.033  30.112  1.00  0.00     0.083 A 
ATOM     27  C   UNL A   1      39.687  35.129  29.426  1.00  0.00     0.033 A 
ATOM     28  C   UNL A   1      40.018  33.030  30.570  1.00  0.00     0.150 A 
ATOM     29  C   UNL A   1      41.066  35.217  29.215  1.00  0.00     0.041 A 
ATOM     30  C   UNL A   1      41.390  33.102  30.346  1.00  0.00     0.080 A 
ATOM     31  F   UNL A   1      39.532  31.970  31.235  1.00  0.00    -0.205 F 
ATOM     32  C   UNL A   1      41.901  34.201  29.671  1.00  0.00     0.126 A 
ATOM     33  F   UNL A   1      43.218  34.289  29.452  1.00  0.00    -0.207 F 
ENDBRANCH  14  26
ENDBRANCH   4   6
ENDBRANCH   3   4
ENDBRANCH   2   3
ENDBRANCH   1   2
BRANCH   1  34
ATOM     34  O   UNL A   1      36.485  29.776  27.809  1.00  0.00    -0.458 OA
BRANCH  34  35
ATOM     35  C   UNL A   1      37.169  29.408  28.916  1.00  0.00     0.338 C 
ATOM     36  O   UNL A   1      36.766  29.379  30.065  1.00  0.00    -0.246 OA
BRANCH  35  37
ATOM     37  C   UNL A   1      38.518  28.972  28.532  1.00  0.00     0.060 A 
ATOM     38  C   UNL A   1      39.323  28.351  29.484  1.00  0.00     0.016 A 
ATOM     39  C   UNL A   1      39.033  29.304  27.280  1.00  0.00     0.016 A 
ATOM     40  C   UNL A   1      40.678  28.158  29.234  1.00  0.00     0.010 A 
ATOM     41  C   UNL A   1      40.371  29.020  26.995  1.00  0.00     0.010 A 
ATOM     42  C   UNL A   1      41.218  28.484  27.984  1.00  0.00    -0.014 A 
BRANCH  42  43
ATOM     43  C   UNL A   1      42.670  28.312  27.722  1.00  0.00     0.031 A 
ATOM     44  C   UNL A   1      43.626  29.432  28.034  1.00  0.00     0.074 A 
ATOM     45  C   UNL A   1      43.142  27.150  27.226  1.00  0.00     0.049 A 
ATOM     46  N   UNL A   1      44.891  29.547  27.719  1.00  0.00    -0.248 NA
ATOM     47  C   UNL A   1      43.095  30.572  28.801  1.00  0.00     0.031 C 
ATOM     48  C   UNL A   1      42.341  25.955  26.951  1.00  0.00     0.029 A 
ATOM     49  N   UNL A   1      44.417  26.780  26.878  1.00  0.00    -0.354 N 
ATOM     50  C   UNL A   1      45.294  30.784  28.206  1.00  0.00     0.074 A 
ATOM     51  C   UNL A   1      44.141  31.386  28.843  1.00  0.00     0.031 C 
ATOM     52  C   UNL A   1      43.148  24.974  26.518  1.00  0.00     0.029 A 
ATOM     53  C   UNL A   1      44.507  25.492  26.404  1.00  0.00     0.049 A 
ATOM     54  H   UNL A   1      45.194  27.379  26.959  1.00  0.00     0.167 HD
ATOM     55  C   UNL A   1      46.513  31.367  28.125  1.00  0.00     0.031 A 
ATOM     56  C   UNL A   1      45.554  24.811  25.899  1.00  0.00     0.031 A 
ATOM     57  C   UNL A   1      47.663  30.756  27.517  1.00  0.00     0.049 A 
ATOM     58  C   UNL A   1      46.881  25.499  25.763  1.00  0.00     0.074 A 
ATOM     59  C   UNL A   1      48.932  31.283  27.352  1.00  0.00     0.029 A 
ATOM     60  N   UNL A   1      47.693  29.470  27.000  1.00  0.00    -0.354 N 
ATOM     61  N   UNL A   1      47.215  26.715  26.124  1.00  0.00    -0.248 NA
ATOM     62  C   UNL A   1      47.967  24.733  25.135  1.00  0.00     0.031 C 
ATOM     63  C   UNL A   1      49.724  30.325  26.714  1.00  0.00     0.029 A 
ATOM     64  C   UNL A   1      48.960  29.186  26.518  1.00  0.00     0.049 A 
ATOM     65  H   UNL A   1      46.929  28.851  26.978  1.00  0.00     0.167 HD
ATOM     66  C   UNL A   1      48.552  26.856  25.776  1.00  0.00     0.074 A 
ATOM     67  C   UNL A   1      48.969  25.602  25.184  1.00  0.00     0.031 C 
ATOM     68  C   UNL A   1      49.359  27.933  25.936  1.00  0.00     0.031 A 
BRANCH  55  69
ATOM     69  C   UNL A   1      46.666  32.756  28.680  1.00  0.00    -0.014 A 
ATOM     70  C   UNL A   1      47.111  32.966  29.996  1.00  0.00     0.010 A 
ATOM     71  C   UNL A   1      46.435  33.865  27.845  1.00  0.00     0.010 A 
ATOM     72  C   UNL A   1      47.313  34.264  30.471  1.00  0.00     0.020 A 
ATOM     73  C   UNL A   1      46.654  35.164  28.311  1.00  0.00     0.020 A 
ATOM     74  C   UNL A   1      47.089  35.355  29.624  1.00  0.00     0.054 A 
BRANCH  74  75
ATOM     75  S   UNL A   1      47.398  37.026  30.262  1.00  0.00     0.124 S 
ATOM     76  O   UNL A   1      46.755  37.862  29.249  1.00  0.00    -0.237 OA
ATOM     77  O   UNL A   1      46.736  36.994  31.562  1.00  0.00    -0.237 OA
ATOM     78  O   UNL A   1      48.855  37.119  30.305  1.00  0.00    -0.744 OA
ENDBRANCH  74  75
ENDBRANCH  55  69
BRANCH  56  79
ATOM     79  C   UNL A   1      45.369  23.405  25.454  1.00  0.00    -0.014 A 
ATOM     80  C   UNL A   1      45.597  22.344  26.347  1.00  0.00     0.010 A 
ATOM     81  C   UNL A   1      44.913  23.123  24.153  1.00  0.00     0.010 A 
ATOM     82  C   UNL A   1      45.364  21.025  25.949  1.00  0.00     0.020 A 
ATOM     83  C   UNL A   1      44.657  21.807  23.759  1.00  0.00     0.020 A 
ATOM     84  C   UNL A   1      44.883  20.766  24.661  1.00  0.00     0.054 A 
BRANCH  84  85
ATOM     85  S   UNL A   1      44.520  19.050  24.199  1.00  0.00     0.124 S 
ATOM     86  O   UNL A   1      43.139  18.896  24.646  1.00  0.00    -0.237 OA
ATOM     87  O   UNL A   1      44.718  19.072  22.752  1.00  0.00    -0.237 OA
ATOM     88  O   UNL A   1      45.509  18.275  24.946  1.00  0.00    -0.744 OA
ENDBRANCH  84  85
ENDBRANCH  56  79
BRANCH  68  89
ATOM     89  C   UNL A   1      50.789  27.801  25.495  1.00  0.00    -0.014 A 
ATOM     90  C   UNL A   1      51.773  27.316  26.374  1.00  0.00     0.010 A 
ATOM     91  C   UNL A   1      51.129  28.077  24.159  1.00  0.00     0.010 A 
ATOM     92  C   UNL A   1      53.079  27.116  25.922  1.00  0.00     0.020 A 
ATOM     93  C   UNL A   1      52.430  27.862  23.700  1.00  0.00     0.020 A 
ATOM     94  C   UNL A   1      53.398  27.384  24.586  1.00  0.00     0.054 A 
BRANCH  94  95
ATOM     95  S   UNL A   1      55.089  27.059  24.017  1.00  0.00     0.124 S 
ATOM     96  O   UNL A   1      54.909  26.933  22.574  1.00  0.00    -0.237 OA
ATOM     97  O   UNL A   1      55.805  28.252  24.461  1.00  0.00    -0.237 OA
ATOM     98  O   UNL A   1      55.458  25.823  24.705  1.00  0.00    -0.744 OA
ENDBRANCH  94  95
ENDBRANCH  68  89
ENDBRANCH  42  43
ENDBRANCH  35  37
ENDBRANCH  34  35
ENDBRANCH   1  34
TORSDOF 16
ENDMDL
MODEL 3
REMARK VINA RESULT:     -11.8      6.772     13.944
REMARK SMILES C[NH+]1CCN(c2nc3c(cc2F)c(=O)c(C(=O)OCCOC(=O)c2ccc(-c4c5nc(c(-c6ccc(S(=O)(=O)[O-])cc6)c6ccc([nH]6)c(-c6ccc(S(=O)(=O)[O-])cc6)c6nc(c(-c7ccc(S(=O)(=O)[O-])cc7)c7ccc4[nH]7)C=C6)C=C5)cc2)cn3-c2ccc(F)cc2F)CC1
REMARK SMILES IDX 20 1 19 2 18 3 16 4 17 5 15 6 6 7 7 8 11 9 8 10 10 11 12 12
REMARK SMILES IDX 9 13 85 14 13 15 84 16 14 17 5 18 1 19 2 20 3 21 95 22 4 24
REMARK SMILES IDX 94 25 86 26 87 27 92 28 88 29 91 30 93 31 89 32 90 33 21 34
REMARK SMILES IDX 22 35 23 36 24 37 25 38 83 39 26 40 82 41 27 42 28 43 29 44
REMARK SMILES IDX 76 45 30 46 81 47 75 48 77 49 31 50 80 51 74 52 73 53 32 55
REMARK SMILES IDX 62 56 43 57 61 58 44 59 47 60 60 61 78 62 45 63 46 64 59 66
REMARK SMILES IDX 79 67 48 68 33 69 34 70 42 71 35 72 41 73 36 74 37 75 38 76
REMARK SMILES IDX 39 77 40 78 63 79 64 80 72 81 65 82 71 83 66 84 67 85 68 86
REMARK SMILES IDX 69 87 70 88 49 89 50 90 58 91 51 92 57 93 52 94 53 95 54 96
REMARK SMILES IDX 55 97 56 98
REMARK H PARENT 2 23 77 54 47 65
REMARK Flexibility Score: inf
ROOT
ATOM      1  C   UNL A   1      35.284  31.911  31.087  1.00  0.00     0.275 C 
ENDROOT
BRANCH   1   2
ATOM      2  C   UNL A   1      34.771  33.341  31.236  1.00  0.00     0.275 C 
BRANCH   2   3
ATOM      3  O   UNL A   1      35.872  34.252  31.403  1.00  0.00    -0.458 OA
BRANCH   3   4
ATOM      4  C   UNL A   1      36.345  34.413  32.659  1.00  0.00     0.343 C 
ATOM      5  O   UNL A   1      35.764  34.971  33.580  1.00  0.00    -0.246 OA
BRANCH   4   6
ATOM      6  C   UNL A   1      37.648  33.750  32.823  1.00  0.00     0.124 A 
ATOM      7  C   UNL A   1      41.612  30.653  33.375  1.00  0.00     0.167 A 
ATOM      8  N   UNL A   1      41.442  31.849  32.766  1.00  0.00    -0.209 NA
ATOM      9  C   UNL A   1      40.587  30.070  34.130  1.00  0.00     0.166 A 
ATOM     10  C   UNL A   1      40.229  32.463  32.841  1.00  0.00     0.151 A 
ATOM     11  C   UNL A   1      39.374  30.709  34.274  1.00  0.00     0.059 A 
ATOM     12  F   UNL A   1      40.769  28.887  34.742  1.00  0.00    -0.203 F 
ATOM     13  C   UNL A   1      39.188  31.917  33.608  1.00  0.00     0.069 A 
ATOM     14  N   UNL A   1      39.982  33.668  32.106  1.00  0.00    -0.297 N 
ATOM     15  C   UNL A   1      37.866  32.571  33.678  1.00  0.00     0.205 A 
ATOM     16  C   UNL A   1      38.696  34.191  32.112  1.00  0.00     0.113 A 
ATOM     17  O   UNL A   1      36.978  32.080  34.368  1.00  0.00    -0.288 OA
BRANCH   7  18
ATOM     18  N   UNL A   1      42.811  29.999  33.241  1.00  0.00    -0.343 N 
ATOM     19  C   UNL A   1      46.834  29.368  32.237  1.00  0.00     0.332 C 
ATOM     20  N   UNL A   1      45.506  29.090  32.785  1.00  0.00    -0.334 N 
ATOM     21  C   UNL A   1      44.484  29.122  31.704  1.00  0.00     0.283 C 
ATOM     22  C   UNL A   1      45.177  30.085  33.833  1.00  0.00     0.283 C 
ATOM     23  H   UNL A   1      45.508  28.158  33.199  1.00  0.00     0.347 HD
ATOM     24  C   UNL A   1      43.021  28.988  32.213  1.00  0.00     0.179 C 
ATOM     25  C   UNL A   1      43.738  29.951  34.366  1.00  0.00     0.179 C 
ENDBRANCH   7  18
BRANCH  14  26
ATOM     26  C   UNL A   1      40.989  34.310  31.321  1.00  0.00     0.083 A 
ATOM     27  C   UNL A   1      42.176  34.765  31.916  1.00  0.00     0.033 A 
ATOM     28  C   UNL A   1      40.836  34.472  29.930  1.00  0.00     0.150 A 
ATOM     29  C   UNL A   1      43.177  35.352  31.138  1.00  0.00     0.041 A 
ATOM     30  C   UNL A   1      41.821  35.075  29.153  1.00  0.00     0.080 A 
ATOM     31  F   UNL A   1      39.716  34.044  29.326  1.00  0.00    -0.205 F 
ATOM     32  C   UNL A   1      42.987  35.507  29.768  1.00  0.00     0.126 A 
ATOM     33  F   UNL A   1      43.947  36.084  29.036  1.00  0.00    -0.207 F 
ENDBRANCH  14  26
ENDBRANCH   4   6
ENDBRANCH   3   4
ENDBRANCH   2   3
ENDBRANCH   1   2
BRANCH   1  34
ATOM     34  O   UNL A   1      36.417  31.885  30.200  1.00  0.00    -0.458 OA
BRANCH  34  35
ATOM     35  C   UNL A   1      36.322  31.015  29.169  1.00  0.00     0.338 C 
ATOM     36  O   UNL A   1      35.368  30.834  28.433  1.00  0.00    -0.246 OA
BRANCH  35  37
ATOM     37  C   UNL A   1      37.603  30.316  29.003  1.00  0.00     0.060 A 
ATOM     38  C   UNL A   1      38.465  30.219  30.093  1.00  0.00     0.016 A 
ATOM     39  C   UNL A   1      38.009  29.886  27.742  1.00  0.00     0.016 A 
ATOM     40  C   UNL A   1      39.778  29.796  29.909  1.00  0.00     0.010 A 
ATOM     41  C   UNL A   1      39.297  29.370  27.578  1.00  0.00     0.010 A 
ATOM     42  C   UNL A   1      40.208  29.359  28.650  1.00  0.00    -0.014 A 
BRANCH  42  43
ATOM     43  C   UNL A   1      41.618  28.938  28.440  1.00  0.00     0.031 A 
ATOM     44  C   UNL A   1      42.731  29.940  28.594  1.00  0.00     0.074 A 
ATOM     45  C   UNL A   1      41.910  27.658  28.135  1.00  0.00     0.049 A 
ATOM     46  N   UNL A   1      43.996  29.819  28.285  1.00  0.00    -0.248 NA
ATOM     47  C   UNL A   1      42.378  31.250  29.169  1.00  0.00     0.031 C 
ATOM     48  C   UNL A   1      40.939  26.565  28.033  1.00  0.00     0.029 A 
ATOM     49  N   UNL A   1      43.114  27.055  27.867  1.00  0.00    -0.354 N 
ATOM     50  C   UNL A   1      44.580  31.044  28.584  1.00  0.00     0.074 A 
ATOM     51  C   UNL A   1      43.533  31.898  29.103  1.00  0.00     0.031 C 
ATOM     52  C   UNL A   1      41.590  25.421  27.767  1.00  0.00     0.029 A 
ATOM     53  C   UNL A   1      43.010  25.711  27.596  1.00  0.00     0.049 A 
ATOM     54  H   UNL A   1      43.971  27.540  27.868  1.00  0.00     0.167 HD
ATOM     55  C   UNL A   1      45.871  31.422  28.433  1.00  0.00     0.031 A 
ATOM     56  C   UNL A   1      43.941  24.815  27.217  1.00  0.00     0.031 A 
ATOM     57  C   UNL A   1      46.914  30.563  27.944  1.00  0.00     0.049 A 
ATOM     58  C   UNL A   1      45.355  25.272  26.999  1.00  0.00     0.074 A 
ATOM     59  C   UNL A   1      48.246  30.867  27.720  1.00  0.00     0.029 A 
ATOM     60  N   UNL A   1      46.751  29.223  27.629  1.00  0.00    -0.354 N 
ATOM     61  N   UNL A   1      45.866  26.467  27.175  1.00  0.00    -0.248 NA
ATOM     62  C   UNL A   1      46.311  24.269  26.512  1.00  0.00     0.031 C 
ATOM     63  C   UNL A   1      48.884  29.717  27.248  1.00  0.00     0.029 A 
ATOM     64  C   UNL A   1      47.958  28.686  27.215  1.00  0.00     0.049 A 
ATOM     65  H   UNL A   1      45.904  28.727  27.690  1.00  0.00     0.167 HD
ATOM     66  C   UNL A   1      47.207  26.356  26.831  1.00  0.00     0.074 A 
ATOM     67  C   UNL A   1      47.431  24.979  26.444  1.00  0.00     0.031 C 
ATOM     68  C   UNL A   1      48.165  27.314  26.837  1.00  0.00     0.031 A 
BRANCH  55  69
ATOM     69  C   UNL A   1      46.231  32.842  28.773  1.00  0.00    -0.014 A 
ATOM     70  C   UNL A   1      46.539  33.216  30.091  1.00  0.00     0.010 A 
ATOM     71  C   UNL A   1      46.337  33.795  27.743  1.00  0.00     0.010 A 
ATOM     72  C   UNL A   1      46.939  34.525  30.376  1.00  0.00     0.020 A 
ATOM     73  C   UNL A   1      46.754  35.099  28.021  1.00  0.00     0.020 A 
ATOM     74  C   UNL A   1      47.049  35.457  29.338  1.00  0.00     0.054 A 
BRANCH  74  75
ATOM     75  S   UNL A   1      47.607  37.137  29.737  1.00  0.00     0.124 S 
ATOM     76  O   UNL A   1      46.411  37.929  29.456  1.00  0.00    -0.237 OA
ATOM     77  O   UNL A   1      47.968  37.023  31.146  1.00  0.00    -0.237 OA
ATOM     78  O   UNL A   1      48.724  37.360  28.822  1.00  0.00    -0.744 OA
ENDBRANCH  74  75
ENDBRANCH  55  69
BRANCH  56  79
ATOM     79  C   UNL A   1      43.548  23.400  26.988  1.00  0.00    -0.014 A 
ATOM     80  C   UNL A   1      43.128  22.600  28.064  1.00  0.00     0.010 A 
ATOM     81  C   UNL A   1      43.541  22.863  25.688  1.00  0.00     0.010 A 
ATOM     82  C   UNL A   1      42.698  21.289  27.842  1.00  0.00     0.020 A 
ATOM     83  C   UNL A   1      43.092  21.560  25.460  1.00  0.00     0.020 A 
ATOM     84  C   UNL A   1      42.671  20.782  26.539  1.00  0.00     0.054 A 
BRANCH  84  85
ATOM     85  S   UNL A   1      42.040  19.102  26.274  1.00  0.00     0.124 S 
ATOM     86  O   UNL A   1      42.945  18.590  25.250  1.00  0.00    -0.237 OA
ATOM     87  O   UNL A   1      42.183  18.506  27.600  1.00  0.00    -0.237 OA
ATOM     88  O   UNL A   1      40.661  19.316  25.840  1.00  0.00    -0.744 OA
ENDBRANCH  84  85
ENDBRANCH  56  79
BRANCH  68  89
ATOM     89  C   UNL A   1      49.557  26.908  26.444  1.00  0.00    -0.014 A 
ATOM     90  C   UNL A   1      50.450  26.381  27.393  1.00  0.00     0.010 A 
ATOM     91  C   UNL A   1      49.939  26.968  25.092  1.00  0.00     0.010 A 
ATOM     92  C   UNL A   1      51.708  25.926  26.994  1.00  0.00     0.020 A 
ATOM     93  C   UNL A   1      51.190  26.499  24.688  1.00  0.00     0.020 A 
ATOM     94  C   UNL A   1      52.068  25.982  25.643  1.00  0.00     0.054 A 
BRANCH  94  95
ATOM     95  S   UNL A   1      53.687  25.331  25.150  1.00  0.00     0.124 S 
ATOM     96  O   UNL A   1      54.550  25.804  26.229  1.00  0.00    -0.237 OA
ATOM     97  O   UNL A   1      53.451  23.890  25.119  1.00  0.00    -0.237 OA
ATOM     98  O   UNL A   1      53.931  25.947  23.848  1.00  0.00    -0.744 OA
ENDBRANCH  94  95
ENDBRANCH  68  89
ENDBRANCH  42  43
ENDBRANCH  35  37
ENDBRANCH  34  35
ENDBRANCH   1  34
TORSDOF 16
ENDMDL
