MODEL 1
REMARK VINA RESULT:     -10.9      0.000      0.000
REMARK SMILES O=C(OCCOC(=O)[C@@H]1CCCN(C(=O)/C=C/c2cccc(F)c2)C1)c1ccc(-c2c3nc(c(-c4ccc(S(=O)(=O)[O-])cc4)c4ccc([nH]4)c(-c4ccc(S(=O)(=O)[O-])cc4)c4nc(c(-c5ccc(S(=O)(=O)[O-])cc5)c5ccc2[nH]5)C=C4)C=C3)cc1
REMARK SMILES IDX 4 1 3 2 2 3 1 4 26 5 27 6 85 7 28 8 84 9 29 10 30 11 31 12
REMARK SMILES IDX 78 13 32 14 83 15 77 16 79 17 33 18 82 19 76 20 75 21 34 23
REMARK SMILES IDX 64 24 45 25 63 26 46 27 49 28 62 29 80 30 47 31 48 32 61 34
REMARK SMILES IDX 81 35 50 36 35 37 36 38 44 39 37 40 43 41 38 42 39 43 40 44
REMARK SMILES IDX 41 45 42 46 65 47 66 48 74 49 67 50 73 51 68 52 69 53 70 54
REMARK SMILES IDX 71 55 72 56 51 57 52 58 60 59 53 60 59 61 54 62 55 63 56 64
REMARK SMILES IDX 57 65 58 66 5 67 6 68 7 69 8 70 9 71 10 72 25 73 11 74 13 75
REMARK SMILES IDX 12 76 14 77 15 78 16 79 17 80 18 81 19 82 24 83 20 84 22 85
REMARK SMILES IDX 21 86 23 87
REMARK H PARENT 79 22 49 33
REMARK Flexibility Score: inf
ROOT
ATOM      1  C   UNL A   1      33.848  28.029  26.677  1.00  0.00     0.275 C 
ENDROOT
BRANCH   1   2
ATOM      2  O   UNL A   1      33.602  29.088  27.626  1.00  0.00    -0.458 OA
BRANCH   2   3
ATOM      3  C   UNL A   1      34.436  30.107  27.898  1.00  0.00     0.338 C 
ATOM      4  O   UNL A   1      34.093  31.273  27.747  1.00  0.00    -0.246 OA
BRANCH   3   5
ATOM      5  C   UNL A   1      35.830  29.833  28.264  1.00  0.00     0.060 A 
ATOM      6  C   UNL A   1      37.173  29.755  27.234  1.00  0.00     0.016 A 
ATOM      7  C   UNL A   1      36.101  29.602  29.961  1.00  0.00     0.016 A 
ATOM      8  C   UNL A   1      38.787  29.543  27.804  1.00  0.00     0.010 A 
ATOM      9  C   UNL A   1      37.916  29.388  30.680  1.00  0.00     0.010 A 
ATOM     10  C   UNL A   1      39.250  29.312  29.480  1.00  0.00    -0.014 A 
BRANCH  10  11
ATOM     11  C   UNL A   1      40.717  29.027  29.568  1.00  0.00     0.031 A 
ATOM     12  C   UNL A   1      41.252  27.673  29.057  1.00  0.00     0.074 A 
ATOM     13  C   UNL A   1      41.563  30.078  29.628  1.00  0.00     0.049 A 
ATOM     14  N   UNL A   1      42.480  27.313  28.756  1.00  0.00    -0.248 NA
ATOM     15  C   UNL A   1      40.284  26.593  28.801  1.00  0.00     0.031 C 
ATOM     16  C   UNL A   1      41.182  31.469  29.884  1.00  0.00     0.029 A 
ATOM     17  N   UNL A   1      42.916  30.155  29.384  1.00  0.00    -0.354 N 
ATOM     18  C   UNL A   1      42.400  26.000  28.272  1.00  0.00     0.074 A 
ATOM     19  C   UNL A   1      41.026  25.609  28.331  1.00  0.00     0.031 C 
ATOM     20  C   UNL A   1      42.258  32.260  29.748  1.00  0.00     0.029 A 
ATOM     21  C   UNL A   1      43.425  31.433  29.470  1.00  0.00     0.049 A 
ATOM     22  H   UNL A   1      43.470  29.370  29.167  1.00  0.00     0.167 HD
ATOM     23  C   UNL A   1      43.360  25.172  27.796  1.00  0.00     0.031 A 
ATOM     24  C   UNL A   1      44.689  31.895  29.376  1.00  0.00     0.031 A 
ATOM     25  C   UNL A   1      44.739  25.543  27.720  1.00  0.00     0.049 A 
ATOM     26  C   UNL A   1      45.779  30.926  29.013  1.00  0.00     0.074 A 
ATOM     27  C   UNL A   1      45.823  24.773  27.344  1.00  0.00     0.029 A 
ATOM     28  N   UNL A   1      45.216  26.808  28.016  1.00  0.00    -0.354 N 
ATOM     29  N   UNL A   1      45.671  29.661  28.676  1.00  0.00    -0.248 NA
ATOM     30  C   UNL A   1      47.152  31.442  29.005  1.00  0.00     0.031 C 
ATOM     31  C   UNL A   1      46.969  25.564  27.464  1.00  0.00     0.029 A 
ATOM     32  C   UNL A   1      46.585  26.840  27.850  1.00  0.00     0.049 A 
ATOM     33  H   UNL A   1      44.663  27.570  28.301  1.00  0.00     0.167 HD
ATOM     34  C   UNL A   1      46.965  29.232  28.406  1.00  0.00     0.074 A 
ATOM     35  C   UNL A   1      47.829  30.382  28.584  1.00  0.00     0.031 C 
ATOM     36  C   UNL A   1      47.407  28.001  28.050  1.00  0.00     0.031 A 
BRANCH  23  37
ATOM     37  C   UNL A   1      42.958  23.772  27.377  1.00  0.00    -0.014 A 
ATOM     38  C   UNL A   1      42.503  23.485  26.076  1.00  0.00     0.010 A 
ATOM     39  C   UNL A   1      43.058  22.717  28.304  1.00  0.00     0.010 A 
ATOM     40  C   UNL A   1      42.135  22.181  25.720  1.00  0.00     0.020 A 
ATOM     41  C   UNL A   1      42.720  21.407  27.945  1.00  0.00     0.020 A 
ATOM     42  C   UNL A   1      42.251  21.149  26.656  1.00  0.00     0.054 A 
BRANCH  42  43
ATOM     43  S   UNL A   1      41.813  19.458  26.153  1.00  0.00     0.124 S 
ATOM     44  O   UNL A   1      42.682  19.251  24.997  1.00  0.00    -0.237 OA
ATOM     45  O   UNL A   1      42.151  18.677  27.340  1.00  0.00    -0.237 OA
ATOM     46  O   UNL A   1      40.386  19.543  25.852  1.00  0.00    -0.744 OA
ENDBRANCH  42  43
ENDBRANCH  23  37
BRANCH  24  47
ATOM     47  C   UNL A   1      44.991  33.311  29.755  1.00  0.00    -0.014 A 
ATOM     48  C   UNL A   1      45.259  33.708  31.076  1.00  0.00     0.010 A 
ATOM     49  C   UNL A   1      44.997  34.293  28.743  1.00  0.00     0.010 A 
ATOM     50  C   UNL A   1      45.516  35.054  31.375  1.00  0.00     0.020 A 
ATOM     51  C   UNL A   1      45.290  35.627  29.028  1.00  0.00     0.020 A 
ATOM     52  C   UNL A   1      45.534  36.005  30.347  1.00  0.00     0.054 A 
BRANCH  52  53
ATOM     53  S   UNL A   1      45.906  37.736  30.741  1.00  0.00     0.124 S 
ATOM     54  O   UNL A   1      45.387  38.433  29.569  1.00  0.00    -0.237 OA
ATOM     55  O   UNL A   1      45.164  37.942  31.982  1.00  0.00    -0.237 OA
ATOM     56  O   UNL A   1      47.360  37.749  30.886  1.00  0.00    -0.744 OA
ENDBRANCH  52  53
ENDBRANCH  24  47
BRANCH  36  57
ATOM     57  C   UNL A   1      48.880  27.853  27.816  1.00  0.00    -0.014 A 
ATOM     58  C   UNL A   1      49.436  28.085  26.546  1.00  0.00     0.010 A 
ATOM     59  C   UNL A   1      49.717  27.498  28.888  1.00  0.00     0.010 A 
ATOM     60  C   UNL A   1      50.801  27.902  26.339  1.00  0.00     0.020 A 
ATOM     61  C   UNL A   1      51.089  27.350  28.691  1.00  0.00     0.020 A 
ATOM     62  C   UNL A   1      51.617  27.528  27.411  1.00  0.00     0.054 A 
BRANCH  62  63
ATOM     63  S   UNL A   1      53.387  27.294  27.112  1.00  0.00     0.124 S 
ATOM     64  O   UNL A   1      53.417  27.037  25.675  1.00  0.00    -0.237 OA
ATOM     65  O   UNL A   1      53.955  28.571  27.536  1.00  0.00    -0.237 OA
ATOM     66  O   UNL A   1      53.732  26.152  27.956  1.00  0.00    -0.744 OA
ENDBRANCH  62  63
ENDBRANCH  36  57
ENDBRANCH  10  11
ENDBRANCH   3   5
ENDBRANCH   2   3
ENDBRANCH   1   2
BRANCH   1  67
ATOM     67  C   UNL A   1      34.003  28.530  25.224  1.00  0.00     0.274 C 
BRANCH  67  68
ATOM     68  O   UNL A   1      32.840  28.200  24.441  1.00  0.00    -0.462 OA
BRANCH  68  69
ATOM     69  C   UNL A   1      31.614  28.768  24.627  1.00  0.00     0.310 C 
ATOM     70  O   UNL A   1      31.418  29.894  25.046  1.00  0.00    -0.252 OA
BRANCH  69  71
ATOM     71  C   UNL A   1      30.538  27.756  24.151  1.00  0.00     0.119 C 
ATOM     72  C   UNL A   1      30.282  26.560  25.690  1.00  0.00     0.019 C 
ATOM     73  C   UNL A   1      30.963  26.937  22.483  1.00  0.00     0.135 C 
ATOM     74  C   UNL A   1      30.798  24.462  25.244  1.00  0.00     0.022 C 
ATOM     75  N   UNL A   1      31.566  25.257  22.391  1.00  0.00    -0.338 N 
ATOM     76  C   UNL A   1      30.984  24.039  23.367  1.00  0.00     0.120 C 
BRANCH  75  77
ATOM     77  C   UNL A   1      32.852  25.073  21.820  1.00  0.00     0.246 C 
ATOM     78  O   UNL A   1      33.278  25.773  20.904  1.00  0.00    -0.270 OA
BRANCH  77  79
ATOM     79  C   UNL A   1      33.744  23.979  22.366  1.00  0.00     0.072 C 
ATOM     80  C   UNL A   1      34.454  24.039  23.510  1.00  0.00     0.014 C 
BRANCH  80  81
ATOM     81  C   UNL A   1      35.151  22.917  24.166  1.00  0.00    -0.023 A 
ATOM     82  C   UNL A   1      34.464  21.729  24.464  1.00  0.00     0.008 A 
ATOM     83  C   UNL A   1      36.539  22.948  24.352  1.00  0.00     0.047 A 
ATOM     84  C   UNL A   1      35.139  20.623  25.001  1.00  0.00     0.004 A 
ATOM     85  C   UNL A   1      37.201  21.841  24.880  1.00  0.00     0.123 A 
ATOM     86  C   UNL A   1      36.513  20.682  25.217  1.00  0.00     0.039 A 
ATOM     87  F   UNL A   1      38.528  21.892  25.057  1.00  0.00    -0.207 F 
ENDBRANCH  80  81
ENDBRANCH  77  79
ENDBRANCH  75  77
ENDBRANCH  69  71
ENDBRANCH  68  69
ENDBRANCH  67  68
ENDBRANCH   1  67
TORSDOF 17
ENDMDL
MODEL 2
REMARK VINA RESULT:     -10.7      2.844      8.303
REMARK SMILES O=C(OCCOC(=O)[C@@H]1CCCN(C(=O)/C=C/c2cccc(F)c2)C1)c1ccc(-c2c3nc(c(-c4ccc(S(=O)(=O)[O-])cc4)c4ccc([nH]4)c(-c4ccc(S(=O)(=O)[O-])cc4)c4nc(c(-c5ccc(S(=O)(=O)[O-])cc5)c5ccc2[nH]5)C=C4)C=C3)cc1
REMARK SMILES IDX 4 1 3 2 2 3 1 4 26 5 27 6 85 7 28 8 84 9 29 10 30 11 31 12
REMARK SMILES IDX 78 13 32 14 83 15 77 16 79 17 33 18 82 19 76 20 75 21 34 23
REMARK SMILES IDX 64 24 45 25 63 26 46 27 49 28 62 29 80 30 47 31 48 32 61 34
REMARK SMILES IDX 81 35 50 36 35 37 36 38 44 39 37 40 43 41 38 42 39 43 40 44
REMARK SMILES IDX 41 45 42 46 65 47 66 48 74 49 67 50 73 51 68 52 69 53 70 54
REMARK SMILES IDX 71 55 72 56 51 57 52 58 60 59 53 60 59 61 54 62 55 63 56 64
REMARK SMILES IDX 57 65 58 66 5 67 6 68 7 69 8 70 9 71 10 72 25 73 11 74 13 75
REMARK SMILES IDX 12 76 14 77 15 78 16 79 17 80 18 81 19 82 24 83 20 84 22 85
REMARK SMILES IDX 21 86 23 87
REMARK H PARENT 79 22 49 33
REMARK Flexibility Score: inf
ROOT
ATOM      1  C   UNL A   1      39.047  21.016  26.066  1.00  0.00     0.275 C 
ENDROOT
BRANCH   1   2
ATOM      2  O   UNL A   1      40.013  19.989  25.759  1.00  0.00    -0.458 OA
BRANCH   2   3
ATOM      3  C   UNL A   1      41.349  20.128  25.810  1.00  0.00     0.338 C 
ATOM      4  O   UNL A   1      42.102  19.232  25.448  1.00  0.00    -0.246 OA
BRANCH   3   5
ATOM      5  C   UNL A   1      41.937  21.322  26.428  1.00  0.00     0.060 A 
ATOM      6  C   UNL A   1      42.287  22.804  25.684  1.00  0.00     0.016 A 
ATOM      7  C   UNL A   1      42.266  21.174  28.123  1.00  0.00     0.016 A 
ATOM      8  C   UNL A   1      42.868  24.178  26.550  1.00  0.00     0.010 A 
ATOM      9  C   UNL A   1      42.897  22.707  29.175  1.00  0.00     0.010 A 
ATOM     10  C   UNL A   1      43.239  24.217  28.263  1.00  0.00    -0.014 A 
BRANCH  10  11
ATOM     11  C   UNL A   1      43.847  25.538  28.623  1.00  0.00     0.031 A 
ATOM     12  C   UNL A   1      45.280  25.859  28.151  1.00  0.00     0.074 A 
ATOM     13  C   UNL A   1      43.013  26.561  28.908  1.00  0.00     0.049 A 
ATOM     14  N   UNL A   1      45.903  27.014  28.078  1.00  0.00    -0.248 NA
ATOM     15  C   UNL A   1      46.112  24.753  27.648  1.00  0.00     0.031 C 
ATOM     16  C   UNL A   1      41.575  26.447  29.163  1.00  0.00     0.029 A 
ATOM     17  N   UNL A   1      43.238  27.919  28.941  1.00  0.00    -0.354 N 
ATOM     18  C   UNL A   1      47.159  26.752  27.514  1.00  0.00     0.074 A 
ATOM     19  C   UNL A   1      47.232  25.344  27.278  1.00  0.00     0.031 C 
ATOM     20  C   UNL A   1      41.044  27.673  29.288  1.00  0.00     0.029 A 
ATOM     21  C   UNL A   1      42.108  28.664  29.198  1.00  0.00     0.049 A 
ATOM     22  H   UNL A   1      44.124  28.321  28.794  1.00  0.00     0.167 HD
ATOM     23  C   UNL A   1      48.175  27.587  27.190  1.00  0.00     0.031 A 
ATOM     24  C   UNL A   1      41.939  29.990  29.383  1.00  0.00     0.031 A 
ATOM     25  C   UNL A   1      48.122  28.999  27.409  1.00  0.00     0.049 A 
ATOM     26  C   UNL A   1      43.124  30.894  29.187  1.00  0.00     0.074 A 
ATOM     27  C   UNL A   1      49.111  29.943  27.212  1.00  0.00     0.029 A 
ATOM     28  N   UNL A   1      46.999  29.668  27.865  1.00  0.00    -0.354 N 
ATOM     29  N   UNL A   1      44.328  30.586  28.764  1.00  0.00    -0.248 NA
ATOM     30  C   UNL A   1      42.929  32.318  29.479  1.00  0.00     0.031 C 
ATOM     31  C   UNL A   1      48.598  31.184  27.600  1.00  0.00     0.029 A 
ATOM     32  C   UNL A   1      47.273  31.015  27.975  1.00  0.00     0.049 A 
ATOM     33  H   UNL A   1      46.136  29.246  28.079  1.00  0.00     0.167 HD
ATOM     34  C   UNL A   1      45.033  31.783  28.730  1.00  0.00     0.074 A 
ATOM     35  C   UNL A   1      44.108  32.821  29.140  1.00  0.00     0.031 C 
ATOM     36  C   UNL A   1      46.328  32.011  28.399  1.00  0.00     0.031 A 
BRANCH  23  37
ATOM     37  C   UNL A   1      49.444  26.985  26.622  1.00  0.00    -0.014 A 
ATOM     38  C   UNL A   1      49.741  27.035  25.246  1.00  0.00     0.010 A 
ATOM     39  C   UNL A   1      50.370  26.373  27.489  1.00  0.00     0.010 A 
ATOM     40  C   UNL A   1      50.922  26.467  24.750  1.00  0.00     0.020 A 
ATOM     41  C   UNL A   1      51.564  25.830  27.002  1.00  0.00     0.020 A 
ATOM     42  C   UNL A   1      51.829  25.872  25.632  1.00  0.00     0.054 A 
BRANCH  42  43
ATOM     43  S   UNL A   1      53.375  25.185  24.968  1.00  0.00     0.124 S 
ATOM     44  O   UNL A   1      53.290  25.557  23.558  1.00  0.00    -0.237 OA
ATOM     45  O   UNL A   1      54.393  25.890  25.742  1.00  0.00    -0.237 OA
ATOM     46  O   UNL A   1      53.266  23.754  25.243  1.00  0.00    -0.744 OA
ENDBRANCH  42  43
ENDBRANCH  23  37
BRANCH  24  47
ATOM     47  C   UNL A   1      40.632  30.508  29.893  1.00  0.00    -0.014 A 
ATOM     48  C   UNL A   1      40.447  30.944  31.217  1.00  0.00     0.010 A 
ATOM     49  C   UNL A   1      39.532  30.551  29.011  1.00  0.00     0.010 A 
ATOM     50  C   UNL A   1      39.192  31.401  31.645  1.00  0.00     0.020 A 
ATOM     51  C   UNL A   1      38.292  31.040  29.421  1.00  0.00     0.020 A 
ATOM     52  C   UNL A   1      38.123  31.450  30.742  1.00  0.00     0.054 A 
BRANCH  52  53
ATOM     53  S   UNL A   1      36.515  32.080  31.299  1.00  0.00     0.124 S 
ATOM     54  O   UNL A   1      36.228  31.215  32.439  1.00  0.00    -0.237 OA
ATOM     55  O   UNL A   1      36.817  33.473  31.618  1.00  0.00    -0.237 OA
ATOM     56  O   UNL A   1      35.652  31.889  30.135  1.00  0.00    -0.744 OA
ENDBRANCH  52  53
ENDBRANCH  24  47
BRANCH  36  57
ATOM     57  C   UNL A   1      46.800  33.433  28.452  1.00  0.00    -0.014 A 
ATOM     58  C   UNL A   1      47.380  33.957  29.619  1.00  0.00     0.010 A 
ATOM     59  C   UNL A   1      46.678  34.243  27.309  1.00  0.00     0.010 A 
ATOM     60  C   UNL A   1      47.775  35.292  29.662  1.00  0.00     0.020 A 
ATOM     61  C   UNL A   1      47.106  35.569  27.339  1.00  0.00     0.020 A 
ATOM     62  C   UNL A   1      47.628  36.091  28.524  1.00  0.00     0.054 A 
BRANCH  62  63
ATOM     63  S   UNL A   1      48.145  37.824  28.609  1.00  0.00     0.124 S 
ATOM     64  O   UNL A   1      47.356  38.426  27.538  1.00  0.00    -0.237 OA
ATOM     65  O   UNL A   1      47.761  38.206  29.965  1.00  0.00    -0.237 OA
ATOM     66  O   UNL A   1      49.585  37.768  28.366  1.00  0.00    -0.744 OA
ENDBRANCH  62  63
ENDBRANCH  36  57
ENDBRANCH  10  11
ENDBRANCH   3   5
ENDBRANCH   2   3
ENDBRANCH   1   2
BRANCH   1  67
ATOM     67  C   UNL A   1      37.877  21.082  25.060  1.00  0.00     0.274 C 
BRANCH  67  68
ATOM     68  O   UNL A   1      37.643  22.437  24.633  1.00  0.00    -0.462 OA
BRANCH  68  69
ATOM     69  C   UNL A   1      36.577  22.819  23.872  1.00  0.00     0.310 C 
ATOM     70  O   UNL A   1      36.598  22.983  22.666  1.00  0.00    -0.252 OA
BRANCH  69  71
ATOM     71  C   UNL A   1      35.341  22.939  24.804  1.00  0.00     0.119 C 
ATOM     72  C   UNL A   1      34.196  21.427  24.287  1.00  0.00     0.019 C 
ATOM     73  C   UNL A   1      34.548  24.672  24.779  1.00  0.00     0.135 C 
ATOM     74  C   UNL A   1      32.231  22.063  23.512  1.00  0.00     0.022 C 
ATOM     75  N   UNL A   1      33.026  24.993  23.897  1.00  0.00    -0.338 N 
ATOM     76  C   UNL A   1      31.763  23.906  23.859  1.00  0.00     0.120 C 
BRANCH  75  77
ATOM     77  C   UNL A   1      33.085  25.957  22.858  1.00  0.00     0.246 C 
ATOM     78  O   UNL A   1      33.858  25.863  21.907  1.00  0.00    -0.270 OA
BRANCH  77  79
ATOM     79  C   UNL A   1      32.151  27.147  22.912  1.00  0.00     0.072 C 
ATOM     80  C   UNL A   1      30.947  27.230  22.312  1.00  0.00     0.014 C 
BRANCH  80  81
ATOM     81  C   UNL A   1      29.934  28.282  22.527  1.00  0.00    -0.023 A 
ATOM     82  C   UNL A   1      30.152  29.586  22.053  1.00  0.00     0.008 A 
ATOM     83  C   UNL A   1      28.676  27.965  23.055  1.00  0.00     0.047 A 
ATOM     84  C   UNL A   1      29.157  30.568  22.169  1.00  0.00     0.004 A 
ATOM     85  C   UNL A   1      27.692  28.947  23.160  1.00  0.00     0.123 A 
ATOM     86  C   UNL A   1      27.924  30.248  22.733  1.00  0.00     0.039 A 
ATOM     87  F   UNL A   1      26.498  28.627  23.675  1.00  0.00    -0.207 F 
ENDBRANCH  80  81
ENDBRANCH  77  79
ENDBRANCH  75  77
ENDBRANCH  69  71
ENDBRANCH  68  69
ENDBRANCH  67  68
ENDBRANCH   1  67
TORSDOF 17
ENDMDL
MODEL 3
REMARK VINA RESULT:     -10.4      6.704     14.493
REMARK SMILES O=C(OCCOC(=O)[C@@H]1CCCN(C(=O)/C=C/c2cccc(F)c2)C1)c1ccc(-c2c3nc(c(-c4ccc(S(=O)(=O)[O-])cc4)c4ccc([nH]4)c(-c4ccc(S(=O)(=O)[O-])cc4)c4nc(c(-c5ccc(S(=O)(=O)[O-])cc5)c5ccc2[nH]5)C=C4)C=C3)cc1
REMARK SMILES IDX 4 1 3 2 2 3 1 4 26 5 27 6 85 7 28 8 84 9 29 10 30 11 31 12
REMARK SMILES IDX 78 13 32 14 83 15 77 16 79 17 33 18 82 19 76 20 75 21 34 23
REMARK SMILES IDX 64 24 45 25 63 26 46 27 49 28 62 29 80 30 47 31 48 32 61 34
REMARK SMILES IDX 81 35 50 36 35 37 36 38 44 39 37 40 43 41 38 42 39 43 40 44
REMARK SMILES IDX 41 45 42 46 65 47 66 48 74 49 67 50 73 51 68 52 69 53 70 54
REMARK SMILES IDX 71 55 72 56 51 57 52 58 60 59 53 60 59 61 54 62 55 63 56 64
REMARK SMILES IDX 57 65 58 66 5 67 6 68 7 69 8 70 9 71 10 72 25 73 11 74 13 75
REMARK SMILES IDX 12 76 14 77 15 78 16 79 17 80 18 81 19 82 24 83 20 84 22 85
REMARK SMILES IDX 21 86 23 87
REMARK H PARENT 79 22 49 33
REMARK Flexibility Score: inf
ROOT
ATOM      1  C   UNL A   1      47.238  39.851  28.937  1.00  0.00     0.275 C 
ENDROOT
BRANCH   1   2
ATOM      2  O   UNL A   1      47.481  38.632  29.671  1.00  0.00    -0.458 OA
BRANCH   2   3
ATOM      3  C   UNL A   1      48.367  37.678  29.334  1.00  0.00     0.338 C 
ATOM      4  O   UNL A   1      49.531  37.949  29.066  1.00  0.00    -0.246 OA
BRANCH   3   5
ATOM      5  C   UNL A   1      47.917  36.293  29.159  1.00  0.00     0.060 A 
ATOM      6  C   UNL A   1      47.847  35.072  30.332  1.00  0.00     0.016 A 
ATOM      7  C   UNL A   1      47.367  35.906  27.560  1.00  0.00     0.016 A 
ATOM      8  C   UNL A   1      47.182  33.509  30.027  1.00  0.00     0.010 A 
ATOM      9  C   UNL A   1      46.570  34.158  27.153  1.00  0.00     0.010 A 
ATOM     10  C   UNL A   1      46.567  32.950  28.484  1.00  0.00    -0.014 A 
BRANCH  10  11
ATOM     11  C   UNL A   1      46.202  31.501  28.575  1.00  0.00     0.031 A 
ATOM     12  C   UNL A   1      44.737  31.112  28.859  1.00  0.00     0.074 A 
ATOM     13  C   UNL A   1      47.002  30.607  27.956  1.00  0.00     0.049 A 
ATOM     14  N   UNL A   1      44.125  29.960  28.695  1.00  0.00    -0.248 NA
ATOM     15  C   UNL A   1      43.819  32.157  29.344  1.00  0.00     0.031 C 
ATOM     16  C   UNL A   1      48.341  30.880  27.427  1.00  0.00     0.029 A 
ATOM     17  N   UNL A   1      46.769  29.302  27.582  1.00  0.00    -0.354 N 
ATOM     18  C   UNL A   1      42.782  30.172  29.038  1.00  0.00     0.074 A 
ATOM     19  C   UNL A   1      42.657  31.539  29.436  1.00  0.00     0.031 C 
ATOM     20  C   UNL A   1      48.791  29.800  26.770  1.00  0.00     0.029 A 
ATOM     21  C   UNL A   1      47.813  28.727  26.890  1.00  0.00     0.049 A 
ATOM     22  H   UNL A   1      45.934  28.824  27.790  1.00  0.00     0.167 HD
ATOM     23  C   UNL A   1      41.720  29.333  29.016  1.00  0.00     0.031 A 
ATOM     24  C   UNL A   1      47.991  27.470  26.434  1.00  0.00     0.031 A 
ATOM     25  C   UNL A   1      41.818  27.964  28.614  1.00  0.00     0.049 A 
ATOM     26  C   UNL A   1      46.858  26.492  26.572  1.00  0.00     0.074 A 
ATOM     27  C   UNL A   1      40.844  26.984  28.631  1.00  0.00     0.029 A 
ATOM     28  N   UNL A   1      42.971  27.389  28.105  1.00  0.00    -0.354 N 
ATOM     29  N   UNL A   1      45.639  26.708  27.011  1.00  0.00    -0.248 NA
ATOM     30  C   UNL A   1      47.115  25.113  26.146  1.00  0.00     0.031 C 
ATOM     31  C   UNL A   1      41.426  25.797  28.178  1.00  0.00     0.029 A 
ATOM     32  C   UNL A   1      42.740  26.060  27.819  1.00  0.00     0.049 A 
ATOM     33  H   UNL A   1      43.825  27.858  27.968  1.00  0.00     0.167 HD
ATOM     34  C   UNL A   1      44.980  25.490  26.904  1.00  0.00     0.074 A 
ATOM     35  C   UNL A   1      45.925  24.555  26.325  1.00  0.00     0.031 C 
ATOM     36  C   UNL A   1      43.712  25.163  27.257  1.00  0.00     0.031 A 
BRANCH  23  37
ATOM     37  C   UNL A   1      40.380  29.857  29.492  1.00  0.00    -0.014 A 
ATOM     38  C   UNL A   1      39.340  30.166  28.595  1.00  0.00     0.010 A 
ATOM     39  C   UNL A   1      40.153  30.025  30.871  1.00  0.00     0.010 A 
ATOM     40  C   UNL A   1      38.113  30.652  29.065  1.00  0.00     0.020 A 
ATOM     41  C   UNL A   1      38.919  30.483  31.348  1.00  0.00     0.020 A 
ATOM     42  C   UNL A   1      37.909  30.804  30.440  1.00  0.00     0.054 A 
BRANCH  42  43
ATOM     43  S   UNL A   1      36.292  31.391  31.026  1.00  0.00     0.124 S 
ATOM     44  O   UNL A   1      36.649  32.633  31.706  1.00  0.00    -0.237 OA
ATOM     45  O   UNL A   1      35.542  31.550  29.783  1.00  0.00    -0.237 OA
ATOM     46  O   UNL A   1      35.826  30.315  31.898  1.00  0.00    -0.744 OA
ENDBRANCH  42  43
ENDBRANCH  23  37
BRANCH  24  47
ATOM     47  C   UNL A   1      49.334  27.049  25.926  1.00  0.00    -0.014 A 
ATOM     48  C   UNL A   1      50.361  26.590  26.769  1.00  0.00     0.010 A 
ATOM     49  C   UNL A   1      49.586  27.126  24.541  1.00  0.00     0.010 A 
ATOM     50  C   UNL A   1      51.608  26.228  26.238  1.00  0.00     0.020 A 
ATOM     51  C   UNL A   1      50.810  26.731  24.002  1.00  0.00     0.020 A 
ATOM     52  C   UNL A   1      51.823  26.297  24.856  1.00  0.00     0.054 A 
BRANCH  52  53
ATOM     53  S   UNL A   1      53.427  25.789  24.178  1.00  0.00     0.124 S 
ATOM     54  O   UNL A   1      53.218  25.958  22.744  1.00  0.00    -0.237 OA
ATOM     55  O   UNL A   1      54.346  26.737  24.802  1.00  0.00    -0.237 OA
ATOM     56  O   UNL A   1      53.568  24.407  24.632  1.00  0.00    -0.744 OA
ENDBRANCH  52  53
ENDBRANCH  24  47
BRANCH  36  57
ATOM     57  C   UNL A   1      43.283  23.749  27.006  1.00  0.00    -0.014 A 
ATOM     58  C   UNL A   1      43.020  22.874  28.073  1.00  0.00     0.010 A 
ATOM     59  C   UNL A   1      43.120  23.302  25.682  1.00  0.00     0.010 A 
ATOM     60  C   UNL A   1      42.662  21.552  27.820  1.00  0.00     0.020 A 
ATOM     61  C   UNL A   1      42.727  21.990  25.427  1.00  0.00     0.020 A 
ATOM     62  C   UNL A   1      42.526  21.117  26.498  1.00  0.00     0.054 A 
BRANCH  62  63
ATOM     63  S   UNL A   1      42.064  19.393  26.197  1.00  0.00     0.124 S 
ATOM     64  O   UNL A   1      42.893  19.057  25.042  1.00  0.00    -0.237 OA
ATOM     65  O   UNL A   1      42.435  18.739  27.449  1.00  0.00    -0.237 OA
ATOM     66  O   UNL A   1      40.628  19.460  25.935  1.00  0.00    -0.744 OA
ENDBRANCH  62  63
ENDBRANCH  36  57
ENDBRANCH  10  11
ENDBRANCH   3   5
ENDBRANCH   2   3
ENDBRANCH   1   2
BRANCH   1  67
ATOM     67  C   UNL A   1      46.494  39.628  27.603  1.00  0.00     0.274 C 
BRANCH  67  68
ATOM     68  O   UNL A   1      45.991  40.872  27.081  1.00  0.00    -0.462 OA
BRANCH  68  69
ATOM     69  C   UNL A   1      45.536  41.031  25.804  1.00  0.00     0.310 C 
ATOM     70  O   UNL A   1      45.858  40.343  24.853  1.00  0.00    -0.252 OA
BRANCH  69  71
ATOM     71  C   UNL A   1      44.500  42.187  25.805  1.00  0.00     0.119 C 
ATOM     72  C   UNL A   1      42.761  41.280  25.943  1.00  0.00     0.019 C 
ATOM     73  C   UNL A   1      44.728  43.401  24.353  1.00  0.00     0.135 C 
ATOM     74  C   UNL A   1      41.457  41.654  24.203  1.00  0.00     0.022 C 
ATOM     75  N   UNL A   1      43.643  43.377  22.933  1.00  0.00    -0.338 N 
ATOM     76  C   UNL A   1      42.002  43.114  23.061  1.00  0.00     0.120 C 
BRANCH  75  77
ATOM     77  C   UNL A   1      44.246  43.119  21.676  1.00  0.00     0.246 C 
ATOM     78  O   UNL A   1      44.804  42.056  21.413  1.00  0.00    -0.270 OA
BRANCH  77  79
ATOM     79  C   UNL A   1      44.193  44.188  20.606  1.00  0.00     0.072 C 
ATOM     80  C   UNL A   1      43.747  44.020  19.345  1.00  0.00     0.014 C 
BRANCH  80  81
ATOM     81  C   UNL A   1      43.485  45.088  18.362  1.00  0.00    -0.023 A 
ATOM     82  C   UNL A   1      42.171  45.509  18.102  1.00  0.00     0.008 A 
ATOM     83  C   UNL A   1      44.542  45.812  17.794  1.00  0.00     0.047 A 
ATOM     84  C   UNL A   1      41.918  46.587  17.240  1.00  0.00     0.004 A 
ATOM     85  C   UNL A   1      44.280  46.885  16.944  1.00  0.00     0.123 A 
ATOM     86  C   UNL A   1      42.978  47.272  16.652  1.00  0.00     0.039 A 
ATOM     87  F   UNL A   1      45.303  47.560  16.405  1.00  0.00    -0.207 F 
ENDBRANCH  80  81
ENDBRANCH  77  79
ENDBRANCH  75  77
ENDBRANCH  69  71
ENDBRANCH  68  69
ENDBRANCH  67  68
ENDBRANCH   1  67
TORSDOF 17
ENDMDL
