MODEL 1
REMARK VINA RESULT:     -10.8      0.000      0.000
REMARK SMILES N#C/C(=C\c1ccc(-c2cc(C(F)(F)F)ccc2Cl)o1)C(=O)OCCOC(=O)c1ccc(-c2c3nc(c(-c4ccc(S(=O)(=O)[O-])cc4)c4ccc([nH]4)c(-c4ccc(S(=O)(=O)[O-])cc4)c4nc(c(-c5ccc(S(=O)(=O)[O-])cc5)c5ccc2[nH]5)C=C4)C=C3)cc1
REMARK SMILES IDX 24 1 23 2 21 3 22 4 3 5 4 6 2 7 1 8 5 9 6 10 20 11 7 12 8 13
REMARK SMILES IDX 9 14 10 15 18 16 11 17 17 18 19 19 16 20 12 21 13 22 14 23
REMARK SMILES IDX 15 24 25 25 26 26 27 27 28 28 29 29 30 30 88 31 31 32 87 33
REMARK SMILES IDX 32 34 33 35 34 36 81 37 35 38 86 39 80 40 82 41 36 42 85 43
REMARK SMILES IDX 79 44 78 45 37 47 67 48 48 49 66 50 49 51 52 52 65 53 83 54
REMARK SMILES IDX 50 55 51 56 64 58 84 59 53 60 38 61 39 62 47 63 40 64 46 65
REMARK SMILES IDX 41 66 42 67 43 68 44 69 45 70 68 71 69 72 77 73 70 74 76 75
REMARK SMILES IDX 71 76 72 77 73 78 74 79 75 80 54 81 55 82 63 83 56 84 62 85
REMARK SMILES IDX 57 86 58 87 59 88 60 89 61 90
REMARK H PARENT 82 46 52 57
REMARK Flexibility Score: inf
ROOT
ATOM      1  C   UNL A   1      33.658  30.231  27.444  1.00  0.00     0.275 C 
ENDROOT
BRANCH   1   2
ATOM      2  O   UNL A   1      33.444  29.121  26.550  1.00  0.00    -0.458 OA
BRANCH   2   3
ATOM      3  C   UNL A   1      32.503  28.225  26.938  1.00  0.00     0.349 C 
ATOM      4  O   UNL A   1      31.758  28.342  27.900  1.00  0.00    -0.245 OA
BRANCH   3   5
ATOM      5  C   UNL A   1      32.470  27.079  26.021  1.00  0.00     0.141 C 
ATOM      6  C   UNL A   1      33.523  26.920  25.179  1.00  0.00     0.074 C 
BRANCH   5   7
ATOM      7  C   UNL A   1      31.590  25.868  26.281  1.00  0.00     0.107 C 
ATOM      8  N   UNL A   1      30.859  24.863  26.497  1.00  0.00    -0.192 NA
ENDBRANCH   5   7
BRANCH   6   9
ATOM      9  C   UNL A   1      33.753  25.708  24.442  1.00  0.00     0.129 A 
ATOM     10  C   UNL A   1      33.557  25.437  23.091  1.00  0.00     0.051 A 
ATOM     11  O   UNL A   1      34.214  24.535  25.028  1.00  0.00    -0.457 OA
ATOM     12  C   UNL A   1      33.828  24.072  22.867  1.00  0.00     0.051 A 
ATOM     13  C   UNL A   1      34.254  23.559  24.069  1.00  0.00     0.136 A 
BRANCH  13  14
ATOM     14  C   UNL A   1      34.723  22.229  24.453  1.00  0.00     0.036 A 
ATOM     15  C   UNL A   1      33.854  21.123  24.381  1.00  0.00     0.026 A 
ATOM     16  C   UNL A   1      36.069  21.994  24.793  1.00  0.00     0.052 A 
ATOM     17  C   UNL A   1      34.315  19.809  24.613  1.00  0.00     0.056 A 
ATOM     18  C   UNL A   1      36.533  20.696  25.030  1.00  0.00     0.022 A 
ATOM     19  Cl  UNL A   1      37.229  23.271  24.958  1.00  0.00    -0.084 Cl
ATOM     20  C   UNL A   1      35.665  19.610  24.934  1.00  0.00     0.014 A 
BRANCH  17  21
ATOM     21  C   UNL A   1      33.378  18.628  24.498  1.00  0.00     0.416 C 
ATOM     22  F   UNL A   1      33.674  17.827  23.439  1.00  0.00    -0.166 F 
ATOM     23  F   UNL A   1      33.398  17.830  25.599  1.00  0.00    -0.166 F 
ATOM     24  F   UNL A   1      32.073  18.992  24.329  1.00  0.00    -0.166 F 
ENDBRANCH  17  21
ENDBRANCH  13  14
ENDBRANCH   6   9
ENDBRANCH   3   5
ENDBRANCH   2   3
ENDBRANCH   1   2
BRANCH   1  25
ATOM     25  C   UNL A   1      35.155  30.491  27.616  1.00  0.00     0.275 C 
BRANCH  25  26
ATOM     26  O   UNL A   1      35.859  29.284  27.972  1.00  0.00    -0.458 OA
BRANCH  26  27
ATOM     27  C   UNL A   1      36.775  29.425  28.958  1.00  0.00     0.338 C 
ATOM     28  O   UNL A   1      36.563  29.754  30.114  1.00  0.00    -0.246 OA
BRANCH  27  29
ATOM     29  C   UNL A   1      38.097  28.963  28.514  1.00  0.00     0.060 A 
ATOM     30  C   UNL A   1      38.883  28.290  29.438  1.00  0.00     0.016 A 
ATOM     31  C   UNL A   1      38.658  29.387  27.315  1.00  0.00     0.016 A 
ATOM     32  C   UNL A   1      40.253  28.196  29.259  1.00  0.00     0.010 A 
ATOM     33  C   UNL A   1      40.017  29.136  27.064  1.00  0.00     0.010 A 
ATOM     34  C   UNL A   1      40.847  28.582  28.058  1.00  0.00    -0.014 A 
BRANCH  34  35
ATOM     35  C   UNL A   1      42.321  28.424  27.886  1.00  0.00     0.031 A 
ATOM     36  C   UNL A   1      43.256  29.542  28.272  1.00  0.00     0.074 A 
ATOM     37  C   UNL A   1      42.836  27.262  27.427  1.00  0.00     0.049 A 
ATOM     38  N   UNL A   1      44.531  29.680  28.011  1.00  0.00    -0.248 NA
ATOM     39  C   UNL A   1      42.679  30.661  29.033  1.00  0.00     0.031 C 
ATOM     40  C   UNL A   1      42.066  26.057  27.095  1.00  0.00     0.029 A 
ATOM     41  N   UNL A   1      44.135  26.891  27.176  1.00  0.00    -0.354 N 
ATOM     42  C   UNL A   1      44.891  30.926  28.513  1.00  0.00     0.074 A 
ATOM     43  C   UNL A   1      43.697  31.508  29.087  1.00  0.00     0.031 C 
ATOM     44  C   UNL A   1      42.906  25.072  26.748  1.00  0.00     0.029 A 
ATOM     45  C   UNL A   1      44.257  25.608  26.694  1.00  0.00     0.049 A 
ATOM     46  H   UNL A   1      44.905  27.486  27.326  1.00  0.00     0.167 HD
ATOM     47  C   UNL A   1      46.104  31.530  28.488  1.00  0.00     0.031 A 
ATOM     48  C   UNL A   1      45.318  24.945  26.196  1.00  0.00     0.031 A 
ATOM     49  C   UNL A   1      47.293  30.918  27.950  1.00  0.00     0.049 A 
ATOM     50  C   UNL A   1      46.636  25.655  26.111  1.00  0.00     0.074 A 
ATOM     51  C   UNL A   1      48.572  31.443  27.869  1.00  0.00     0.029 A 
ATOM     52  N   UNL A   1      47.354  29.638  27.418  1.00  0.00    -0.354 N 
ATOM     53  N   UNL A   1      46.941  26.868  26.506  1.00  0.00    -0.248 NA
ATOM     54  C   UNL A   1      47.746  24.917  25.497  1.00  0.00     0.031 C 
ATOM     55  C   UNL A   1      49.391  30.503  27.235  1.00  0.00     0.029 A 
ATOM     56  C   UNL A   1      48.641  29.365  26.984  1.00  0.00     0.049 A 
ATOM     57  H   UNL A   1      46.594  29.015  27.356  1.00  0.00     0.167 HD
ATOM     58  C   UNL A   1      48.285  27.035  26.200  1.00  0.00     0.074 A 
ATOM     59  C   UNL A   1      48.737  25.791  25.609  1.00  0.00     0.031 C 
ATOM     60  C   UNL A   1      49.072  28.123  26.391  1.00  0.00     0.031 A 
BRANCH  47  61
ATOM     61  C   UNL A   1      46.191  32.949  28.997  1.00  0.00    -0.014 A 
ATOM     62  C   UNL A   1      46.393  33.242  30.357  1.00  0.00     0.010 A 
ATOM     63  C   UNL A   1      46.080  34.013  28.082  1.00  0.00     0.010 A 
ATOM     64  C   UNL A   1      46.429  34.570  30.798  1.00  0.00     0.020 A 
ATOM     65  C   UNL A   1      46.148  35.340  28.513  1.00  0.00     0.020 A 
ATOM     66  C   UNL A   1      46.299  35.611  29.873  1.00  0.00     0.054 A 
BRANCH  66  67
ATOM     67  S   UNL A   1      46.344  37.323  30.472  1.00  0.00     0.124 S 
ATOM     68  O   UNL A   1      44.936  37.574  30.771  1.00  0.00    -0.237 OA
ATOM     69  O   UNL A   1      47.226  37.235  31.633  1.00  0.00    -0.237 OA
ATOM     70  O   UNL A   1      46.882  38.074  29.340  1.00  0.00    -0.744 OA
ENDBRANCH  66  67
ENDBRANCH  47  61
BRANCH  48  71
ATOM     71  C   UNL A   1      45.141  23.562  25.665  1.00  0.00    -0.014 A 
ATOM     72  C   UNL A   1      44.796  23.342  24.322  1.00  0.00     0.010 A 
ATOM     73  C   UNL A   1      45.366  22.450  26.502  1.00  0.00     0.010 A 
ATOM     74  C   UNL A   1      44.679  22.039  23.826  1.00  0.00     0.020 A 
ATOM     75  C   UNL A   1      45.288  21.149  26.002  1.00  0.00     0.020 A 
ATOM     76  C   UNL A   1      44.935  20.951  24.667  1.00  0.00     0.054 A 
BRANCH  76  77
ATOM     77  S   UNL A   1      44.851  19.273  23.984  1.00  0.00     0.124 S 
ATOM     78  O   UNL A   1      43.936  18.613  24.908  1.00  0.00    -0.237 OA
ATOM     79  O   UNL A   1      44.333  19.505  22.637  1.00  0.00    -0.237 OA
ATOM     80  O   UNL A   1      46.237  18.811  24.038  1.00  0.00    -0.744 OA
ENDBRANCH  76  77
ENDBRANCH  48  71
BRANCH  60  81
ATOM     81  C   UNL A   1      50.518  28.000  25.988  1.00  0.00    -0.014 A 
ATOM     82  C   UNL A   1      51.505  27.618  26.913  1.00  0.00     0.010 A 
ATOM     83  C   UNL A   1      50.882  28.233  24.650  1.00  0.00     0.010 A 
ATOM     84  C   UNL A   1      52.838  27.501  26.512  1.00  0.00     0.020 A 
ATOM     85  C   UNL A   1      52.209  28.088  24.239  1.00  0.00     0.020 A 
ATOM     86  C   UNL A   1      53.181  27.735  25.176  1.00  0.00     0.054 A 
BRANCH  86  87
ATOM     87  S   UNL A   1      54.912  27.536  24.672  1.00  0.00     0.124 S 
ATOM     88  O   UNL A   1      55.515  28.773  25.157  1.00  0.00    -0.237 OA
ATOM     89  O   UNL A   1      55.311  26.321  25.381  1.00  0.00    -0.237 OA
ATOM     90  O   UNL A   1      54.837  27.406  23.220  1.00  0.00    -0.744 OA
ENDBRANCH  86  87
ENDBRANCH  60  81
ENDBRANCH  34  35
ENDBRANCH  27  29
ENDBRANCH  26  27
ENDBRANCH  25  26
ENDBRANCH   1  25
TORSDOF 18
ENDMDL
MODEL 2
REMARK VINA RESULT:     -10.8      8.179     13.187
REMARK SMILES N#C/C(=C\c1ccc(-c2cc(C(F)(F)F)ccc2Cl)o1)C(=O)OCCOC(=O)c1ccc(-c2c3nc(c(-c4ccc(S(=O)(=O)[O-])cc4)c4ccc([nH]4)c(-c4ccc(S(=O)(=O)[O-])cc4)c4nc(c(-c5ccc(S(=O)(=O)[O-])cc5)c5ccc2[nH]5)C=C4)C=C3)cc1
REMARK SMILES IDX 24 1 23 2 21 3 22 4 3 5 4 6 2 7 1 8 5 9 6 10 20 11 7 12 8 13
REMARK SMILES IDX 9 14 10 15 18 16 11 17 17 18 19 19 16 20 12 21 13 22 14 23
REMARK SMILES IDX 15 24 25 25 26 26 27 27 28 28 29 29 30 30 88 31 31 32 87 33
REMARK SMILES IDX 32 34 33 35 34 36 81 37 35 38 86 39 80 40 82 41 36 42 85 43
REMARK SMILES IDX 79 44 78 45 37 47 67 48 48 49 66 50 49 51 52 52 65 53 83 54
REMARK SMILES IDX 50 55 51 56 64 58 84 59 53 60 38 61 39 62 47 63 40 64 46 65
REMARK SMILES IDX 41 66 42 67 43 68 44 69 45 70 68 71 69 72 77 73 70 74 76 75
REMARK SMILES IDX 71 76 72 77 73 78 74 79 75 80 54 81 55 82 63 83 56 84 62 85
REMARK SMILES IDX 57 86 58 87 59 88 60 89 61 90
REMARK H PARENT 82 46 52 57
REMARK Flexibility Score: inf
ROOT
ATOM      1  C   UNL A   1      33.892  34.409  28.505  1.00  0.00     0.275 C 
ENDROOT
BRANCH   1   2
ATOM      2  O   UNL A   1      33.241  34.444  29.790  1.00  0.00    -0.458 OA
BRANCH   2   3
ATOM      3  C   UNL A   1      33.338  35.615  30.467  1.00  0.00     0.349 C 
ATOM      4  O   UNL A   1      32.934  36.701  30.079  1.00  0.00    -0.245 OA
BRANCH   3   5
ATOM      5  C   UNL A   1      33.980  35.407  31.771  1.00  0.00     0.141 C 
ATOM      6  C   UNL A   1      34.928  34.439  31.855  1.00  0.00     0.074 C 
BRANCH   5   7
ATOM      7  C   UNL A   1      33.972  36.477  32.849  1.00  0.00     0.107 C 
ATOM      8  N   UNL A   1      33.965  37.366  33.744  1.00  0.00    -0.192 NA
ENDBRANCH   5   7
BRANCH   6   9
ATOM      9  C   UNL A   1      35.824  34.322  32.973  1.00  0.00     0.129 A 
ATOM     10  C   UNL A   1      35.607  33.766  34.231  1.00  0.00     0.051 A 
ATOM     11  O   UNL A   1      37.124  34.811  32.964  1.00  0.00    -0.457 OA
ATOM     12  C   UNL A   1      36.756  33.986  35.018  1.00  0.00     0.051 A 
ATOM     13  C   UNL A   1      37.674  34.602  34.200  1.00  0.00     0.136 A 
BRANCH  13  14
ATOM     14  C   UNL A   1      39.054  35.028  34.426  1.00  0.00     0.036 A 
ATOM     15  C   UNL A   1      39.436  35.558  35.674  1.00  0.00     0.026 A 
ATOM     16  C   UNL A   1      40.054  34.821  33.457  1.00  0.00     0.052 A 
ATOM     17  C   UNL A   1      40.786  35.849  35.966  1.00  0.00     0.056 A 
ATOM     18  C   UNL A   1      41.394  35.112  33.737  1.00  0.00     0.022 A 
ATOM     19  Cl  UNL A   1      39.710  34.217  31.870  1.00  0.00    -0.084 Cl
ATOM     20  C   UNL A   1      41.759  35.615  34.984  1.00  0.00     0.014 A 
BRANCH  17  21
ATOM     21  C   UNL A   1      41.187  36.384  37.322  1.00  0.00     0.416 C 
ATOM     22  F   UNL A   1      42.340  37.106  37.279  1.00  0.00    -0.166 F 
ATOM     23  F   UNL A   1      40.245  37.201  37.866  1.00  0.00    -0.166 F 
ATOM     24  F   UNL A   1      41.403  35.403  38.245  1.00  0.00    -0.166 F 
ENDBRANCH  17  21
ENDBRANCH  13  14
ENDBRANCH   6   9
ENDBRANCH   3   5
ENDBRANCH   2   3
ENDBRANCH   1   2
BRANCH   1  25
ATOM     25  C   UNL A   1      33.360  33.240  27.673  1.00  0.00     0.275 C 
BRANCH  25  26
ATOM     26  O   UNL A   1      33.678  31.974  28.286  1.00  0.00    -0.458 OA
BRANCH  26  27
ATOM     27  C   UNL A   1      34.207  31.051  27.450  1.00  0.00     0.338 C 
ATOM     28  O   UNL A   1      33.741  30.671  26.388  1.00  0.00    -0.246 OA
BRANCH  27  29
ATOM     29  C   UNL A   1      35.549  30.650  27.896  1.00  0.00     0.060 A 
ATOM     30  C   UNL A   1      35.694  29.373  28.418  1.00  0.00     0.016 A 
ATOM     31  C   UNL A   1      36.582  31.571  28.034  1.00  0.00     0.016 A 
ATOM     32  C   UNL A   1      36.775  29.064  29.228  1.00  0.00     0.010 A 
ATOM     33  C   UNL A   1      37.753  31.194  28.711  1.00  0.00     0.010 A 
ATOM     34  C   UNL A   1      37.844  29.949  29.364  1.00  0.00    -0.014 A 
BRANCH  34  35
ATOM     35  C   UNL A   1      39.012  29.562  30.209  1.00  0.00     0.031 A 
ATOM     36  C   UNL A   1      40.084  28.659  29.657  1.00  0.00     0.074 A 
ATOM     37  C   UNL A   1      39.144  30.056  31.461  1.00  0.00     0.049 A 
ATOM     38  N   UNL A   1      41.055  28.048  30.288  1.00  0.00    -0.248 NA
ATOM     39  C   UNL A   1      40.051  28.389  28.211  1.00  0.00     0.031 C 
ATOM     40  C   UNL A   1      38.234  31.012  32.104  1.00  0.00     0.029 A 
ATOM     41  N   UNL A   1      40.106  29.837  32.416  1.00  0.00    -0.354 N 
ATOM     42  C   UNL A   1      41.702  27.271  29.332  1.00  0.00     0.074 A 
ATOM     43  C   UNL A   1      41.008  27.481  28.080  1.00  0.00     0.031 C 
ATOM     44  C   UNL A   1      38.713  31.341  33.311  1.00  0.00     0.029 A 
ATOM     45  C   UNL A   1      39.881  30.519  33.590  1.00  0.00     0.049 A 
ATOM     46  H   UNL A   1      40.883  29.248  32.275  1.00  0.00     0.167 HD
ATOM     47  C   UNL A   1      42.770  26.452  29.490  1.00  0.00     0.031 A 
ATOM     48  C   UNL A   1      40.495  30.452  34.787  1.00  0.00     0.031 A 
ATOM     49  C   UNL A   1      43.477  26.287  30.735  1.00  0.00     0.049 A 
ATOM     50  C   UNL A   1      41.630  29.489  34.961  1.00  0.00     0.074 A 
ATOM     51  C   UNL A   1      44.568  25.479  31.006  1.00  0.00     0.029 A 
ATOM     52  N   UNL A   1      43.174  26.956  31.912  1.00  0.00    -0.354 N 
ATOM     53  N   UNL A   1      42.173  28.691  34.072  1.00  0.00    -0.248 NA
ATOM     54  C   UNL A   1      42.222  29.399  36.300  1.00  0.00     0.031 C 
ATOM     55  C   UNL A   1      44.887  25.616  32.362  1.00  0.00     0.029 A 
ATOM     56  C   UNL A   1      44.040  26.561  32.919  1.00  0.00     0.049 A 
ATOM     57  H   UNL A   1      42.449  27.614  32.018  1.00  0.00     0.167 HD
ATOM     58  C   UNL A   1      43.182  28.013  34.742  1.00  0.00     0.074 A 
ATOM     59  C   UNL A   1      43.187  28.512  36.104  1.00  0.00     0.031 C 
ATOM     60  C   UNL A   1      44.027  27.063  34.271  1.00  0.00     0.031 A 
BRANCH  47  61
ATOM     61  C   UNL A   1      43.198  25.622  28.303  1.00  0.00    -0.014 A 
ATOM     62  C   UNL A   1      42.544  24.428  27.953  1.00  0.00     0.010 A 
ATOM     63  C   UNL A   1      44.275  26.064  27.511  1.00  0.00     0.010 A 
ATOM     64  C   UNL A   1      42.992  23.665  26.869  1.00  0.00     0.020 A 
ATOM     65  C   UNL A   1      44.706  25.322  26.408  1.00  0.00     0.020 A 
ATOM     66  C   UNL A   1      44.076  24.115  26.107  1.00  0.00     0.054 A 
BRANCH  66  67
ATOM     67  S   UNL A   1      44.641  23.104  24.710  1.00  0.00     0.124 S 
ATOM     68  O   UNL A   1      45.330  22.009  25.390  1.00  0.00    -0.237 OA
ATOM     69  O   UNL A   1      43.390  22.743  24.048  1.00  0.00    -0.237 OA
ATOM     70  O   UNL A   1      45.505  24.007  23.953  1.00  0.00    -0.744 OA
ENDBRANCH  66  67
ENDBRANCH  47  61
BRANCH  48  71
ATOM     71  C   UNL A   1      39.982  31.268  35.925  1.00  0.00    -0.014 A 
ATOM     72  C   UNL A   1      38.636  31.190  36.321  1.00  0.00     0.010 A 
ATOM     73  C   UNL A   1      40.859  32.097  36.652  1.00  0.00     0.010 A 
ATOM     74  C   UNL A   1      38.179  31.924  37.421  1.00  0.00     0.020 A 
ATOM     75  C   UNL A   1      40.416  32.802  37.773  1.00  0.00     0.020 A 
ATOM     76  C   UNL A   1      39.074  32.719  38.145  1.00  0.00     0.054 A 
BRANCH  76  77
ATOM     77  S   UNL A   1      38.476  33.603  39.611  1.00  0.00     0.124 S 
ATOM     78  O   UNL A   1      37.136  33.049  39.775  1.00  0.00    -0.237 OA
ATOM     79  O   UNL A   1      39.449  33.218  40.632  1.00  0.00    -0.237 OA
ATOM     80  O   UNL A   1      38.529  35.008  39.211  1.00  0.00    -0.744 OA
ENDBRANCH  76  77
ENDBRANCH  48  71
BRANCH  60  81
ATOM     81  C   UNL A   1      45.055  26.525  35.231  1.00  0.00    -0.014 A 
ATOM     82  C   UNL A   1      46.316  27.130  35.367  1.00  0.00     0.010 A 
ATOM     83  C   UNL A   1      44.731  25.420  36.039  1.00  0.00     0.010 A 
ATOM     84  C   UNL A   1      47.249  26.618  36.272  1.00  0.00     0.020 A 
ATOM     85  C   UNL A   1      45.651  24.925  36.966  1.00  0.00     0.020 A 
ATOM     86  C   UNL A   1      46.909  25.519  37.068  1.00  0.00     0.054 A 
BRANCH  86  87
ATOM     87  S   UNL A   1      48.123  24.901  38.265  1.00  0.00     0.124 S 
ATOM     88  O   UNL A   1      47.273  24.506  39.384  1.00  0.00    -0.237 OA
ATOM     89  O   UNL A   1      48.756  23.803  37.538  1.00  0.00    -0.237 OA
ATOM     90  O   UNL A   1      48.984  26.054  38.513  1.00  0.00    -0.744 OA
ENDBRANCH  86  87
ENDBRANCH  60  81
ENDBRANCH  34  35
ENDBRANCH  27  29
ENDBRANCH  26  27
ENDBRANCH  25  26
ENDBRANCH   1  25
TORSDOF 18
ENDMDL
MODEL 3
REMARK VINA RESULT:     -10.6      2.554      8.613
REMARK SMILES N#C/C(=C\c1ccc(-c2cc(C(F)(F)F)ccc2Cl)o1)C(=O)OCCOC(=O)c1ccc(-c2c3nc(c(-c4ccc(S(=O)(=O)[O-])cc4)c4ccc([nH]4)c(-c4ccc(S(=O)(=O)[O-])cc4)c4nc(c(-c5ccc(S(=O)(=O)[O-])cc5)c5ccc2[nH]5)C=C4)C=C3)cc1
REMARK SMILES IDX 24 1 23 2 21 3 22 4 3 5 4 6 2 7 1 8 5 9 6 10 20 11 7 12 8 13
REMARK SMILES IDX 9 14 10 15 18 16 11 17 17 18 19 19 16 20 12 21 13 22 14 23
REMARK SMILES IDX 15 24 25 25 26 26 27 27 28 28 29 29 30 30 88 31 31 32 87 33
REMARK SMILES IDX 32 34 33 35 34 36 81 37 35 38 86 39 80 40 82 41 36 42 85 43
REMARK SMILES IDX 79 44 78 45 37 47 67 48 48 49 66 50 49 51 52 52 65 53 83 54
REMARK SMILES IDX 50 55 51 56 64 58 84 59 53 60 38 61 39 62 47 63 40 64 46 65
REMARK SMILES IDX 41 66 42 67 43 68 44 69 45 70 68 71 69 72 77 73 70 74 76 75
REMARK SMILES IDX 71 76 72 77 73 78 74 79 75 80 54 81 55 82 63 83 56 84 62 85
REMARK SMILES IDX 57 86 58 87 59 88 60 89 61 90
REMARK H PARENT 82 46 52 57
REMARK Flexibility Score: inf
ROOT
ATOM      1  C   UNL A   1      34.823  33.495  30.271  1.00  0.00     0.275 C 
ENDROOT
BRANCH   1   2
ATOM      2  O   UNL A   1      34.114  33.132  29.070  1.00  0.00    -0.458 OA
BRANCH   2   3
ATOM      3  C   UNL A   1      34.850  32.512  28.115  1.00  0.00     0.349 C 
ATOM      4  O   UNL A   1      35.771  33.011  27.486  1.00  0.00    -0.245 OA
BRANCH   3   5
ATOM      5  C   UNL A   1      34.411  31.121  27.945  1.00  0.00     0.141 C 
ATOM      6  C   UNL A   1      33.159  30.913  27.466  1.00  0.00     0.074 C 
BRANCH   5   7
ATOM      7  C   UNL A   1      35.403  29.974  27.840  1.00  0.00     0.107 C 
ATOM      8  N   UNL A   1      36.226  29.022  27.754  1.00  0.00    -0.192 NA
ENDBRANCH   5   7
BRANCH   6   9
ATOM      9  C   UNL A   1      32.711  29.633  26.989  1.00  0.00     0.129 A 
ATOM     10  C   UNL A   1      31.700  28.808  27.474  1.00  0.00     0.051 A 
ATOM     11  O   UNL A   1      33.288  28.976  25.909  1.00  0.00    -0.457 OA
ATOM     12  C   UNL A   1      31.712  27.608  26.733  1.00  0.00     0.051 A 
ATOM     13  C   UNL A   1      32.678  27.760  25.766  1.00  0.00     0.136 A 
BRANCH  13  14
ATOM     14  C   UNL A   1      33.115  26.888  24.677  1.00  0.00     0.036 A 
ATOM     15  C   UNL A   1      34.025  25.843  24.928  1.00  0.00     0.026 A 
ATOM     16  C   UNL A   1      32.563  26.993  23.386  1.00  0.00     0.052 A 
ATOM     17  C   UNL A   1      34.359  24.904  23.928  1.00  0.00     0.056 A 
ATOM     18  C   UNL A   1      32.893  26.069  22.388  1.00  0.00     0.022 A 
ATOM     19  Cl  UNL A   1      31.467  28.258  22.936  1.00  0.00    -0.084 Cl
ATOM     20  C   UNL A   1      33.778  25.028  22.658  1.00  0.00     0.014 A 
BRANCH  17  21
ATOM     21  C   UNL A   1      35.311  23.766  24.222  1.00  0.00     0.416 C 
ATOM     22  F   UNL A   1      36.328  24.136  25.047  1.00  0.00    -0.166 F 
ATOM     23  F   UNL A   1      34.700  22.708  24.819  1.00  0.00    -0.166 F 
ATOM     24  F   UNL A   1      35.910  23.264  23.103  1.00  0.00    -0.166 F 
ENDBRANCH  17  21
ENDBRANCH  13  14
ENDBRANCH   6   9
ENDBRANCH   3   5
ENDBRANCH   2   3
ENDBRANCH   1   2
BRANCH   1  25
ATOM     25  C   UNL A   1      35.133  32.248  31.101  1.00  0.00     0.275 C 
BRANCH  25  26
ATOM     26  O   UNL A   1      36.555  32.060  31.252  1.00  0.00    -0.458 OA
BRANCH  26  27
ATOM     27  C   UNL A   1      36.974  30.776  31.168  1.00  0.00     0.338 C 
ATOM     28  O   UNL A   1      36.287  29.772  31.276  1.00  0.00    -0.246 OA
BRANCH  27  29
ATOM     29  C   UNL A   1      38.382  30.711  30.754  1.00  0.00     0.060 A 
ATOM     30  C   UNL A   1      38.671  30.990  29.427  1.00  0.00     0.016 A 
ATOM     31  C   UNL A   1      39.362  30.153  31.569  1.00  0.00     0.016 A 
ATOM     32  C   UNL A   1      39.859  30.556  28.860  1.00  0.00     0.010 A 
ATOM     33  C   UNL A   1      40.627  29.871  31.028  1.00  0.00     0.010 A 
ATOM     34  C   UNL A   1      40.876  30.021  29.650  1.00  0.00    -0.014 A 
BRANCH  34  35
ATOM     35  C   UNL A   1      42.158  29.605  29.010  1.00  0.00     0.031 A 
ATOM     36  C   UNL A   1      42.307  28.221  28.434  1.00  0.00     0.074 A 
ATOM     37  C   UNL A   1      43.182  30.481  28.897  1.00  0.00     0.049 A 
ATOM     38  N   UNL A   1      43.390  27.606  28.029  1.00  0.00    -0.248 NA
ATOM     39  C   UNL A   1      41.084  27.411  28.317  1.00  0.00     0.031 C 
ATOM     40  C   UNL A   1      43.159  31.884  29.325  1.00  0.00     0.029 A 
ATOM     41  N   UNL A   1      44.442  30.328  28.369  1.00  0.00    -0.354 N 
ATOM     42  C   UNL A   1      42.991  26.321  27.676  1.00  0.00     0.074 A 
ATOM     43  C   UNL A   1      41.566  26.242  27.922  1.00  0.00     0.031 C 
ATOM     44  C   UNL A   1      44.315  32.473  28.989  1.00  0.00     0.029 A 
ATOM     45  C   UNL A   1      45.214  31.464  28.452  1.00  0.00     0.049 A 
ATOM     46  H   UNL A   1      44.761  29.486  27.970  1.00  0.00     0.167 HD
ATOM     47  C   UNL A   1      43.746  25.302  27.199  1.00  0.00     0.031 A 
ATOM     48  C   UNL A   1      46.520  31.669  28.194  1.00  0.00     0.031 A 
ATOM     49  C   UNL A   1      45.155  25.411  26.919  1.00  0.00     0.049 A 
ATOM     50  C   UNL A   1      47.354  30.511  27.735  1.00  0.00     0.074 A 
ATOM     51  C   UNL A   1      46.016  24.439  26.439  1.00  0.00     0.029 A 
ATOM     52  N   UNL A   1      45.906  26.567  27.076  1.00  0.00    -0.354 N 
ATOM     53  N   UNL A   1      46.982  29.277  27.492  1.00  0.00    -0.248 NA
ATOM     54  C   UNL A   1      48.784  30.766  27.533  1.00  0.00     0.031 C 
ATOM     55  C   UNL A   1      47.299  24.991  26.362  1.00  0.00     0.029 A 
ATOM     56  C   UNL A   1      47.226  26.326  26.726  1.00  0.00     0.049 A 
ATOM     57  H   UNL A   1      45.555  27.431  27.390  1.00  0.00     0.167 HD
ATOM     58  C   UNL A   1      48.132  28.609  27.095  1.00  0.00     0.074 A 
ATOM     59  C   UNL A   1      49.206  29.582  27.109  1.00  0.00     0.031 C 
ATOM     60  C   UNL A   1      48.284  27.306  26.752  1.00  0.00     0.031 A 
BRANCH  47  61
ATOM     61  C   UNL A   1      43.075  23.961  27.014  1.00  0.00    -0.014 A 
ATOM     62  C   UNL A   1      42.622  23.521  25.758  1.00  0.00     0.010 A 
ATOM     63  C   UNL A   1      42.911  23.118  28.129  1.00  0.00     0.010 A 
ATOM     64  C   UNL A   1      41.970  22.289  25.632  1.00  0.00     0.020 A 
ATOM     65  C   UNL A   1      42.290  21.873  28.002  1.00  0.00     0.020 A 
ATOM     66  C   UNL A   1      41.802  21.476  26.758  1.00  0.00     0.054 A 
BRANCH  66  67
ATOM     67  S   UNL A   1      40.949  19.885  26.567  1.00  0.00     0.124 S 
ATOM     68  O   UNL A   1      40.896  19.405  27.946  1.00  0.00    -0.237 OA
ATOM     69  O   UNL A   1      39.666  20.276  25.989  1.00  0.00    -0.237 OA
ATOM     70  O   UNL A   1      41.824  19.125  25.678  1.00  0.00    -0.744 OA
ENDBRANCH  66  67
ENDBRANCH  47  61
BRANCH  48  71
ATOM     71  C   UNL A   1      47.120  33.011  28.450  1.00  0.00    -0.014 A 
ATOM     72  C   UNL A   1      47.604  33.355  29.723  1.00  0.00     0.010 A 
ATOM     73  C   UNL A   1      47.252  33.938  27.397  1.00  0.00     0.010 A 
ATOM     74  C   UNL A   1      48.207  34.599  29.938  1.00  0.00     0.020 A 
ATOM     75  C   UNL A   1      47.887  35.165  27.598  1.00  0.00     0.020 A 
ATOM     76  C   UNL A   1      48.353  35.493  28.871  1.00  0.00     0.054 A 
BRANCH  76  77
ATOM     77  S   UNL A   1      49.206  37.068  29.155  1.00  0.00     0.124 S 
ATOM     78  O   UNL A   1      48.842  37.830  27.965  1.00  0.00    -0.237 OA
ATOM     79  O   UNL A   1      48.611  37.528  30.408  1.00  0.00    -0.237 OA
ATOM     80  O   UNL A   1      50.613  36.685  29.247  1.00  0.00    -0.744 OA
ENDBRANCH  76  77
ENDBRANCH  48  71
BRANCH  60  81
ATOM     81  C   UNL A   1      49.659  26.866  26.327  1.00  0.00    -0.014 A 
ATOM     82  C   UNL A   1      50.571  26.321  27.247  1.00  0.00     0.010 A 
ATOM     83  C   UNL A   1      50.026  26.964  24.972  1.00  0.00     0.010 A 
ATOM     84  C   UNL A   1      51.838  25.911  26.826  1.00  0.00     0.020 A 
ATOM     85  C   UNL A   1      51.280  26.527  24.542  1.00  0.00     0.020 A 
ATOM     86  C   UNL A   1      52.184  26.014  25.475  1.00  0.00     0.054 A 
BRANCH  86  87
ATOM     87  S   UNL A   1      53.819  25.435  24.946  1.00  0.00     0.124 S 
ATOM     88  O   UNL A   1      54.653  25.793  26.089  1.00  0.00    -0.237 OA
ATOM     89  O   UNL A   1      53.601  24.004  24.749  1.00  0.00    -0.237 OA
ATOM     90  O   UNL A   1      54.077  26.193  23.724  1.00  0.00    -0.744 OA
ENDBRANCH  86  87
ENDBRANCH  60  81
ENDBRANCH  34  35
ENDBRANCH  27  29
ENDBRANCH  26  27
ENDBRANCH  25  26
ENDBRANCH   1  25
TORSDOF 18
ENDMDL
