MODEL 1
REMARK VINA RESULT:     -10.7      0.000      0.000
REMARK SMILES O=C(OCCOC(=O)[C@]1(CCc2cccnc2)CCC[NH2+]C1)c1ccc(-c2c3nc(c(-c4ccc(S(=O)(=O)[O-])cc4)c4ccc([nH]4)c(-c4ccc(S(=O)(=O)[O-])cc4)c4nc(c(-c5ccc(S(=O)(=O)[O-])cc5)c5ccc2[nH]5)C=C4)C=C3)cc1
REMARK SMILES IDX 4 1 3 2 2 3 1 4 23 5 24 6 82 7 25 8 81 9 26 10 27 11 28 12
REMARK SMILES IDX 75 13 29 14 80 15 74 16 76 17 30 18 79 19 73 20 72 21 31 23
REMARK SMILES IDX 61 24 42 25 60 26 43 27 46 28 59 29 77 30 44 31 45 32 58 34
REMARK SMILES IDX 78 35 47 36 32 37 33 38 41 39 34 40 40 41 35 42 36 43 37 44
REMARK SMILES IDX 38 45 39 46 62 47 63 48 71 49 64 50 70 51 65 52 66 53 67 54
REMARK SMILES IDX 68 55 69 56 48 57 49 58 57 59 50 60 56 61 51 62 52 63 53 64
REMARK SMILES IDX 54 65 55 66 5 67 6 68 7 69 8 70 9 71 18 72 22 73 19 74 21 75
REMARK SMILES IDX 20 76 10 79 11 80 12 81 13 82 17 83 14 84 16 85 15 86
REMARK H PARENT 76 22 46 33 21 77 21 78
REMARK Flexibility Score: inf
ROOT
ATOM      1  C   UNL A   1      38.888  22.571  26.512  1.00  0.00     0.275 C 
ENDROOT
BRANCH   1   2
ATOM      2  O   UNL A   1      39.181  23.952  26.267  1.00  0.00    -0.458 OA
BRANCH   2   3
ATOM      3  C   UNL A   1      40.289  24.651  26.610  1.00  0.00     0.338 C 
ATOM      4  O   UNL A   1      41.383  24.238  26.224  1.00  0.00    -0.246 OA
BRANCH   3   5
ATOM      5  C   UNL A   1      40.281  25.797  27.575  1.00  0.00     0.060 A 
ATOM      6  C   UNL A   1      40.976  26.999  27.439  1.00  0.00     0.016 A 
ATOM      7  C   UNL A   1      39.516  25.614  28.745  1.00  0.00     0.016 A 
ATOM      8  C   UNL A   1      40.847  28.014  28.395  1.00  0.00     0.010 A 
ATOM      9  C   UNL A   1      39.362  26.635  29.694  1.00  0.00     0.010 A 
ATOM     10  C   UNL A   1      40.032  27.848  29.521  1.00  0.00    -0.014 A 
BRANCH  10  11
ATOM     11  C   UNL A   1      40.169  28.816  30.635  1.00  0.00     0.031 A 
ATOM     12  C   UNL A   1      39.090  29.847  30.746  1.00  0.00     0.074 A 
ATOM     13  C   UNL A   1      41.150  28.744  31.555  1.00  0.00     0.049 A 
ATOM     14  N   UNL A   1      38.921  30.770  31.651  1.00  0.00    -0.248 NA
ATOM     15  C   UNL A   1      38.097  29.870  29.657  1.00  0.00     0.031 C 
ATOM     16  C   UNL A   1      42.300  27.854  31.490  1.00  0.00     0.029 A 
ATOM     17  N   UNL A   1      41.322  29.401  32.747  1.00  0.00    -0.354 N 
ATOM     18  C   UNL A   1      37.845  31.523  31.204  1.00  0.00     0.074 A 
ATOM     19  C   UNL A   1      37.405  30.953  29.952  1.00  0.00     0.031 C 
ATOM     20  C   UNL A   1      42.974  27.900  32.653  1.00  0.00     0.029 A 
ATOM     21  C   UNL A   1      42.356  28.902  33.513  1.00  0.00     0.049 A 
ATOM     22  H   UNL A   1      40.759  30.158  33.030  1.00  0.00     0.167 HD
ATOM     23  C   UNL A   1      37.284  32.609  31.779  1.00  0.00     0.031 A 
ATOM     24  C   UNL A   1      42.749  29.232  34.762  1.00  0.00     0.031 A 
ATOM     25  C   UNL A   1      37.744  33.166  33.016  1.00  0.00     0.049 A 
ATOM     26  C   UNL A   1      42.039  30.378  35.439  1.00  0.00     0.074 A 
ATOM     27  C   UNL A   1      37.297  34.290  33.679  1.00  0.00     0.029 A 
ATOM     28  N   UNL A   1      38.764  32.618  33.782  1.00  0.00    -0.354 N 
ATOM     29  N   UNL A   1      41.026  31.089  35.000  1.00  0.00    -0.248 NA
ATOM     30  C   UNL A   1      42.541  30.792  36.756  1.00  0.00     0.031 C 
ATOM     31  C   UNL A   1      38.059  34.430  34.845  1.00  0.00     0.029 A 
ATOM     32  C   UNL A   1      38.950  33.368  34.925  1.00  0.00     0.049 A 
ATOM     33  H   UNL A   1      39.279  31.813  33.545  1.00  0.00     0.167 HD
ATOM     34  C   UNL A   1      40.782  32.047  35.977  1.00  0.00     0.074 A 
ATOM     35  C   UNL A   1      41.718  31.790  37.053  1.00  0.00     0.031 C 
ATOM     36  C   UNL A   1      39.887  33.064  35.977  1.00  0.00     0.031 A 
BRANCH  23  37
ATOM     37  C   UNL A   1      36.177  33.262  31.006  1.00  0.00    -0.014 A 
ATOM     38  C   UNL A   1      36.404  33.787  29.720  1.00  0.00     0.010 A 
ATOM     39  C   UNL A   1      34.935  33.474  31.628  1.00  0.00     0.010 A 
ATOM     40  C   UNL A   1      35.439  34.587  29.106  1.00  0.00     0.020 A 
ATOM     41  C   UNL A   1      33.954  34.248  31.002  1.00  0.00     0.020 A 
ATOM     42  C   UNL A   1      34.227  34.826  29.761  1.00  0.00     0.054 A 
BRANCH  42  43
ATOM     43  S   UNL A   1      33.014  35.920  28.974  1.00  0.00     0.124 S 
ATOM     44  O   UNL A   1      32.330  35.003  28.065  1.00  0.00    -0.237 OA
ATOM     45  O   UNL A   1      32.218  36.387  30.107  1.00  0.00    -0.237 OA
ATOM     46  O   UNL A   1      33.836  36.941  28.330  1.00  0.00    -0.744 OA
ENDBRANCH  42  43
ENDBRANCH  23  37
BRANCH  24  47
ATOM     47  C   UNL A   1      43.855  28.503  35.457  1.00  0.00    -0.014 A 
ATOM     48  C   UNL A   1      43.571  27.379  36.259  1.00  0.00     0.010 A 
ATOM     49  C   UNL A   1      45.190  28.934  35.360  1.00  0.00     0.010 A 
ATOM     50  C   UNL A   1      44.589  26.722  36.963  1.00  0.00     0.020 A 
ATOM     51  C   UNL A   1      46.216  28.263  36.038  1.00  0.00     0.020 A 
ATOM     52  C   UNL A   1      45.906  27.169  36.850  1.00  0.00     0.054 A 
BRANCH  52  53
ATOM     53  S   UNL A   1      47.220  26.285  37.740  1.00  0.00     0.124 S 
ATOM     54  O   UNL A   1      47.557  27.229  38.799  1.00  0.00    -0.237 OA
ATOM     55  O   UNL A   1      46.545  25.063  38.172  1.00  0.00    -0.237 OA
ATOM     56  O   UNL A   1      48.248  26.091  36.720  1.00  0.00    -0.744 OA
ENDBRANCH  52  53
ENDBRANCH  24  47
BRANCH  36  57
ATOM     57  C   UNL A   1      39.863  33.962  37.180  1.00  0.00    -0.014 A 
ATOM     58  C   UNL A   1      40.652  35.123  37.227  1.00  0.00     0.010 A 
ATOM     59  C   UNL A   1      38.959  33.692  38.222  1.00  0.00     0.010 A 
ATOM     60  C   UNL A   1      40.542  36.001  38.307  1.00  0.00     0.020 A 
ATOM     61  C   UNL A   1      38.830  34.579  39.291  1.00  0.00     0.020 A 
ATOM     62  C   UNL A   1      39.627  35.725  39.329  1.00  0.00     0.054 A 
BRANCH  62  63
ATOM     63  S   UNL A   1      39.439  36.923  40.677  1.00  0.00     0.124 S 
ATOM     64  O   UNL A   1      40.828  37.186  41.044  1.00  0.00    -0.237 OA
ATOM     65  O   UNL A   1      38.739  38.030  40.030  1.00  0.00    -0.237 OA
ATOM     66  O   UNL A   1      38.656  36.198  41.675  1.00  0.00    -0.744 OA
ENDBRANCH  62  63
ENDBRANCH  36  57
ENDBRANCH  10  11
ENDBRANCH   3   5
ENDBRANCH   2   3
ENDBRANCH   1   2
BRANCH   1  67
ATOM     67  C   UNL A   1      37.891  21.971  25.530  1.00  0.00     0.274 C 
BRANCH  67  68
ATOM     68  O   UNL A   1      36.537  21.959  26.017  1.00  0.00    -0.461 OA
BRANCH  68  69
ATOM     69  C   UNL A   1      35.663  21.223  25.272  1.00  0.00     0.317 C 
ATOM     70  O   UNL A   1      35.985  20.231  24.627  1.00  0.00    -0.251 OA
BRANCH  69  71
ATOM     71  C   UNL A   1      34.248  21.813  25.236  1.00  0.00     0.117 C 
ATOM     72  C   UNL A   1      33.719  22.098  23.821  1.00  0.00     0.030 C 
ATOM     73  C   UNL A   1      34.275  23.190  25.964  1.00  0.00     0.279 C 
ATOM     74  C   UNL A   1      34.494  23.206  23.104  1.00  0.00     0.063 C 
ATOM     75  N   UNL A   1      35.073  24.223  25.283  1.00  0.00    -0.345 N 
ATOM     76  C   UNL A   1      34.584  24.479  23.932  1.00  0.00     0.260 C 
ATOM     77  H   UNL A   1      35.023  25.087  25.823  1.00  0.00     0.346 HD
ATOM     78  H   UNL A   1      36.034  23.888  25.216  1.00  0.00     0.346 HD
BRANCH  71  79
ATOM     79  C   UNL A   1      33.308  20.855  26.039  1.00  0.00     0.029 C 
BRANCH  79  80
ATOM     80  C   UNL A   1      32.396  19.900  25.242  1.00  0.00     0.038 C 
BRANCH  80  81
ATOM     81  C   UNL A   1      32.766  18.473  24.952  1.00  0.00    -0.030 A 
ATOM     82  C   UNL A   1      33.346  18.182  23.706  1.00  0.00     0.007 A 
ATOM     83  C   UNL A   1      32.557  17.401  25.804  1.00  0.00     0.114 A 
ATOM     84  C   UNL A   1      33.755  16.890  23.398  1.00  0.00     0.020 A 
ATOM     85  N   UNL A   1      32.956  16.132  25.540  1.00  0.00    -0.264 NA
ATOM     86  C   UNL A   1      33.546  15.908  24.345  1.00  0.00     0.111 A 
ENDBRANCH  80  81
ENDBRANCH  79  80
ENDBRANCH  71  79
ENDBRANCH  69  71
ENDBRANCH  68  69
ENDBRANCH  67  68
ENDBRANCH   1  67
TORSDOF 17
ENDMDL
MODEL 2
REMARK VINA RESULT:     -10.6      4.517      9.580
REMARK SMILES O=C(OCCOC(=O)[C@]1(CCc2cccnc2)CCC[NH2+]C1)c1ccc(-c2c3nc(c(-c4ccc(S(=O)(=O)[O-])cc4)c4ccc([nH]4)c(-c4ccc(S(=O)(=O)[O-])cc4)c4nc(c(-c5ccc(S(=O)(=O)[O-])cc5)c5ccc2[nH]5)C=C4)C=C3)cc1
REMARK SMILES IDX 4 1 3 2 2 3 1 4 23 5 24 6 82 7 25 8 81 9 26 10 27 11 28 12
REMARK SMILES IDX 75 13 29 14 80 15 74 16 76 17 30 18 79 19 73 20 72 21 31 23
REMARK SMILES IDX 61 24 42 25 60 26 43 27 46 28 59 29 77 30 44 31 45 32 58 34
REMARK SMILES IDX 78 35 47 36 32 37 33 38 41 39 34 40 40 41 35 42 36 43 37 44
REMARK SMILES IDX 38 45 39 46 62 47 63 48 71 49 64 50 70 51 65 52 66 53 67 54
REMARK SMILES IDX 68 55 69 56 48 57 49 58 57 59 50 60 56 61 51 62 52 63 53 64
REMARK SMILES IDX 54 65 55 66 5 67 6 68 7 69 8 70 9 71 18 72 22 73 19 74 21 75
REMARK SMILES IDX 20 76 10 79 11 80 12 81 13 82 17 83 14 84 16 85 15 86
REMARK H PARENT 76 22 46 33 21 77 21 78
REMARK Flexibility Score: inf
ROOT
ATOM      1  C   UNL A   1      32.359  30.061  27.220  1.00  0.00     0.275 C 
ENDROOT
BRANCH   1   2
ATOM      2  O   UNL A   1      33.473  30.863  26.808  1.00  0.00    -0.458 OA
BRANCH   2   3
ATOM      3  C   UNL A   1      34.357  31.537  27.581  1.00  0.00     0.338 C 
ATOM      4  O   UNL A   1      34.185  32.745  27.748  1.00  0.00    -0.246 OA
BRANCH   3   5
ATOM      5  C   UNL A   1      35.627  30.938  28.103  1.00  0.00     0.060 A 
ATOM      6  C   UNL A   1      35.858  29.589  28.371  1.00  0.00     0.016 A 
ATOM      7  C   UNL A   1      36.672  31.845  28.374  1.00  0.00     0.016 A 
ATOM      8  C   UNL A   1      37.112  29.150  28.815  1.00  0.00     0.010 A 
ATOM      9  C   UNL A   1      37.938  31.411  28.794  1.00  0.00     0.010 A 
ATOM     10  C   UNL A   1      38.164  30.052  29.018  1.00  0.00    -0.014 A 
BRANCH  10  11
ATOM     11  C   UNL A   1      39.354  29.583  29.766  1.00  0.00     0.031 A 
ATOM     12  C   UNL A   1      39.369  29.885  31.233  1.00  0.00     0.074 A 
ATOM     13  C   UNL A   1      40.338  28.857  29.203  1.00  0.00     0.049 A 
ATOM     14  N   UNL A   1      40.244  29.543  32.136  1.00  0.00    -0.248 NA
ATOM     15  C   UNL A   1      38.272  30.732  31.734  1.00  0.00     0.031 C 
ATOM     16  C   UNL A   1      40.478  28.593  27.779  1.00  0.00     0.029 A 
ATOM     17  N   UNL A   1      41.388  28.171  29.760  1.00  0.00    -0.354 N 
ATOM     18  C   UNL A   1      39.838  30.188  33.295  1.00  0.00     0.074 A 
ATOM     19  C   UNL A   1      38.647  30.941  32.981  1.00  0.00     0.031 C 
ATOM     20  C   UNL A   1      41.448  27.683  27.581  1.00  0.00     0.029 A 
ATOM     21  C   UNL A   1      42.068  27.371  28.863  1.00  0.00     0.049 A 
ATOM     22  H   UNL A   1      41.633  28.242  30.711  1.00  0.00     0.167 HD
ATOM     23  C   UNL A   1      40.422  30.170  34.514  1.00  0.00     0.031 A 
ATOM     24  C   UNL A   1      43.076  26.498  29.070  1.00  0.00     0.031 A 
ATOM     25  C   UNL A   1      41.612  29.427  34.802  1.00  0.00     0.049 A 
ATOM     26  C   UNL A   1      43.648  26.406  30.463  1.00  0.00     0.074 A 
ATOM     27  C   UNL A   1      42.330  29.363  35.977  1.00  0.00     0.029 A 
ATOM     28  N   UNL A   1      42.251  28.601  33.886  1.00  0.00    -0.354 N 
ATOM     29  N   UNL A   1      43.259  27.031  31.551  1.00  0.00    -0.248 NA
ATOM     30  C   UNL A   1      44.809  25.526  30.655  1.00  0.00     0.031 C 
ATOM     31  C   UNL A   1      43.417  28.506  35.769  1.00  0.00     0.029 A 
ATOM     32  C   UNL A   1      43.347  28.005  34.476  1.00  0.00     0.049 A 
ATOM     33  H   UNL A   1      41.965  28.461  32.955  1.00  0.00     0.167 HD
ATOM     34  C   UNL A   1      44.140  26.635  32.551  1.00  0.00     0.074 A 
ATOM     35  C   UNL A   1      45.048  25.678  31.951  1.00  0.00     0.031 C 
ATOM     36  C   UNL A   1      44.214  27.045  33.841  1.00  0.00     0.031 A 
BRANCH  23  37
ATOM     37  C   UNL A   1      39.789  31.045  35.556  1.00  0.00    -0.014 A 
ATOM     38  C   UNL A   1      40.470  32.164  36.071  1.00  0.00     0.010 A 
ATOM     39  C   UNL A   1      38.562  30.662  36.123  1.00  0.00     0.010 A 
ATOM     40  C   UNL A   1      39.975  32.832  37.192  1.00  0.00     0.020 A 
ATOM     41  C   UNL A   1      38.048  31.350  37.226  1.00  0.00     0.020 A 
ATOM     42  C   UNL A   1      38.776  32.408  37.772  1.00  0.00     0.054 A 
BRANCH  42  43
ATOM     43  S   UNL A   1      38.185  33.250  39.265  1.00  0.00     0.124 S 
ATOM     44  O   UNL A   1      36.738  33.074  39.155  1.00  0.00    -0.237 OA
ATOM     45  O   UNL A   1      38.827  32.494  40.337  1.00  0.00    -0.237 OA
ATOM     46  O   UNL A   1      38.662  34.621  39.100  1.00  0.00    -0.744 OA
ENDBRANCH  42  43
ENDBRANCH  23  37
BRANCH  24  47
ATOM     47  C   UNL A   1      43.625  25.653  27.964  1.00  0.00    -0.014 A 
ATOM     48  C   UNL A   1      42.998  24.438  27.621  1.00  0.00     0.010 A 
ATOM     49  C   UNL A   1      44.788  26.026  27.267  1.00  0.00     0.010 A 
ATOM     50  C   UNL A   1      43.535  23.608  26.628  1.00  0.00     0.020 A 
ATOM     51  C   UNL A   1      45.311  25.214  26.252  1.00  0.00     0.020 A 
ATOM     52  C   UNL A   1      44.690  24.000  25.949  1.00  0.00     0.054 A 
BRANCH  52  53
ATOM     53  S   UNL A   1      45.353  22.931  24.639  1.00  0.00     0.124 S 
ATOM     54  O   UNL A   1      46.165  23.865  23.867  1.00  0.00    -0.237 OA
ATOM     55  O   UNL A   1      46.093  21.923  25.394  1.00  0.00    -0.237 OA
ATOM     56  O   UNL A   1      44.153  22.436  23.967  1.00  0.00    -0.744 OA
ENDBRANCH  52  53
ENDBRANCH  24  47
BRANCH  36  57
ATOM     57  C   UNL A   1      45.296  26.448  34.693  1.00  0.00    -0.014 A 
ATOM     58  C   UNL A   1      46.546  27.078  34.815  1.00  0.00     0.010 A 
ATOM     59  C   UNL A   1      45.016  25.305  35.462  1.00  0.00     0.010 A 
ATOM     60  C   UNL A   1      47.506  26.567  35.690  1.00  0.00     0.020 A 
ATOM     61  C   UNL A   1      45.964  24.805  36.355  1.00  0.00     0.020 A 
ATOM     62  C   UNL A   1      47.206  25.437  36.459  1.00  0.00     0.054 A 
BRANCH  62  63
ATOM     63  S   UNL A   1      48.434  24.843  37.652  1.00  0.00     0.124 S 
ATOM     64  O   UNL A   1      49.637  24.755  36.830  1.00  0.00    -0.237 OA
ATOM     65  O   UNL A   1      48.437  25.897  38.663  1.00  0.00    -0.237 OA
ATOM     66  O   UNL A   1      47.888  23.562  38.100  1.00  0.00    -0.744 OA
ENDBRANCH  62  63
ENDBRANCH  36  57
ENDBRANCH  10  11
ENDBRANCH   3   5
ENDBRANCH   2   3
ENDBRANCH   1   2
BRANCH   1  67
ATOM     67  C   UNL A   1      32.218  28.759  26.443  1.00  0.00     0.274 C 
BRANCH  67  68
ATOM     68  O   UNL A   1      31.333  28.855  25.313  1.00  0.00    -0.461 OA
BRANCH  68  69
ATOM     69  C   UNL A   1      31.080  27.674  24.678  1.00  0.00     0.317 C 
ATOM     70  O   UNL A   1      30.984  26.597  25.256  1.00  0.00    -0.251 OA
BRANCH  69  71
ATOM     71  C   UNL A   1      31.022  27.805  23.152  1.00  0.00     0.117 C 
ATOM     72  C   UNL A   1      31.790  26.708  22.395  1.00  0.00     0.030 C 
ATOM     73  C   UNL A   1      31.699  29.149  22.752  1.00  0.00     0.279 C 
ATOM     74  C   UNL A   1      33.302  26.775  22.618  1.00  0.00     0.063 C 
ATOM     75  N   UNL A   1      33.144  29.209  23.026  1.00  0.00    -0.345 N 
ATOM     76  C   UNL A   1      33.871  28.155  22.326  1.00  0.00     0.260 C 
ATOM     77  H   UNL A   1      33.501  30.115  22.723  1.00  0.00     0.346 HD
ATOM     78  H   UNL A   1      33.282  29.078  24.028  1.00  0.00     0.346 HD
BRANCH  71  79
ATOM     79  C   UNL A   1      29.517  27.872  22.731  1.00  0.00     0.029 C 
BRANCH  79  80
ATOM     80  C   UNL A   1      28.636  28.967  23.365  1.00  0.00     0.038 C 
BRANCH  80  81
ATOM     81  C   UNL A   1      28.454  30.325  22.749  1.00  0.00    -0.030 A 
ATOM     82  C   UNL A   1      28.259  30.399  21.360  1.00  0.00     0.007 A 
ATOM     83  C   UNL A   1      28.488  31.528  23.436  1.00  0.00     0.114 A 
ATOM     84  C   UNL A   1      28.035  31.622  20.739  1.00  0.00     0.020 A 
ATOM     85  N   UNL A   1      28.260  32.736  22.863  1.00  0.00    -0.264 NA
ATOM     86  C   UNL A   1      28.038  32.753  21.530  1.00  0.00     0.111 A 
ENDBRANCH  80  81
ENDBRANCH  79  80
ENDBRANCH  71  79
ENDBRANCH  69  71
ENDBRANCH  68  69
ENDBRANCH  67  68
ENDBRANCH   1  67
TORSDOF 17
ENDMDL
MODEL 3
REMARK VINA RESULT:     -10.6      5.660     11.229
REMARK SMILES O=C(OCCOC(=O)[C@]1(CCc2cccnc2)CCC[NH2+]C1)c1ccc(-c2c3nc(c(-c4ccc(S(=O)(=O)[O-])cc4)c4ccc([nH]4)c(-c4ccc(S(=O)(=O)[O-])cc4)c4nc(c(-c5ccc(S(=O)(=O)[O-])cc5)c5ccc2[nH]5)C=C4)C=C3)cc1
REMARK SMILES IDX 4 1 3 2 2 3 1 4 23 5 24 6 82 7 25 8 81 9 26 10 27 11 28 12
REMARK SMILES IDX 75 13 29 14 80 15 74 16 76 17 30 18 79 19 73 20 72 21 31 23
REMARK SMILES IDX 61 24 42 25 60 26 43 27 46 28 59 29 77 30 44 31 45 32 58 34
REMARK SMILES IDX 78 35 47 36 32 37 33 38 41 39 34 40 40 41 35 42 36 43 37 44
REMARK SMILES IDX 38 45 39 46 62 47 63 48 71 49 64 50 70 51 65 52 66 53 67 54
REMARK SMILES IDX 68 55 69 56 48 57 49 58 57 59 50 60 56 61 51 62 52 63 53 64
REMARK SMILES IDX 54 65 55 66 5 67 6 68 7 69 8 70 9 71 18 72 22 73 19 74 21 75
REMARK SMILES IDX 20 76 10 79 11 80 12 81 13 82 17 83 14 84 16 85 15 86
REMARK H PARENT 76 22 46 33 21 77 21 78
REMARK Flexibility Score: inf
ROOT
ATOM      1  C   UNL A   1      32.292  30.230  26.839  1.00  0.00     0.275 C 
ENDROOT
BRANCH   1   2
ATOM      2  O   UNL A   1      33.699  30.068  27.061  1.00  0.00    -0.458 OA
BRANCH   2   3
ATOM      3  C   UNL A   1      34.473  30.647  28.009  1.00  0.00     0.338 C 
ATOM      4  O   UNL A   1      34.088  31.703  28.512  1.00  0.00    -0.246 OA
BRANCH   3   5
ATOM      5  C   UNL A   1      35.850  30.174  28.358  1.00  0.00     0.060 A 
ATOM      6  C   UNL A   1      36.283  29.735  29.610  1.00  0.00     0.016 A 
ATOM      7  C   UNL A   1      36.799  30.210  27.316  1.00  0.00     0.016 A 
ATOM      8  C   UNL A   1      37.591  29.272  29.795  1.00  0.00     0.010 A 
ATOM      9  C   UNL A   1      38.104  29.725  27.487  1.00  0.00     0.010 A 
ATOM     10  C   UNL A   1      38.508  29.251  28.736  1.00  0.00    -0.014 A 
BRANCH  10  11
ATOM     11  C   UNL A   1      39.941  29.043  29.053  1.00  0.00     0.031 A 
ATOM     12  C   UNL A   1      40.543  27.762  28.565  1.00  0.00     0.074 A 
ATOM     13  C   UNL A   1      40.699  29.970  29.669  1.00  0.00     0.049 A 
ATOM     14  N   UNL A   1      41.776  27.349  28.643  1.00  0.00    -0.248 NA
ATOM     15  C   UNL A   1      39.612  26.797  27.955  1.00  0.00     0.031 C 
ATOM     16  C   UNL A   1      40.202  31.198  30.271  1.00  0.00     0.029 A 
ATOM     17  N   UNL A   1      42.057  30.048  29.857  1.00  0.00    -0.354 N 
ATOM     18  C   UNL A   1      41.755  26.051  28.153  1.00  0.00     0.074 A 
ATOM     19  C   UNL A   1      40.392  25.747  27.785  1.00  0.00     0.031 C 
ATOM     20  C   UNL A   1      41.238  31.981  30.622  1.00  0.00     0.029 A 
ATOM     21  C   UNL A   1      42.479  31.263  30.358  1.00  0.00     0.049 A 
ATOM     22  H   UNL A   1      42.671  29.307  29.653  1.00  0.00     0.167 HD
ATOM     23  C   UNL A   1      42.782  25.181  28.037  1.00  0.00     0.031 A 
ATOM     24  C   UNL A   1      43.729  31.725  30.576  1.00  0.00     0.031 A 
ATOM     25  C   UNL A   1      44.125  25.498  28.420  1.00  0.00     0.049 A 
ATOM     26  C   UNL A   1      44.877  30.776  30.337  1.00  0.00     0.074 A 
ATOM     27  C   UNL A   1      45.245  24.693  28.400  1.00  0.00     0.029 A 
ATOM     28  N   UNL A   1      44.525  26.744  28.885  1.00  0.00    -0.354 N 
ATOM     29  N   UNL A   1      44.841  29.545  29.880  1.00  0.00    -0.248 NA
ATOM     30  C   UNL A   1      46.224  31.256  30.672  1.00  0.00     0.031 C 
ATOM     31  C   UNL A   1      46.324  25.450  28.869  1.00  0.00     0.029 A 
ATOM     32  C   UNL A   1      45.881  26.737  29.138  1.00  0.00     0.049 A 
ATOM     33  H   UNL A   1      43.929  27.517  29.015  1.00  0.00     0.167 HD
ATOM     34  C   UNL A   1      46.157  29.097  29.892  1.00  0.00     0.074 A 
ATOM     35  C   UNL A   1      46.970  30.206  30.351  1.00  0.00     0.031 C 
ATOM     36  C   UNL A   1      46.650  27.874  29.581  1.00  0.00     0.031 A 
BRANCH  23  37
ATOM     37  C   UNL A   1      42.425  23.809  27.545  1.00  0.00    -0.014 A 
ATOM     38  C   UNL A   1      42.099  22.779  28.447  1.00  0.00     0.010 A 
ATOM     39  C   UNL A   1      42.554  23.514  26.177  1.00  0.00     0.010 A 
ATOM     40  C   UNL A   1      41.993  21.461  28.000  1.00  0.00     0.020 A 
ATOM     41  C   UNL A   1      42.416  22.200  25.722  1.00  0.00     0.020 A 
ATOM     42  C   UNL A   1      42.170  21.179  26.642  1.00  0.00     0.054 A 
BRANCH  42  43
ATOM     43  S   UNL A   1      42.091  19.452  26.094  1.00  0.00     0.124 S 
ATOM     44  O   UNL A   1      42.622  18.745  27.257  1.00  0.00    -0.237 OA
ATOM     45  O   UNL A   1      40.666  19.259  25.840  1.00  0.00    -0.237 OA
ATOM     46  O   UNL A   1      42.942  19.429  24.906  1.00  0.00    -0.744 OA
ENDBRANCH  42  43
ENDBRANCH  23  37
BRANCH  24  47
ATOM     47  C   UNL A   1      43.980  33.121  31.048  1.00  0.00    -0.014 A 
ATOM     48  C   UNL A   1      44.213  34.155  30.119  1.00  0.00     0.010 A 
ATOM     49  C   UNL A   1      44.026  33.432  32.420  1.00  0.00     0.010 A 
ATOM     50  C   UNL A   1      44.508  35.455  30.549  1.00  0.00     0.020 A 
ATOM     51  C   UNL A   1      44.291  34.737  32.854  1.00  0.00     0.020 A 
ATOM     52  C   UNL A   1      44.548  35.739  31.915  1.00  0.00     0.054 A 
BRANCH  52  53
ATOM     53  S   UNL A   1      44.896  37.438  32.456  1.00  0.00     0.124 S 
ATOM     54  O   UNL A   1      44.382  38.223  31.339  1.00  0.00    -0.237 OA
ATOM     55  O   UNL A   1      44.138  37.538  33.702  1.00  0.00    -0.237 OA
ATOM     56  O   UNL A   1      46.348  37.451  32.618  1.00  0.00    -0.744 OA
ENDBRANCH  52  53
ENDBRANCH  24  47
BRANCH  36  57
ATOM     57  C   UNL A   1      48.133  27.675  29.708  1.00  0.00    -0.014 A 
ATOM     58  C   UNL A   1      48.700  27.241  30.917  1.00  0.00     0.010 A 
ATOM     59  C   UNL A   1      48.946  27.821  28.571  1.00  0.00     0.010 A 
ATOM     60  C   UNL A   1      50.066  26.962  30.990  1.00  0.00     0.020 A 
ATOM     61  C   UNL A   1      50.308  27.521  28.634  1.00  0.00     0.020 A 
ATOM     62  C   UNL A   1      50.859  27.099  29.845  1.00  0.00     0.054 A 
BRANCH  62  63
ATOM     63  S   UNL A   1      52.613  26.648  29.941  1.00  0.00     0.124 S 
ATOM     64  O   UNL A   1      52.606  25.627  30.985  1.00  0.00    -0.237 OA
ATOM     65  O   UNL A   1      52.896  26.167  28.591  1.00  0.00    -0.237 OA
ATOM     66  O   UNL A   1      53.272  27.903  30.299  1.00  0.00    -0.744 OA
ENDBRANCH  62  63
ENDBRANCH  36  57
ENDBRANCH  10  11
ENDBRANCH   3   5
ENDBRANCH   2   3
ENDBRANCH   1   2
BRANCH   1  67
ATOM     67  C   UNL A   1      31.744  29.365  25.713  1.00  0.00     0.274 C 
BRANCH  67  68
ATOM     68  O   UNL A   1      32.311  28.042  25.672  1.00  0.00    -0.461 OA
BRANCH  68  69
ATOM     69  C   UNL A   1      31.464  27.041  26.047  1.00  0.00     0.317 C 
ATOM     70  O   UNL A   1      30.881  27.009  27.126  1.00  0.00    -0.251 OA
BRANCH  69  71
ATOM     71  C   UNL A   1      31.383  25.899  25.027  1.00  0.00     0.117 C 
ATOM     72  C   UNL A   1      31.354  24.495  25.652  1.00  0.00     0.030 C 
ATOM     73  C   UNL A   1      32.665  25.944  24.143  1.00  0.00     0.279 C 
ATOM     74  C   UNL A   1      32.657  24.131  26.366  1.00  0.00     0.063 C 
ATOM     75  N   UNL A   1      33.912  25.643  24.865  1.00  0.00    -0.345 N 
ATOM     76  C   UNL A   1      33.877  24.319  25.477  1.00  0.00     0.260 C 
ATOM     77  H   UNL A   1      34.692  25.684  24.208  1.00  0.00     0.346 HD
ATOM     78  H   UNL A   1      34.023  26.334  25.607  1.00  0.00     0.346 HD
BRANCH  71  79
ATOM     79  C   UNL A   1      30.147  26.164  24.107  1.00  0.00     0.029 C 
BRANCH  79  80
ATOM     80  C   UNL A   1      30.334  27.094  22.891  1.00  0.00     0.038 C 
BRANCH  80  81
ATOM     81  C   UNL A   1      29.563  28.372  22.716  1.00  0.00    -0.030 A 
ATOM     82  C   UNL A   1      28.208  28.382  23.086  1.00  0.00     0.007 A 
ATOM     83  C   UNL A   1      30.071  29.549  22.189  1.00  0.00     0.114 A 
ATOM     84  C   UNL A   1      27.456  29.546  22.994  1.00  0.00     0.020 A 
ATOM     85  N   UNL A   1      29.368  30.705  22.099  1.00  0.00    -0.264 NA
ATOM     86  C   UNL A   1      28.079  30.676  22.504  1.00  0.00     0.111 A 
ENDBRANCH  80  81
ENDBRANCH  79  80
ENDBRANCH  71  79
ENDBRANCH  69  71
ENDBRANCH  68  69
ENDBRANCH  67  68
ENDBRANCH   1  67
TORSDOF 17
ENDMDL
