MODEL 1
REMARK VINA RESULT:      -8.9      0.000      0.000
REMARK SMILES CSC[C@H](C(=O)OCCOC(=O)c1ccc(-c2c3nc(c(-c4ccc(S(=O)(=O)[O-])cc4)c4ccc([nH]4)c(-c4ccc(S(=O)(=O)[O-])cc4)c4nc(c(-c5ccc(S(=O)(=O)[O-])cc5)c5ccc2[nH]5)C=C4)C=C3)cc1)c1ccccc1
REMARK SMILES IDX 9 1 8 2 7 3 5 4 6 5 4 6 3 7 2 8 1 9 73 10 74 11 78 12 75 13
REMARK SMILES IDX 77 14 76 15 10 16 11 17 12 18 13 19 14 20 72 21 15 22 71 23
REMARK SMILES IDX 16 24 17 25 18 26 65 27 19 28 70 29 64 30 66 31 20 32 69 33
REMARK SMILES IDX 63 34 62 35 21 37 51 38 32 39 50 40 33 41 36 42 49 43 67 44
REMARK SMILES IDX 34 45 35 46 48 48 68 49 37 50 22 51 23 52 31 53 24 54 30 55
REMARK SMILES IDX 25 56 26 57 27 58 28 59 29 60 52 61 53 62 61 63 54 64 60 65
REMARK SMILES IDX 55 66 56 67 57 68 58 69 59 70 38 71 39 72 47 73 40 74 46 75
REMARK SMILES IDX 41 76 42 77 43 78 44 79 45 80
REMARK H PARENT 66 36 36 47
REMARK Flexibility Score: inf
ROOT
ATOM      1  C   UNL A   1      34.591  32.856  27.823  1.00  0.00     0.275 C 
ENDROOT
BRANCH   1   2
ATOM      2  C   UNL A   1      33.273  33.630  27.840  1.00  0.00     0.274 C 
BRANCH   2   3
ATOM      3  O   UNL A   1      32.950  34.146  29.148  1.00  0.00    -0.462 OA
BRANCH   3   4
ATOM      4  C   UNL A   1      33.706  35.194  29.577  1.00  0.00     0.314 C 
ATOM      5  O   UNL A   1      34.190  36.040  28.832  1.00  0.00    -0.252 OA
BRANCH   4   6
ATOM      6  C   UNL A   1      34.029  35.143  31.068  1.00  0.00     0.139 C 
BRANCH   6   7
ATOM      7  C   UNL A   1      32.805  35.096  31.997  1.00  0.00     0.089 C 
BRANCH   7   8
ATOM      8  S   UNL A   1      32.329  36.695  32.751  1.00  0.00    -0.164 SA
ATOM      9  C   UNL A   1      33.944  37.342  33.252  1.00  0.00     0.085 C 
ENDBRANCH   7   8
ENDBRANCH   6   7
BRANCH   6  10
ATOM     10  C   UNL A   1      35.015  34.027  31.417  1.00  0.00    -0.033 A 
ATOM     11  C   UNL A   1      34.750  33.049  32.387  1.00  0.00     0.004 A 
ATOM     12  C   UNL A   1      36.242  33.971  30.731  1.00  0.00     0.004 A 
ATOM     13  C   UNL A   1      35.676  32.038  32.651  1.00  0.00     0.000 A 
ATOM     14  C   UNL A   1      37.172  32.968  31.006  1.00  0.00     0.000 A 
ATOM     15  C   UNL A   1      36.887  31.999  31.963  1.00  0.00     0.000 A 
ENDBRANCH   6  10
ENDBRANCH   4   6
ENDBRANCH   3   4
ENDBRANCH   2   3
ENDBRANCH   1   2
BRANCH   1  16
ATOM     16  O   UNL A   1      34.538  31.729  28.712  1.00  0.00    -0.458 OA
BRANCH  16  17
ATOM     17  C   UNL A   1      34.637  30.524  28.106  1.00  0.00     0.338 C 
ATOM     18  O   UNL A   1      33.784  29.960  27.446  1.00  0.00    -0.246 OA
BRANCH  17  19
ATOM     19  C   UNL A   1      35.971  29.966  28.351  1.00  0.00     0.060 A 
ATOM     20  C   UNL A   1      36.299  29.465  29.615  1.00  0.00     0.016 A 
ATOM     21  C   UNL A   1      36.926  30.032  27.338  1.00  0.00     0.016 A 
ATOM     22  C   UNL A   1      37.599  29.035  29.877  1.00  0.00     0.010 A 
ATOM     23  C   UNL A   1      38.224  29.596  27.599  1.00  0.00     0.010 A 
ATOM     24  C   UNL A   1      38.573  29.112  28.873  1.00  0.00    -0.014 A 
BRANCH  24  25
ATOM     25  C   UNL A   1      39.987  28.764  29.136  1.00  0.00     0.031 A 
ATOM     26  C   UNL A   1      40.920  29.833  29.626  1.00  0.00     0.074 A 
ATOM     27  C   UNL A   1      40.442  27.527  28.870  1.00  0.00     0.049 A 
ATOM     28  N   UNL A   1      42.226  29.822  29.693  1.00  0.00    -0.248 NA
ATOM     29  C   UNL A   1      40.299  31.083  30.094  1.00  0.00     0.031 C 
ATOM     30  C   UNL A   1      39.621  26.391  28.448  1.00  0.00     0.029 A 
ATOM     31  N   UNL A   1      41.721  27.029  28.886  1.00  0.00    -0.354 N 
ATOM     32  C   UNL A   1      42.586  31.072  30.186  1.00  0.00     0.074 A 
ATOM     33  C   UNL A   1      41.362  31.816  30.393  1.00  0.00     0.031 C 
ATOM     34  C   UNL A   1      40.420  25.334  28.225  1.00  0.00     0.029 A 
ATOM     35  C   UNL A   1      41.809  25.734  28.431  1.00  0.00     0.049 A 
ATOM     36  H   UNL A   1      42.499  27.548  29.193  1.00  0.00     0.167 HD
ATOM     37  C   UNL A   1      43.827  31.552  30.435  1.00  0.00     0.031 A 
ATOM     38  C   UNL A   1      42.891  24.976  28.168  1.00  0.00     0.031 A 
ATOM     39  C   UNL A   1      45.036  30.806  30.211  1.00  0.00     0.049 A 
ATOM     40  C   UNL A   1      44.264  25.561  28.372  1.00  0.00     0.074 A 
ATOM     41  C   UNL A   1      46.346  31.208  30.406  1.00  0.00     0.029 A 
ATOM     42  N   UNL A   1      45.082  29.500  29.748  1.00  0.00    -0.354 N 
ATOM     43  N   UNL A   1      44.596  26.755  28.803  1.00  0.00    -0.248 NA
ATOM     44  C   UNL A   1      45.409  24.696  28.052  1.00  0.00     0.031 C 
ATOM     45  C   UNL A   1      47.186  30.155  30.029  1.00  0.00     0.029 A 
ATOM     46  C   UNL A   1      46.397  29.082  29.647  1.00  0.00     0.049 A 
ATOM     47  H   UNL A   1      44.295  28.952  29.524  1.00  0.00     0.167 HD
ATOM     48  C   UNL A   1      45.985  26.771  28.840  1.00  0.00     0.074 A 
ATOM     49  C   UNL A   1      46.432  25.470  28.388  1.00  0.00     0.031 C 
ATOM     50  C   UNL A   1      46.818  27.771  29.219  1.00  0.00     0.031 A 
BRANCH  37  51
ATOM     51  C   UNL A   1      43.937  32.962  30.947  1.00  0.00    -0.014 A 
ATOM     52  C   UNL A   1      43.775  34.061  30.085  1.00  0.00     0.010 A 
ATOM     53  C   UNL A   1      44.166  33.192  32.316  1.00  0.00     0.010 A 
ATOM     54  C   UNL A   1      43.871  35.365  30.576  1.00  0.00     0.020 A 
ATOM     55  C   UNL A   1      44.241  34.496  32.815  1.00  0.00     0.020 A 
ATOM     56  C   UNL A   1      44.109  35.575  31.939  1.00  0.00     0.054 A 
BRANCH  56  57
ATOM     57  S   UNL A   1      44.205  37.278  32.555  1.00  0.00     0.124 S 
ATOM     58  O   UNL A   1      42.973  37.387  33.332  1.00  0.00    -0.237 OA
ATOM     59  O   UNL A   1      45.440  37.269  33.335  1.00  0.00    -0.237 OA
ATOM     60  O   UNL A   1      44.247  38.085  31.338  1.00  0.00    -0.744 OA
ENDBRANCH  56  57
ENDBRANCH  37  51
BRANCH  38  61
ATOM     61  C   UNL A   1      42.726  23.592  27.647  1.00  0.00    -0.014 A 
ATOM     62  C   UNL A   1      42.755  23.345  26.264  1.00  0.00     0.010 A 
ATOM     63  C   UNL A   1      42.528  22.515  28.531  1.00  0.00     0.010 A 
ATOM     64  C   UNL A   1      42.562  22.051  25.771  1.00  0.00     0.020 A 
ATOM     65  C   UNL A   1      42.360  21.216  28.044  1.00  0.00     0.020 A 
ATOM     66  C   UNL A   1      42.363  20.995  26.665  1.00  0.00     0.054 A 
BRANCH  66  67
ATOM     67  S   UNL A   1      42.145  19.318  26.007  1.00  0.00     0.124 S 
ATOM     68  O   UNL A   1      43.054  19.322  24.864  1.00  0.00    -0.237 OA
ATOM     69  O   UNL A   1      42.549  18.479  27.134  1.00  0.00    -0.237 OA
ATOM     70  O   UNL A   1      40.723  19.262  25.679  1.00  0.00    -0.744 OA
ENDBRANCH  66  67
ENDBRANCH  38  61
BRANCH  50  71
ATOM     71  C   UNL A   1      48.293  27.482  29.235  1.00  0.00    -0.014 A 
ATOM     72  C   UNL A   1      49.138  27.934  28.207  1.00  0.00     0.010 A 
ATOM     73  C   UNL A   1      48.848  26.814  30.341  1.00  0.00     0.010 A 
ATOM     74  C   UNL A   1      50.516  27.707  28.280  1.00  0.00     0.020 A 
ATOM     75  C   UNL A   1      50.226  26.604  30.427  1.00  0.00     0.020 A 
ATOM     76  C   UNL A   1      51.052  27.045  29.390  1.00  0.00     0.054 A 
BRANCH  76  77
ATOM     77  S   UNL A   1      52.849  26.822  29.497  1.00  0.00     0.124 S 
ATOM     78  O   UNL A   1      52.997  26.167  30.793  1.00  0.00    -0.237 OA
ATOM     79  O   UNL A   1      53.138  25.986  28.333  1.00  0.00    -0.237 OA
ATOM     80  O   UNL A   1      53.372  28.184  29.422  1.00  0.00    -0.744 OA
ENDBRANCH  76  77
ENDBRANCH  50  71
ENDBRANCH  24  25
ENDBRANCH  17  19
ENDBRANCH  16  17
ENDBRANCH   1  16
TORSDOF 17
ENDMDL
MODEL 2
REMARK VINA RESULT:      -8.7      4.773     11.771
REMARK SMILES CSC[C@H](C(=O)OCCOC(=O)c1ccc(-c2c3nc(c(-c4ccc(S(=O)(=O)[O-])cc4)c4ccc([nH]4)c(-c4ccc(S(=O)(=O)[O-])cc4)c4nc(c(-c5ccc(S(=O)(=O)[O-])cc5)c5ccc2[nH]5)C=C4)C=C3)cc1)c1ccccc1
REMARK SMILES IDX 9 1 8 2 7 3 5 4 6 5 4 6 3 7 2 8 1 9 73 10 74 11 78 12 75 13
REMARK SMILES IDX 77 14 76 15 10 16 11 17 12 18 13 19 14 20 72 21 15 22 71 23
REMARK SMILES IDX 16 24 17 25 18 26 65 27 19 28 70 29 64 30 66 31 20 32 69 33
REMARK SMILES IDX 63 34 62 35 21 37 51 38 32 39 50 40 33 41 36 42 49 43 67 44
REMARK SMILES IDX 34 45 35 46 48 48 68 49 37 50 22 51 23 52 31 53 24 54 30 55
REMARK SMILES IDX 25 56 26 57 27 58 28 59 29 60 52 61 53 62 61 63 54 64 60 65
REMARK SMILES IDX 55 66 56 67 57 68 58 69 59 70 38 71 39 72 47 73 40 74 46 75
REMARK SMILES IDX 41 76 42 77 43 78 44 79 45 80
REMARK H PARENT 66 36 36 47
REMARK Flexibility Score: inf
ROOT
ATOM      1  C   UNL A   1      37.436  21.999  24.979  1.00  0.00     0.275 C 
ENDROOT
BRANCH   1   2
ATOM      2  C   UNL A   1      36.186  21.766  25.827  1.00  0.00     0.274 C 
BRANCH   2   3
ATOM      3  O   UNL A   1      34.982  21.695  25.035  1.00  0.00    -0.462 OA
BRANCH   3   4
ATOM      4  C   UNL A   1      34.539  20.443  24.737  1.00  0.00     0.314 C 
ATOM      5  O   UNL A   1      35.184  19.420  24.944  1.00  0.00    -0.252 OA
BRANCH   4   6
ATOM      6  C   UNL A   1      33.216  20.428  23.975  1.00  0.00     0.139 C 
BRANCH   6   7
ATOM      7  C   UNL A   1      32.384  19.146  24.142  1.00  0.00     0.089 C 
BRANCH   7   8
ATOM      8  S   UNL A   1      32.532  17.931  22.780  1.00  0.00    -0.164 SA
ATOM      9  C   UNL A   1      33.621  16.693  23.530  1.00  0.00     0.085 C 
ENDBRANCH   7   8
ENDBRANCH   6   7
BRANCH   6  10
ATOM     10  C   UNL A   1      32.362  21.666  24.259  1.00  0.00    -0.033 A 
ATOM     11  C   UNL A   1      31.632  21.835  25.445  1.00  0.00     0.004 A 
ATOM     12  C   UNL A   1      32.310  22.686  23.291  1.00  0.00     0.004 A 
ATOM     13  C   UNL A   1      30.886  22.995  25.662  1.00  0.00     0.000 A 
ATOM     14  C   UNL A   1      31.552  23.838  23.505  1.00  0.00     0.000 A 
ATOM     15  C   UNL A   1      30.844  23.994  24.692  1.00  0.00     0.000 A 
ENDBRANCH   6  10
ENDBRANCH   4   6
ENDBRANCH   3   4
ENDBRANCH   2   3
ENDBRANCH   1   2
BRANCH   1  16
ATOM     16  O   UNL A   1      38.060  23.248  25.314  1.00  0.00    -0.458 OA
BRANCH  16  17
ATOM     17  C   UNL A   1      39.199  23.137  26.033  1.00  0.00     0.338 C 
ATOM     18  O   UNL A   1      39.940  22.174  26.096  1.00  0.00    -0.246 OA
BRANCH  17  19
ATOM     19  C   UNL A   1      39.441  24.392  26.754  1.00  0.00     0.060 A 
ATOM     20  C   UNL A   1      40.279  25.366  26.202  1.00  0.00     0.016 A 
ATOM     21  C   UNL A   1      38.902  24.551  28.029  1.00  0.00     0.016 A 
ATOM     22  C   UNL A   1      40.594  26.509  26.936  1.00  0.00     0.010 A 
ATOM     23  C   UNL A   1      39.212  25.697  28.759  1.00  0.00     0.010 A 
ATOM     24  C   UNL A   1      40.073  26.673  28.225  1.00  0.00    -0.014 A 
BRANCH  24  25
ATOM     25  C   UNL A   1      40.460  27.819  29.079  1.00  0.00     0.031 A 
ATOM     26  C   UNL A   1      41.699  27.712  29.920  1.00  0.00     0.074 A 
ATOM     27  C   UNL A   1      39.674  28.907  29.152  1.00  0.00     0.049 A 
ATOM     28  N   UNL A   1      42.097  28.475  30.904  1.00  0.00    -0.248 NA
ATOM     29  C   UNL A   1      42.605  26.592  29.616  1.00  0.00     0.031 C 
ATOM     30  C   UNL A   1      38.481  29.150  28.340  1.00  0.00     0.029 A 
ATOM     31  N   UNL A   1      39.749  30.003  29.976  1.00  0.00    -0.354 N 
ATOM     32  C   UNL A   1      43.286  27.913  31.357  1.00  0.00     0.074 A 
ATOM     33  C   UNL A   1      43.539  26.743  30.544  1.00  0.00     0.031 C 
ATOM     34  C   UNL A   1      37.923  30.312  28.722  1.00  0.00     0.029 A 
ATOM     35  C   UNL A   1      38.685  30.862  29.839  1.00  0.00     0.049 A 
ATOM     36  H   UNL A   1      40.491  30.157  30.604  1.00  0.00     0.167 HD
ATOM     37  C   UNL A   1      44.086  28.336  32.364  1.00  0.00     0.031 A 
ATOM     38  C   UNL A   1      38.341  31.944  30.566  1.00  0.00     0.031 A 
ATOM     39  C   UNL A   1      43.815  29.493  33.173  1.00  0.00     0.049 A 
ATOM     40  C   UNL A   1      39.201  32.345  31.735  1.00  0.00     0.074 A 
ATOM     41  C   UNL A   1      44.547  29.994  34.236  1.00  0.00     0.029 A 
ATOM     42  N   UNL A   1      42.726  30.335  33.005  1.00  0.00    -0.354 N 
ATOM     43  N   UNL A   1      40.303  31.788  32.178  1.00  0.00    -0.248 NA
ATOM     44  C   UNL A   1      38.770  33.522  32.504  1.00  0.00     0.031 C 
ATOM     45  C   UNL A   1      43.882  31.120  34.731  1.00  0.00     0.029 A 
ATOM     46  C   UNL A   1      42.764  31.349  33.945  1.00  0.00     0.049 A 
ATOM     47  H   UNL A   1      42.029  30.226  32.318  1.00  0.00     0.167 HD
ATOM     48  C   UNL A   1      40.715  32.566  33.254  1.00  0.00     0.074 A 
ATOM     49  C   UNL A   1      39.746  33.634  33.395  1.00  0.00     0.031 C 
ATOM     50  C   UNL A   1      41.801  32.416  34.051  1.00  0.00     0.031 A 
BRANCH  37  51
ATOM     51  C   UNL A   1      45.314  27.520  32.664  1.00  0.00    -0.014 A 
ATOM     52  C   UNL A   1      46.552  27.830  32.073  1.00  0.00     0.010 A 
ATOM     53  C   UNL A   1      45.238  26.454  33.579  1.00  0.00     0.010 A 
ATOM     54  C   UNL A   1      47.685  27.067  32.368  1.00  0.00     0.020 A 
ATOM     55  C   UNL A   1      46.374  25.703  33.893  1.00  0.00     0.020 A 
ATOM     56  C   UNL A   1      47.589  26.005  33.273  1.00  0.00     0.054 A 
BRANCH  56  57
ATOM     57  S   UNL A   1      49.081  25.047  33.656  1.00  0.00     0.124 S 
ATOM     58  O   UNL A   1      48.522  23.883  34.338  1.00  0.00    -0.237 OA
ATOM     59  O   UNL A   1      49.646  24.790  32.334  1.00  0.00    -0.237 OA
ATOM     60  O   UNL A   1      49.862  25.947  34.500  1.00  0.00    -0.744 OA
ENDBRANCH  56  57
ENDBRANCH  37  51
BRANCH  38  61
ATOM     61  C   UNL A   1      37.107  32.706  30.235  1.00  0.00    -0.014 A 
ATOM     62  C   UNL A   1      35.898  32.422  30.894  1.00  0.00     0.010 A 
ATOM     63  C   UNL A   1      37.130  33.712  29.252  1.00  0.00     0.010 A 
ATOM     64  C   UNL A   1      34.729  33.110  30.557  1.00  0.00     0.020 A 
ATOM     65  C   UNL A   1      35.969  34.421  28.931  1.00  0.00     0.020 A 
ATOM     66  C   UNL A   1      34.771  34.104  29.575  1.00  0.00     0.054 A 
BRANCH  66  67
ATOM     67  S   UNL A   1      33.250  35.007  29.175  1.00  0.00     0.124 S 
ATOM     68  O   UNL A   1      32.556  35.014  30.459  1.00  0.00    -0.237 OA
ATOM     69  O   UNL A   1      33.758  36.302  28.723  1.00  0.00    -0.237 OA
ATOM     70  O   UNL A   1      32.633  34.192  28.132  1.00  0.00    -0.744 OA
ENDBRANCH  66  67
ENDBRANCH  38  61
BRANCH  50  71
ATOM     71  C   UNL A   1      42.047  33.465  35.100  1.00  0.00    -0.014 A 
ATOM     72  C   UNL A   1      42.627  34.703  34.775  1.00  0.00     0.010 A 
ATOM     73  C   UNL A   1      41.613  33.231  36.417  1.00  0.00     0.010 A 
ATOM     74  C   UNL A   1      42.784  35.684  35.758  1.00  0.00     0.020 A 
ATOM     75  C   UNL A   1      41.749  34.217  37.396  1.00  0.00     0.020 A 
ATOM     76  C   UNL A   1      42.342  35.436  37.062  1.00  0.00     0.054 A 
BRANCH  76  77
ATOM     77  S   UNL A   1      42.493  36.749  38.305  1.00  0.00     0.124 S 
ATOM     78  O   UNL A   1      43.145  36.049  39.408  1.00  0.00    -0.237 OA
ATOM     79  O   UNL A   1      43.315  37.746  37.621  1.00  0.00    -0.237 OA
ATOM     80  O   UNL A   1      41.111  37.153  38.550  1.00  0.00    -0.744 OA
ENDBRANCH  76  77
ENDBRANCH  50  71
ENDBRANCH  24  25
ENDBRANCH  17  19
ENDBRANCH  16  17
ENDBRANCH   1  16
TORSDOF 17
ENDMDL
MODEL 3
REMARK VINA RESULT:      -8.6      5.126     12.070
REMARK SMILES CSC[C@H](C(=O)OCCOC(=O)c1ccc(-c2c3nc(c(-c4ccc(S(=O)(=O)[O-])cc4)c4ccc([nH]4)c(-c4ccc(S(=O)(=O)[O-])cc4)c4nc(c(-c5ccc(S(=O)(=O)[O-])cc5)c5ccc2[nH]5)C=C4)C=C3)cc1)c1ccccc1
REMARK SMILES IDX 9 1 8 2 7 3 5 4 6 5 4 6 3 7 2 8 1 9 73 10 74 11 78 12 75 13
REMARK SMILES IDX 77 14 76 15 10 16 11 17 12 18 13 19 14 20 72 21 15 22 71 23
REMARK SMILES IDX 16 24 17 25 18 26 65 27 19 28 70 29 64 30 66 31 20 32 69 33
REMARK SMILES IDX 63 34 62 35 21 37 51 38 32 39 50 40 33 41 36 42 49 43 67 44
REMARK SMILES IDX 34 45 35 46 48 48 68 49 37 50 22 51 23 52 31 53 24 54 30 55
REMARK SMILES IDX 25 56 26 57 27 58 28 59 29 60 52 61 53 62 61 63 54 64 60 65
REMARK SMILES IDX 55 66 56 67 57 68 58 69 59 70 38 71 39 72 47 73 40 74 46 75
REMARK SMILES IDX 41 76 42 77 43 78 44 79 45 80
REMARK H PARENT 66 36 36 47
REMARK Flexibility Score: inf
ROOT
ATOM      1  C   UNL A   1      44.300  24.797  24.901  1.00  0.00     0.275 C 
ENDROOT
BRANCH   1   2
ATOM      2  C   UNL A   1      43.907  23.320  24.890  1.00  0.00     0.274 C 
BRANCH   2   3
ATOM      3  O   UNL A   1      42.530  23.109  25.265  1.00  0.00    -0.462 OA
BRANCH   3   4
ATOM      4  C   UNL A   1      42.262  21.943  25.914  1.00  0.00     0.314 C 
ATOM      5  O   UNL A   1      42.645  20.842  25.531  1.00  0.00    -0.252 OA
BRANCH   4   6
ATOM      6  C   UNL A   1      41.304  22.105  27.091  1.00  0.00     0.139 C 
BRANCH   6   7
ATOM      7  C   UNL A   1      41.823  22.996  28.232  1.00  0.00     0.089 C 
BRANCH   7   8
ATOM      8  S   UNL A   1      43.535  22.649  28.783  1.00  0.00    -0.164 SA
ATOM      9  C   UNL A   1      43.854  24.074  29.854  1.00  0.00     0.085 C 
ENDBRANCH   7   8
ENDBRANCH   6   7
BRANCH   6  10
ATOM     10  C   UNL A   1      39.906  22.548  26.654  1.00  0.00    -0.033 A 
ATOM     11  C   UNL A   1      39.411  23.842  26.877  1.00  0.00     0.004 A 
ATOM     12  C   UNL A   1      39.081  21.621  25.993  1.00  0.00     0.004 A 
ATOM     13  C   UNL A   1      38.135  24.200  26.437  1.00  0.00     0.000 A 
ATOM     14  C   UNL A   1      37.801  21.978  25.568  1.00  0.00     0.000 A 
ATOM     15  C   UNL A   1      37.330  23.269  25.786  1.00  0.00     0.000 A 
ENDBRANCH   6  10
ENDBRANCH   4   6
ENDBRANCH   3   4
ENDBRANCH   2   3
ENDBRANCH   1   2
BRANCH   1  16
ATOM     16  O   UNL A   1      43.934  25.418  26.144  1.00  0.00    -0.458 OA
BRANCH  16  17
ATOM     17  C   UNL A   1      43.097  26.473  26.025  1.00  0.00     0.338 C 
ATOM     18  O   UNL A   1      42.656  26.951  24.997  1.00  0.00    -0.246 OA
BRANCH  17  19
ATOM     19  C   UNL A   1      42.768  26.983  27.361  1.00  0.00     0.060 A 
ATOM     20  C   UNL A   1      41.774  26.360  28.123  1.00  0.00     0.016 A 
ATOM     21  C   UNL A   1      43.393  28.144  27.812  1.00  0.00     0.016 A 
ATOM     22  C   UNL A   1      41.387  26.910  29.344  1.00  0.00     0.010 A 
ATOM     23  C   UNL A   1      43.010  28.689  29.036  1.00  0.00     0.010 A 
ATOM     24  C   UNL A   1      41.995  28.087  29.801  1.00  0.00    -0.014 A 
BRANCH  24  25
ATOM     25  C   UNL A   1      41.546  28.761  31.040  1.00  0.00     0.031 A 
ATOM     26  C   UNL A   1      40.371  29.693  30.976  1.00  0.00     0.074 A 
ATOM     27  C   UNL A   1      42.228  28.597  32.187  1.00  0.00     0.049 A 
ATOM     28  N   UNL A   1      39.955  30.560  31.861  1.00  0.00    -0.248 NA
ATOM     29  C   UNL A   1      39.560  29.643  29.747  1.00  0.00     0.031 C 
ATOM     30  C   UNL A   1      43.347  27.675  32.386  1.00  0.00     0.029 A 
ATOM     31  N   UNL A   1      42.095  29.229  33.398  1.00  0.00    -0.354 N 
ATOM     32  C   UNL A   1      38.851  31.181  31.288  1.00  0.00     0.074 A 
ATOM     33  C   UNL A   1      38.667  30.596  29.977  1.00  0.00     0.031 C 
ATOM     34  C   UNL A   1      43.812  27.818  33.639  1.00  0.00     0.029 A 
ATOM     35  C   UNL A   1      43.063  28.877  34.308  1.00  0.00     0.049 A 
ATOM     36  H   UNL A   1      41.375  29.872  33.595  1.00  0.00     0.167 HD
ATOM     37  C   UNL A   1      38.070  32.157  31.809  1.00  0.00     0.031 A 
ATOM     38  C   UNL A   1      43.341  29.387  35.524  1.00  0.00     0.031 A 
ATOM     39  C   UNL A   1      38.274  32.740  33.107  1.00  0.00     0.049 A 
ATOM     40  C   UNL A   1      42.511  30.529  36.047  1.00  0.00     0.074 A 
ATOM     41  C   UNL A   1      37.555  33.752  33.721  1.00  0.00     0.029 A 
ATOM     42  N   UNL A   1      39.266  32.358  33.996  1.00  0.00    -0.354 N 
ATOM     43  N   UNL A   1      41.493  31.134  35.484  1.00  0.00    -0.248 NA
ATOM     44  C   UNL A   1      42.869  31.058  37.371  1.00  0.00     0.031 C 
ATOM     45  C   UNL A   1      38.135  34.004  34.968  1.00  0.00     0.029 A 
ATOM     46  C   UNL A   1      39.183  33.115  35.151  1.00  0.00     0.049 A 
ATOM     47  H   UNL A   1      39.933  31.652  33.830  1.00  0.00     0.167 HD
ATOM     48  C   UNL A   1      41.067  32.090  36.399  1.00  0.00     0.074 A 
ATOM     49  C   UNL A   1      41.937  31.983  37.552  1.00  0.00     0.031 C 
ATOM     50  C   UNL A   1      40.044  32.974  36.298  1.00  0.00     0.031 A 
BRANCH  37  51
ATOM     51  C   UNL A   1      36.943  32.674  30.957  1.00  0.00    -0.014 A 
ATOM     52  C   UNL A   1      37.154  33.709  30.028  1.00  0.00     0.010 A 
ATOM     53  C   UNL A   1      35.667  32.092  31.058  1.00  0.00     0.010 A 
ATOM     54  C   UNL A   1      36.099  34.174  29.238  1.00  0.00     0.020 A 
ATOM     55  C   UNL A   1      34.615  32.539  30.254  1.00  0.00     0.020 A 
ATOM     56  C   UNL A   1      34.834  33.589  29.358  1.00  0.00     0.054 A 
BRANCH  56  57
ATOM     57  S   UNL A   1      33.488  34.194  28.303  1.00  0.00     0.124 S 
ATOM     58  O   UNL A   1      32.592  34.806  29.282  1.00  0.00    -0.237 OA
ATOM     59  O   UNL A   1      34.174  35.126  27.411  1.00  0.00    -0.237 OA
ATOM     60  O   UNL A   1      32.979  32.984  27.664  1.00  0.00    -0.744 OA
ENDBRANCH  56  57
ENDBRANCH  37  51
BRANCH  38  61
ATOM     61  C   UNL A   1      44.478  28.848  36.319  1.00  0.00    -0.014 A 
ATOM     62  C   UNL A   1      45.770  29.378  36.160  1.00  0.00     0.010 A 
ATOM     63  C   UNL A   1      44.277  27.795  37.230  1.00  0.00     0.010 A 
ATOM     64  C   UNL A   1      46.846  28.848  36.878  1.00  0.00     0.020 A 
ATOM     65  C   UNL A   1      45.346  27.280  37.968  1.00  0.00     0.020 A 
ATOM     66  C   UNL A   1      46.627  27.799  37.776  1.00  0.00     0.054 A 
BRANCH  66  67
ATOM     67  S   UNL A   1      48.031  27.146  38.720  1.00  0.00     0.124 S 
ATOM     68  O   UNL A   1      48.180  28.148  39.772  1.00  0.00    -0.237 OA
ATOM     69  O   UNL A   1      47.541  25.839  39.156  1.00  0.00    -0.237 OA
ATOM     70  O   UNL A   1      49.112  27.101  37.739  1.00  0.00    -0.744 OA
ENDBRANCH  66  67
ENDBRANCH  38  61
BRANCH  50  71
ATOM     71  C   UNL A   1      39.757  33.847  37.487  1.00  0.00    -0.014 A 
ATOM     72  C   UNL A   1      38.969  33.390  38.557  1.00  0.00     0.010 A 
ATOM     73  C   UNL A   1      40.356  35.118  37.565  1.00  0.00     0.010 A 
ATOM     74  C   UNL A   1      38.772  34.199  39.680  1.00  0.00     0.020 A 
ATOM     75  C   UNL A   1      40.178  35.919  38.695  1.00  0.00     0.020 A 
ATOM     76  C   UNL A   1      39.379  35.458  39.743  1.00  0.00     0.054 A 
BRANCH  76  77
ATOM     77  S   UNL A   1      39.166  36.462  41.239  1.00  0.00     0.124 S 
ATOM     78  O   UNL A   1      40.486  36.371  41.857  1.00  0.00    -0.237 OA
ATOM     79  O   UNL A   1      38.815  37.774  40.697  1.00  0.00    -0.237 OA
ATOM     80  O   UNL A   1      38.091  35.785  41.959  1.00  0.00    -0.744 OA
ENDBRANCH  76  77
ENDBRANCH  50  71
ENDBRANCH  24  25
ENDBRANCH  17  19
ENDBRANCH  16  17
ENDBRANCH   1  16
TORSDOF 17
ENDMDL
