MODEL 1
REMARK VINA RESULT:     -11.5      0.000      0.000
REMARK SMILES Cc1ccc(C)c(N2C(=O)C[C@@H](SCC(=O)OCCOC(=O)c3ccc(-c4c5nc(c(-c6ccc(S(=O)(=O)[O-])cc6)c6ccc([nH]6)c(-c6ccc(S(=O)(=O)[O-])cc6)c6nc(c(-c7ccc(S(=O)(=O)[O-])cc7)c7ccc4[nH]7)C=C6)C=C5)cc3)C2=O)c1
REMARK SMILES IDX 18 1 17 2 15 3 16 4 14 5 13 6 12 7 8 8 9 9 83 10 10 11 11 12
REMARK SMILES IDX 84 13 7 14 1 15 2 16 3 17 85 18 4 19 5 20 6 21 19 22 20 23
REMARK SMILES IDX 21 24 22 25 23 26 24 27 82 28 25 29 81 30 26 31 27 32 28 33
REMARK SMILES IDX 75 34 29 35 80 36 74 37 76 38 30 39 79 40 73 41 72 42 31 44
REMARK SMILES IDX 61 45 42 46 60 47 43 48 46 49 59 50 77 51 44 52 45 53 58 55
REMARK SMILES IDX 78 56 47 57 32 58 33 59 41 60 34 61 40 62 35 63 36 64 37 65
REMARK SMILES IDX 38 66 39 67 62 68 63 69 71 70 64 71 70 72 65 73 66 74 67 75
REMARK SMILES IDX 68 76 69 77 48 78 49 79 57 80 50 81 56 82 51 83 52 84 53 85
REMARK SMILES IDX 54 86 55 87
REMARK H PARENT 76 43 46 54
REMARK Flexibility Score: inf
ROOT
ATOM      1  C   UNL A   1      36.990  21.402  24.569  1.00  0.00     0.274 C 
ENDROOT
BRANCH   1   2
ATOM      2  O   UNL A   1      35.807  21.140  25.327  1.00  0.00    -0.461 OA
BRANCH   2   3
ATOM      3  C   UNL A   1      35.091  20.036  25.003  1.00  0.00     0.316 C 
ATOM      4  O   UNL A   1      35.589  18.988  24.619  1.00  0.00    -0.251 OA
BRANCH   3   5
ATOM      5  C   UNL A   1      33.629  20.172  25.365  1.00  0.00     0.192 C 
BRANCH   5   6
ATOM      6  S   UNL A   1      32.832  21.712  24.828  1.00  0.00    -0.136 SA
BRANCH   6   7
ATOM      7  C   UNL A   1      32.768  22.671  26.403  1.00  0.00     0.146 C 
ATOM      8  N   UNL A   1      32.657  24.956  26.004  1.00  0.00    -0.249 N 
ATOM      9  C   UNL A   1      31.391  24.618  26.403  1.00  0.00     0.235 C 
ATOM     10  C   UNL A   1      33.554  23.933  26.166  1.00  0.00     0.247 C 
ATOM     11  O   UNL A   1      30.406  25.340  26.478  1.00  0.00    -0.274 OA
ATOM     12  C   UNL A   1      31.388  23.168  26.791  1.00  0.00     0.125 C 
ATOM     13  O   UNL A   1      34.777  23.993  26.139  1.00  0.00    -0.273 OA
BRANCH   8  14
ATOM     14  C   UNL A   1      33.033  26.224  25.532  1.00  0.00     0.055 A 
ATOM     15  C   UNL A   1      34.248  29.526  26.990  1.00  0.00     0.044 C 
ATOM     16  C   UNL A   1      33.824  28.471  26.014  1.00  0.00    -0.049 A 
ATOM     17  C   UNL A   1      33.894  28.725  24.640  1.00  0.00     0.004 A 
ATOM     18  C   UNL A   1      33.368  27.224  26.454  1.00  0.00     0.030 A 
ATOM     19  C   UNL A   1      33.528  27.745  23.719  1.00  0.00     0.006 A 
ATOM     20  C   UNL A   1      33.089  26.486  24.148  1.00  0.00    -0.027 A 
ATOM     21  C   UNL A   1      32.670  25.491  23.100  1.00  0.00     0.046 C 
ENDBRANCH   8  14
ENDBRANCH   6   7
ENDBRANCH   5   6
ENDBRANCH   3   5
ENDBRANCH   2   3
ENDBRANCH   1   2
BRANCH   1  22
ATOM     22  C   UNL A   1      38.201  21.168  25.483  1.00  0.00     0.275 C 
BRANCH  22  23
ATOM     23  O   UNL A   1      38.758  22.342  26.166  1.00  0.00    -0.458 OA
BRANCH  23  24
ATOM     24  C   UNL A   1      39.841  22.468  26.975  1.00  0.00     0.338 C 
ATOM     25  O   UNL A   1      40.365  21.479  27.479  1.00  0.00    -0.246 OA
BRANCH  24  26
ATOM     26  C   UNL A   1      40.444  23.797  27.151  1.00  0.00     0.060 A 
ATOM     27  C   UNL A   1      39.953  24.883  26.409  1.00  0.00     0.016 A 
ATOM     28  C   UNL A   1      41.401  23.994  28.133  1.00  0.00     0.016 A 
ATOM     29  C   UNL A   1      40.281  26.182  26.793  1.00  0.00     0.010 A 
ATOM     30  C   UNL A   1      41.626  25.277  28.586  1.00  0.00     0.010 A 
ATOM     31  C   UNL A   1      41.065  26.382  27.932  1.00  0.00    -0.014 A 
BRANCH  31  32
ATOM     32  C   UNL A   1      41.189  27.718  28.532  1.00  0.00     0.031 A 
ATOM     33  C   UNL A   1      42.294  28.604  28.046  1.00  0.00     0.074 A 
ATOM     34  C   UNL A   1      40.210  28.282  29.270  1.00  0.00     0.049 A 
ATOM     35  N   UNL A   1      43.293  29.074  28.722  1.00  0.00    -0.248 NA
ATOM     36  C   UNL A   1      42.308  28.999  26.631  1.00  0.00     0.031 C 
ATOM     37  C   UNL A   1      38.904  27.713  29.626  1.00  0.00     0.029 A 
ATOM     38  N   UNL A   1      40.120  29.561  29.732  1.00  0.00    -0.354 N 
ATOM     39  C   UNL A   1      43.964  29.962  27.878  1.00  0.00     0.074 A 
ATOM     40  C   UNL A   1      43.398  29.768  26.568  1.00  0.00     0.031 C 
ATOM     41  C   UNL A   1      38.066  28.705  29.990  1.00  0.00     0.029 A 
ATOM     42  C   UNL A   1      38.839  29.925  30.110  1.00  0.00     0.049 A 
ATOM     43  H   UNL A   1      40.894  30.168  29.793  1.00  0.00     0.167 HD
ATOM     44  C   UNL A   1      44.793  30.936  28.359  1.00  0.00     0.031 A 
ATOM     45  C   UNL A   1      38.421  31.135  30.541  1.00  0.00     0.031 A 
ATOM     46  C   UNL A   1      45.010  30.789  29.775  1.00  0.00     0.049 A 
ATOM     47  C   UNL A   1      39.593  31.826  31.117  1.00  0.00     0.074 A 
ATOM     48  C   UNL A   1      45.661  29.904  30.604  1.00  0.00     0.029 A 
ATOM     49  N   UNL A   1      44.175  31.539  30.564  1.00  0.00    -0.354 N 
ATOM     50  N   UNL A   1      40.237  31.370  32.156  1.00  0.00    -0.248 NA
ATOM     51  C   UNL A   1      40.286  32.861  30.365  1.00  0.00     0.031 C 
ATOM     52  C   UNL A   1      44.917  29.913  31.822  1.00  0.00     0.029 A 
ATOM     53  C   UNL A   1      43.866  30.823  31.690  1.00  0.00     0.049 A 
ATOM     54  H   UNL A   1      43.851  32.445  30.355  1.00  0.00     0.167 HD
ATOM     55  C   UNL A   1      41.555  31.723  31.933  1.00  0.00     0.074 A 
ATOM     56  C   UNL A   1      41.491  32.789  30.941  1.00  0.00     0.031 C 
ATOM     57  C   UNL A   1      42.576  30.916  32.347  1.00  0.00     0.031 A 
BRANCH  44  58
ATOM     58  C   UNL A   1      45.092  32.268  27.693  1.00  0.00    -0.014 A 
ATOM     59  C   UNL A   1      46.398  32.802  27.818  1.00  0.00     0.010 A 
ATOM     60  C   UNL A   1      44.096  33.144  27.222  1.00  0.00     0.010 A 
ATOM     61  C   UNL A   1      46.667  34.158  27.589  1.00  0.00     0.020 A 
ATOM     62  C   UNL A   1      44.364  34.493  26.951  1.00  0.00     0.020 A 
ATOM     63  C   UNL A   1      45.637  35.002  27.181  1.00  0.00     0.054 A 
BRANCH  63  64
ATOM     64  S   UNL A   1      45.953  36.781  27.043  1.00  0.00     0.124 S 
ATOM     65  O   UNL A   1      46.698  37.049  28.269  1.00  0.00    -0.237 OA
ATOM     66  O   UNL A   1      46.721  36.868  25.804  1.00  0.00    -0.237 OA
ATOM     67  O   UNL A   1      44.615  37.362  26.982  1.00  0.00    -0.744 OA
ENDBRANCH  63  64
ENDBRANCH  44  58
BRANCH  45  68
ATOM     68  C   UNL A   1      37.094  31.751  30.372  1.00  0.00    -0.014 A 
ATOM     69  C   UNL A   1      36.448  32.395  31.436  1.00  0.00     0.010 A 
ATOM     70  C   UNL A   1      36.575  31.921  29.071  1.00  0.00     0.010 A 
ATOM     71  C   UNL A   1      35.352  33.238  31.202  1.00  0.00     0.020 A 
ATOM     72  C   UNL A   1      35.482  32.759  28.829  1.00  0.00     0.020 A 
ATOM     73  C   UNL A   1      34.892  33.434  29.895  1.00  0.00     0.054 A 
BRANCH  73  74
ATOM     74  S   UNL A   1      33.604  34.678  29.587  1.00  0.00     0.124 S 
ATOM     75  O   UNL A   1      32.648  33.940  28.767  1.00  0.00    -0.237 OA
ATOM     76  O   UNL A   1      33.156  35.011  30.937  1.00  0.00    -0.237 OA
ATOM     77  O   UNL A   1      34.320  35.749  28.895  1.00  0.00    -0.744 OA
ENDBRANCH  73  74
ENDBRANCH  45  68
BRANCH  57  78
ATOM     78  C   UNL A   1      42.267  29.870  33.394  1.00  0.00    -0.014 A 
ATOM     79  C   UNL A   1      41.728  28.605  33.094  1.00  0.00     0.010 A 
ATOM     80  C   UNL A   1      42.644  30.138  34.721  1.00  0.00     0.010 A 
ATOM     81  C   UNL A   1      41.542  27.644  34.096  1.00  0.00     0.020 A 
ATOM     82  C   UNL A   1      42.481  29.178  35.723  1.00  0.00     0.020 A 
ATOM     83  C   UNL A   1      41.921  27.939  35.408  1.00  0.00     0.054 A 
BRANCH  83  84
ATOM     84  S   UNL A   1      41.718  26.675  36.695  1.00  0.00     0.124 S 
ATOM     85  O   UNL A   1      42.942  26.822  37.479  1.00  0.00    -0.237 OA
ATOM     86  O   UNL A   1      40.488  27.088  37.367  1.00  0.00    -0.237 OA
ATOM     87  O   UNL A   1      41.612  25.426  35.941  1.00  0.00    -0.744 OA
ENDBRANCH  83  84
ENDBRANCH  57  78
ENDBRANCH  31  32
ENDBRANCH  24  26
ENDBRANCH  23  24
ENDBRANCH  22  23
ENDBRANCH   1  22
TORSDOF 17
ENDMDL
MODEL 2
REMARK VINA RESULT:     -11.5      2.717      9.420
REMARK SMILES Cc1ccc(C)c(N2C(=O)C[C@@H](SCC(=O)OCCOC(=O)c3ccc(-c4c5nc(c(-c6ccc(S(=O)(=O)[O-])cc6)c6ccc([nH]6)c(-c6ccc(S(=O)(=O)[O-])cc6)c6nc(c(-c7ccc(S(=O)(=O)[O-])cc7)c7ccc4[nH]7)C=C6)C=C5)cc3)C2=O)c1
REMARK SMILES IDX 18 1 17 2 15 3 16 4 14 5 13 6 12 7 8 8 9 9 83 10 10 11 11 12
REMARK SMILES IDX 84 13 7 14 1 15 2 16 3 17 85 18 4 19 5 20 6 21 19 22 20 23
REMARK SMILES IDX 21 24 22 25 23 26 24 27 82 28 25 29 81 30 26 31 27 32 28 33
REMARK SMILES IDX 75 34 29 35 80 36 74 37 76 38 30 39 79 40 73 41 72 42 31 44
REMARK SMILES IDX 61 45 42 46 60 47 43 48 46 49 59 50 77 51 44 52 45 53 58 55
REMARK SMILES IDX 78 56 47 57 32 58 33 59 41 60 34 61 40 62 35 63 36 64 37 65
REMARK SMILES IDX 38 66 39 67 62 68 63 69 71 70 64 71 70 72 65 73 66 74 67 75
REMARK SMILES IDX 68 76 69 77 48 78 49 79 57 80 50 81 56 82 51 83 52 84 53 85
REMARK SMILES IDX 54 86 55 87
REMARK H PARENT 76 43 46 54
REMARK Flexibility Score: inf
ROOT
ATOM      1  C   UNL A   1      32.337  29.758  25.357  1.00  0.00     0.274 C 
ENDROOT
BRANCH   1   2
ATOM      2  O   UNL A   1      31.081  29.735  24.677  1.00  0.00    -0.461 OA
BRANCH   2   3
ATOM      3  C   UNL A   1      30.914  28.803  23.707  1.00  0.00     0.316 C 
ATOM      4  O   UNL A   1      30.505  29.054  22.583  1.00  0.00    -0.251 OA
BRANCH   3   5
ATOM      5  C   UNL A   1      31.484  27.458  24.099  1.00  0.00     0.192 C 
BRANCH   5   6
ATOM      6  S   UNL A   1      30.506  26.517  25.303  1.00  0.00    -0.136 SA
BRANCH   6   7
ATOM      7  C   UNL A   1      31.812  25.920  26.462  1.00  0.00     0.146 C 
ATOM      8  N   UNL A   1      32.771  23.940  25.717  1.00  0.00    -0.249 N 
ATOM      9  C   UNL A   1      33.722  24.893  25.470  1.00  0.00     0.235 C 
ATOM     10  C   UNL A   1      31.725  24.416  26.464  1.00  0.00     0.247 C 
ATOM     11  O   UNL A   1      34.808  24.750  24.925  1.00  0.00    -0.274 OA
ATOM     12  C   UNL A   1      33.236  26.203  26.020  1.00  0.00     0.125 C 
ATOM     13  O   UNL A   1      30.863  23.773  27.050  1.00  0.00    -0.273 OA
BRANCH   8  14
ATOM     14  C   UNL A   1      32.860  22.598  25.312  1.00  0.00     0.055 A 
ATOM     15  C   UNL A   1      31.981  20.519  22.244  1.00  0.00     0.044 C 
ATOM     16  C   UNL A   1      32.480  20.915  23.600  1.00  0.00    -0.049 A 
ATOM     17  C   UNL A   1      33.115  19.969  24.412  1.00  0.00     0.004 A 
ATOM     18  C   UNL A   1      32.334  22.226  24.068  1.00  0.00     0.030 A 
ATOM     19  C   UNL A   1      33.609  20.327  25.665  1.00  0.00     0.006 A 
ATOM     20  C   UNL A   1      33.486  21.640  26.135  1.00  0.00    -0.027 A 
ATOM     21  C   UNL A   1      34.004  21.947  27.514  1.00  0.00     0.046 C 
ENDBRANCH   8  14
ENDBRANCH   6   7
ENDBRANCH   5   6
ENDBRANCH   3   5
ENDBRANCH   2   3
ENDBRANCH   1   2
BRANCH   1  22
ATOM     22  C   UNL A   1      32.111  30.359  26.751  1.00  0.00     0.275 C 
BRANCH  22  23
ATOM     23  O   UNL A   1      33.250  30.344  27.677  1.00  0.00    -0.458 OA
BRANCH  23  24
ATOM     24  C   UNL A   1      34.118  31.326  28.033  1.00  0.00     0.338 C 
ATOM     25  O   UNL A   1      33.710  32.384  28.501  1.00  0.00    -0.246 OA
BRANCH  24  26
ATOM     26  C   UNL A   1      35.562  31.060  27.950  1.00  0.00     0.060 A 
ATOM     27  C   UNL A   1      36.465  31.961  28.535  1.00  0.00     0.016 A 
ATOM     28  C   UNL A   1      36.012  29.867  27.409  1.00  0.00     0.016 A 
ATOM     29  C   UNL A   1      37.785  31.570  28.749  1.00  0.00     0.010 A 
ATOM     30  C   UNL A   1      37.282  29.436  27.731  1.00  0.00     0.010 A 
ATOM     31  C   UNL A   1      38.179  30.272  28.410  1.00  0.00    -0.014 A 
BRANCH  31  32
ATOM     32  C   UNL A   1      39.460  29.730  28.880  1.00  0.00     0.031 A 
ATOM     33  C   UNL A   1      39.641  29.537  30.354  1.00  0.00     0.074 A 
ATOM     34  C   UNL A   1      40.351  29.140  28.055  1.00  0.00     0.049 A 
ATOM     35  N   UNL A   1      40.502  30.113  31.132  1.00  0.00    -0.248 NA
ATOM     36  C   UNL A   1      38.743  28.614  31.058  1.00  0.00     0.031 C 
ATOM     37  C   UNL A   1      40.247  28.943  26.604  1.00  0.00     0.029 A 
ATOM     38  N   UNL A   1      41.481  28.448  28.376  1.00  0.00    -0.354 N 
ATOM     39  C   UNL A   1      40.381  29.502  32.383  1.00  0.00     0.074 A 
ATOM     40  C   UNL A   1      39.193  28.690  32.313  1.00  0.00     0.031 C 
ATOM     41  C   UNL A   1      41.098  27.969  26.221  1.00  0.00     0.029 A 
ATOM     42  C   UNL A   1      41.952  27.649  27.347  1.00  0.00     0.049 A 
ATOM     43  H   UNL A   1      41.921  28.512  29.255  1.00  0.00     0.167 HD
ATOM     44  C   UNL A   1      41.379  29.550  33.314  1.00  0.00     0.031 A 
ATOM     45  C   UNL A   1      43.003  26.802  27.380  1.00  0.00     0.031 A 
ATOM     46  C   UNL A   1      42.435  30.440  32.908  1.00  0.00     0.049 A 
ATOM     47  C   UNL A   1      43.921  27.280  28.434  1.00  0.00     0.074 A 
ATOM     48  C   UNL A   1      42.597  31.798  32.748  1.00  0.00     0.029 A 
ATOM     49  N   UNL A   1      43.483  29.832  32.265  1.00  0.00    -0.354 N 
ATOM     50  N   UNL A   1      44.508  28.444  28.379  1.00  0.00    -0.248 NA
ATOM     51  C   UNL A   1      43.963  26.626  29.733  1.00  0.00     0.031 C 
ATOM     52  C   UNL A   1      43.551  31.941  31.695  1.00  0.00     0.029 A 
ATOM     53  C   UNL A   1      43.947  30.666  31.283  1.00  0.00     0.049 A 
ATOM     54  H   UNL A   1      43.843  28.940  32.475  1.00  0.00     0.167 HD
ATOM     55  C   UNL A   1      44.590  28.856  29.696  1.00  0.00     0.074 A 
ATOM     56  C   UNL A   1      44.428  27.636  30.477  1.00  0.00     0.031 C 
ATOM     57  C   UNL A   1      44.480  30.177  30.026  1.00  0.00     0.031 A 
BRANCH  44  58
ATOM     58  C   UNL A   1      41.651  28.513  34.390  1.00  0.00    -0.014 A 
ATOM     59  C   UNL A   1      41.986  28.966  35.689  1.00  0.00     0.010 A 
ATOM     60  C   UNL A   1      41.886  27.152  34.119  1.00  0.00     0.010 A 
ATOM     61  C   UNL A   1      42.619  28.134  36.623  1.00  0.00     0.020 A 
ATOM     62  C   UNL A   1      42.481  26.300  35.060  1.00  0.00     0.020 A 
ATOM     63  C   UNL A   1      42.887  26.809  36.289  1.00  0.00     0.054 A 
BRANCH  63  64
ATOM     64  S   UNL A   1      43.846  25.784  37.434  1.00  0.00     0.124 S 
ATOM     65  O   UNL A   1      43.441  26.323  38.729  1.00  0.00    -0.237 OA
ATOM     66  O   UNL A   1      43.366  24.438  37.130  1.00  0.00    -0.237 OA
ATOM     67  O   UNL A   1      45.231  26.047  37.050  1.00  0.00    -0.744 OA
ENDBRANCH  63  64
ENDBRANCH  44  58
BRANCH  45  68
ATOM     68  C   UNL A   1      43.184  25.549  26.626  1.00  0.00    -0.014 A 
ATOM     69  C   UNL A   1      43.960  25.507  25.460  1.00  0.00     0.010 A 
ATOM     70  C   UNL A   1      42.787  24.329  27.213  1.00  0.00     0.010 A 
ATOM     71  C   UNL A   1      44.384  24.279  24.929  1.00  0.00     0.020 A 
ATOM     72  C   UNL A   1      43.204  23.102  26.688  1.00  0.00     0.020 A 
ATOM     73  C   UNL A   1      44.023  23.085  25.562  1.00  0.00     0.054 A 
BRANCH  73  74
ATOM     74  S   UNL A   1      44.742  21.522  24.980  1.00  0.00     0.124 S 
ATOM     75  O   UNL A   1      44.856  21.748  23.542  1.00  0.00    -0.237 OA
ATOM     76  O   UNL A   1      46.004  21.462  25.713  1.00  0.00    -0.237 OA
ATOM     77  O   UNL A   1      43.754  20.520  25.374  1.00  0.00    -0.744 OA
ENDBRANCH  73  74
ENDBRANCH  45  68
BRANCH  57  78
ATOM     78  C   UNL A   1      44.683  31.196  28.928  1.00  0.00    -0.014 A 
ATOM     79  C   UNL A   1      45.933  31.765  28.617  1.00  0.00     0.010 A 
ATOM     80  C   UNL A   1      43.587  31.503  28.106  1.00  0.00     0.010 A 
ATOM     81  C   UNL A   1      46.077  32.641  27.533  1.00  0.00     0.020 A 
ATOM     82  C   UNL A   1      43.726  32.359  27.010  1.00  0.00     0.020 A 
ATOM     83  C   UNL A   1      44.968  32.933  26.735  1.00  0.00     0.054 A 
BRANCH  83  84
ATOM     84  S   UNL A   1      45.169  34.033  25.307  1.00  0.00     0.124 S 
ATOM     85  O   UNL A   1      44.442  35.230  25.723  1.00  0.00    -0.237 OA
ATOM     86  O   UNL A   1      46.620  34.181  25.210  1.00  0.00    -0.237 OA
ATOM     87  O   UNL A   1      44.557  33.289  24.206  1.00  0.00    -0.744 OA
ENDBRANCH  83  84
ENDBRANCH  57  78
ENDBRANCH  31  32
ENDBRANCH  24  26
ENDBRANCH  23  24
ENDBRANCH  22  23
ENDBRANCH   1  22
TORSDOF 17
ENDMDL
MODEL 3
REMARK VINA RESULT:     -11.4      3.490      6.156
REMARK SMILES Cc1ccc(C)c(N2C(=O)C[C@@H](SCC(=O)OCCOC(=O)c3ccc(-c4c5nc(c(-c6ccc(S(=O)(=O)[O-])cc6)c6ccc([nH]6)c(-c6ccc(S(=O)(=O)[O-])cc6)c6nc(c(-c7ccc(S(=O)(=O)[O-])cc7)c7ccc4[nH]7)C=C6)C=C5)cc3)C2=O)c1
REMARK SMILES IDX 18 1 17 2 15 3 16 4 14 5 13 6 12 7 8 8 9 9 83 10 10 11 11 12
REMARK SMILES IDX 84 13 7 14 1 15 2 16 3 17 85 18 4 19 5 20 6 21 19 22 20 23
REMARK SMILES IDX 21 24 22 25 23 26 24 27 82 28 25 29 81 30 26 31 27 32 28 33
REMARK SMILES IDX 75 34 29 35 80 36 74 37 76 38 30 39 79 40 73 41 72 42 31 44
REMARK SMILES IDX 61 45 42 46 60 47 43 48 46 49 59 50 77 51 44 52 45 53 58 55
REMARK SMILES IDX 78 56 47 57 32 58 33 59 41 60 34 61 40 62 35 63 36 64 37 65
REMARK SMILES IDX 38 66 39 67 62 68 63 69 71 70 64 71 70 72 65 73 66 74 67 75
REMARK SMILES IDX 68 76 69 77 48 78 49 79 57 80 50 81 56 82 51 83 52 84 53 85
REMARK SMILES IDX 54 86 55 87
REMARK H PARENT 76 43 46 54
REMARK Flexibility Score: inf
ROOT
ATOM      1  C   UNL A   1      41.685  19.236  26.421  1.00  0.00     0.274 C 
ENDROOT
BRANCH   1   2
ATOM      2  O   UNL A   1      42.377  19.587  25.221  1.00  0.00    -0.461 OA
BRANCH   2   3
ATOM      3  C   UNL A   1      43.706  19.332  25.170  1.00  0.00     0.316 C 
ATOM      4  O   UNL A   1      44.184  18.209  25.097  1.00  0.00    -0.251 OA
BRANCH   3   5
ATOM      5  C   UNL A   1      44.527  20.591  25.005  1.00  0.00     0.192 C 
BRANCH   5   6
ATOM      6  S   UNL A   1      43.694  22.133  25.475  1.00  0.00    -0.136 SA
BRANCH   6   7
ATOM      7  C   UNL A   1      44.510  23.356  24.359  1.00  0.00     0.146 C 
ATOM      8  N   UNL A   1      45.773  24.892  25.557  1.00  0.00    -0.249 N 
ATOM      9  C   UNL A   1      46.700  24.064  24.982  1.00  0.00     0.235 C 
ATOM     10  C   UNL A   1      44.504  24.672  25.091  1.00  0.00     0.247 C 
ATOM     11  O   UNL A   1      47.916  24.087  25.114  1.00  0.00    -0.274 OA
ATOM     12  C   UNL A   1      45.981  23.094  24.091  1.00  0.00     0.125 C 
ATOM     13  O   UNL A   1      43.520  25.391  25.216  1.00  0.00    -0.273 OA
BRANCH   8  14
ATOM     14  C   UNL A   1      46.073  25.904  26.484  1.00  0.00     0.055 A 
ATOM     15  C   UNL A   1      47.291  29.512  26.417  1.00  0.00     0.044 C 
ATOM     16  C   UNL A   1      46.813  28.181  26.909  1.00  0.00    -0.049 A 
ATOM     17  C   UNL A   1      46.578  27.985  28.274  1.00  0.00     0.004 A 
ATOM     18  C   UNL A   1      46.580  27.125  26.020  1.00  0.00     0.030 A 
ATOM     19  C   UNL A   1      46.107  26.760  28.744  1.00  0.00     0.006 A 
ATOM     20  C   UNL A   1      45.853  25.704  27.861  1.00  0.00    -0.027 A 
ATOM     21  C   UNL A   1      45.386  24.396  28.443  1.00  0.00     0.046 C 
ENDBRANCH   8  14
ENDBRANCH   6   7
ENDBRANCH   5   6
ENDBRANCH   3   5
ENDBRANCH   2   3
ENDBRANCH   1   2
BRANCH   1  22
ATOM     22  C   UNL A   1      40.487  20.183  26.573  1.00  0.00     0.275 C 
BRANCH  22  23
ATOM     23  O   UNL A   1      40.784  21.602  26.803  1.00  0.00    -0.458 OA
BRANCH  23  24
ATOM     24  C   UNL A   1      39.990  22.700  26.718  1.00  0.00     0.338 C 
ATOM     25  O   UNL A   1      38.781  22.587  26.536  1.00  0.00    -0.246 OA
BRANCH  24  26
ATOM     26  C   UNL A   1      40.582  24.025  26.957  1.00  0.00     0.060 A 
ATOM     27  C   UNL A   1      40.173  25.116  26.175  1.00  0.00     0.016 A 
ATOM     28  C   UNL A   1      41.441  24.211  28.027  1.00  0.00     0.016 A 
ATOM     29  C   UNL A   1      40.472  26.411  26.593  1.00  0.00     0.010 A 
ATOM     30  C   UNL A   1      41.630  25.491  28.505  1.00  0.00     0.010 A 
ATOM     31  C   UNL A   1      41.143  26.603  27.804  1.00  0.00    -0.014 A 
BRANCH  31  32
ATOM     32  C   UNL A   1      41.219  27.935  28.418  1.00  0.00     0.031 A 
ATOM     33  C   UNL A   1      42.318  28.850  27.973  1.00  0.00     0.074 A 
ATOM     34  C   UNL A   1      40.204  28.471  29.129  1.00  0.00     0.049 A 
ATOM     35  N   UNL A   1      43.285  29.336  28.685  1.00  0.00    -0.248 NA
ATOM     36  C   UNL A   1      42.368  29.257  26.564  1.00  0.00     0.031 C 
ATOM     37  C   UNL A   1      38.902  27.871  29.439  1.00  0.00     0.029 A 
ATOM     38  N   UNL A   1      40.072  29.744  29.598  1.00  0.00    -0.354 N 
ATOM     39  C   UNL A   1      43.963  30.246  27.869  1.00  0.00     0.074 A 
ATOM     40  C   UNL A   1      43.442  30.050  26.540  1.00  0.00     0.031 C 
ATOM     41  C   UNL A   1      38.030  28.841  29.783  1.00  0.00     0.029 A 
ATOM     42  C   UNL A   1      38.771  30.077  29.938  1.00  0.00     0.049 A 
ATOM     43  H   UNL A   1      40.830  30.367  29.688  1.00  0.00     0.167 HD
ATOM     44  C   UNL A   1      44.754  31.234  28.384  1.00  0.00     0.031 A 
ATOM     45  C   UNL A   1      38.313  31.273  30.365  1.00  0.00     0.031 A 
ATOM     46  C   UNL A   1      44.929  31.079  29.805  1.00  0.00     0.049 A 
ATOM     47  C   UNL A   1      39.451  31.985  30.983  1.00  0.00     0.074 A 
ATOM     48  C   UNL A   1      45.574  30.202  30.648  1.00  0.00     0.029 A 
ATOM     49  N   UNL A   1      44.053  31.804  30.573  1.00  0.00    -0.354 N 
ATOM     50  N   UNL A   1      40.072  31.535  32.038  1.00  0.00    -0.248 NA
ATOM     51  C   UNL A   1      40.144  33.042  30.262  1.00  0.00     0.031 C 
ATOM     52  C   UNL A   1      44.791  30.184  31.841  1.00  0.00     0.029 A 
ATOM     53  C   UNL A   1      43.725  31.072  31.683  1.00  0.00     0.049 A 
ATOM     54  H   UNL A   1      43.716  32.704  30.361  1.00  0.00     0.167 HD
ATOM     55  C   UNL A   1      41.388  31.918  31.860  1.00  0.00     0.074 A 
ATOM     56  C   UNL A   1      41.331  32.991  30.875  1.00  0.00     0.031 C 
ATOM     57  C   UNL A   1      42.413  31.130  32.300  1.00  0.00     0.031 A 
BRANCH  44  58
ATOM     58  C   UNL A   1      45.044  32.577  27.738  1.00  0.00    -0.014 A 
ATOM     59  C   UNL A   1      46.384  33.037  27.720  1.00  0.00     0.010 A 
ATOM     60  C   UNL A   1      44.049  33.524  27.430  1.00  0.00     0.010 A 
ATOM     61  C   UNL A   1      46.699  34.387  27.512  1.00  0.00     0.020 A 
ATOM     62  C   UNL A   1      44.358  34.869  27.180  1.00  0.00     0.020 A 
ATOM     63  C   UNL A   1      45.676  35.300  27.270  1.00  0.00     0.054 A 
BRANCH  63  64
ATOM     64  S   UNL A   1      46.073  37.065  27.162  1.00  0.00     0.124 S 
ATOM     65  O   UNL A   1      44.755  37.655  26.945  1.00  0.00    -0.237 OA
ATOM     66  O   UNL A   1      46.679  37.331  28.464  1.00  0.00    -0.237 OA
ATOM     67  O   UNL A   1      46.989  37.141  26.027  1.00  0.00    -0.744 OA
ENDBRANCH  63  64
ENDBRANCH  44  58
BRANCH  45  68
ATOM     68  C   UNL A   1      36.978  31.861  30.159  1.00  0.00    -0.014 A 
ATOM     69  C   UNL A   1      36.273  32.454  31.214  1.00  0.00     0.010 A 
ATOM     70  C   UNL A   1      36.510  32.060  28.842  1.00  0.00     0.010 A 
ATOM     71  C   UNL A   1      35.165  33.277  30.959  1.00  0.00     0.020 A 
ATOM     72  C   UNL A   1      35.407  32.878  28.581  1.00  0.00     0.020 A 
ATOM     73  C   UNL A   1      34.755  33.503  29.641  1.00  0.00     0.054 A 
BRANCH  73  74
ATOM     74  S   UNL A   1      33.450  34.725  29.317  1.00  0.00     0.124 S 
ATOM     75  O   UNL A   1      32.583  34.013  28.384  1.00  0.00    -0.237 OA
ATOM     76  O   UNL A   1      32.894  34.954  30.648  1.00  0.00    -0.237 OA
ATOM     77  O   UNL A   1      34.175  35.860  28.749  1.00  0.00    -0.744 OA
ENDBRANCH  73  74
ENDBRANCH  45  68
BRANCH  57  78
ATOM     78  C   UNL A   1      42.095  30.069  33.328  1.00  0.00    -0.014 A 
ATOM     79  C   UNL A   1      41.558  28.809  33.004  1.00  0.00     0.010 A 
ATOM     80  C   UNL A   1      42.460  30.317  34.662  1.00  0.00     0.010 A 
ATOM     81  C   UNL A   1      41.363  27.833  33.991  1.00  0.00     0.020 A 
ATOM     82  C   UNL A   1      42.288  29.342  35.648  1.00  0.00     0.020 A 
ATOM     83  C   UNL A   1      41.731  28.108  35.310  1.00  0.00     0.054 A 
BRANCH  83  84
ATOM     84  S   UNL A   1      41.517  26.825  36.576  1.00  0.00     0.124 S 
ATOM     85  O   UNL A   1      41.160  25.653  35.782  1.00  0.00    -0.237 OA
ATOM     86  O   UNL A   1      42.830  26.776  37.216  1.00  0.00    -0.237 OA
ATOM     87  O   UNL A   1      40.445  27.349  37.423  1.00  0.00    -0.744 OA
ENDBRANCH  83  84
ENDBRANCH  57  78
ENDBRANCH  31  32
ENDBRANCH  24  26
ENDBRANCH  23  24
ENDBRANCH  22  23
ENDBRANCH   1  22
TORSDOF 17
ENDMDL
