MODEL 1
REMARK VINA RESULT:     -10.0      0.000      0.000
REMARK SMILES O=C(CC1(NC(=O)c2ccc3cc[nH]c3c2)CCC1)OCCOC(=O)c1ccc(-c2c3nc(c(-c4ccc(S(=O)(=O)[O-])cc4)c4ccc([nH]4)c(-c4ccc(S(=O)(=O)[O-])cc4)c4nc(c(-c5ccc(S(=O)(=O)[O-])cc5)c5ccc2[nH]5)C=C4)C=C3)cc1
REMARK SMILES IDX 21 1 20 2 2 3 1 4 3 5 4 6 17 7 19 8 18 9 5 10 6 11 7 13 8 14
REMARK SMILES IDX 9 15 16 16 10 17 15 18 11 19 14 20 12 21 13 22 22 24 23 25
REMARK SMILES IDX 24 26 25 27 26 28 27 29 85 30 28 31 84 32 29 33 30 34 31 35
REMARK SMILES IDX 78 36 32 37 83 38 77 39 79 40 33 41 82 42 76 43 75 44 34 46
REMARK SMILES IDX 64 47 45 48 63 49 46 50 49 51 62 52 80 53 47 54 48 55 61 57
REMARK SMILES IDX 81 58 50 59 35 60 36 61 44 62 37 63 43 64 38 65 39 66 40 67
REMARK SMILES IDX 41 68 42 69 65 70 66 71 74 72 67 73 73 74 68 75 69 76 70 77
REMARK SMILES IDX 71 78 72 79 51 80 52 81 60 82 53 83 59 84 54 85 55 86 56 87
REMARK SMILES IDX 57 88 58 89
REMARK H PARENT 5 12 14 23 79 45 49 56
REMARK Flexibility Score: inf
ROOT
ATOM      1  C   UNL A   1      33.306  34.123  27.963  1.00  0.00     0.274 C 
ENDROOT
BRANCH   1   2
ATOM      2  O   UNL A   1      34.105  35.162  28.538  1.00  0.00    -0.462 OA
BRANCH   2   3
ATOM      3  C   UNL A   1      33.442  36.220  29.034  1.00  0.00     0.308 C 
ATOM      4  O   UNL A   1      33.318  37.246  28.371  1.00  0.00    -0.252 OA
BRANCH   3   5
ATOM      5  C   UNL A   1      32.827  36.084  30.400  1.00  0.00     0.151 C 
BRANCH   5   6
ATOM      6  C   UNL A   1      33.492  35.395  31.596  1.00  0.00     0.051 C 
ATOM      7  C   UNL A   1      34.400  36.445  32.332  1.00  0.00     0.029 C 
ATOM      8  C   UNL A   1      32.544  35.490  32.849  1.00  0.00     0.029 C 
ATOM      9  C   UNL A   1      33.204  36.821  33.229  1.00  0.00     0.005 C 
BRANCH   6  10
ATOM     10  N   UNL A   1      34.184  34.041  31.615  1.00  0.00    -0.346 N 
ATOM     11  C   UNL A   1      35.340  33.283  31.530  1.00  0.00     0.251 C 
ATOM     12  H   UNL A   1      33.462  33.388  31.755  1.00  0.00     0.164 HD
ATOM     13  O   UNL A   1      35.214  32.105  31.893  1.00  0.00    -0.269 OA
BRANCH  11  14
ATOM     14  C   UNL A   1      36.665  33.601  30.976  1.00  0.00     0.041 A 
ATOM     15  C   UNL A   1      36.936  33.547  29.607  1.00  0.00     0.014 A 
ATOM     16  C   UNL A   1      37.587  34.242  31.820  1.00  0.00     0.040 A 
ATOM     17  C   UNL A   1      38.241  33.782  29.123  1.00  0.00     0.011 A 
ATOM     18  C   UNL A   1      38.897  34.421  31.345  1.00  0.00     0.046 A 
ATOM     19  C   UNL A   1      39.261  34.121  30.033  1.00  0.00    -0.001 A 
ATOM     20  N   UNL A   1      40.042  34.824  31.996  1.00  0.00    -0.361 N 
ATOM     21  C   UNL A   1      40.680  34.195  29.969  1.00  0.00     0.028 A 
ATOM     22  C   UNL A   1      41.137  34.577  31.211  1.00  0.00     0.083 A 
ATOM     23  H   UNL A   1      40.070  35.229  32.894  1.00  0.00     0.166 HD
ENDBRANCH  11  14
ENDBRANCH   6  10
ENDBRANCH   5   6
ENDBRANCH   3   5
ENDBRANCH   2   3
ENDBRANCH   1   2
BRANCH   1  24
ATOM     24  C   UNL A   1      33.705  32.699  28.387  1.00  0.00     0.275 C 
BRANCH  24  25
ATOM     25  O   UNL A   1      34.435  32.035  27.323  1.00  0.00    -0.458 OA
BRANCH  25  26
ATOM     26  C   UNL A   1      34.496  30.675  27.378  1.00  0.00     0.338 C 
ATOM     27  O   UNL A   1      33.645  29.930  26.954  1.00  0.00    -0.246 OA
BRANCH  26  28
ATOM     28  C   UNL A   1      35.799  30.181  27.978  1.00  0.00     0.060 A 
ATOM     29  C   UNL A   1      35.792  29.712  29.289  1.00  0.00     0.016 A 
ATOM     30  C   UNL A   1      37.017  30.145  27.291  1.00  0.00     0.016 A 
ATOM     31  C   UNL A   1      36.981  29.278  29.901  1.00  0.00     0.010 A 
ATOM     32  C   UNL A   1      38.216  29.761  27.898  1.00  0.00     0.010 A 
ATOM     33  C   UNL A   1      38.207  29.332  29.221  1.00  0.00    -0.014 A 
BRANCH  33  34
ATOM     34  C   UNL A   1      39.473  28.962  29.895  1.00  0.00     0.031 A 
ATOM     35  C   UNL A   1      39.912  29.713  31.120  1.00  0.00     0.074 A 
ATOM     36  C   UNL A   1      40.254  27.987  29.392  1.00  0.00     0.049 A 
ATOM     37  N   UNL A   1      40.849  29.411  31.981  1.00  0.00    -0.248 NA
ATOM     38  C   UNL A   1      39.215  30.978  31.405  1.00  0.00     0.031 C 
ATOM     39  C   UNL A   1      39.997  27.250  28.153  1.00  0.00     0.029 A 
ATOM     40  N   UNL A   1      41.425  27.451  29.863  1.00  0.00    -0.354 N 
ATOM     41  C   UNL A   1      40.819  30.414  32.942  1.00  0.00     0.074 A 
ATOM     42  C   UNL A   1      39.814  31.370  32.522  1.00  0.00     0.031 C 
ATOM     43  C   UNL A   1      40.987  26.362  27.959  1.00  0.00     0.029 A 
ATOM     44  C   UNL A   1      41.925  26.441  29.076  1.00  0.00     0.049 A 
ATOM     45  H   UNL A   1      41.867  27.761  30.687  1.00  0.00     0.167 HD
ATOM     46  C   UNL A   1      41.549  30.513  34.078  1.00  0.00     0.031 A 
ATOM     47  C   UNL A   1      42.995  25.642  29.255  1.00  0.00     0.031 A 
ATOM     48  C   UNL A   1      42.588  29.583  34.445  1.00  0.00     0.049 A 
ATOM     49  C   UNL A   1      43.781  25.747  30.533  1.00  0.00     0.074 A 
ATOM     50  C   UNL A   1      43.336  29.537  35.609  1.00  0.00     0.029 A 
ATOM     51  N   UNL A   1      43.047  28.552  33.636  1.00  0.00    -0.354 N 
ATOM     52  N   UNL A   1      43.619  26.582  31.533  1.00  0.00    -0.248 NA
ATOM     53  C   UNL A   1      44.863  24.772  30.729  1.00  0.00     0.031 C 
ATOM     54  C   UNL A   1      44.283  28.514  35.480  1.00  0.00     0.029 A 
ATOM     55  C   UNL A   1      44.086  27.885  34.261  1.00  0.00     0.049 A 
ATOM     56  H   UNL A   1      42.685  28.328  32.748  1.00  0.00     0.167 HD
ATOM     57  C   UNL A   1      44.555  26.210  32.492  1.00  0.00     0.074 A 
ATOM     58  C   UNL A   1      45.271  25.070  31.956  1.00  0.00     0.031 C 
ATOM     59  C   UNL A   1      44.795  26.758  33.710  1.00  0.00     0.031 A 
BRANCH  46  60
ATOM     60  C   UNL A   1      41.244  31.649  35.021  1.00  0.00    -0.014 A 
ATOM     61  C   UNL A   1      41.861  32.903  34.851  1.00  0.00     0.010 A 
ATOM     62  C   UNL A   1      40.275  31.498  36.029  1.00  0.00     0.010 A 
ATOM     63  C   UNL A   1      41.534  33.975  35.686  1.00  0.00     0.020 A 
ATOM     64  C   UNL A   1      39.927  32.575  36.853  1.00  0.00     0.020 A 
ATOM     65  C   UNL A   1      40.568  33.805  36.683  1.00  0.00     0.054 A 
BRANCH  65  66
ATOM     66  S   UNL A   1      40.136  35.226  37.725  1.00  0.00     0.124 S 
ATOM     67  O   UNL A   1      39.106  34.662  38.593  1.00  0.00    -0.237 OA
ATOM     68  O   UNL A   1      41.404  35.541  38.379  1.00  0.00    -0.237 OA
ATOM     69  O   UNL A   1      39.665  36.227  36.770  1.00  0.00    -0.744 OA
ENDBRANCH  65  66
ENDBRANCH  46  60
BRANCH  47  70
ATOM     70  C   UNL A   1      43.331  24.620  28.227  1.00  0.00    -0.014 A 
ATOM     71  C   UNL A   1      42.863  23.300  28.347  1.00  0.00     0.010 A 
ATOM     72  C   UNL A   1      44.102  24.974  27.104  1.00  0.00     0.010 A 
ATOM     73  C   UNL A   1      43.176  22.346  27.373  1.00  0.00     0.020 A 
ATOM     74  C   UNL A   1      44.396  24.028  26.117  1.00  0.00     0.020 A 
ATOM     75  C   UNL A   1      43.940  22.717  26.263  1.00  0.00     0.054 A 
BRANCH  75  76
ATOM     76  S   UNL A   1      44.287  21.477  24.985  1.00  0.00     0.124 S 
ATOM     77  O   UNL A   1      44.238  22.274  23.765  1.00  0.00    -0.237 OA
ATOM     78  O   UNL A   1      45.609  20.988  25.370  1.00  0.00    -0.237 OA
ATOM     79  O   UNL A   1      43.204  20.509  25.147  1.00  0.00    -0.744 OA
ENDBRANCH  75  76
ENDBRANCH  47  70
BRANCH  59  80
ATOM     80  C   UNL A   1      45.863  26.118  34.556  1.00  0.00    -0.014 A 
ATOM     81  C   UNL A   1      47.190  26.581  34.529  1.00  0.00     0.010 A 
ATOM     82  C   UNL A   1      45.521  25.067  35.427  1.00  0.00     0.010 A 
ATOM     83  C   UNL A   1      48.165  25.982  35.331  1.00  0.00     0.020 A 
ATOM     84  C   UNL A   1      46.488  24.482  36.250  1.00  0.00     0.020 A 
ATOM     85  C   UNL A   1      47.807  24.933  36.185  1.00  0.00     0.054 A 
BRANCH  85  86
ATOM     86  S   UNL A   1      49.082  24.196  37.244  1.00  0.00     0.124 S 
ATOM     87  O   UNL A   1      48.371  24.039  38.510  1.00  0.00    -0.237 OA
ATOM     88  O   UNL A   1      49.401  22.953  36.545  1.00  0.00    -0.237 OA
ATOM     89  O   UNL A   1      50.149  25.193  37.247  1.00  0.00    -0.744 OA
ENDBRANCH  85  86
ENDBRANCH  59  80
ENDBRANCH  33  34
ENDBRANCH  26  28
ENDBRANCH  25  26
ENDBRANCH  24  25
ENDBRANCH   1  24
TORSDOF 17
ENDMDL
MODEL 2
REMARK VINA RESULT:      -9.9      3.792      6.746
REMARK SMILES O=C(CC1(NC(=O)c2ccc3cc[nH]c3c2)CCC1)OCCOC(=O)c1ccc(-c2c3nc(c(-c4ccc(S(=O)(=O)[O-])cc4)c4ccc([nH]4)c(-c4ccc(S(=O)(=O)[O-])cc4)c4nc(c(-c5ccc(S(=O)(=O)[O-])cc5)c5ccc2[nH]5)C=C4)C=C3)cc1
REMARK SMILES IDX 21 1 20 2 2 3 1 4 3 5 4 6 17 7 19 8 18 9 5 10 6 11 7 13 8 14
REMARK SMILES IDX 9 15 16 16 10 17 15 18 11 19 14 20 12 21 13 22 22 24 23 25
REMARK SMILES IDX 24 26 25 27 26 28 27 29 85 30 28 31 84 32 29 33 30 34 31 35
REMARK SMILES IDX 78 36 32 37 83 38 77 39 79 40 33 41 82 42 76 43 75 44 34 46
REMARK SMILES IDX 64 47 45 48 63 49 46 50 49 51 62 52 80 53 47 54 48 55 61 57
REMARK SMILES IDX 81 58 50 59 35 60 36 61 44 62 37 63 43 64 38 65 39 66 40 67
REMARK SMILES IDX 41 68 42 69 65 70 66 71 74 72 67 73 73 74 68 75 69 76 70 77
REMARK SMILES IDX 71 78 72 79 51 80 52 81 60 82 53 83 59 84 54 85 55 86 56 87
REMARK SMILES IDX 57 88 58 89
REMARK H PARENT 5 12 14 23 79 45 49 56
REMARK Flexibility Score: inf
ROOT
ATOM      1  C   UNL A   1      32.714  27.228  26.149  1.00  0.00     0.274 C 
ENDROOT
BRANCH   1   2
ATOM      2  O   UNL A   1      33.101  25.850  26.128  1.00  0.00    -0.462 OA
BRANCH   2   3
ATOM      3  C   UNL A   1      32.108  24.950  26.229  1.00  0.00     0.308 C 
ATOM      4  O   UNL A   1      31.095  25.207  26.875  1.00  0.00    -0.252 OA
BRANCH   3   5
ATOM      5  C   UNL A   1      32.266  23.648  25.493  1.00  0.00     0.151 C 
BRANCH   5   6
ATOM      6  C   UNL A   1      33.100  23.455  24.223  1.00  0.00     0.051 C 
ATOM      7  C   UNL A   1      34.497  22.862  24.631  1.00  0.00     0.029 C 
ATOM      8  C   UNL A   1      32.795  22.039  23.606  1.00  0.00     0.029 C 
ATOM      9  C   UNL A   1      33.924  21.443  24.456  1.00  0.00     0.005 C 
BRANCH   6  10
ATOM     10  N   UNL A   1      33.295  24.446  23.086  1.00  0.00    -0.346 N 
ATOM     11  C   UNL A   1      32.986  25.652  22.478  1.00  0.00     0.251 C 
ATOM     12  H   UNL A   1      33.964  24.028  22.496  1.00  0.00     0.164 HD
ATOM     13  O   UNL A   1      33.762  25.989  21.574  1.00  0.00    -0.269 OA
BRANCH  11  14
ATOM     14  C   UNL A   1      31.831  26.547  22.642  1.00  0.00     0.041 A 
ATOM     15  C   UNL A   1      30.682  26.166  23.338  1.00  0.00     0.014 A 
ATOM     16  C   UNL A   1      32.011  27.905  22.332  1.00  0.00     0.040 A 
ATOM     17  C   UNL A   1      29.564  27.026  23.405  1.00  0.00     0.011 A 
ATOM     18  C   UNL A   1      30.880  28.738  22.351  1.00  0.00     0.046 A 
ATOM     19  C   UNL A   1      29.638  28.296  22.801  1.00  0.00    -0.001 A 
ATOM     20  N   UNL A   1      30.710  30.033  21.911  1.00  0.00    -0.361 N 
ATOM     21  C   UNL A   1      28.691  29.303  22.463  1.00  0.00     0.028 A 
ATOM     22  C   UNL A   1      29.375  30.338  21.864  1.00  0.00     0.083 A 
ATOM     23  H   UNL A   1      31.439  30.648  21.665  1.00  0.00     0.166 HD
ENDBRANCH  11  14
ENDBRANCH   6  10
ENDBRANCH   5   6
ENDBRANCH   3   5
ENDBRANCH   2   3
ENDBRANCH   1   2
BRANCH   1  24
ATOM     24  C   UNL A   1      33.876  28.217  26.339  1.00  0.00     0.275 C 
BRANCH  24  25
ATOM     25  O   UNL A   1      33.581  29.151  27.409  1.00  0.00    -0.458 OA
BRANCH  25  26
ATOM     26  C   UNL A   1      34.348  30.276  27.470  1.00  0.00     0.338 C 
ATOM     27  O   UNL A   1      34.014  31.361  27.059  1.00  0.00    -0.246 OA
BRANCH  26  28
ATOM     28  C   UNL A   1      35.666  30.036  28.183  1.00  0.00     0.060 A 
ATOM     29  C   UNL A   1      36.849  30.241  27.480  1.00  0.00     0.016 A 
ATOM     30  C   UNL A   1      35.775  29.637  29.520  1.00  0.00     0.016 A 
ATOM     31  C   UNL A   1      38.094  29.998  28.087  1.00  0.00     0.010 A 
ATOM     32  C   UNL A   1      37.002  29.347  30.124  1.00  0.00     0.010 A 
ATOM     33  C   UNL A   1      38.178  29.515  29.401  1.00  0.00    -0.014 A 
BRANCH  33  34
ATOM     34  C   UNL A   1      39.484  29.170  30.009  1.00  0.00     0.031 A 
ATOM     35  C   UNL A   1      39.984  29.950  31.192  1.00  0.00     0.074 A 
ATOM     36  C   UNL A   1      40.246  28.193  29.481  1.00  0.00     0.049 A 
ATOM     37  N   UNL A   1      40.971  29.673  32.004  1.00  0.00    -0.248 NA
ATOM     38  C   UNL A   1      39.290  31.213  31.492  1.00  0.00     0.031 C 
ATOM     39  C   UNL A   1      39.927  27.430  28.273  1.00  0.00     0.029 A 
ATOM     40  N   UNL A   1      41.447  27.678  29.894  1.00  0.00    -0.354 N 
ATOM     41  C   UNL A   1      40.985  30.695  32.946  1.00  0.00     0.074 A 
ATOM     42  C   UNL A   1      39.948  31.633  32.566  1.00  0.00     0.031 C 
ATOM     43  C   UNL A   1      40.914  26.548  28.040  1.00  0.00     0.029 A 
ATOM     44  C   UNL A   1      41.913  26.658  29.099  1.00  0.00     0.049 A 
ATOM     45  H   UNL A   1      41.932  28.009  30.686  1.00  0.00     0.167 HD
ATOM     46  C   UNL A   1      41.778  30.823  34.037  1.00  0.00     0.031 A 
ATOM     47  C   UNL A   1      43.000  25.873  29.232  1.00  0.00     0.031 A 
ATOM     48  C   UNL A   1      42.846  29.911  34.361  1.00  0.00     0.049 A 
ATOM     49  C   UNL A   1      43.856  26.011  30.461  1.00  0.00     0.074 A 
ATOM     50  C   UNL A   1      43.659  29.895  35.481  1.00  0.00     0.029 A 
ATOM     51  N   UNL A   1      43.269  28.869  33.547  1.00  0.00    -0.354 N 
ATOM     52  N   UNL A   1      43.742  26.864  31.452  1.00  0.00    -0.248 NA
ATOM     53  C   UNL A   1      44.958  25.050  30.613  1.00  0.00     0.031 C 
ATOM     54  C   UNL A   1      44.609  28.879  35.318  1.00  0.00     0.029 A 
ATOM     55  C   UNL A   1      44.349  28.225  34.124  1.00  0.00     0.049 A 
ATOM     56  H   UNL A   1      42.860  28.624  32.686  1.00  0.00     0.167 HD
ATOM     57  C   UNL A   1      44.735  26.520  32.363  1.00  0.00     0.074 A 
ATOM     58  C   UNL A   1      45.432  25.376  31.809  1.00  0.00     0.031 C 
ATOM     59  C   UNL A   1      45.038  27.093  33.555  1.00  0.00     0.031 A 
BRANCH  46  60
ATOM     60  C   UNL A   1      41.515  31.974  34.973  1.00  0.00    -0.014 A 
ATOM     61  C   UNL A   1      42.167  33.209  34.790  1.00  0.00     0.010 A 
ATOM     62  C   UNL A   1      40.550  31.860  35.990  1.00  0.00     0.010 A 
ATOM     63  C   UNL A   1      41.879  34.296  35.620  1.00  0.00     0.020 A 
ATOM     64  C   UNL A   1      40.241  32.953  36.808  1.00  0.00     0.020 A 
ATOM     65  C   UNL A   1      40.917  34.161  36.625  1.00  0.00     0.054 A 
BRANCH  65  66
ATOM     66  S   UNL A   1      40.536  35.602  37.660  1.00  0.00     0.124 S 
ATOM     67  O   UNL A   1      39.535  35.061  38.575  1.00  0.00    -0.237 OA
ATOM     68  O   UNL A   1      41.830  35.916  38.261  1.00  0.00    -0.237 OA
ATOM     69  O   UNL A   1      40.037  36.592  36.708  1.00  0.00    -0.744 OA
ENDBRANCH  65  66
ENDBRANCH  46  60
BRANCH  47  70
ATOM     70  C   UNL A   1      43.287  24.835  28.206  1.00  0.00    -0.014 A 
ATOM     71  C   UNL A   1      44.112  25.122  27.105  1.00  0.00     0.010 A 
ATOM     72  C   UNL A   1      42.754  23.539  28.342  1.00  0.00     0.010 A 
ATOM     73  C   UNL A   1      44.385  24.139  26.147  1.00  0.00     0.020 A 
ATOM     74  C   UNL A   1      43.045  22.548  27.400  1.00  0.00     0.020 A 
ATOM     75  C   UNL A   1      43.850  22.858  26.303  1.00  0.00     0.054 A 
BRANCH  75  76
ATOM     76  S   UNL A   1      44.261  21.583  25.078  1.00  0.00     0.124 S 
ATOM     77  O   UNL A   1      45.612  21.204  25.475  1.00  0.00    -0.237 OA
ATOM     78  O   UNL A   1      43.226  20.578  25.309  1.00  0.00    -0.237 OA
ATOM     79  O   UNL A   1      44.156  22.290  23.803  1.00  0.00    -0.744 OA
ENDBRANCH  75  76
ENDBRANCH  47  70
BRANCH  59  80
ATOM     80  C   UNL A   1      46.159  26.481  34.350  1.00  0.00    -0.014 A 
ATOM     81  C   UNL A   1      45.924  25.427  35.251  1.00  0.00     0.010 A 
ATOM     82  C   UNL A   1      47.477  26.936  34.158  1.00  0.00     0.010 A 
ATOM     83  C   UNL A   1      46.980  24.863  35.972  1.00  0.00     0.020 A 
ATOM     84  C   UNL A   1      48.539  26.357  34.857  1.00  0.00     0.020 A 
ATOM     85  C   UNL A   1      48.282  25.335  35.771  1.00  0.00     0.054 A 
BRANCH  85  86
ATOM     86  S   UNL A   1      49.642  24.562  36.690  1.00  0.00     0.124 S 
ATOM     87  O   UNL A   1      49.757  23.265  36.027  1.00  0.00    -0.237 OA
ATOM     88  O   UNL A   1      50.751  25.485  36.460  1.00  0.00    -0.237 OA
ATOM     89  O   UNL A   1      49.150  24.518  38.064  1.00  0.00    -0.744 OA
ENDBRANCH  85  86
ENDBRANCH  59  80
ENDBRANCH  33  34
ENDBRANCH  26  28
ENDBRANCH  25  26
ENDBRANCH  24  25
ENDBRANCH   1  24
TORSDOF 17
ENDMDL
MODEL 3
REMARK VINA RESULT:      -9.8      5.381     11.511
REMARK SMILES O=C(CC1(NC(=O)c2ccc3cc[nH]c3c2)CCC1)OCCOC(=O)c1ccc(-c2c3nc(c(-c4ccc(S(=O)(=O)[O-])cc4)c4ccc([nH]4)c(-c4ccc(S(=O)(=O)[O-])cc4)c4nc(c(-c5ccc(S(=O)(=O)[O-])cc5)c5ccc2[nH]5)C=C4)C=C3)cc1
REMARK SMILES IDX 21 1 20 2 2 3 1 4 3 5 4 6 17 7 19 8 18 9 5 10 6 11 7 13 8 14
REMARK SMILES IDX 9 15 16 16 10 17 15 18 11 19 14 20 12 21 13 22 22 24 23 25
REMARK SMILES IDX 24 26 25 27 26 28 27 29 85 30 28 31 84 32 29 33 30 34 31 35
REMARK SMILES IDX 78 36 32 37 83 38 77 39 79 40 33 41 82 42 76 43 75 44 34 46
REMARK SMILES IDX 64 47 45 48 63 49 46 50 49 51 62 52 80 53 47 54 48 55 61 57
REMARK SMILES IDX 81 58 50 59 35 60 36 61 44 62 37 63 43 64 38 65 39 66 40 67
REMARK SMILES IDX 41 68 42 69 65 70 66 71 74 72 67 73 73 74 68 75 69 76 70 77
REMARK SMILES IDX 71 78 72 79 51 80 52 81 60 82 53 83 59 84 54 85 55 86 56 87
REMARK SMILES IDX 57 88 58 89
REMARK H PARENT 5 12 14 23 79 45 49 56
REMARK Flexibility Score: inf
ROOT
ATOM      1  C   UNL A   1      35.442  23.276  24.066  1.00  0.00     0.274 C 
ENDROOT
BRANCH   1   2
ATOM      2  O   UNL A   1      34.863  24.425  24.691  1.00  0.00    -0.462 OA
BRANCH   2   3
ATOM      3  C   UNL A   1      34.162  25.249  23.893  1.00  0.00     0.308 C 
ATOM      4  O   UNL A   1      34.040  25.004  22.696  1.00  0.00    -0.252 OA
BRANCH   3   5
ATOM      5  C   UNL A   1      33.504  26.445  24.525  1.00  0.00     0.151 C 
BRANCH   5   6
ATOM      6  C   UNL A   1      32.115  26.441  25.171  1.00  0.00     0.051 C 
ATOM      7  C   UNL A   1      31.936  27.782  25.970  1.00  0.00     0.029 C 
ATOM      8  C   UNL A   1      31.064  27.027  24.155  1.00  0.00     0.029 C 
ATOM      9  C   UNL A   1      31.335  28.431  24.708  1.00  0.00     0.005 C 
BRANCH   6  10
ATOM     10  N   UNL A   1      31.459  25.310  25.947  1.00  0.00    -0.346 N 
ATOM     11  C   UNL A   1      31.349  23.960  26.238  1.00  0.00     0.251 C 
ATOM     12  H   UNL A   1      30.789  25.749  26.518  1.00  0.00     0.164 HD
ATOM     13  O   UNL A   1      30.684  23.702  27.251  1.00  0.00    -0.269 OA
BRANCH  11  14
ATOM     14  C   UNL A   1      31.788  22.773  25.490  1.00  0.00     0.041 A 
ATOM     15  C   UNL A   1      31.779  22.721  24.095  1.00  0.00     0.014 A 
ATOM     16  C   UNL A   1      32.492  21.782  26.195  1.00  0.00     0.040 A 
ATOM     17  C   UNL A   1      32.132  21.535  23.416  1.00  0.00     0.011 A 
ATOM     18  C   UNL A   1      32.790  20.585  25.523  1.00  0.00     0.046 A 
ATOM     19  C   UNL A   1      32.542  20.413  24.163  1.00  0.00    -0.001 A 
ATOM     20  N   UNL A   1      33.278  19.386  25.996  1.00  0.00    -0.361 N 
ATOM     21  C   UNL A   1      32.738  19.033  23.876  1.00  0.00     0.028 A 
ATOM     22  C   UNL A   1      33.138  18.416  25.040  1.00  0.00     0.083 A 
ATOM     23  H   UNL A   1      33.669  19.247  26.890  1.00  0.00     0.166 HD
ENDBRANCH  11  14
ENDBRANCH   6  10
ENDBRANCH   5   6
ENDBRANCH   3   5
ENDBRANCH   2   3
ENDBRANCH   1   2
BRANCH   1  24
ATOM     24  C   UNL A   1      36.580  22.617  24.865  1.00  0.00     0.275 C 
BRANCH  24  25
ATOM     25  O   UNL A   1      37.664  23.558  25.080  1.00  0.00    -0.458 OA
BRANCH  25  26
ATOM     26  C   UNL A   1      38.590  23.221  26.021  1.00  0.00     0.338 C 
ATOM     27  O   UNL A   1      38.969  22.097  26.243  1.00  0.00    -0.246 OA
BRANCH  26  28
ATOM     28  C   UNL A   1      39.156  24.437  26.731  1.00  0.00     0.060 A 
ATOM     29  C   UNL A   1      38.807  24.653  28.061  1.00  0.00     0.016 A 
ATOM     30  C   UNL A   1      40.031  25.355  26.140  1.00  0.00     0.016 A 
ATOM     31  C   UNL A   1      39.278  25.785  28.751  1.00  0.00     0.010 A 
ATOM     32  C   UNL A   1      40.471  26.508  26.796  1.00  0.00     0.010 A 
ATOM     33  C   UNL A   1      40.084  26.739  28.112  1.00  0.00    -0.014 A 
BRANCH  33  34
ATOM     34  C   UNL A   1      40.504  27.976  28.809  1.00  0.00     0.031 A 
ATOM     35  C   UNL A   1      41.878  28.063  29.410  1.00  0.00     0.074 A 
ATOM     36  C   UNL A   1      39.647  29.006  28.945  1.00  0.00     0.049 A 
ATOM     37  N   UNL A   1      42.519  29.113  29.854  1.00  0.00    -0.248 NA
ATOM     38  C   UNL A   1      42.623  26.800  29.541  1.00  0.00     0.031 C 
ATOM     39  C   UNL A   1      38.252  29.013  28.500  1.00  0.00     0.029 A 
ATOM     40  N   UNL A   1      39.827  30.247  29.501  1.00  0.00    -0.354 N 
ATOM     41  C   UNL A   1      43.763  28.652  30.266  1.00  0.00     0.074 A 
ATOM     42  C   UNL A   1      43.763  27.215  30.079  1.00  0.00     0.031 C 
ATOM     43  C   UNL A   1      37.701  30.200  28.808  1.00  0.00     0.029 A 
ATOM     44  C   UNL A   1      38.711  31.047  29.436  1.00  0.00     0.049 A 
ATOM     45  H   UNL A   1      40.675  30.537  29.909  1.00  0.00     0.167 HD
ATOM     46  C   UNL A   1      44.813  29.368  30.736  1.00  0.00     0.031 A 
ATOM     47  C   UNL A   1      38.534  32.332  29.802  1.00  0.00     0.031 A 
ATOM     48  C   UNL A   1      44.769  30.789  30.974  1.00  0.00     0.049 A 
ATOM     49  C   UNL A   1      39.715  33.120  30.299  1.00  0.00     0.074 A 
ATOM     50  C   UNL A   1      45.794  31.631  31.370  1.00  0.00     0.029 A 
ATOM     51  N   UNL A   1      43.629  31.573  30.866  1.00  0.00    -0.354 N 
ATOM     52  N   UNL A   1      40.948  32.717  30.501  1.00  0.00    -0.248 NA
ATOM     53  C   UNL A   1      39.493  34.548  30.570  1.00  0.00     0.031 C 
ATOM     54  C   UNL A   1      45.261  32.912  31.555  1.00  0.00     0.029 A 
ATOM     55  C   UNL A   1      43.918  32.880  31.217  1.00  0.00     0.049 A 
ATOM     56  H   UNL A   1      42.745  31.247  30.581  1.00  0.00     0.167 HD
ATOM     57  C   UNL A   1      41.656  33.849  30.890  1.00  0.00     0.074 A 
ATOM     58  C   UNL A   1      40.717  34.952  30.884  1.00  0.00     0.031 C 
ATOM     59  C   UNL A   1      42.969  33.966  31.215  1.00  0.00     0.031 A 
BRANCH  46  60
ATOM     60  C   UNL A   1      46.104  28.639  31.007  1.00  0.00    -0.014 A 
ATOM     61  C   UNL A   1      46.366  28.100  32.282  1.00  0.00     0.010 A 
ATOM     62  C   UNL A   1      47.025  28.411  29.970  1.00  0.00     0.010 A 
ATOM     63  C   UNL A   1      47.535  27.371  32.519  1.00  0.00     0.020 A 
ATOM     64  C   UNL A   1      48.186  27.661  30.196  1.00  0.00     0.020 A 
ATOM     65  C   UNL A   1      48.439  27.155  31.474  1.00  0.00     0.054 A 
BRANCH  65  66
ATOM     66  S   UNL A   1      49.927  26.171  31.802  1.00  0.00     0.124 S 
ATOM     67  O   UNL A   1      50.558  26.128  30.486  1.00  0.00    -0.237 OA
ATOM     68  O   UNL A   1      50.625  26.971  32.806  1.00  0.00    -0.237 OA
ATOM     69  O   UNL A   1      49.402  24.896  32.282  1.00  0.00    -0.744 OA
ENDBRANCH  65  66
ENDBRANCH  46  60
BRANCH  47  70
ATOM     70  C   UNL A   1      37.200  32.968  29.634  1.00  0.00    -0.014 A 
ATOM     71  C   UNL A   1      36.354  33.164  30.739  1.00  0.00     0.010 A 
ATOM     72  C   UNL A   1      36.779  33.405  28.365  1.00  0.00     0.010 A 
ATOM     73  C   UNL A   1      35.103  33.769  30.576  1.00  0.00     0.020 A 
ATOM     74  C   UNL A   1      35.540  34.032  28.202  1.00  0.00     0.020 A 
ATOM     75  C   UNL A   1      34.705  34.200  29.308  1.00  0.00     0.054 A 
BRANCH  75  76
ATOM     76  S   UNL A   1      33.102  35.032  29.129  1.00  0.00     0.124 S 
ATOM     77  O   UNL A   1      32.439  34.204  28.128  1.00  0.00    -0.237 OA
ATOM     78  O   UNL A   1      32.553  34.953  30.482  1.00  0.00    -0.237 OA
ATOM     79  O   UNL A   1      33.464  36.378  28.691  1.00  0.00    -0.744 OA
ENDBRANCH  75  76
ENDBRANCH  47  70
BRANCH  59  80
ATOM     80  C   UNL A   1      43.472  35.339  31.571  1.00  0.00    -0.014 A 
ATOM     81  C   UNL A   1      43.973  36.210  30.588  1.00  0.00     0.010 A 
ATOM     82  C   UNL A   1      43.396  35.781  32.905  1.00  0.00     0.010 A 
ATOM     83  C   UNL A   1      44.425  37.486  30.937  1.00  0.00     0.020 A 
ATOM     84  C   UNL A   1      43.822  37.066  33.254  1.00  0.00     0.020 A 
ATOM     85  C   UNL A   1      44.347  37.904  32.270  1.00  0.00     0.054 A 
BRANCH  85  86
ATOM     86  S   UNL A   1      44.904  39.578  32.692  1.00  0.00     0.124 S 
ATOM     87  O   UNL A   1      44.328  40.372  31.610  1.00  0.00    -0.237 OA
ATOM     88  O   UNL A   1      44.312  39.791  34.011  1.00  0.00    -0.237 OA
ATOM     89  O   UNL A   1      46.360  39.472  32.680  1.00  0.00    -0.744 OA
ENDBRANCH  85  86
ENDBRANCH  59  80
ENDBRANCH  33  34
ENDBRANCH  26  28
ENDBRANCH  25  26
ENDBRANCH  24  25
ENDBRANCH   1  24
TORSDOF 17
ENDMDL
