MODEL 1
REMARK VINA RESULT:     -10.4      0.000      0.000
REMARK SMILES C[C@@H](NC(=O)[C@@H]1CC[C@@H]2CCCC[C@@H]2[NH2+]1)C(=O)OCCOC(=O)c1ccc(-c2c3nc(c(-c4ccc(S(=O)(=O)[O-])cc4)c4ccc([nH]4)c(-c4ccc(S(=O)(=O)[O-])cc4)c4nc(c(-c5ccc(S(=O)(=O)[O-])cc5)c5ccc2[nH]5)C=C4)C=C3)cc1
REMARK SMILES IDX 20 1 19 2 18 3 16 4 17 5 2 6 1 7 3 8 4 9 5 11 6 12 7 13
REMARK SMILES IDX 15 14 8 15 14 16 9 19 13 20 10 21 12 22 11 23 21 24 22 25
REMARK SMILES IDX 23 26 24 27 25 28 83 29 26 30 82 31 27 32 28 33 29 34 76 35
REMARK SMILES IDX 30 36 81 37 75 38 77 39 31 40 80 41 74 42 73 43 32 45 62 46
REMARK SMILES IDX 43 47 61 48 44 49 47 50 60 51 78 52 45 53 46 54 59 56 79 57
REMARK SMILES IDX 48 58 33 59 34 60 42 61 35 62 41 63 36 64 37 65 38 66 39 67
REMARK SMILES IDX 40 68 63 69 64 70 72 71 65 72 71 73 66 74 67 75 68 76 69 77
REMARK SMILES IDX 70 78 49 79 50 80 58 81 51 82 57 83 52 84 53 85 54 86 55 87
REMARK SMILES IDX 56 88
REMARK H PARENT 3 10 15 17 15 18 77 44 47 55
REMARK Flexibility Score: inf
ROOT
ATOM      1  C   UNL A   1      33.994  28.389  25.518  1.00  0.00     0.275 C 
ENDROOT
BRANCH   1   2
ATOM      2  C   UNL A   1      32.507  28.487  25.182  1.00  0.00     0.274 C 
BRANCH   2   3
ATOM      3  O   UNL A   1      31.710  27.277  25.101  1.00  0.00    -0.461 OA
BRANCH   3   4
ATOM      4  C   UNL A   1      31.057  26.748  26.158  1.00  0.00     0.328 C 
ATOM      5  O   UNL A   1      31.296  26.966  27.338  1.00  0.00    -0.250 OA
BRANCH   4   6
ATOM      6  C   UNL A   1      29.955  25.770  25.744  1.00  0.00     0.189 C 
ATOM      7  C   UNL A   1      29.545  26.202  24.333  1.00  0.00     0.043 C 
BRANCH   6   8
ATOM      8  N   UNL A   1      30.197  24.323  25.772  1.00  0.00    -0.338 N 
ATOM      9  C   UNL A   1      31.268  23.622  25.279  1.00  0.00     0.278 C 
ATOM     10  H   UNL A   1      29.495  23.783  26.201  1.00  0.00     0.164 HD
ATOM     11  O   UNL A   1      31.640  22.668  25.972  1.00  0.00    -0.268 OA
BRANCH   9  12
ATOM     12  C   UNL A   1      31.830  23.863  23.853  1.00  0.00     0.272 C 
ATOM     13  C   UNL A   1      32.260  22.557  23.152  1.00  0.00     0.076 C 
ATOM     14  N   UNL A   1      32.857  24.898  23.725  1.00  0.00    -0.333 N 
ATOM     15  C   UNL A   1      33.713  22.151  23.417  1.00  0.00     0.016 C 
ATOM     16  C   UNL A   1      34.236  24.544  24.007  1.00  0.00     0.186 C 
ATOM     17  H   UNL A   1      32.604  25.654  24.362  1.00  0.00     0.347 HD
ATOM     18  H   UNL A   1      32.856  25.128  22.732  1.00  0.00     0.347 HD
ATOM     19  C   UNL A   1      34.654  23.337  23.162  1.00  0.00     0.048 C 
ATOM     20  C   UNL A   1      34.529  24.351  25.502  1.00  0.00     0.065 C 
ATOM     21  C   UNL A   1      36.131  23.008  23.410  1.00  0.00     0.010 C 
ATOM     22  C   UNL A   1      35.997  24.002  25.740  1.00  0.00     0.006 C 
ATOM     23  C   UNL A   1      36.467  22.825  24.888  1.00  0.00     0.001 C 
ENDBRANCH   9  12
ENDBRANCH   6   8
ENDBRANCH   4   6
ENDBRANCH   3   4
ENDBRANCH   2   3
ENDBRANCH   1   2
BRANCH   1  24
ATOM     24  O   UNL A   1      34.162  28.331  26.947  1.00  0.00    -0.458 OA
BRANCH  24  25
ATOM     25  C   UNL A   1      34.313  29.549  27.522  1.00  0.00     0.338 C 
ATOM     26  O   UNL A   1      33.468  30.421  27.639  1.00  0.00    -0.246 OA
BRANCH  25  27
ATOM     27  C   UNL A   1      35.699  29.713  27.989  1.00  0.00     0.060 A 
ATOM     28  C   UNL A   1      36.710  30.051  27.083  1.00  0.00     0.016 A 
ATOM     29  C   UNL A   1      36.013  29.340  29.298  1.00  0.00     0.016 A 
ATOM     30  C   UNL A   1      38.049  29.953  27.472  1.00  0.00     0.010 A 
ATOM     31  C   UNL A   1      37.351  29.256  29.689  1.00  0.00     0.010 A 
ATOM     32  C   UNL A   1      38.376  29.509  28.762  1.00  0.00    -0.014 A 
BRANCH  32  33
ATOM     33  C   UNL A   1      39.771  29.104  29.071  1.00  0.00     0.031 A 
ATOM     34  C   UNL A   1      40.673  30.093  29.768  1.00  0.00     0.074 A 
ATOM     35  C   UNL A   1      40.226  27.874  28.776  1.00  0.00     0.049 A 
ATOM     36  N   UNL A   1      41.927  29.971  30.117  1.00  0.00    -0.248 NA
ATOM     37  C   UNL A   1      40.072  31.390  30.128  1.00  0.00     0.031 C 
ATOM     38  C   UNL A   1      39.441  26.805  28.160  1.00  0.00     0.029 A 
ATOM     39  N   UNL A   1      41.465  27.315  28.965  1.00  0.00    -0.354 N 
ATOM     40  C   UNL A   1      42.271  31.175  30.724  1.00  0.00     0.074 A 
ATOM     41  C   UNL A   1      41.097  32.019  30.681  1.00  0.00     0.031 C 
ATOM     42  C   UNL A   1      40.219  25.716  28.025  1.00  0.00     0.029 A 
ATOM     43  C   UNL A   1      41.564  26.022  28.511  1.00  0.00     0.049 A 
ATOM     44  H   UNL A   1      42.214  27.796  29.387  1.00  0.00     0.167 HD
ATOM     45  C   UNL A   1      43.453  31.547  31.269  1.00  0.00     0.031 A 
ATOM     46  C   UNL A   1      42.623  25.188  28.476  1.00  0.00     0.031 A 
ATOM     47  C   UNL A   1      44.626  30.716  31.301  1.00  0.00     0.049 A 
ATOM     48  C   UNL A   1      43.950  25.651  29.022  1.00  0.00     0.074 A 
ATOM     49  C   UNL A   1      45.876  31.007  31.819  1.00  0.00     0.029 A 
ATOM     50  N   UNL A   1      44.696  29.429  30.790  1.00  0.00    -0.354 N 
ATOM     51  N   UNL A   1      44.258  26.794  29.586  1.00  0.00    -0.248 NA
ATOM     52  C   UNL A   1      45.071  24.703  28.929  1.00  0.00     0.031 C 
ATOM     53  C   UNL A   1      46.714  29.911  31.583  1.00  0.00     0.029 A 
ATOM     54  C   UNL A   1      45.970  28.918  30.965  1.00  0.00     0.049 A 
ATOM     55  H   UNL A   1      43.948  28.949  30.366  1.00  0.00     0.167 HD
ATOM     56  C   UNL A   1      45.598  26.689  29.947  1.00  0.00     0.074 A 
ATOM     57  C   UNL A   1      46.039  25.370  29.542  1.00  0.00     0.031 C 
ATOM     58  C   UNL A   1      46.392  27.601  30.563  1.00  0.00     0.031 A 
BRANCH  45  59
ATOM     59  C   UNL A   1      43.544  32.941  31.829  1.00  0.00    -0.014 A 
ATOM     60  C   UNL A   1      43.282  33.203  33.186  1.00  0.00     0.010 A 
ATOM     61  C   UNL A   1      43.905  34.006  30.983  1.00  0.00     0.010 A 
ATOM     62  C   UNL A   1      43.335  34.511  33.676  1.00  0.00     0.020 A 
ATOM     63  C   UNL A   1      43.982  35.312  31.474  1.00  0.00     0.020 A 
ATOM     64  C   UNL A   1      43.676  35.558  32.814  1.00  0.00     0.054 A 
BRANCH  64  65
ATOM     65  S   UNL A   1      43.738  37.248  33.473  1.00  0.00     0.124 S 
ATOM     66  O   UNL A   1      43.901  38.040  32.256  1.00  0.00    -0.237 OA
ATOM     67  O   UNL A   1      42.446  37.381  34.141  1.00  0.00    -0.237 OA
ATOM     68  O   UNL A   1      44.896  37.230  34.363  1.00  0.00    -0.744 OA
ENDBRANCH  64  65
ENDBRANCH  45  59
BRANCH  46  69
ATOM     69  C   UNL A   1      42.481  23.828  27.888  1.00  0.00    -0.014 A 
ATOM     70  C   UNL A   1      42.094  22.738  28.687  1.00  0.00     0.010 A 
ATOM     71  C   UNL A   1      42.752  23.614  26.524  1.00  0.00     0.010 A 
ATOM     72  C   UNL A   1      41.997  21.456  28.137  1.00  0.00     0.020 A 
ATOM     73  C   UNL A   1      42.632  22.339  25.965  1.00  0.00     0.020 A 
ATOM     74  C   UNL A   1      42.267  21.264  26.779  1.00  0.00     0.054 A 
BRANCH  74  75
ATOM     75  S   UNL A   1      42.094  19.601  26.074  1.00  0.00     0.124 S 
ATOM     76  O   UNL A   1      42.553  18.757  27.171  1.00  0.00    -0.237 OA
ATOM     77  O   UNL A   1      40.665  19.531  25.775  1.00  0.00    -0.237 OA
ATOM     78  O   UNL A   1      42.964  19.637  24.901  1.00  0.00    -0.744 OA
ENDBRANCH  74  75
ENDBRANCH  46  69
BRANCH  58  79
ATOM     79  C   UNL A   1      47.803  27.186  30.887  1.00  0.00    -0.014 A 
ATOM     80  C   UNL A   1      48.876  27.511  30.039  1.00  0.00     0.010 A 
ATOM     81  C   UNL A   1      48.061  26.494  32.084  1.00  0.00     0.010 A 
ATOM     82  C   UNL A   1      50.177  27.117  30.364  1.00  0.00     0.020 A 
ATOM     83  C   UNL A   1      49.362  26.121  32.425  1.00  0.00     0.020 A 
ATOM     84  C   UNL A   1      50.412  26.419  31.553  1.00  0.00     0.054 A 
BRANCH  84  85
ATOM     85  S   UNL A   1      52.111  25.939  31.971  1.00  0.00     0.124 S 
ATOM     86  O   UNL A   1      51.941  24.548  32.381  1.00  0.00    -0.237 OA
ATOM     87  O   UNL A   1      52.823  26.140  30.712  1.00  0.00    -0.237 OA
ATOM     88  O   UNL A   1      52.478  26.864  33.040  1.00  0.00    -0.744 OA
ENDBRANCH  84  85
ENDBRANCH  58  79
ENDBRANCH  32  33
ENDBRANCH  25  27
ENDBRANCH  24  25
ENDBRANCH   1  24
TORSDOF 16
ENDMDL
MODEL 2
REMARK VINA RESULT:     -10.3      4.429     10.460
REMARK SMILES C[C@@H](NC(=O)[C@@H]1CC[C@@H]2CCCC[C@@H]2[NH2+]1)C(=O)OCCOC(=O)c1ccc(-c2c3nc(c(-c4ccc(S(=O)(=O)[O-])cc4)c4ccc([nH]4)c(-c4ccc(S(=O)(=O)[O-])cc4)c4nc(c(-c5ccc(S(=O)(=O)[O-])cc5)c5ccc2[nH]5)C=C4)C=C3)cc1
REMARK SMILES IDX 20 1 19 2 18 3 16 4 17 5 2 6 1 7 3 8 4 9 5 11 6 12 7 13
REMARK SMILES IDX 15 14 8 15 14 16 9 19 13 20 10 21 12 22 11 23 21 24 22 25
REMARK SMILES IDX 23 26 24 27 25 28 83 29 26 30 82 31 27 32 28 33 29 34 76 35
REMARK SMILES IDX 30 36 81 37 75 38 77 39 31 40 80 41 74 42 73 43 32 45 62 46
REMARK SMILES IDX 43 47 61 48 44 49 47 50 60 51 78 52 45 53 46 54 59 56 79 57
REMARK SMILES IDX 48 58 33 59 34 60 42 61 35 62 41 63 36 64 37 65 38 66 39 67
REMARK SMILES IDX 40 68 63 69 64 70 72 71 65 72 71 73 66 74 67 75 68 76 69 77
REMARK SMILES IDX 70 78 49 79 50 80 58 81 51 82 57 83 52 84 53 85 54 86 55 87
REMARK SMILES IDX 56 88
REMARK H PARENT 3 10 15 17 15 18 77 44 47 55
REMARK Flexibility Score: inf
ROOT
ATOM      1  C   UNL A   1      43.543  23.926  25.851  1.00  0.00     0.275 C 
ENDROOT
BRANCH   1   2
ATOM      2  C   UNL A   1      43.535  22.487  25.336  1.00  0.00     0.274 C 
BRANCH   2   3
ATOM      3  O   UNL A   1      42.272  21.789  25.184  1.00  0.00    -0.461 OA
BRANCH   3   4
ATOM      4  C   UNL A   1      41.726  21.026  26.155  1.00  0.00     0.328 C 
ATOM      5  O   UNL A   1      42.073  19.895  26.465  1.00  0.00    -0.250 OA
BRANCH   4   6
ATOM      6  C   UNL A   1      40.548  21.710  26.852  1.00  0.00     0.189 C 
ATOM      7  C   UNL A   1      41.104  22.195  28.195  1.00  0.00     0.043 C 
BRANCH   6   8
ATOM      8  N   UNL A   1      39.824  22.801  26.190  1.00  0.00    -0.338 N 
ATOM      9  C   UNL A   1      38.470  23.012  26.116  1.00  0.00     0.278 C 
ATOM     10  H   UNL A   1      40.385  23.470  25.737  1.00  0.00     0.164 HD
ATOM     11  O   UNL A   1      38.114  24.193  26.202  1.00  0.00    -0.268 OA
BRANCH   9  12
ATOM     12  C   UNL A   1      37.477  21.886  25.729  1.00  0.00     0.272 C 
ATOM     13  C   UNL A   1      37.428  21.630  24.208  1.00  0.00     0.076 C 
ATOM     14  N   UNL A   1      36.130  21.983  26.295  1.00  0.00    -0.333 N 
ATOM     15  C   UNL A   1      36.405  22.489  23.459  1.00  0.00     0.016 C 
ATOM     16  C   UNL A   1      35.155  22.821  25.621  1.00  0.00     0.186 C 
ATOM     17  H   UNL A   1      36.228  22.341  27.245  1.00  0.00     0.347 HD
ATOM     18  H   UNL A   1      35.754  21.040  26.205  1.00  0.00     0.347 HD
ATOM     19  C   UNL A   1      35.036  22.413  24.149  1.00  0.00     0.048 C 
ATOM     20  C   UNL A   1      35.406  24.325  25.801  1.00  0.00     0.065 C 
ATOM     21  C   UNL A   1      33.956  23.252  23.458  1.00  0.00     0.010 C 
ATOM     22  C   UNL A   1      34.340  25.155  25.090  1.00  0.00     0.006 C 
ATOM     23  C   UNL A   1      34.161  24.755  23.627  1.00  0.00     0.001 C 
ENDBRANCH   9  12
ENDBRANCH   6   8
ENDBRANCH   4   6
ENDBRANCH   3   4
ENDBRANCH   2   3
ENDBRANCH   1   2
BRANCH   1  24
ATOM     24  O   UNL A   1      42.228  24.496  25.706  1.00  0.00    -0.458 OA
BRANCH  24  25
ATOM     25  C   UNL A   1      42.224  25.851  25.708  1.00  0.00     0.338 C 
ATOM     26  O   UNL A   1      42.254  26.591  24.740  1.00  0.00    -0.246 OA
BRANCH  25  27
ATOM     27  C   UNL A   1      42.205  26.348  27.093  1.00  0.00     0.060 A 
ATOM     28  C   UNL A   1      41.156  25.999  27.951  1.00  0.00     0.016 A 
ATOM     29  C   UNL A   1      43.140  27.315  27.470  1.00  0.00     0.016 A 
ATOM     30  C   UNL A   1      41.005  26.671  29.167  1.00  0.00     0.010 A 
ATOM     31  C   UNL A   1      42.995  27.975  28.693  1.00  0.00     0.010 A 
ATOM     32  C   UNL A   1      41.896  27.695  29.522  1.00  0.00    -0.014 A 
BRANCH  32  33
ATOM     33  C   UNL A   1      41.560  28.611  30.641  1.00  0.00     0.031 A 
ATOM     34  C   UNL A   1      42.404  28.565  31.891  1.00  0.00     0.074 A 
ATOM     35  C   UNL A   1      40.550  29.494  30.545  1.00  0.00     0.049 A 
ATOM     36  N   UNL A   1      42.287  29.250  32.999  1.00  0.00    -0.248 NA
ATOM     37  C   UNL A   1      43.539  27.625  31.883  1.00  0.00     0.031 C 
ATOM     38  C   UNL A   1      39.699  29.684  29.372  1.00  0.00     0.029 A 
ATOM     39  N   UNL A   1      40.078  30.406  31.456  1.00  0.00    -0.354 N 
ATOM     40  C   UNL A   1      43.320  28.817  33.823  1.00  0.00     0.074 A 
ATOM     41  C   UNL A   1      44.044  27.800  33.094  1.00  0.00     0.031 C 
ATOM     42  C   UNL A   1      38.807  30.656  29.634  1.00  0.00     0.029 A 
ATOM     43  C   UNL A   1      39.002  31.132  31.004  1.00  0.00     0.049 A 
ATOM     44  H   UNL A   1      40.473  30.529  32.350  1.00  0.00     0.167 HD
ATOM     45  C   UNL A   1      43.641  29.228  35.073  1.00  0.00     0.031 A 
ATOM     46  C   UNL A   1      38.251  32.060  31.629  1.00  0.00     0.031 A 
ATOM     47  C   UNL A   1      42.916  30.230  35.807  1.00  0.00     0.049 A 
ATOM     48  C   UNL A   1      38.582  32.449  33.048  1.00  0.00     0.074 A 
ATOM     49  C   UNL A   1      43.154  30.706  37.084  1.00  0.00     0.029 A 
ATOM     50  N   UNL A   1      41.806  30.909  35.328  1.00  0.00    -0.354 N 
ATOM     51  N   UNL A   1      39.559  32.026  33.815  1.00  0.00    -0.248 NA
ATOM     52  C   UNL A   1      37.708  33.448  33.683  1.00  0.00     0.031 C 
ATOM     53  C   UNL A   1      42.162  31.643  37.394  1.00  0.00     0.029 A 
ATOM     54  C   UNL A   1      41.337  31.787  36.290  1.00  0.00     0.049 A 
ATOM     55  H   UNL A   1      41.409  30.784  34.436  1.00  0.00     0.167 HD
ATOM     56  C   UNL A   1      39.437  32.732  35.008  1.00  0.00     0.074 A 
ATOM     57  C   UNL A   1      38.297  33.613  34.859  1.00  0.00     0.031 C 
ATOM     58  C   UNL A   1      40.204  32.662  36.124  1.00  0.00     0.031 A 
BRANCH  45  59
ATOM     59  C   UNL A   1      44.805  28.548  35.743  1.00  0.00    -0.014 A 
ATOM     60  C   UNL A   1      44.617  27.440  36.588  1.00  0.00     0.010 A 
ATOM     61  C   UNL A   1      46.109  29.025  35.517  1.00  0.00     0.010 A 
ATOM     62  C   UNL A   1      45.710  26.849  37.230  1.00  0.00     0.020 A 
ATOM     63  C   UNL A   1      47.206  28.422  36.138  1.00  0.00     0.020 A 
ATOM     64  C   UNL A   1      46.996  27.349  37.007  1.00  0.00     0.054 A 
BRANCH  64  65
ATOM     65  S   UNL A   1      48.398  26.566  37.851  1.00  0.00     0.124 S 
ATOM     66  O   UNL A   1      49.219  26.125  36.727  1.00  0.00    -0.237 OA
ATOM     67  O   UNL A   1      48.952  27.662  38.642  1.00  0.00    -0.237 OA
ATOM     68  O   UNL A   1      47.779  25.494  38.628  1.00  0.00    -0.744 OA
ENDBRANCH  64  65
ENDBRANCH  45  59
BRANCH  46  69
ATOM     69  C   UNL A   1      37.097  32.684  30.926  1.00  0.00    -0.014 A 
ATOM     70  C   UNL A   1      35.815  32.111  31.004  1.00  0.00     0.010 A 
ATOM     71  C   UNL A   1      37.281  33.849  30.159  1.00  0.00     0.010 A 
ATOM     72  C   UNL A   1      34.742  32.682  30.313  1.00  0.00     0.020 A 
ATOM     73  C   UNL A   1      36.205  34.436  29.486  1.00  0.00     0.020 A 
ATOM     74  C   UNL A   1      34.944  33.841  29.558  1.00  0.00     0.054 A 
BRANCH  74  75
ATOM     75  S   UNL A   1      33.530  34.591  28.703  1.00  0.00     0.124 S 
ATOM     76  O   UNL A   1      34.158  35.698  27.989  1.00  0.00    -0.237 OA
ATOM     77  O   UNL A   1      33.046  33.493  27.870  1.00  0.00    -0.237 OA
ATOM     78  O   UNL A   1      32.637  34.973  29.794  1.00  0.00    -0.744 OA
ENDBRANCH  74  75
ENDBRANCH  46  69
BRANCH  58  79
ATOM     79  C   UNL A   1      39.870  33.599  37.256  1.00  0.00    -0.014 A 
ATOM     80  C   UNL A   1      38.949  33.244  38.255  1.00  0.00     0.010 A 
ATOM     81  C   UNL A   1      40.525  34.842  37.337  1.00  0.00     0.010 A 
ATOM     82  C   UNL A   1      38.659  34.131  39.296  1.00  0.00     0.020 A 
ATOM     83  C   UNL A   1      40.257  35.721  38.389  1.00  0.00     0.020 A 
ATOM     84  C   UNL A   1      39.311  35.367  39.353  1.00  0.00     0.054 A 
BRANCH  84  85
ATOM     85  S   UNL A   1      38.941  36.494  40.726  1.00  0.00     0.124 S 
ATOM     86  O   UNL A   1      40.249  36.641  41.359  1.00  0.00    -0.237 OA
ATOM     87  O   UNL A   1      38.436  37.682  40.042  1.00  0.00    -0.237 OA
ATOM     88  O   UNL A   1      37.946  35.767  41.511  1.00  0.00    -0.744 OA
ENDBRANCH  84  85
ENDBRANCH  58  79
ENDBRANCH  32  33
ENDBRANCH  25  27
ENDBRANCH  24  25
ENDBRANCH   1  24
TORSDOF 16
ENDMDL
MODEL 3
REMARK VINA RESULT:     -10.3      1.102      1.915
REMARK SMILES C[C@@H](NC(=O)[C@@H]1CC[C@@H]2CCCC[C@@H]2[NH2+]1)C(=O)OCCOC(=O)c1ccc(-c2c3nc(c(-c4ccc(S(=O)(=O)[O-])cc4)c4ccc([nH]4)c(-c4ccc(S(=O)(=O)[O-])cc4)c4nc(c(-c5ccc(S(=O)(=O)[O-])cc5)c5ccc2[nH]5)C=C4)C=C3)cc1
REMARK SMILES IDX 20 1 19 2 18 3 16 4 17 5 2 6 1 7 3 8 4 9 5 11 6 12 7 13
REMARK SMILES IDX 15 14 8 15 14 16 9 19 13 20 10 21 12 22 11 23 21 24 22 25
REMARK SMILES IDX 23 26 24 27 25 28 83 29 26 30 82 31 27 32 28 33 29 34 76 35
REMARK SMILES IDX 30 36 81 37 75 38 77 39 31 40 80 41 74 42 73 43 32 45 62 46
REMARK SMILES IDX 43 47 61 48 44 49 47 50 60 51 78 52 45 53 46 54 59 56 79 57
REMARK SMILES IDX 48 58 33 59 34 60 42 61 35 62 41 63 36 64 37 65 38 66 39 67
REMARK SMILES IDX 40 68 63 69 64 70 72 71 65 72 71 73 66 74 67 75 68 76 69 77
REMARK SMILES IDX 70 78 49 79 50 80 58 81 51 82 57 83 52 84 53 85 54 86 55 87
REMARK SMILES IDX 56 88
REMARK H PARENT 3 10 15 17 15 18 77 44 47 55
REMARK Flexibility Score: inf
ROOT
ATOM      1  C   UNL A   1      33.036  30.218  27.021  1.00  0.00     0.275 C 
ENDROOT
BRANCH   1   2
ATOM      2  C   UNL A   1      33.071  29.544  25.650  1.00  0.00     0.274 C 
BRANCH   2   3
ATOM      3  O   UNL A   1      31.841  29.035  25.071  1.00  0.00    -0.461 OA
BRANCH   3   4
ATOM      4  C   UNL A   1      31.782  28.450  23.855  1.00  0.00     0.328 C 
ATOM      5  O   UNL A   1      32.047  28.979  22.785  1.00  0.00    -0.250 OA
BRANCH   4   6
ATOM      6  C   UNL A   1      31.295  27.001  23.920  1.00  0.00     0.189 C 
ATOM      7  C   UNL A   1      29.766  27.092  23.950  1.00  0.00     0.043 C 
BRANCH   6   8
ATOM      8  N   UNL A   1      31.715  26.030  22.903  1.00  0.00    -0.338 N 
ATOM      9  C   UNL A   1      32.600  24.988  23.024  1.00  0.00     0.278 C 
ATOM     10  H   UNL A   1      31.308  26.142  22.014  1.00  0.00     0.164 HD
ATOM     11  O   UNL A   1      32.290  23.958  22.415  1.00  0.00    -0.268 OA
BRANCH   9  12
ATOM     12  C   UNL A   1      33.993  25.159  23.685  1.00  0.00     0.272 C 
ATOM     13  C   UNL A   1      34.914  23.941  23.460  1.00  0.00     0.076 C 
ATOM     14  N   UNL A   1      34.000  25.579  25.087  1.00  0.00    -0.333 N 
ATOM     15  C   UNL A   1      34.784  22.850  24.528  1.00  0.00     0.016 C 
ATOM     16  C   UNL A   1      33.843  24.566  26.115  1.00  0.00     0.186 C 
ATOM     17  H   UNL A   1      33.239  26.248  25.206  1.00  0.00     0.347 HD
ATOM     18  H   UNL A   1      34.943  25.939  25.234  1.00  0.00     0.347 HD
ATOM     19  C   UNL A   1      34.889  23.462  25.932  1.00  0.00     0.048 C 
ATOM     20  C   UNL A   1      32.413  24.016  26.223  1.00  0.00     0.065 C 
ATOM     21  C   UNL A   1      34.765  22.430  27.058  1.00  0.00     0.010 C 
ATOM     22  C   UNL A   1      32.302  22.971  27.331  1.00  0.00     0.006 C 
ATOM     23  C   UNL A   1      33.353  21.870  27.209  1.00  0.00     0.001 C 
ENDBRANCH   9  12
ENDBRANCH   6   8
ENDBRANCH   4   6
ENDBRANCH   3   4
ENDBRANCH   2   3
ENDBRANCH   1   2
BRANCH   1  24
ATOM     24  O   UNL A   1      34.110  31.173  27.115  1.00  0.00    -0.458 OA
BRANCH  24  25
ATOM     25  C   UNL A   1      34.643  31.265  28.357  1.00  0.00     0.338 C 
ATOM     26  O   UNL A   1      34.261  31.971  29.275  1.00  0.00    -0.246 OA
BRANCH  25  27
ATOM     27  C   UNL A   1      35.818  30.385  28.463  1.00  0.00     0.060 A 
ATOM     28  C   UNL A   1      36.145  29.792  29.688  1.00  0.00     0.016 A 
ATOM     29  C   UNL A   1      36.697  30.309  27.380  1.00  0.00     0.016 A 
ATOM     30  C   UNL A   1      37.388  29.174  29.847  1.00  0.00     0.010 A 
ATOM     31  C   UNL A   1      37.934  29.678  27.537  1.00  0.00     0.010 A 
ATOM     32  C   UNL A   1      38.307  29.157  28.788  1.00  0.00    -0.014 A 
BRANCH  32  33
ATOM     33  C   UNL A   1      39.723  28.792  29.045  1.00  0.00     0.031 A 
ATOM     34  C   UNL A   1      40.622  29.807  29.707  1.00  0.00     0.074 A 
ATOM     35  C   UNL A   1      40.201  27.574  28.733  1.00  0.00     0.049 A 
ATOM     36  N   UNL A   1      41.892  29.721  30.009  1.00  0.00    -0.248 NA
ATOM     37  C   UNL A   1      39.999  31.086  30.088  1.00  0.00     0.031 C 
ATOM     38  C   UNL A   1      39.423  26.483  28.148  1.00  0.00     0.029 A 
ATOM     39  N   UNL A   1      41.462  27.051  28.877  1.00  0.00    -0.354 N 
ATOM     40  C   UNL A   1      42.223  30.935  30.602  1.00  0.00     0.074 A 
ATOM     41  C   UNL A   1      41.026  31.745  30.603  1.00  0.00     0.031 C 
ATOM     42  C   UNL A   1      40.226  25.416  27.984  1.00  0.00     0.029 A 
ATOM     43  C   UNL A   1      41.580  25.761  28.419  1.00  0.00     0.049 A 
ATOM     44  H   UNL A   1      42.212  27.553  29.270  1.00  0.00     0.167 HD
ATOM     45  C   UNL A   1      43.415  31.341  31.102  1.00  0.00     0.031 A 
ATOM     46  C   UNL A   1      42.659  24.957  28.345  1.00  0.00     0.031 A 
ATOM     47  C   UNL A   1      44.611  30.543  31.091  1.00  0.00     0.049 A 
ATOM     48  C   UNL A   1      43.992  25.457  28.840  1.00  0.00     0.074 A 
ATOM     49  C   UNL A   1      45.871  30.870  31.562  1.00  0.00     0.029 A 
ATOM     50  N   UNL A   1      44.697  29.258  30.579  1.00  0.00    -0.354 N 
ATOM     51  N   UNL A   1      44.290  26.610  29.392  1.00  0.00    -0.248 NA
ATOM     52  C   UNL A   1      45.136  24.541  28.706  1.00  0.00     0.031 C 
ATOM     53  C   UNL A   1      46.729  29.797  31.295  1.00  0.00     0.029 A 
ATOM     54  C   UNL A   1      45.991  28.783  30.706  1.00  0.00     0.049 A 
ATOM     55  H   UNL A   1      43.948  28.757  30.183  1.00  0.00     0.167 HD
ATOM     56  C   UNL A   1      45.644  26.543  29.703  1.00  0.00     0.074 A 
ATOM     57  C   UNL A   1      46.107  25.236  29.283  1.00  0.00     0.031 C 
ATOM     58  C   UNL A   1      46.434  27.477  30.289  1.00  0.00     0.031 A 
BRANCH  45  59
ATOM     59  C   UNL A   1      43.487  32.738  31.658  1.00  0.00    -0.014 A 
ATOM     60  C   UNL A   1      43.801  33.836  30.838  1.00  0.00     0.010 A 
ATOM     61  C   UNL A   1      43.230  32.953  33.024  1.00  0.00     0.010 A 
ATOM     62  C   UNL A   1      43.901  35.119  31.384  1.00  0.00     0.020 A 
ATOM     63  C   UNL A   1      43.305  34.238  33.569  1.00  0.00     0.020 A 
ATOM     64  C   UNL A   1      43.660  35.310  32.748  1.00  0.00     0.054 A 
BRANCH  64  65
ATOM     65  S   UNL A   1      43.796  36.984  33.434  1.00  0.00     0.124 S 
ATOM     66  O   UNL A   1      45.056  36.908  34.169  1.00  0.00    -0.237 OA
ATOM     67  O   UNL A   1      43.816  37.823  32.238  1.00  0.00    -0.237 OA
ATOM     68  O   UNL A   1      42.600  37.116  34.263  1.00  0.00    -0.744 OA
ENDBRANCH  64  65
ENDBRANCH  45  59
BRANCH  46  69
ATOM     69  C   UNL A   1      42.535  23.592  27.764  1.00  0.00    -0.014 A 
ATOM     70  C   UNL A   1      42.151  22.503  28.565  1.00  0.00     0.010 A 
ATOM     71  C   UNL A   1      42.817  23.374  26.403  1.00  0.00     0.010 A 
ATOM     72  C   UNL A   1      42.069  21.217  28.021  1.00  0.00     0.020 A 
ATOM     73  C   UNL A   1      42.713  22.094  25.850  1.00  0.00     0.020 A 
ATOM     74  C   UNL A   1      42.351  21.021  26.666  1.00  0.00     0.054 A 
BRANCH  74  75
ATOM     75  S   UNL A   1      42.198  19.353  25.969  1.00  0.00     0.124 S 
ATOM     76  O   UNL A   1      43.050  19.438  24.788  1.00  0.00    -0.237 OA
ATOM     77  O   UNL A   1      42.698  18.510  27.052  1.00  0.00    -0.237 OA
ATOM     78  O   UNL A   1      40.767  19.225  25.703  1.00  0.00    -0.744 OA
ENDBRANCH  74  75
ENDBRANCH  46  69
BRANCH  58  79
ATOM     79  C   UNL A   1      47.868  27.103  30.560  1.00  0.00    -0.014 A 
ATOM     80  C   UNL A   1      48.888  27.389  29.636  1.00  0.00     0.010 A 
ATOM     81  C   UNL A   1      48.202  26.491  31.781  1.00  0.00     0.010 A 
ATOM     82  C   UNL A   1      50.212  27.034  29.913  1.00  0.00     0.020 A 
ATOM     83  C   UNL A   1      49.526  26.157  32.073  1.00  0.00     0.020 A 
ATOM     84  C   UNL A   1      50.522  26.415  31.128  1.00  0.00     0.054 A 
BRANCH  84  85
ATOM     85  S   UNL A   1      52.248  25.985  31.481  1.00  0.00     0.124 S 
ATOM     86  O   UNL A   1      52.626  27.014  32.446  1.00  0.00    -0.237 OA
ATOM     87  O   UNL A   1      52.142  24.630  32.016  1.00  0.00    -0.237 OA
ATOM     88  O   UNL A   1      52.902  26.082  30.178  1.00  0.00    -0.744 OA
ENDBRANCH  84  85
ENDBRANCH  58  79
ENDBRANCH  32  33
ENDBRANCH  25  27
ENDBRANCH  24  25
ENDBRANCH   1  24
TORSDOF 16
ENDMDL
