MODEL 1
REMARK VINA RESULT:      -9.1      0.000      0.000
REMARK SMILES [NH3+][C@@](C(=O)OCCOC(=O)c1ccc(-c2c3nc(c(-c4ccc(S(=O)(=O)[O-])cc4)c4ccc([nH]4)c(-c4ccc(S(=O)(=O)[O-])cc4)c4nc(c(-c5ccc(S(=O)(=O)[O-])cc5)c5ccc2[nH]5)C=C4)C=C3)cc1)(c1ccc([P@TB4](=O)([O-])[O-])cc1)C1CC1
REMARK SMILES IDX 7 1 6 2 5 3 3 4 4 5 2 6 1 7 71 11 72 12 80 13 73 14 79 15
REMARK SMILES IDX 74 16 75 17 76 18 77 19 78 20 81 21 82 22 83 23 8 24 9 25
REMARK SMILES IDX 10 26 11 27 12 28 70 29 13 30 69 31 14 32 15 33 16 34 63 35
REMARK SMILES IDX 17 36 68 37 62 38 64 39 18 40 67 41 61 42 60 43 19 45 49 46
REMARK SMILES IDX 30 47 48 48 31 49 34 50 47 51 65 52 32 53 33 54 46 56 66 57
REMARK SMILES IDX 35 58 20 59 21 60 29 61 22 62 28 63 23 64 24 65 25 66 26 67
REMARK SMILES IDX 27 68 50 69 51 70 59 71 52 72 58 73 53 74 54 75 55 76 56 77
REMARK SMILES IDX 57 78 36 79 37 80 45 81 38 82 44 83 39 84 40 85 41 86 42 87
REMARK SMILES IDX 43 88
REMARK H PARENT 1 8 1 9 1 10 64 44 34 55
REMARK Flexibility Score: inf
ROOT
ATOM      1  C   UNL A   1      33.339  31.911  27.901  1.00  0.00       nan C 
ENDROOT
BRANCH   1   2
ATOM      2  C   UNL A   1      34.422  32.876  28.376  1.00  0.00       nan C 
BRANCH   2   3
ATOM      3  O   UNL A   1      34.704  32.654  29.772  1.00  0.00       nan OA
BRANCH   3   4
ATOM      4  C   UNL A   1      35.983  32.930  30.189  1.00  0.00       nan C 
ATOM      5  O   UNL A   1      36.972  32.757  29.485  1.00  0.00       nan OA
BRANCH   4   6
ATOM      6  C   UNL A   1      36.008  33.437  31.688  1.00  0.00       nan C 
BRANCH   6   7
ATOM      7  N   UNL A   1      36.303  34.901  31.717  1.00  0.00       nan N 
ATOM      8  H   UNL A   1      36.892  35.144  30.921  1.00  0.00       nan HD
ATOM      9  H   UNL A   1      36.789  35.132  32.583  1.00  0.00       nan HD
ATOM     10  H   UNL A   1      35.429  35.424  31.667  1.00  0.00       nan HD
ENDBRANCH   6   7
BRANCH   6  11
ATOM     11  C   UNL A   1      37.044  32.634  32.511  1.00  0.00       nan A 
ATOM     12  C   UNL A   1      38.119  33.295  33.128  1.00  0.00       nan A 
ATOM     13  C   UNL A   1      36.960  31.240  32.703  1.00  0.00       nan A 
ATOM     14  C   UNL A   1      39.039  32.603  33.932  1.00  0.00       nan A 
ATOM     15  C   UNL A   1      37.879  30.547  33.514  1.00  0.00       nan A 
ATOM     16  C   UNL A   1      38.932  31.216  34.153  1.00  0.00       nan A 
BRANCH  16  17
ATOM     17  P   UNL A   1      40.154  30.330  35.187  1.00  0.00       nan P 
ATOM     18  O   UNL A   1      39.090  30.066  36.261  1.00  0.00       nan OA
ATOM     19  O   UNL A   1      40.133  28.975  34.267  1.00  0.00       nan OA
ATOM     20  O   UNL A   1      41.310  29.493  36.165  1.00  0.00       nan OA
ENDBRANCH  16  17
ENDBRANCH   6  11
BRANCH   6  21
ATOM     21  C   UNL A   1      34.637  33.342  32.368  1.00  0.00       nan C 
ATOM     22  C   UNL A   1      34.436  33.738  33.820  1.00  0.00       nan C 
ATOM     23  C   UNL A   1      33.787  34.546  32.734  1.00  0.00       nan C 
ENDBRANCH   6  21
ENDBRANCH   4   6
ENDBRANCH   3   4
ENDBRANCH   2   3
ENDBRANCH   1   2
BRANCH   1  24
ATOM     24  O   UNL A   1      33.932  30.935  27.029  1.00  0.00       nan OA
BRANCH  24  25
ATOM     25  C   UNL A   1      34.224  29.732  27.582  1.00  0.00       nan C 
ATOM     26  O   UNL A   1      33.508  28.750  27.639  1.00  0.00       inf OA
BRANCH  25  27
ATOM     27  C   UNL A   1      35.616  29.757  28.065  1.00  0.00       inf A 
ATOM     28  C   UNL A   1      36.617  30.113  27.175  1.00  0.00     0.016 A 
ATOM     29  C   UNL A   1      35.954  29.310  29.342  1.00  0.00     0.016 A 
ATOM     30  C   UNL A   1      37.950  29.926  27.523  1.00  0.00     0.010 A 
ATOM     31  C   UNL A   1      37.308  29.197  29.709  1.00  0.00     0.010 A 
ATOM     32  C   UNL A   1      38.335  29.442  28.778  1.00  0.00    -0.014 A 
BRANCH  32  33
ATOM     33  C   UNL A   1      39.771  29.084  29.038  1.00  0.00     0.031 A 
ATOM     34  C   UNL A   1      40.666  30.041  29.799  1.00  0.00     0.074 A 
ATOM     35  C   UNL A   1      40.281  27.868  28.732  1.00  0.00     0.049 A 
ATOM     36  N   UNL A   1      41.966  30.002  29.951  1.00  0.00    -0.248 NA
ATOM     37  C   UNL A   1      40.018  31.172  30.479  1.00  0.00     0.031 C 
ATOM     38  C   UNL A   1      39.553  26.767  28.102  1.00  0.00     0.029 A 
ATOM     39  N   UNL A   1      41.539  27.342  28.949  1.00  0.00    -0.354 N 
ATOM     40  C   UNL A   1      42.299  31.155  30.659  1.00  0.00     0.074 A 
ATOM     41  C   UNL A   1      41.061  31.849  30.936  1.00  0.00     0.031 C 
ATOM     42  C   UNL A   1      40.341  25.683  28.046  1.00  0.00     0.029 A 
ATOM     43  C   UNL A   1      41.678  26.044  28.500  1.00  0.00     0.049 A 
ATOM     44  H   UNL A   1      42.267  27.844  29.383  1.00  0.00     0.167 HD
ATOM     45  C   UNL A   1      43.522  31.609  31.030  1.00  0.00     0.031 A 
ATOM     46  C   UNL A   1      42.759  25.247  28.390  1.00  0.00     0.031 A 
ATOM     47  C   UNL A   1      44.756  30.899  30.824  1.00  0.00     0.049 A 
ATOM     48  C   UNL A   1      44.115  25.783  28.747  1.00  0.00     0.074 A 
ATOM     49  C   UNL A   1      46.047  31.309  31.117  1.00  0.00     0.029 A 
ATOM     50  N   UNL A   1      44.852  29.618  30.312  1.00  0.00    -0.354 N 
ATOM     51  N   UNL A   1      44.424  26.947  29.262  1.00  0.00    -0.248 NA
ATOM     52  C   UNL A   1      45.269  24.915  28.468  1.00  0.00     0.031 C 
ATOM     53  C   UNL A   1      46.926  30.284  30.748  1.00  0.00     0.029 A 
ATOM     54  C   UNL A   1      46.178  29.224  30.266  1.00  0.00     0.049 A 
ATOM     55  H   UNL A   1      44.089  29.066  30.024  1.00  0.00     0.167 HD
ATOM     56  C   UNL A   1      45.814  26.953  29.362  1.00  0.00     0.074 A 
ATOM     57  C   UNL A   1      46.278  25.666  28.886  1.00  0.00     0.031 C 
ATOM     58  C   UNL A   1      46.631  27.943  29.793  1.00  0.00     0.031 A 
BRANCH  45  59
ATOM     59  C   UNL A   1      43.596  32.989  31.625  1.00  0.00    -0.014 A 
ATOM     60  C   UNL A   1      43.353  33.226  32.988  1.00  0.00     0.010 A 
ATOM     61  C   UNL A   1      43.952  34.066  30.791  1.00  0.00     0.010 A 
ATOM     62  C   UNL A   1      43.427  34.526  33.499  1.00  0.00     0.020 A 
ATOM     63  C   UNL A   1      44.049  35.362  31.302  1.00  0.00     0.020 A 
ATOM     64  C   UNL A   1      43.766  35.587  32.650  1.00  0.00     0.054 A 
BRANCH  64  65
ATOM     65  S   UNL A   1      43.864  37.266  33.331  1.00  0.00     0.124 S 
ATOM     66  O   UNL A   1      45.173  37.249  33.979  1.00  0.00    -0.237 OA
ATOM     67  O   UNL A   1      43.761  38.107  32.142  1.00  0.00    -0.237 OA
ATOM     68  O   UNL A   1      42.721  37.336  34.239  1.00  0.00    -0.744 OA
ENDBRANCH  64  65
ENDBRANCH  45  59
BRANCH  46  69
ATOM     69  C   UNL A   1      42.623  23.869  27.838  1.00  0.00    -0.014 A 
ATOM     70  C   UNL A   1      42.337  22.787  28.687  1.00  0.00     0.010 A 
ATOM     71  C   UNL A   1      42.787  23.634  26.460  1.00  0.00     0.010 A 
ATOM     72  C   UNL A   1      42.225  21.491  28.169  1.00  0.00     0.020 A 
ATOM     73  C   UNL A   1      42.644  22.348  25.936  1.00  0.00     0.020 A 
ATOM     74  C   UNL A   1      42.377  21.282  26.795  1.00  0.00     0.054 A 
BRANCH  74  75
ATOM     75  S   UNL A   1      42.171  19.608  26.125  1.00  0.00     0.124 S 
ATOM     76  O   UNL A   1      42.555  18.779  27.263  1.00  0.00    -0.237 OA
ATOM     77  O   UNL A   1      40.755  19.578  25.766  1.00  0.00    -0.237 OA
ATOM     78  O   UNL A   1      43.092  19.586  24.991  1.00  0.00    -0.744 OA
ENDBRANCH  74  75
ENDBRANCH  46  69
BRANCH  58  79
ATOM     79  C   UNL A   1      48.110  27.676  29.785  1.00  0.00    -0.014 A 
ATOM     80  C   UNL A   1      48.741  27.083  30.894  1.00  0.00     0.010 A 
ATOM     81  C   UNL A   1      48.870  27.977  28.641  1.00  0.00     0.010 A 
ATOM     82  C   UNL A   1      50.112  26.816  30.866  1.00  0.00     0.020 A 
ATOM     83  C   UNL A   1      50.238  27.692  28.603  1.00  0.00     0.020 A 
ATOM     84  C   UNL A   1      50.854  27.125  29.721  1.00  0.00     0.054 A 
BRANCH  84  85
ATOM     85  S   UNL A   1      52.623  26.726  29.691  1.00  0.00     0.124 S 
ATOM     86  O   UNL A   1      52.755  25.843  30.846  1.00  0.00    -0.237 OA
ATOM     87  O   UNL A   1      52.788  26.086  28.388  1.00  0.00    -0.237 OA
ATOM     88  O   UNL A   1      53.273  28.029  29.823  1.00  0.00    -0.744 OA
ENDBRANCH  84  85
ENDBRANCH  58  79
ENDBRANCH  32  33
ENDBRANCH  25  27
ENDBRANCH  24  25
ENDBRANCH   1  24
TORSDOF 18
ENDMDL
MODEL 2
REMARK VINA RESULT:      -8.9      3.142      5.626
REMARK SMILES [NH3+][C@@](C(=O)OCCOC(=O)c1ccc(-c2c3nc(c(-c4ccc(S(=O)(=O)[O-])cc4)c4ccc([nH]4)c(-c4ccc(S(=O)(=O)[O-])cc4)c4nc(c(-c5ccc(S(=O)(=O)[O-])cc5)c5ccc2[nH]5)C=C4)C=C3)cc1)(c1ccc([P@TB4](=O)([O-])[O-])cc1)C1CC1
REMARK SMILES IDX 7 1 6 2 5 3 3 4 4 5 2 6 1 7 71 11 72 12 80 13 73 14 79 15
REMARK SMILES IDX 74 16 75 17 76 18 77 19 78 20 81 21 82 22 83 23 8 24 9 25
REMARK SMILES IDX 10 26 11 27 12 28 70 29 13 30 69 31 14 32 15 33 16 34 63 35
REMARK SMILES IDX 17 36 68 37 62 38 64 39 18 40 67 41 61 42 60 43 19 45 49 46
REMARK SMILES IDX 30 47 48 48 31 49 34 50 47 51 65 52 32 53 33 54 46 56 66 57
REMARK SMILES IDX 35 58 20 59 21 60 29 61 22 62 28 63 23 64 24 65 25 66 26 67
REMARK SMILES IDX 27 68 50 69 51 70 59 71 52 72 58 73 53 74 54 75 55 76 56 77
REMARK SMILES IDX 57 78 36 79 37 80 45 81 38 82 44 83 39 84 40 85 41 86 42 87
REMARK SMILES IDX 43 88
REMARK H PARENT 1 8 1 9 1 10 64 44 34 55
REMARK Flexibility Score: inf
ROOT
ATOM      1  C   UNL A   1      33.491  29.296  27.216  1.00  0.00       nan C 
ENDROOT
BRANCH   1   2
ATOM      2  C   UNL A   1      31.978  29.105  27.261  1.00  0.00       nan C 
BRANCH   2   3
ATOM      3  O   UNL A   1      31.645  27.726  27.005  1.00  0.00       nan OA
BRANCH   3   4
ATOM      4  C   UNL A   1      31.338  27.402  25.706  1.00  0.00       nan C 
ATOM      5  O   UNL A   1      31.192  28.238  24.821  1.00  0.00       nan OA
BRANCH   4   6
ATOM      6  C   UNL A   1      31.147  25.842  25.527  1.00  0.00       nan C 
BRANCH   6   7
ATOM      7  N   UNL A   1      30.214  25.327  26.573  1.00  0.00       nan N 
ATOM      8  H   UNL A   1      29.472  26.009  26.731  1.00  0.00       nan HD
ATOM      9  H   UNL A   1      30.727  25.175  27.441  1.00  0.00       nan HD
ATOM     10  H   UNL A   1      29.805  24.446  26.262  1.00  0.00       nan HD
ENDBRANCH   6   7
BRANCH   6  11
ATOM     11  C   UNL A   1      32.515  25.121  25.583  1.00  0.00       nan A 
ATOM     12  C   UNL A   1      32.636  23.889  26.248  1.00  0.00       nan A 
ATOM     13  C   UNL A   1      33.678  25.629  24.971  1.00  0.00       nan A 
ATOM     14  C   UNL A   1      33.849  23.183  26.262  1.00  0.00       nan A 
ATOM     15  C   UNL A   1      34.893  24.918  24.981  1.00  0.00       nan A 
ATOM     16  C   UNL A   1      35.000  23.675  25.618  1.00  0.00       nan A 
BRANCH  16  17
ATOM     17  P   UNL A   1      36.577  22.747  25.668  1.00  0.00       nan P 
ATOM     18  O   UNL A   1      36.717  22.856  24.143  1.00  0.00       nan OA
ATOM     19  O   UNL A   1      37.446  24.014  26.237  1.00  0.00       nan OA
ATOM     20  O   UNL A   1      38.067  21.869  25.715  1.00  0.00       nan OA
ENDBRANCH  16  17
ENDBRANCH   6  11
BRANCH   6  21
ATOM     21  C   UNL A   1      30.437  25.480  24.216  1.00  0.00       nan C 
ATOM     22  C   UNL A   1      31.187  25.392  22.898  1.00  0.00       nan C 
ATOM     23  C   UNL A   1      30.601  24.149  23.503  1.00  0.00       nan C 
ENDBRANCH   6  21
ENDBRANCH   4   6
ENDBRANCH   3   4
ENDBRANCH   2   3
ENDBRANCH   1   2
BRANCH   1  24
ATOM     24  O   UNL A   1      33.786  30.702  27.255  1.00  0.00       nan OA
BRANCH  24  25
ATOM     25  C   UNL A   1      34.517  31.134  28.313  1.00  0.00       nan C 
ATOM     26  O   UNL A   1      34.187  31.944  29.159  1.00  0.00       inf OA
BRANCH  25  27
ATOM     27  C   UNL A   1      35.796  30.403  28.336  1.00  0.00       inf A 
ATOM     28  C   UNL A   1      36.245  29.896  29.546  1.00  0.00     0.016 A 
ATOM     29  C   UNL A   1      36.613  30.326  27.210  1.00  0.00     0.016 A 
ATOM     30  C   UNL A   1      37.543  29.409  29.652  1.00  0.00     0.010 A 
ATOM     31  C   UNL A   1      37.898  29.761  27.313  1.00  0.00     0.010 A 
ATOM     32  C   UNL A   1      38.412  29.350  28.558  1.00  0.00    -0.014 A 
BRANCH  32  33
ATOM     33  C   UNL A   1      39.856  28.991  28.763  1.00  0.00     0.031 A 
ATOM     34  C   UNL A   1      40.793  29.968  29.443  1.00  0.00     0.074 A 
ATOM     35  C   UNL A   1      40.344  27.760  28.479  1.00  0.00     0.049 A 
ATOM     36  N   UNL A   1      42.098  29.925  29.535  1.00  0.00    -0.248 NA
ATOM     37  C   UNL A   1      40.184  31.129  30.110  1.00  0.00     0.031 C 
ATOM     38  C   UNL A   1      39.579  26.642  27.925  1.00  0.00     0.029 A 
ATOM     39  N   UNL A   1      41.607  27.232  28.655  1.00  0.00    -0.354 N 
ATOM     40  C   UNL A   1      42.472  31.100  30.182  1.00  0.00     0.074 A 
ATOM     41  C   UNL A   1      41.253  31.814  30.492  1.00  0.00     0.031 C 
ATOM     42  C   UNL A   1      40.357  25.551  27.873  1.00  0.00     0.029 A 
ATOM     43  C   UNL A   1      41.716  25.918  28.249  1.00  0.00     0.049 A 
ATOM     44  H   UNL A   1      42.358  27.744  29.035  1.00  0.00     0.167 HD
ATOM     45  C   UNL A   1      43.714  31.558  30.477  1.00  0.00     0.031 A 
ATOM     46  C   UNL A   1      42.786  25.108  28.118  1.00  0.00     0.031 A 
ATOM     47  C   UNL A   1      44.933  30.831  30.240  1.00  0.00     0.049 A 
ATOM     48  C   UNL A   1      44.161  25.646  28.390  1.00  0.00     0.074 A 
ATOM     49  C   UNL A   1      46.238  31.241  30.456  1.00  0.00     0.029 A 
ATOM     50  N   UNL A   1      44.995  29.531  29.773  1.00  0.00    -0.354 N 
ATOM     51  N   UNL A   1      44.502  26.826  28.846  1.00  0.00    -0.248 NA
ATOM     52  C   UNL A   1      45.295  24.759  28.090  1.00  0.00     0.031 C 
ATOM     53  C   UNL A   1      47.092  30.196  30.084  1.00  0.00     0.029 A 
ATOM     54  C   UNL A   1      46.315  29.125  29.679  1.00  0.00     0.049 A 
ATOM     55  H   UNL A   1      44.216  28.975  29.542  1.00  0.00     0.167 HD
ATOM     56  C   UNL A   1      45.894  26.825  28.880  1.00  0.00     0.074 A 
ATOM     57  C   UNL A   1      46.327  25.517  28.431  1.00  0.00     0.031 C 
ATOM     58  C   UNL A   1      46.737  27.824  29.233  1.00  0.00     0.031 A 
BRANCH  45  59
ATOM     59  C   UNL A   1      43.825  32.958  31.016  1.00  0.00    -0.014 A 
ATOM     60  C   UNL A   1      43.842  34.081  30.171  1.00  0.00     0.010 A 
ATOM     61  C   UNL A   1      43.882  33.145  32.410  1.00  0.00     0.010 A 
ATOM     62  C   UNL A   1      43.952  35.366  30.713  1.00  0.00     0.020 A 
ATOM     63  C   UNL A   1      43.969  34.427  32.955  1.00  0.00     0.020 A 
ATOM     64  C   UNL A   1      44.024  35.529  32.102  1.00  0.00     0.054 A 
BRANCH  64  65
ATOM     65  S   UNL A   1      44.160  37.204  32.787  1.00  0.00     0.124 S 
ATOM     66  O   UNL A   1      45.470  37.157  33.434  1.00  0.00    -0.237 OA
ATOM     67  O   UNL A   1      44.076  38.049  31.600  1.00  0.00    -0.237 OA
ATOM     68  O   UNL A   1      43.020  37.298  33.697  1.00  0.00    -0.744 OA
ENDBRANCH  64  65
ENDBRANCH  45  59
BRANCH  46  69
ATOM     69  C   UNL A   1      42.615  23.712  27.625  1.00  0.00    -0.014 A 
ATOM     70  C   UNL A   1      42.527  22.642  28.533  1.00  0.00     0.010 A 
ATOM     71  C   UNL A   1      42.548  23.446  26.246  1.00  0.00     0.010 A 
ATOM     72  C   UNL A   1      42.382  21.330  28.068  1.00  0.00     0.020 A 
ATOM     73  C   UNL A   1      42.371  22.142  25.779  1.00  0.00     0.020 A 
ATOM     74  C   UNL A   1      42.303  21.090  26.693  1.00  0.00     0.054 A 
BRANCH  74  75
ATOM     75  S   UNL A   1      42.055  19.392  26.103  1.00  0.00     0.124 S 
ATOM     76  O   UNL A   1      42.538  18.607  27.233  1.00  0.00    -0.237 OA
ATOM     77  O   UNL A   1      40.615  19.342  25.863  1.00  0.00    -0.237 OA
ATOM     78  O   UNL A   1      42.880  19.333  24.898  1.00  0.00    -0.744 OA
ENDBRANCH  74  75
ENDBRANCH  46  69
BRANCH  58  79
ATOM     79  C   UNL A   1      48.213  27.545  29.165  1.00  0.00    -0.014 A 
ATOM     80  C   UNL A   1      48.949  27.837  28.003  1.00  0.00     0.010 A 
ATOM     81  C   UNL A   1      48.880  27.030  30.291  1.00  0.00     0.010 A 
ATOM     82  C   UNL A   1      50.325  27.597  27.960  1.00  0.00     0.020 A 
ATOM     83  C   UNL A   1      50.260  26.807  30.258  1.00  0.00     0.020 A 
ATOM     84  C   UNL A   1      50.972  27.081  29.087  1.00  0.00     0.054 A 
BRANCH  84  85
ATOM     85  S   UNL A   1      52.766  26.821  29.024  1.00  0.00     0.124 S 
ATOM     86  O   UNL A   1      53.265  28.186  28.882  1.00  0.00    -0.237 OA
ATOM     87  O   UNL A   1      53.046  26.180  30.307  1.00  0.00    -0.237 OA
ATOM     88  O   UNL A   1      52.950  25.963  27.855  1.00  0.00    -0.744 OA
ENDBRANCH  84  85
ENDBRANCH  58  79
ENDBRANCH  32  33
ENDBRANCH  25  27
ENDBRANCH  24  25
ENDBRANCH   1  24
TORSDOF 18
ENDMDL
MODEL 3
REMARK VINA RESULT:      -8.7      4.040      6.747
REMARK SMILES [NH3+][C@@](C(=O)OCCOC(=O)c1ccc(-c2c3nc(c(-c4ccc(S(=O)(=O)[O-])cc4)c4ccc([nH]4)c(-c4ccc(S(=O)(=O)[O-])cc4)c4nc(c(-c5ccc(S(=O)(=O)[O-])cc5)c5ccc2[nH]5)C=C4)C=C3)cc1)(c1ccc([P@TB4](=O)([O-])[O-])cc1)C1CC1
REMARK SMILES IDX 7 1 6 2 5 3 3 4 4 5 2 6 1 7 71 11 72 12 80 13 73 14 79 15
REMARK SMILES IDX 74 16 75 17 76 18 77 19 78 20 81 21 82 22 83 23 8 24 9 25
REMARK SMILES IDX 10 26 11 27 12 28 70 29 13 30 69 31 14 32 15 33 16 34 63 35
REMARK SMILES IDX 17 36 68 37 62 38 64 39 18 40 67 41 61 42 60 43 19 45 49 46
REMARK SMILES IDX 30 47 48 48 31 49 34 50 47 51 65 52 32 53 33 54 46 56 66 57
REMARK SMILES IDX 35 58 20 59 21 60 29 61 22 62 28 63 23 64 24 65 25 66 26 67
REMARK SMILES IDX 27 68 50 69 51 70 59 71 52 72 58 73 53 74 54 75 55 76 56 77
REMARK SMILES IDX 57 78 36 79 37 80 45 81 38 82 44 83 39 84 40 85 41 86 42 87
REMARK SMILES IDX 43 88
REMARK H PARENT 1 8 1 9 1 10 64 44 34 55
REMARK Flexibility Score: inf
ROOT
ATOM      1  C   UNL A   1      32.724  28.302  26.282  1.00  0.00       nan C 
ENDROOT
BRANCH   1   2
ATOM      2  C   UNL A   1      31.804  27.145  26.659  1.00  0.00       nan C 
BRANCH   2   3
ATOM      3  O   UNL A   1      32.571  25.935  26.815  1.00  0.00       nan OA
BRANCH   3   4
ATOM      4  C   UNL A   1      31.965  24.770  26.412  1.00  0.00       nan C 
ATOM      5  O   UNL A   1      31.249  24.096  27.146  1.00  0.00       nan OA
BRANCH   4   6
ATOM      6  C   UNL A   1      32.354  24.397  24.925  1.00  0.00       nan C 
BRANCH   6   7
ATOM      7  N   UNL A   1      31.262  24.823  24.000  1.00  0.00       nan N 
ATOM      8  H   UNL A   1      31.614  25.542  23.368  1.00  0.00       nan HD
ATOM      9  H   UNL A   1      30.484  25.198  24.542  1.00  0.00       nan HD
ATOM     10  H   UNL A   1      30.942  24.020  23.458  1.00  0.00       nan HD
ENDBRANCH   6   7
BRANCH   6  11
ATOM     11  C   UNL A   1      32.638  22.881  24.806  1.00  0.00       nan A 
ATOM     12  C   UNL A   1      33.558  22.266  25.672  1.00  0.00       nan A 
ATOM     13  C   UNL A   1      31.994  22.048  23.869  1.00  0.00       nan A 
ATOM     14  C   UNL A   1      33.790  20.882  25.630  1.00  0.00       nan A 
ATOM     15  C   UNL A   1      32.222  20.659  23.831  1.00  0.00       nan A 
ATOM     16  C   UNL A   1      33.118  20.047  24.717  1.00  0.00       nan A 
BRANCH  16  17
ATOM     17  P   UNL A   1      33.452  18.248  24.665  1.00  0.00       nan P 
ATOM     18  O   UNL A   1      32.236  17.972  25.562  1.00  0.00       nan OA
ATOM     19  O   UNL A   1      32.872  18.060  23.145  1.00  0.00       nan OA
ATOM     20  O   UNL A   1      33.767  16.547  24.616  1.00  0.00       nan OA
ENDBRANCH  16  17
ENDBRANCH   6  11
BRANCH   6  21
ATOM     21  C   UNL A   1      33.569  25.182  24.417  1.00  0.00       nan C 
ATOM     22  C   UNL A   1      34.235  24.856  23.091  1.00  0.00       nan C 
ATOM     23  C   UNL A   1      33.521  26.165  23.260  1.00  0.00       nan C 
ENDBRANCH   6  21
ENDBRANCH   4   6
ENDBRANCH   3   4
ENDBRANCH   2   3
ENDBRANCH   1   2
BRANCH   1  24
ATOM     24  O   UNL A   1      33.738  28.442  27.292  1.00  0.00       nan OA
BRANCH  24  25
ATOM     25  C   UNL A   1      34.058  29.710  27.651  1.00  0.00       nan C 
ATOM     26  O   UNL A   1      33.317  30.673  27.708  1.00  0.00       inf OA
BRANCH  25  27
ATOM     27  C   UNL A   1      35.477  29.746  28.048  1.00  0.00       inf A 
ATOM     28  C   UNL A   1      36.424  30.062  27.087  1.00  0.00     0.016 A 
ATOM     29  C   UNL A   1      35.889  29.346  29.318  1.00  0.00     0.016 A 
ATOM     30  C   UNL A   1      37.775  29.881  27.361  1.00  0.00     0.010 A 
ATOM     31  C   UNL A   1      37.263  29.240  29.608  1.00  0.00     0.010 A 
ATOM     32  C   UNL A   1      38.233  29.444  28.608  1.00  0.00    -0.014 A 
BRANCH  32  33
ATOM     33  C   UNL A   1      39.681  29.088  28.796  1.00  0.00     0.031 A 
ATOM     34  C   UNL A   1      40.623  30.068  29.464  1.00  0.00     0.074 A 
ATOM     35  C   UNL A   1      40.168  27.859  28.506  1.00  0.00     0.049 A 
ATOM     36  N   UNL A   1      41.930  30.028  29.540  1.00  0.00    -0.248 NA
ATOM     37  C   UNL A   1      40.020  31.227  30.139  1.00  0.00     0.031 C 
ATOM     38  C   UNL A   1      39.399  26.738  27.962  1.00  0.00     0.029 A 
ATOM     39  N   UNL A   1      41.435  27.334  28.667  1.00  0.00    -0.354 N 
ATOM     40  C   UNL A   1      42.308  31.205  30.183  1.00  0.00     0.074 A 
ATOM     41  C   UNL A   1      41.091  31.915  30.507  1.00  0.00     0.031 C 
ATOM     42  C   UNL A   1      40.179  25.649  27.900  1.00  0.00     0.029 A 
ATOM     43  C   UNL A   1      41.542  26.020  28.259  1.00  0.00     0.049 A 
ATOM     44  H   UNL A   1      42.189  27.848  29.037  1.00  0.00     0.167 HD
ATOM     45  C   UNL A   1      43.553  31.665  30.462  1.00  0.00     0.031 A 
ATOM     46  C   UNL A   1      42.613  25.213  28.115  1.00  0.00     0.031 A 
ATOM     47  C   UNL A   1      44.770  30.942  30.210  1.00  0.00     0.049 A 
ATOM     48  C   UNL A   1      43.989  25.755  28.370  1.00  0.00     0.074 A 
ATOM     49  C   UNL A   1      46.077  31.355  30.409  1.00  0.00     0.029 A 
ATOM     50  N   UNL A   1      44.830  29.642  29.742  1.00  0.00    -0.354 N 
ATOM     51  N   UNL A   1      44.332  26.936  28.821  1.00  0.00    -0.248 NA
ATOM     52  C   UNL A   1      45.122  24.871  28.056  1.00  0.00     0.031 C 
ATOM     53  C   UNL A   1      46.929  30.313  30.027  1.00  0.00     0.029 A 
ATOM     54  C   UNL A   1      46.150  29.239  29.631  1.00  0.00     0.049 A 
ATOM     55  H   UNL A   1      44.050  29.084  29.521  1.00  0.00     0.167 HD
ATOM     56  C   UNL A   1      45.725  26.938  28.838  1.00  0.00     0.074 A 
ATOM     57  C   UNL A   1      46.156  25.632  28.384  1.00  0.00     0.031 C 
ATOM     58  C   UNL A   1      46.570  27.940  29.181  1.00  0.00     0.031 A 
BRANCH  45  59
ATOM     59  C   UNL A   1      43.667  33.066  30.999  1.00  0.00    -0.014 A 
ATOM     60  C   UNL A   1      43.710  34.186  30.152  1.00  0.00     0.010 A 
ATOM     61  C   UNL A   1      43.698  33.256  32.393  1.00  0.00     0.010 A 
ATOM     62  C   UNL A   1      43.822  35.472  30.693  1.00  0.00     0.020 A 
ATOM     63  C   UNL A   1      43.787  34.539  32.937  1.00  0.00     0.020 A 
ATOM     64  C   UNL A   1      43.869  35.638  32.083  1.00  0.00     0.054 A 
BRANCH  64  65
ATOM     65  S   UNL A   1      44.008  37.313  32.766  1.00  0.00     0.124 S 
ATOM     66  O   UNL A   1      42.949  37.314  33.773  1.00  0.00    -0.237 OA
ATOM     67  O   UNL A   1      45.371  37.341  33.287  1.00  0.00    -0.237 OA
ATOM     68  O   UNL A   1      43.769  38.177  31.611  1.00  0.00    -0.744 OA
ENDBRANCH  64  65
ENDBRANCH  45  59
BRANCH  46  69
ATOM     69  C   UNL A   1      42.439  23.817  27.625  1.00  0.00    -0.014 A 
ATOM     70  C   UNL A   1      42.502  23.531  26.250  1.00  0.00     0.010 A 
ATOM     71  C   UNL A   1      42.203  22.767  28.531  1.00  0.00     0.010 A 
ATOM     72  C   UNL A   1      42.324  22.222  25.790  1.00  0.00     0.020 A 
ATOM     73  C   UNL A   1      42.056  21.454  28.078  1.00  0.00     0.020 A 
ATOM     74  C   UNL A   1      42.104  21.192  26.709  1.00  0.00     0.054 A 
BRANCH  74  75
ATOM     75  S   UNL A   1      41.934  19.488  26.107  1.00  0.00     0.124 S 
ATOM     76  O   UNL A   1      42.407  18.716  27.250  1.00  0.00    -0.237 OA
ATOM     77  O   UNL A   1      40.505  19.389  25.821  1.00  0.00    -0.237 OA
ATOM     78  O   UNL A   1      42.798  19.462  24.929  1.00  0.00    -0.744 OA
ENDBRANCH  74  75
ENDBRANCH  46  69
BRANCH  58  79
ATOM     79  C   UNL A   1      48.045  27.664  29.095  1.00  0.00    -0.014 A 
ATOM     80  C   UNL A   1      48.749  27.159  30.202  1.00  0.00     0.010 A 
ATOM     81  C   UNL A   1      48.726  27.866  27.881  1.00  0.00     0.010 A 
ATOM     82  C   UNL A   1      50.116  26.883  30.104  1.00  0.00     0.020 A 
ATOM     83  C   UNL A   1      50.088  27.572  27.774  1.00  0.00     0.020 A 
ATOM     84  C   UNL A   1      50.778  27.094  28.890  1.00  0.00     0.054 A 
BRANCH  84  85
ATOM     85  S   UNL A   1      52.541  26.684  28.773  1.00  0.00     0.124 S 
ATOM     86  O   UNL A   1      53.144  27.997  28.564  1.00  0.00    -0.237 OA
ATOM     87  O   UNL A   1      52.817  26.065  30.067  1.00  0.00    -0.237 OA
ATOM     88  O   UNL A   1      52.609  25.776  27.629  1.00  0.00    -0.744 OA
ENDBRANCH  84  85
ENDBRANCH  58  79
ENDBRANCH  32  33
ENDBRANCH  25  27
ENDBRANCH  24  25
ENDBRANCH   1  24
TORSDOF 18
ENDMDL
