MODEL 1
REMARK VINA RESULT:     -10.0      0.000      0.000
REMARK SMILES C[C@@H](CC(=O)OCCOC(=O)c1ccc(-c2c3nc(c(-c4ccc(S(=O)(=O)[O-])cc4)c4ccc([nH]4)c(-c4ccc(S(=O)(=O)[O-])cc4)c4nc(c(-c5ccc(S(=O)(=O)[O-])cc5)c5ccc2[nH]5)C=C4)C=C3)cc1)NC(=O)CN(C)c1ncccn1
REMARK SMILES IDX 7 1 6 2 4 3 5 4 3 5 2 6 1 7 72 8 73 9 74 11 75 12 76 13
REMARK SMILES IDX 77 14 78 15 79 16 83 17 80 18 82 19 81 20 8 21 9 22 10 23
REMARK SMILES IDX 11 24 12 25 13 26 71 27 14 28 70 29 15 30 16 31 17 32 64 33
REMARK SMILES IDX 18 34 69 35 63 36 65 37 19 38 68 39 62 40 61 41 20 43 50 44
REMARK SMILES IDX 31 45 49 46 32 47 35 48 48 49 66 50 33 51 34 52 47 54 67 55
REMARK SMILES IDX 36 56 21 57 22 58 30 59 23 60 29 61 24 62 25 63 26 64 27 65
REMARK SMILES IDX 28 66 51 67 52 68 60 69 53 70 59 71 54 72 55 73 56 74 57 75
REMARK SMILES IDX 58 76 37 77 38 78 46 79 39 80 45 81 40 82 41 83 42 84 43 85
REMARK SMILES IDX 44 86
REMARK H PARENT 72 10 65 42 35 53
REMARK Flexibility Score: inf
ROOT
ATOM      1  C   UNL A   1      38.087  22.297  25.676  1.00  0.00     0.274 C 
ENDROOT
BRANCH   1   2
ATOM      2  O   UNL A   1      37.272  23.307  25.045  1.00  0.00    -0.462 OA
BRANCH   2   3
ATOM      3  C   UNL A   1      36.429  22.869  24.079  1.00  0.00     0.307 C 
ATOM      4  O   UNL A   1      36.610  23.039  22.878  1.00  0.00    -0.252 OA
BRANCH   3   5
ATOM      5  C   UNL A   1      35.161  22.241  24.606  1.00  0.00     0.147 C 
BRANCH   5   6
ATOM      6  C   UNL A   1      33.803  22.639  24.017  1.00  0.00     0.090 C 
ATOM      7  C   UNL A   1      32.974  21.455  23.530  1.00  0.00     0.031 C 
BRANCH   6   8
ATOM      8  N   UNL A   1      33.895  23.660  22.984  1.00  0.00    -0.352 N 
ATOM      9  C   UNL A   1      33.855  25.025  23.082  1.00  0.00     0.239 C 
ATOM     10  H   UNL A   1      34.002  23.314  22.069  1.00  0.00     0.163 HD
ATOM     11  O   UNL A   1      34.023  25.688  22.053  1.00  0.00    -0.273 OA
BRANCH   9  12
ATOM     12  C   UNL A   1      33.749  25.714  24.447  1.00  0.00     0.219 C 
BRANCH  12  13
ATOM     13  N   UNL A   1      32.383  25.978  24.910  1.00  0.00    -0.335 N 
ATOM     14  C   UNL A   1      32.065  25.777  26.307  1.00  0.00     0.147 C 
BRANCH  13  15
ATOM     15  C   UNL A   1      31.625  26.894  24.207  1.00  0.00     0.225 A 
ATOM     16  N   UNL A   1      30.395  26.543  23.791  1.00  0.00    -0.221 NA
ATOM     17  N   UNL A   1      32.146  28.099  23.944  1.00  0.00    -0.221 NA
ATOM     18  C   UNL A   1      29.678  27.461  23.114  1.00  0.00     0.117 A 
ATOM     19  C   UNL A   1      31.409  28.981  23.246  1.00  0.00     0.117 A 
ATOM     20  C   UNL A   1      30.143  28.713  22.802  1.00  0.00     0.040 A 
ENDBRANCH  13  15
ENDBRANCH  12  13
ENDBRANCH   9  12
ENDBRANCH   6   8
ENDBRANCH   5   6
ENDBRANCH   3   5
ENDBRANCH   2   3
ENDBRANCH   1   2
BRANCH   1  21
ATOM     21  C   UNL A   1      39.311  22.882  26.390  1.00  0.00     0.275 C 
BRANCH  21  22
ATOM     22  O   UNL A   1      39.337  24.322  26.340  1.00  0.00    -0.458 OA
BRANCH  22  23
ATOM     23  C   UNL A   1      40.573  24.854  26.490  1.00  0.00     0.338 C 
ATOM     24  O   UNL A   1      41.506  24.727  25.714  1.00  0.00    -0.246 OA
BRANCH  23  25
ATOM     25  C   UNL A   1      40.608  25.763  27.646  1.00  0.00     0.060 A 
ATOM     26  C   UNL A   1      39.528  25.736  28.531  1.00  0.00     0.016 A 
ATOM     27  C   UNL A   1      41.629  26.701  27.808  1.00  0.00     0.016 A 
ATOM     28  C   UNL A   1      39.444  26.662  29.564  1.00  0.00     0.010 A 
ATOM     29  C   UNL A   1      41.556  27.617  28.867  1.00  0.00     0.010 A 
ATOM     30  C   UNL A   1      40.456  27.613  29.742  1.00  0.00    -0.014 A 
BRANCH  30  31
ATOM     31  C   UNL A   1      40.333  28.589  30.852  1.00  0.00     0.031 A 
ATOM     32  C   UNL A   1      41.249  28.519  32.042  1.00  0.00     0.074 A 
ATOM     33  C   UNL A   1      39.425  29.580  30.758  1.00  0.00     0.049 A 
ATOM     34  N   UNL A   1      41.293  29.300  33.093  1.00  0.00    -0.248 NA
ATOM     35  C   UNL A   1      42.239  27.432  32.056  1.00  0.00     0.031 C 
ATOM     36  C   UNL A   1      38.497  29.769  29.642  1.00  0.00     0.029 A 
ATOM     37  N   UNL A   1      39.145  30.620  31.607  1.00  0.00    -0.354 N 
ATOM     38  C   UNL A   1      42.296  28.786  33.905  1.00  0.00     0.074 A 
ATOM     39  C   UNL A   1      42.826  27.619  33.231  1.00  0.00     0.031 C 
ATOM     40  C   UNL A   1      37.765  30.872  29.864  1.00  0.00     0.029 A 
ATOM     41  C   UNL A   1      38.147  31.447  31.150  1.00  0.00     0.049 A 
ATOM     42  H   UNL A   1      39.615  30.762  32.461  1.00  0.00     0.167 HD
ATOM     43  C   UNL A   1      42.737  29.245  35.103  1.00  0.00     0.031 A 
ATOM     44  C   UNL A   1      37.594  32.541  31.707  1.00  0.00     0.031 A 
ATOM     45  C   UNL A   1      42.219  30.415  35.766  1.00  0.00     0.049 A 
ATOM     46  C   UNL A   1      38.101  33.032  33.032  1.00  0.00     0.074 A 
ATOM     47  C   UNL A   1      42.614  30.967  36.974  1.00  0.00     0.029 A 
ATOM     48  N   UNL A   1      41.199  31.217  35.279  1.00  0.00    -0.354 N 
ATOM     49  N   UNL A   1      39.052  32.532  33.785  1.00  0.00    -0.248 NA
ATOM     50  C   UNL A   1      37.466  34.239  33.577  1.00  0.00     0.031 C 
ATOM     51  C   UNL A   1      41.810  32.082  37.232  1.00  0.00     0.029 A 
ATOM     52  C   UNL A   1      40.942  32.251  36.166  1.00  0.00     0.049 A 
ATOM     53  H   UNL A   1      40.726  31.074  34.428  1.00  0.00     0.167 HD
ATOM     54  C   UNL A   1      39.138  33.373  34.889  1.00  0.00     0.074 A 
ATOM     55  C   UNL A   1      38.158  34.423  34.694  1.00  0.00     0.031 C 
ATOM     56  C   UNL A   1      39.956  33.283  35.966  1.00  0.00     0.031 A 
BRANCH  43  57
ATOM     57  C   UNL A   1      43.815  28.454  35.791  1.00  0.00    -0.014 A 
ATOM     58  C   UNL A   1      43.504  27.379  36.644  1.00  0.00     0.010 A 
ATOM     59  C   UNL A   1      45.165  28.774  35.559  1.00  0.00     0.010 A 
ATOM     60  C   UNL A   1      44.522  26.664  37.281  1.00  0.00     0.020 A 
ATOM     61  C   UNL A   1      46.187  28.047  36.177  1.00  0.00     0.020 A 
ATOM     62  C   UNL A   1      45.858  27.007  37.049  1.00  0.00     0.054 A 
BRANCH  62  63
ATOM     63  S   UNL A   1      47.166  26.056  37.874  1.00  0.00     0.124 S 
ATOM     64  O   UNL A   1      47.082  24.770  37.187  1.00  0.00    -0.237 OA
ATOM     65  O   UNL A   1      48.365  26.842  37.592  1.00  0.00    -0.237 OA
ATOM     66  O   UNL A   1      46.751  26.043  39.275  1.00  0.00    -0.744 OA
ENDBRANCH  62  63
ENDBRANCH  43  57
BRANCH  44  67
ATOM     67  C   UNL A   1      36.490  33.244  31.001  1.00  0.00    -0.014 A 
ATOM     68  C   UNL A   1      35.189  33.246  31.530  1.00  0.00     0.010 A 
ATOM     69  C   UNL A   1      36.749  33.942  29.808  1.00  0.00     0.010 A 
ATOM     70  C   UNL A   1      34.161  33.931  30.873  1.00  0.00     0.020 A 
ATOM     71  C   UNL A   1      35.730  34.646  29.161  1.00  0.00     0.020 A 
ATOM     72  C   UNL A   1      34.439  34.628  29.694  1.00  0.00     0.054 A 
BRANCH  72  73
ATOM     73  S   UNL A   1      33.113  35.574  28.895  1.00  0.00     0.124 S 
ATOM     74  O   UNL A   1      33.866  36.531  28.090  1.00  0.00    -0.237 OA
ATOM     75  O   UNL A   1      32.394  34.546  28.146  1.00  0.00    -0.237 OA
ATOM     76  O   UNL A   1      32.375  36.143  30.021  1.00  0.00    -0.744 OA
ENDBRANCH  72  73
ENDBRANCH  44  67
BRANCH  56  77
ATOM     77  C   UNL A   1      39.833  34.364  37.005  1.00  0.00    -0.014 A 
ATOM     78  C   UNL A   1      38.984  34.211  38.116  1.00  0.00     0.010 A 
ATOM     79  C   UNL A   1      40.581  35.547  36.869  1.00  0.00     0.010 A 
ATOM     80  C   UNL A   1      38.848  35.244  39.047  1.00  0.00     0.020 A 
ATOM     81  C   UNL A   1      40.463  36.573  37.810  1.00  0.00     0.020 A 
ATOM     82  C   UNL A   1      39.580  36.424  38.882  1.00  0.00     0.054 A 
BRANCH  82  83
ATOM     83  S   UNL A   1      39.393  37.755  40.101  1.00  0.00     0.124 S 
ATOM     84  O   UNL A   1      38.180  38.422  39.637  1.00  0.00    -0.237 OA
ATOM     85  O   UNL A   1      39.267  37.028  41.362  1.00  0.00    -0.237 OA
ATOM     86  O   UNL A   1      40.625  38.528  39.957  1.00  0.00    -0.744 OA
ENDBRANCH  82  83
ENDBRANCH  56  77
ENDBRANCH  30  31
ENDBRANCH  23  25
ENDBRANCH  22  23
ENDBRANCH  21  22
ENDBRANCH   1  21
TORSDOF 19
ENDMDL
MODEL 2
REMARK VINA RESULT:      -9.8      6.833     12.408
REMARK SMILES C[C@@H](CC(=O)OCCOC(=O)c1ccc(-c2c3nc(c(-c4ccc(S(=O)(=O)[O-])cc4)c4ccc([nH]4)c(-c4ccc(S(=O)(=O)[O-])cc4)c4nc(c(-c5ccc(S(=O)(=O)[O-])cc5)c5ccc2[nH]5)C=C4)C=C3)cc1)NC(=O)CN(C)c1ncccn1
REMARK SMILES IDX 7 1 6 2 4 3 5 4 3 5 2 6 1 7 72 8 73 9 74 11 75 12 76 13
REMARK SMILES IDX 77 14 78 15 79 16 83 17 80 18 82 19 81 20 8 21 9 22 10 23
REMARK SMILES IDX 11 24 12 25 13 26 71 27 14 28 70 29 15 30 16 31 17 32 64 33
REMARK SMILES IDX 18 34 69 35 63 36 65 37 19 38 68 39 62 40 61 41 20 43 50 44
REMARK SMILES IDX 31 45 49 46 32 47 35 48 48 49 66 50 33 51 34 52 47 54 67 55
REMARK SMILES IDX 36 56 21 57 22 58 30 59 23 60 29 61 24 62 25 63 26 64 27 65
REMARK SMILES IDX 28 66 51 67 52 68 60 69 53 70 59 71 54 72 55 73 56 74 57 75
REMARK SMILES IDX 58 76 37 77 38 78 46 79 39 80 45 81 40 82 41 83 42 84 43 85
REMARK SMILES IDX 44 86
REMARK H PARENT 72 10 65 42 35 53
REMARK Flexibility Score: inf
ROOT
ATOM      1  C   UNL A   1      33.619  29.251  26.972  1.00  0.00     0.274 C 
ENDROOT
BRANCH   1   2
ATOM      2  O   UNL A   1      33.589  29.764  25.623  1.00  0.00    -0.462 OA
BRANCH   2   3
ATOM      3  C   UNL A   1      32.434  29.570  24.942  1.00  0.00     0.307 C 
ATOM      4  O   UNL A   1      31.338  29.979  25.311  1.00  0.00    -0.252 OA
BRANCH   3   5
ATOM      5  C   UNL A   1      32.578  28.692  23.721  1.00  0.00     0.147 C 
BRANCH   5   6
ATOM      6  C   UNL A   1      31.773  27.393  23.609  1.00  0.00     0.090 C 
ATOM      7  C   UNL A   1      30.842  27.351  22.402  1.00  0.00     0.031 C 
BRANCH   6   8
ATOM      8  N   UNL A   1      31.052  27.049  24.825  1.00  0.00    -0.352 N 
ATOM      9  C   UNL A   1      31.169  25.958  25.645  1.00  0.00     0.239 C 
ATOM     10  H   UNL A   1      30.372  27.705  25.103  1.00  0.00     0.163 HD
ATOM     11  O   UNL A   1      30.480  25.925  26.670  1.00  0.00    -0.273 OA
BRANCH   9  12
ATOM     12  C   UNL A   1      32.222  24.879  25.375  1.00  0.00     0.219 C 
BRANCH  12  13
ATOM     13  N   UNL A   1      31.713  23.646  24.767  1.00  0.00    -0.335 N 
ATOM     14  C   UNL A   1      30.777  23.742  23.668  1.00  0.00     0.147 C 
BRANCH  13  15
ATOM     15  C   UNL A   1      32.499  22.513  24.840  1.00  0.00     0.225 A 
ATOM     16  N   UNL A   1      33.806  22.602  24.531  1.00  0.00    -0.221 NA
ATOM     17  N   UNL A   1      31.932  21.354  25.199  1.00  0.00    -0.221 NA
ATOM     18  C   UNL A   1      34.546  21.481  24.620  1.00  0.00     0.117 A 
ATOM     19  C   UNL A   1      32.700  20.252  25.254  1.00  0.00     0.117 A 
ATOM     20  C   UNL A   1      34.039  20.258  24.975  1.00  0.00     0.040 A 
ENDBRANCH  13  15
ENDBRANCH  12  13
ENDBRANCH   9  12
ENDBRANCH   6   8
ENDBRANCH   5   6
ENDBRANCH   3   5
ENDBRANCH   2   3
ENDBRANCH   1   2
BRANCH   1  21
ATOM     21  C   UNL A   1      34.480  30.102  27.912  1.00  0.00     0.275 C 
BRANCH  21  22
ATOM     22  O   UNL A   1      35.620  29.379  28.414  1.00  0.00    -0.458 OA
BRANCH  22  23
ATOM     23  C   UNL A   1      36.388  30.092  29.271  1.00  0.00     0.338 C 
ATOM     24  O   UNL A   1      35.986  30.738  30.226  1.00  0.00    -0.246 OA
BRANCH  23  25
ATOM     25  C   UNL A   1      37.815  29.856  29.005  1.00  0.00     0.060 A 
ATOM     26  C   UNL A   1      38.211  29.673  27.678  1.00  0.00     0.016 A 
ATOM     27  C   UNL A   1      38.739  29.711  30.042  1.00  0.00     0.016 A 
ATOM     28  C   UNL A   1      39.520  29.315  27.379  1.00  0.00     0.010 A 
ATOM     29  C   UNL A   1      40.065  29.376  29.737  1.00  0.00     0.010 A 
ATOM     30  C   UNL A   1      40.461  29.163  28.405  1.00  0.00    -0.014 A 
BRANCH  30  31
ATOM     31  C   UNL A   1      41.849  28.776  28.052  1.00  0.00     0.031 A 
ATOM     32  C   UNL A   1      42.960  29.789  28.080  1.00  0.00     0.074 A 
ATOM     33  C   UNL A   1      42.118  27.489  27.757  1.00  0.00     0.049 A 
ATOM     34  N   UNL A   1      44.232  29.622  27.818  1.00  0.00    -0.248 NA
ATOM     35  C   UNL A   1      42.594  31.165  28.447  1.00  0.00     0.031 C 
ATOM     36  C   UNL A   1      41.131  26.409  27.721  1.00  0.00     0.029 A 
ATOM     37  N   UNL A   1      43.303  26.871  27.448  1.00  0.00    -0.354 N 
ATOM     38  C   UNL A   1      44.816  30.874  27.962  1.00  0.00     0.074 A 
ATOM     39  C   UNL A   1      43.756  31.793  28.323  1.00  0.00     0.031 C 
ATOM     40  C   UNL A   1      41.754  25.256  27.429  1.00  0.00     0.029 A 
ATOM     41  C   UNL A   1      43.175  25.522  27.224  1.00  0.00     0.049 A 
ATOM     42  H   UNL A   1      44.162  27.349  27.393  1.00  0.00     0.167 HD
ATOM     43  C   UNL A   1      46.117  31.225  27.810  1.00  0.00     0.031 A 
ATOM     44  C   UNL A   1      44.096  24.600  26.884  1.00  0.00     0.031 A 
ATOM     45  C   UNL A   1      47.174  30.308  27.465  1.00  0.00     0.049 A 
ATOM     46  C   UNL A   1      45.530  25.013  26.723  1.00  0.00     0.074 A 
ATOM     47  C   UNL A   1      48.524  30.570  27.304  1.00  0.00     0.029 A 
ATOM     48  N   UNL A   1      47.002  28.952  27.232  1.00  0.00    -0.354 N 
ATOM     49  N   UNL A   1      46.064  26.203  26.866  1.00  0.00    -0.248 NA
ATOM     50  C   UNL A   1      46.487  23.957  26.366  1.00  0.00     0.031 C 
ATOM     51  C   UNL A   1      49.163  29.378  26.942  1.00  0.00     0.029 A 
ATOM     52  C   UNL A   1      48.218  28.366  26.918  1.00  0.00     0.049 A 
ATOM     53  H   UNL A   1      46.142  28.475  27.282  1.00  0.00     0.167 HD
ATOM     54  C   UNL A   1      47.423  26.036  26.627  1.00  0.00     0.074 A 
ATOM     55  C   UNL A   1      47.631  24.628  26.353  1.00  0.00     0.031 C 
ATOM     56  C   UNL A   1      48.410  26.966  26.635  1.00  0.00     0.031 A 
BRANCH  43  57
ATOM     57  C   UNL A   1      46.464  32.679  27.981  1.00  0.00    -0.014 A 
ATOM     58  C   UNL A   1      46.398  33.580  26.903  1.00  0.00     0.010 A 
ATOM     59  C   UNL A   1      46.835  33.158  29.251  1.00  0.00     0.010 A 
ATOM     60  C   UNL A   1      46.734  34.925  27.084  1.00  0.00     0.020 A 
ATOM     61  C   UNL A   1      47.151  34.507  29.441  1.00  0.00     0.020 A 
ATOM     62  C   UNL A   1      47.115  35.379  28.351  1.00  0.00     0.054 A 
BRANCH  62  63
ATOM     63  S   UNL A   1      47.534  37.132  28.567  1.00  0.00     0.124 S 
ATOM     64  O   UNL A   1      48.613  37.306  27.599  1.00  0.00    -0.237 OA
ATOM     65  O   UNL A   1      46.281  37.807  28.239  1.00  0.00    -0.237 OA
ATOM     66  O   UNL A   1      47.935  37.219  29.970  1.00  0.00    -0.744 OA
ENDBRANCH  62  63
ENDBRANCH  43  57
BRANCH  44  67
ATOM     67  C   UNL A   1      43.676  23.189  26.671  1.00  0.00    -0.014 A 
ATOM     68  C   UNL A   1      43.903  22.553  25.439  1.00  0.00     0.010 A 
ATOM     69  C   UNL A   1      43.076  22.468  27.718  1.00  0.00     0.010 A 
ATOM     70  C   UNL A   1      43.528  21.218  25.255  1.00  0.00     0.020 A 
ATOM     71  C   UNL A   1      42.722  21.127  27.544  1.00  0.00     0.020 A 
ATOM     72  C   UNL A   1      42.942  20.513  26.310  1.00  0.00     0.054 A 
BRANCH  72  73
ATOM     73  S   UNL A   1      42.532  18.761  26.079  1.00  0.00     0.124 S 
ATOM     74  O   UNL A   1      41.136  18.830  25.658  1.00  0.00    -0.237 OA
ATOM     75  O   UNL A   1      43.482  18.342  25.052  1.00  0.00    -0.237 OA
ATOM     76  O   UNL A   1      42.761  18.182  27.401  1.00  0.00    -0.744 OA
ENDBRANCH  72  73
ENDBRANCH  44  67
BRANCH  56  77
ATOM     77  C   UNL A   1      49.805  26.478  26.357  1.00  0.00    -0.014 A 
ATOM     78  C   UNL A   1      50.302  26.408  25.043  1.00  0.00     0.010 A 
ATOM     79  C   UNL A   1      50.632  26.089  27.426  1.00  0.00     0.010 A 
ATOM     80  C   UNL A   1      51.585  25.909  24.799  1.00  0.00     0.020 A 
ATOM     81  C   UNL A   1      51.923  25.610  27.187  1.00  0.00     0.020 A 
ATOM     82  C   UNL A   1      52.383  25.503  25.873  1.00  0.00     0.054 A 
BRANCH  82  83
ATOM     83  S   UNL A   1      54.047  24.860  25.540  1.00  0.00     0.124 S 
ATOM     84  O   UNL A   1      54.581  25.863  24.624  1.00  0.00    -0.237 OA
ATOM     85  O   UNL A   1      54.658  24.833  26.867  1.00  0.00    -0.237 OA
ATOM     86  O   UNL A   1      53.796  23.546  24.951  1.00  0.00    -0.744 OA
ENDBRANCH  82  83
ENDBRANCH  56  77
ENDBRANCH  30  31
ENDBRANCH  23  25
ENDBRANCH  22  23
ENDBRANCH  21  22
ENDBRANCH   1  21
TORSDOF 19
ENDMDL
MODEL 3
REMARK VINA RESULT:      -9.8      4.369     10.288
REMARK SMILES C[C@@H](CC(=O)OCCOC(=O)c1ccc(-c2c3nc(c(-c4ccc(S(=O)(=O)[O-])cc4)c4ccc([nH]4)c(-c4ccc(S(=O)(=O)[O-])cc4)c4nc(c(-c5ccc(S(=O)(=O)[O-])cc5)c5ccc2[nH]5)C=C4)C=C3)cc1)NC(=O)CN(C)c1ncccn1
REMARK SMILES IDX 7 1 6 2 4 3 5 4 3 5 2 6 1 7 72 8 73 9 74 11 75 12 76 13
REMARK SMILES IDX 77 14 78 15 79 16 83 17 80 18 82 19 81 20 8 21 9 22 10 23
REMARK SMILES IDX 11 24 12 25 13 26 71 27 14 28 70 29 15 30 16 31 17 32 64 33
REMARK SMILES IDX 18 34 69 35 63 36 65 37 19 38 68 39 62 40 61 41 20 43 50 44
REMARK SMILES IDX 31 45 49 46 32 47 35 48 48 49 66 50 33 51 34 52 47 54 67 55
REMARK SMILES IDX 36 56 21 57 22 58 30 59 23 60 29 61 24 62 25 63 26 64 27 65
REMARK SMILES IDX 28 66 51 67 52 68 60 69 53 70 59 71 54 72 55 73 56 74 57 75
REMARK SMILES IDX 58 76 37 77 38 78 46 79 39 80 45 81 40 82 41 83 42 84 43 85
REMARK SMILES IDX 44 86
REMARK H PARENT 72 10 65 42 35 53
REMARK Flexibility Score: inf
ROOT
ATOM      1  C   UNL A   1      33.892  28.548  24.564  1.00  0.00     0.274 C 
ENDROOT
BRANCH   1   2
ATOM      2  O   UNL A   1      33.131  27.491  23.941  1.00  0.00    -0.462 OA
BRANCH   2   3
ATOM      3  C   UNL A   1      33.221  26.273  24.527  1.00  0.00     0.307 C 
ATOM      4  O   UNL A   1      34.162  25.912  25.227  1.00  0.00    -0.252 OA
BRANCH   3   5
ATOM      5  C   UNL A   1      32.106  25.325  24.154  1.00  0.00     0.147 C 
BRANCH   5   6
ATOM      6  C   UNL A   1      31.322  24.591  25.248  1.00  0.00     0.090 C 
ATOM      7  C   UNL A   1      30.214  25.429  25.877  1.00  0.00     0.031 C 
BRANCH   6   8
ATOM      8  N   UNL A   1      32.168  24.005  26.276  1.00  0.00    -0.352 N 
ATOM      9  C   UNL A   1      32.535  22.702  26.485  1.00  0.00     0.239 C 
ATOM     10  H   UNL A   1      32.537  24.648  26.924  1.00  0.00     0.163 HD
ATOM     11  O   UNL A   1      33.328  22.461  27.401  1.00  0.00    -0.273 OA
BRANCH   9  12
ATOM     12  C   UNL A   1      32.087  21.594  25.526  1.00  0.00     0.219 C 
BRANCH  12  13
ATOM     13  N   UNL A   1      32.855  21.497  24.281  1.00  0.00    -0.335 N 
ATOM     14  C   UNL A   1      32.194  21.782  23.026  1.00  0.00     0.147 C 
BRANCH  13  15
ATOM     15  C   UNL A   1      34.221  21.691  24.343  1.00  0.00     0.225 A 
ATOM     16  N   UNL A   1      34.752  22.784  23.766  1.00  0.00    -0.221 NA
ATOM     17  N   UNL A   1      34.977  20.775  24.960  1.00  0.00    -0.221 NA
ATOM     18  C   UNL A   1      36.086  22.949  23.851  1.00  0.00     0.117 A 
ATOM     19  C   UNL A   1      36.308  20.962  25.004  1.00  0.00     0.117 A 
ATOM     20  C   UNL A   1      36.928  22.054  24.461  1.00  0.00     0.040 A 
ENDBRANCH  13  15
ENDBRANCH  12  13
ENDBRANCH   9  12
ENDBRANCH   6   8
ENDBRANCH   5   6
ENDBRANCH   3   5
ENDBRANCH   2   3
ENDBRANCH   1   2
BRANCH   1  21
ATOM     21  C   UNL A   1      33.126  29.246  25.692  1.00  0.00     0.275 C 
BRANCH  21  22
ATOM     22  O   UNL A   1      33.722  29.015  26.983  1.00  0.00    -0.458 OA
BRANCH  22  23
ATOM     23  C   UNL A   1      34.178  30.138  27.586  1.00  0.00     0.338 C 
ATOM     24  O   UNL A   1      33.517  31.129  27.849  1.00  0.00    -0.246 OA
BRANCH  23  25
ATOM     25  C   UNL A   1      35.563  29.950  28.047  1.00  0.00     0.060 A 
ATOM     26  C   UNL A   1      36.588  30.093  27.110  1.00  0.00     0.016 A 
ATOM     27  C   UNL A   1      35.851  29.538  29.349  1.00  0.00     0.016 A 
ATOM     28  C   UNL A   1      37.902  29.798  27.457  1.00  0.00     0.010 A 
ATOM     29  C   UNL A   1      37.179  29.267  29.705  1.00  0.00     0.010 A 
ATOM     30  C   UNL A   1      38.211  29.381  28.757  1.00  0.00    -0.014 A 
BRANCH  30  31
ATOM     31  C   UNL A   1      39.622  29.070  29.093  1.00  0.00     0.031 A 
ATOM     32  C   UNL A   1      40.470  30.060  29.842  1.00  0.00     0.074 A 
ATOM     33  C   UNL A   1      40.125  27.863  28.767  1.00  0.00     0.049 A 
ATOM     34  N   UNL A   1      41.715  29.947  30.232  1.00  0.00    -0.248 NA
ATOM     35  C   UNL A   1      39.840  31.341  30.195  1.00  0.00     0.031 C 
ATOM     36  C   UNL A   1      39.393  26.809  28.062  1.00  0.00     0.029 A 
ATOM     37  N   UNL A   1      41.360  27.316  28.999  1.00  0.00    -0.354 N 
ATOM     38  C   UNL A   1      42.027  31.149  30.855  1.00  0.00     0.074 A 
ATOM     39  C   UNL A   1      40.845  31.982  30.778  1.00  0.00     0.031 C 
ATOM     40  C   UNL A   1      40.188  25.734  27.939  1.00  0.00     0.029 A 
ATOM     41  C   UNL A   1      41.491  26.034  28.524  1.00  0.00     0.049 A 
ATOM     42  H   UNL A   1      42.084  27.796  29.464  1.00  0.00     0.167 HD
ATOM     43  C   UNL A   1      43.193  31.524  31.438  1.00  0.00     0.031 A 
ATOM     44  C   UNL A   1      42.544  25.194  28.547  1.00  0.00     0.031 A 
ATOM     45  C   UNL A   1      44.365  30.690  31.527  1.00  0.00     0.049 A 
ATOM     46  C   UNL A   1      43.822  25.632  29.201  1.00  0.00     0.074 A 
ATOM     47  C   UNL A   1      45.586  30.979  32.114  1.00  0.00     0.029 A 
ATOM     48  N   UNL A   1      44.462  29.403  31.020  1.00  0.00    -0.354 N 
ATOM     49  N   UNL A   1      44.098  26.774  29.786  1.00  0.00    -0.248 NA
ATOM     50  C   UNL A   1      44.927  24.664  29.206  1.00  0.00     0.031 C 
ATOM     51  C   UNL A   1      46.432  29.879  31.932  1.00  0.00     0.029 A 
ATOM     52  C   UNL A   1      45.725  28.889  31.270  1.00  0.00     0.049 A 
ATOM     53  H   UNL A   1      43.741  28.925  30.552  1.00  0.00     0.167 HD
ATOM     54  C   UNL A   1      45.407  26.656  30.240  1.00  0.00     0.074 A 
ATOM     55  C   UNL A   1      45.858  25.326  29.881  1.00  0.00     0.031 C 
ATOM     56  C   UNL A   1      46.165  27.569  30.896  1.00  0.00     0.031 A 
BRANCH  43  57
ATOM     57  C   UNL A   1      43.267  32.919  31.997  1.00  0.00    -0.014 A 
ATOM     58  C   UNL A   1      42.965  33.185  33.345  1.00  0.00     0.010 A 
ATOM     59  C   UNL A   1      43.674  33.979  31.166  1.00  0.00     0.010 A 
ATOM     60  C   UNL A   1      43.032  34.490  33.841  1.00  0.00     0.020 A 
ATOM     61  C   UNL A   1      43.764  35.282  31.663  1.00  0.00     0.020 A 
ATOM     62  C   UNL A   1      43.424  35.532  32.994  1.00  0.00     0.054 A 
BRANCH  62  63
ATOM     63  S   UNL A   1      43.518  37.218  33.661  1.00  0.00     0.124 S 
ATOM     64  O   UNL A   1      43.692  38.012  32.448  1.00  0.00    -0.237 OA
ATOM     65  O   UNL A   1      42.231  37.374  34.333  1.00  0.00    -0.237 OA
ATOM     66  O   UNL A   1      44.678  37.173  34.548  1.00  0.00    -0.744 OA
ENDBRANCH  62  63
ENDBRANCH  43  57
BRANCH  44  67
ATOM     67  C   UNL A   1      42.423  23.850  27.924  1.00  0.00    -0.014 A 
ATOM     68  C   UNL A   1      42.751  23.655  26.572  1.00  0.00     0.010 A 
ATOM     69  C   UNL A   1      42.007  22.751  28.697  1.00  0.00     0.010 A 
ATOM     70  C   UNL A   1      42.659  22.383  26.000  1.00  0.00     0.020 A 
ATOM     71  C   UNL A   1      41.936  21.474  28.133  1.00  0.00     0.020 A 
ATOM     72  C   UNL A   1      42.254  21.300  26.785  1.00  0.00     0.054 A 
BRANCH  72  73
ATOM     73  S   UNL A   1      42.212  19.643  26.048  1.00  0.00     0.124 S 
ATOM     74  O   UNL A   1      43.164  19.776  24.949  1.00  0.00    -0.237 OA
ATOM     75  O   UNL A   1      42.640  18.789  27.153  1.00  0.00    -0.237 OA
ATOM     76  O   UNL A   1      40.815  19.482  25.653  1.00  0.00    -0.744 OA
ENDBRANCH  72  73
ENDBRANCH  44  67
BRANCH  56  77
ATOM     77  C   UNL A   1      47.556  27.144  31.283  1.00  0.00    -0.014 A 
ATOM     78  C   UNL A   1      48.663  27.458  30.474  1.00  0.00     0.010 A 
ATOM     79  C   UNL A   1      47.757  26.424  32.474  1.00  0.00     0.010 A 
ATOM     80  C   UNL A   1      49.941  27.016  30.826  1.00  0.00     0.020 A 
ATOM     81  C   UNL A   1      49.037  25.999  32.839  1.00  0.00     0.020 A 
ATOM     82  C   UNL A   1      50.119  26.280  32.001  1.00  0.00     0.054 A 
BRANCH  82  83
ATOM     83  S   UNL A   1      51.785  25.715  32.444  1.00  0.00     0.124 S 
ATOM     84  O   UNL A   1      52.301  26.854  33.197  1.00  0.00    -0.237 OA
ATOM     85  O   UNL A   1      51.523  24.510  33.229  1.00  0.00    -0.237 OA
ATOM     86  O   UNL A   1      52.424  25.480  31.151  1.00  0.00    -0.744 OA
ENDBRANCH  82  83
ENDBRANCH  56  77
ENDBRANCH  30  31
ENDBRANCH  23  25
ENDBRANCH  22  23
ENDBRANCH  21  22
ENDBRANCH   1  21
TORSDOF 19
ENDMDL
