MODEL 1
REMARK VINA RESULT:     -10.0      0.000      0.000
REMARK SMILES C[C@@H](NS(=O)(=O)c1ccccc1)C(=O)OCCOC(=O)c1ccc(-c2c3nc(c(-c4ccc(S(=O)(=O)[O-])cc4)c4ccc([nH]4)c(-c4ccc(S(=O)(=O)[O-])cc4)c4nc(c(-c5ccc(S(=O)(=O)[O-])cc5)c5ccc2[nH]5)C=C4)C=C3)cc1
REMARK SMILES IDX 16 1 15 2 13 3 14 4 2 5 1 6 3 7 4 9 5 10 6 11 7 12 8 13
REMARK SMILES IDX 12 14 9 15 11 16 10 17 17 18 18 19 19 20 20 21 21 22 22 23
REMARK SMILES IDX 80 24 23 25 79 26 24 27 25 28 26 29 73 30 27 31 78 32 72 33
REMARK SMILES IDX 74 34 28 35 77 36 71 37 70 38 29 40 59 41 40 42 58 43 41 44
REMARK SMILES IDX 44 45 57 46 75 47 42 48 43 49 56 51 76 52 45 53 30 54 31 55
REMARK SMILES IDX 39 56 32 57 38 58 33 59 34 60 35 61 36 62 37 63 60 64 61 65
REMARK SMILES IDX 69 66 62 67 68 68 63 69 64 70 65 71 66 72 67 73 46 74 47 75
REMARK SMILES IDX 55 76 48 77 54 78 49 79 50 80 51 81 52 82 53 83
REMARK H PARENT 3 8 74 39 44 50
REMARK Flexibility Score: inf
ROOT
ATOM      1  C   UNL A   1      31.595  27.766  27.692  1.00  0.00     0.274 C 
ENDROOT
BRANCH   1   2
ATOM      2  O   UNL A   1      30.766  27.209  26.653  1.00  0.00    -0.461 OA
BRANCH   2   3
ATOM      3  C   UNL A   1      31.096  25.952  26.244  1.00  0.00     0.324 C 
ATOM      4  O   UNL A   1      31.407  25.044  27.008  1.00  0.00    -0.250 OA
BRANCH   3   5
ATOM      5  C   UNL A   1      31.114  25.798  24.727  1.00  0.00     0.176 C 
ATOM      6  C   UNL A   1      30.827  24.370  24.273  1.00  0.00     0.038 C 
BRANCH   5   7
ATOM      7  N   UNL A   1      30.160  26.713  24.061  1.00  0.00    -0.197 NA
ATOM      8  H   UNL A   1      29.599  27.150  24.792  1.00  0.00     0.142 HD
BRANCH   7   9
ATOM      9  S   UNL A   1      30.788  27.956  23.098  1.00  0.00     0.241 S 
ATOM     10  O   UNL A   1      32.032  28.378  23.709  1.00  0.00    -0.207 OA
ATOM     11  O   UNL A   1      30.739  27.451  21.748  1.00  0.00    -0.207 OA
BRANCH   9  12
ATOM     12  C   UNL A   1      29.585  29.247  23.219  1.00  0.00     0.082 A 
ATOM     13  C   UNL A   1      28.267  28.994  22.822  1.00  0.00     0.022 A 
ATOM     14  C   UNL A   1      29.939  30.474  23.785  1.00  0.00     0.022 A 
ATOM     15  C   UNL A   1      27.293  29.972  23.020  1.00  0.00     0.001 A 
ATOM     16  C   UNL A   1      28.958  31.446  23.980  1.00  0.00     0.001 A 
ATOM     17  C   UNL A   1      27.637  31.193  23.603  1.00  0.00     0.000 A 
ENDBRANCH   9  12
ENDBRANCH   7   9
ENDBRANCH   5   7
ENDBRANCH   3   5
ENDBRANCH   2   3
ENDBRANCH   1   2
BRANCH   1  18
ATOM     18  C   UNL A   1      32.329  29.042  27.256  1.00  0.00     0.275 C 
BRANCH  18  19
ATOM     19  O   UNL A   1      33.755  28.941  27.426  1.00  0.00    -0.458 OA
BRANCH  19  20
ATOM     20  C   UNL A   1      34.389  30.112  27.678  1.00  0.00     0.338 C 
ATOM     21  O   UNL A   1      33.878  31.222  27.704  1.00  0.00    -0.246 OA
BRANCH  20  22
ATOM     22  C   UNL A   1      35.773  29.857  28.124  1.00  0.00     0.060 A 
ATOM     23  C   UNL A   1      36.793  30.028  27.182  1.00  0.00     0.016 A 
ATOM     24  C   UNL A   1      36.075  29.442  29.423  1.00  0.00     0.016 A 
ATOM     25  C   UNL A   1      38.120  29.802  27.532  1.00  0.00     0.010 A 
ATOM     26  C   UNL A   1      37.408  29.190  29.767  1.00  0.00     0.010 A 
ATOM     27  C   UNL A   1      38.434  29.364  28.822  1.00  0.00    -0.014 A 
BRANCH  27  28
ATOM     28  C   UNL A   1      39.836  29.023  29.147  1.00  0.00     0.031 A 
ATOM     29  C   UNL A   1      40.704  30.047  29.818  1.00  0.00     0.074 A 
ATOM     30  C   UNL A   1      40.309  27.791  28.881  1.00  0.00     0.049 A 
ATOM     31  N   UNL A   1      41.967  29.971  30.143  1.00  0.00    -0.248 NA
ATOM     32  C   UNL A   1      40.063  31.323  30.178  1.00  0.00     0.031 C 
ATOM     33  C   UNL A   1      39.535  26.696  28.295  1.00  0.00     0.029 A 
ATOM     34  N   UNL A   1      41.557  27.257  29.072  1.00  0.00    -0.354 N 
ATOM     35  C   UNL A   1      42.279  31.190  30.733  1.00  0.00     0.074 A 
ATOM     36  C   UNL A   1      41.074  31.992  30.714  1.00  0.00     0.031 C 
ATOM     37  C   UNL A   1      40.331  25.621  28.165  1.00  0.00     0.029 A 
ATOM     38  C   UNL A   1      41.676  25.964  28.621  1.00  0.00     0.049 A 
ATOM     39  H   UNL A   1      42.298  27.751  29.493  1.00  0.00     0.167 HD
ATOM     40  C   UNL A   1      43.464  31.602  31.239  1.00  0.00     0.031 A 
ATOM     41  C   UNL A   1      42.755  25.160  28.557  1.00  0.00     0.031 A 
ATOM     42  C   UNL A   1      44.660  30.803  31.248  1.00  0.00     0.049 A 
ATOM     43  C   UNL A   1      44.081  25.673  29.054  1.00  0.00     0.074 A 
ATOM     44  C   UNL A   1      45.911  31.132  31.737  1.00  0.00     0.029 A 
ATOM     45  N   UNL A   1      44.753  29.517  30.738  1.00  0.00    -0.354 N 
ATOM     46  N   UNL A   1      44.361  26.831  29.604  1.00  0.00    -0.248 NA
ATOM     47  C   UNL A   1      45.235  24.774  28.917  1.00  0.00     0.031 C 
ATOM     48  C   UNL A   1      46.775  30.060  31.481  1.00  0.00     0.029 A 
ATOM     49  C   UNL A   1      46.047  29.047  30.875  1.00  0.00     0.049 A 
ATOM     50  H   UNL A   1      44.008  29.012  30.338  1.00  0.00     0.167 HD
ATOM     51  C   UNL A   1      45.721  26.794  29.889  1.00  0.00     0.074 A 
ATOM     52  C   UNL A   1      46.203  25.493  29.470  1.00  0.00     0.031 C 
ATOM     53  C   UNL A   1      46.505  27.752  30.446  1.00  0.00     0.031 A 
BRANCH  40  54
ATOM     54  C   UNL A   1      43.538  32.999  31.789  1.00  0.00    -0.014 A 
ATOM     55  C   UNL A   1      43.933  34.080  30.982  1.00  0.00     0.010 A 
ATOM     56  C   UNL A   1      43.159  33.239  33.122  1.00  0.00     0.010 A 
ATOM     57  C   UNL A   1      43.969  35.375  31.506  1.00  0.00     0.020 A 
ATOM     58  C   UNL A   1      43.176  34.535  33.644  1.00  0.00     0.020 A 
ATOM     59  C   UNL A   1      43.592  35.594  32.835  1.00  0.00     0.054 A 
BRANCH  59  60
ATOM     60  S   UNL A   1      43.615  37.289  33.482  1.00  0.00     0.124 S 
ATOM     61  O   UNL A   1      44.843  37.293  34.272  1.00  0.00    -0.237 OA
ATOM     62  O   UNL A   1      43.648  38.097  32.266  1.00  0.00    -0.237 OA
ATOM     63  O   UNL A   1      42.378  37.382  34.254  1.00  0.00    -0.744 OA
ENDBRANCH  59  60
ENDBRANCH  40  54
BRANCH  41  64
ATOM     64  C   UNL A   1      42.645  23.808  27.946  1.00  0.00    -0.014 A 
ATOM     65  C   UNL A   1      42.910  23.606  26.581  1.00  0.00     0.010 A 
ATOM     66  C   UNL A   1      42.251  22.711  28.736  1.00  0.00     0.010 A 
ATOM     67  C   UNL A   1      42.761  22.337  26.011  1.00  0.00     0.020 A 
ATOM     68  C   UNL A   1      42.126  21.437  28.175  1.00  0.00     0.020 A 
ATOM     69  C   UNL A   1      42.367  21.261  26.812  1.00  0.00     0.054 A 
BRANCH  69  70
ATOM     70  S   UNL A   1      42.212  19.614  26.066  1.00  0.00     0.124 S 
ATOM     71  O   UNL A   1      42.641  18.746  27.158  1.00  0.00    -0.237 OA
ATOM     72  O   UNL A   1      40.792  19.548  25.726  1.00  0.00    -0.237 OA
ATOM     73  O   UNL A   1      43.116  19.675  24.920  1.00  0.00    -0.744 OA
ENDBRANCH  69  70
ENDBRANCH  41  64
BRANCH  53  74
ATOM     74  C   UNL A   1      47.958  27.420  30.647  1.00  0.00    -0.014 A 
ATOM     75  C   UNL A   1      48.387  26.714  31.785  1.00  0.00     0.010 A 
ATOM     76  C   UNL A   1      48.896  27.773  29.661  1.00  0.00     0.010 A 
ATOM     77  C   UNL A   1      49.736  26.391  31.946  1.00  0.00     0.020 A 
ATOM     78  C   UNL A   1      50.243  27.432  29.808  1.00  0.00     0.020 A 
ATOM     79  C   UNL A   1      50.656  26.754  30.958  1.00  0.00     0.054 A 
BRANCH  79  80
ATOM     80  S   UNL A   1      52.397  26.286  31.167  1.00  0.00     0.124 S 
ATOM     81  O   UNL A   1      52.285  25.001  31.851  1.00  0.00    -0.237 OA
ATOM     82  O   UNL A   1      52.884  26.227  29.791  1.00  0.00    -0.237 OA
ATOM     83  O   UNL A   1      52.951  27.374  31.970  1.00  0.00    -0.744 OA
ENDBRANCH  79  80
ENDBRANCH  53  74
ENDBRANCH  27  28
ENDBRANCH  20  22
ENDBRANCH  19  20
ENDBRANCH  18  19
ENDBRANCH   1  18
TORSDOF 17
ENDMDL
MODEL 2
REMARK VINA RESULT:      -9.6      1.799      3.313
REMARK SMILES C[C@@H](NS(=O)(=O)c1ccccc1)C(=O)OCCOC(=O)c1ccc(-c2c3nc(c(-c4ccc(S(=O)(=O)[O-])cc4)c4ccc([nH]4)c(-c4ccc(S(=O)(=O)[O-])cc4)c4nc(c(-c5ccc(S(=O)(=O)[O-])cc5)c5ccc2[nH]5)C=C4)C=C3)cc1
REMARK SMILES IDX 16 1 15 2 13 3 14 4 2 5 1 6 3 7 4 9 5 10 6 11 7 12 8 13
REMARK SMILES IDX 12 14 9 15 11 16 10 17 17 18 18 19 19 20 20 21 21 22 22 23
REMARK SMILES IDX 80 24 23 25 79 26 24 27 25 28 26 29 73 30 27 31 78 32 72 33
REMARK SMILES IDX 74 34 28 35 77 36 71 37 70 38 29 40 59 41 40 42 58 43 41 44
REMARK SMILES IDX 44 45 57 46 75 47 42 48 43 49 56 51 76 52 45 53 30 54 31 55
REMARK SMILES IDX 39 56 32 57 38 58 33 59 34 60 35 61 36 62 37 63 60 64 61 65
REMARK SMILES IDX 69 66 62 67 68 68 63 69 64 70 65 71 66 72 67 73 46 74 47 75
REMARK SMILES IDX 55 76 48 77 54 78 49 79 50 80 51 81 52 82 53 83
REMARK H PARENT 3 8 74 39 44 50
REMARK Flexibility Score: inf
ROOT
ATOM      1  C   UNL A   1      31.899  29.062  26.611  1.00  0.00     0.274 C 
ENDROOT
BRANCH   1   2
ATOM      2  O   UNL A   1      31.626  28.018  25.656  1.00  0.00    -0.461 OA
BRANCH   2   3
ATOM      3  C   UNL A   1      31.708  28.379  24.345  1.00  0.00     0.324 C 
ATOM      4  O   UNL A   1      30.907  29.123  23.790  1.00  0.00    -0.250 OA
BRANCH   3   5
ATOM      5  C   UNL A   1      32.860  27.706  23.606  1.00  0.00     0.176 C 
ATOM      6  C   UNL A   1      34.074  28.616  23.447  1.00  0.00     0.038 C 
BRANCH   5   7
ATOM      7  N   UNL A   1      33.287  26.450  24.263  1.00  0.00    -0.197 NA
ATOM      8  H   UNL A   1      32.598  26.236  24.984  1.00  0.00     0.142 HD
BRANCH   7   9
ATOM      9  S   UNL A   1      33.455  25.065  23.302  1.00  0.00     0.241 S 
ATOM     10  O   UNL A   1      32.251  24.278  23.479  1.00  0.00    -0.207 OA
ATOM     11  O   UNL A   1      33.860  25.551  22.006  1.00  0.00    -0.207 OA
BRANCH   9  12
ATOM     12  C   UNL A   1      34.840  24.218  24.002  1.00  0.00     0.082 A 
ATOM     13  C   UNL A   1      35.210  24.486  25.325  1.00  0.00     0.022 A 
ATOM     14  C   UNL A   1      35.497  23.233  23.260  1.00  0.00     0.022 A 
ATOM     15  C   UNL A   1      36.229  23.740  25.915  1.00  0.00     0.001 A 
ATOM     16  C   UNL A   1      36.516  22.491  23.859  1.00  0.00     0.001 A 
ATOM     17  C   UNL A   1      36.877  22.741  25.185  1.00  0.00     0.000 A 
ENDBRANCH   9  12
ENDBRANCH   7   9
ENDBRANCH   5   7
ENDBRANCH   3   5
ENDBRANCH   2   3
ENDBRANCH   1   2
BRANCH   1  18
ATOM     18  C   UNL A   1      33.307  28.971  27.215  1.00  0.00     0.275 C 
BRANCH  18  19
ATOM     19  O   UNL A   1      34.127  30.103  26.871  1.00  0.00    -0.458 OA
BRANCH  19  20
ATOM     20  C   UNL A   1      34.682  30.754  27.923  1.00  0.00     0.338 C 
ATOM     21  O   UNL A   1      34.113  31.525  28.680  1.00  0.00    -0.246 OA
BRANCH  20  22
ATOM     22  C   UNL A   1      36.048  30.250  28.171  1.00  0.00     0.060 A 
ATOM     23  C   UNL A   1      36.372  29.892  29.484  1.00  0.00     0.016 A 
ATOM     24  C   UNL A   1      37.002  30.146  27.156  1.00  0.00     0.016 A 
ATOM     25  C   UNL A   1      37.641  29.412  29.791  1.00  0.00     0.010 A 
ATOM     26  C   UNL A   1      38.286  29.688  27.470  1.00  0.00     0.010 A 
ATOM     27  C   UNL A   1      38.611  29.324  28.789  1.00  0.00    -0.014 A 
BRANCH  27  28
ATOM     28  C   UNL A   1      39.986  28.918  29.150  1.00  0.00     0.031 A 
ATOM     29  C   UNL A   1      40.876  29.893  29.865  1.00  0.00     0.074 A 
ATOM     30  C   UNL A   1      40.415  27.671  28.879  1.00  0.00     0.049 A 
ATOM     31  N   UNL A   1      42.124  29.758  30.228  1.00  0.00    -0.248 NA
ATOM     32  C   UNL A   1      40.278  31.189  30.227  1.00  0.00     0.031 C 
ATOM     33  C   UNL A   1      39.615  26.620  28.250  1.00  0.00     0.029 A 
ATOM     34  N   UNL A   1      41.633  27.080  29.099  1.00  0.00    -0.354 N 
ATOM     35  C   UNL A   1      42.468  30.953  30.847  1.00  0.00     0.074 A 
ATOM     36  C   UNL A   1      41.300  31.806  30.806  1.00  0.00     0.031 C 
ATOM     37  C   UNL A   1      40.368  25.513  28.126  1.00  0.00     0.029 A 
ATOM     38  C   UNL A   1      41.711  25.791  28.630  1.00  0.00     0.049 A 
ATOM     39  H   UNL A   1      42.381  27.536  29.550  1.00  0.00     0.167 HD
ATOM     40  C   UNL A   1      43.653  31.305  31.397  1.00  0.00     0.031 A 
ATOM     41  C   UNL A   1      42.757  24.942  28.585  1.00  0.00     0.031 A 
ATOM     42  C   UNL A   1      44.813  30.456  31.429  1.00  0.00     0.049 A 
ATOM     43  C   UNL A   1      44.086  25.391  29.131  1.00  0.00     0.074 A 
ATOM     44  C   UNL A   1      46.061  30.723  31.962  1.00  0.00     0.029 A 
ATOM     45  N   UNL A   1      44.868  29.175  30.901  1.00  0.00    -0.354 N 
ATOM     46  N   UNL A   1      44.399  26.526  29.709  1.00  0.00    -0.248 NA
ATOM     47  C   UNL A   1      45.205  24.445  29.015  1.00  0.00     0.031 C 
ATOM     48  C   UNL A   1      46.886  29.619  31.715  1.00  0.00     0.029 A 
ATOM     49  C   UNL A   1      46.136  28.648  31.069  1.00  0.00     0.049 A 
ATOM     50  H   UNL A   1      44.115  28.709  30.469  1.00  0.00     0.167 HD
ATOM     51  C   UNL A   1      45.746  26.427  30.036  1.00  0.00     0.074 A 
ATOM     52  C   UNL A   1      46.185  25.113  29.609  1.00  0.00     0.031 C 
ATOM     53  C   UNL A   1      46.551  27.341  30.632  1.00  0.00     0.031 A 
BRANCH  40  54
ATOM     54  C   UNL A   1      43.769  32.690  31.973  1.00  0.00    -0.014 A 
ATOM     55  C   UNL A   1      43.535  32.932  33.338  1.00  0.00     0.010 A 
ATOM     56  C   UNL A   1      44.164  33.753  31.143  1.00  0.00     0.010 A 
ATOM     57  C   UNL A   1      43.674  34.222  33.858  1.00  0.00     0.020 A 
ATOM     58  C   UNL A   1      44.322  35.040  31.663  1.00  0.00     0.020 A 
ATOM     59  C   UNL A   1      44.066  35.269  33.016  1.00  0.00     0.054 A 
BRANCH  59  60
ATOM     60  S   UNL A   1      44.272  36.928  33.722  1.00  0.00     0.124 S 
ATOM     61  O   UNL A   1      44.453  36.631  35.140  1.00  0.00    -0.237 OA
ATOM     62  O   UNL A   1      45.457  37.427  33.029  1.00  0.00    -0.237 OA
ATOM     63  O   UNL A   1      43.024  37.607  33.382  1.00  0.00    -0.744 OA
ENDBRANCH  59  60
ENDBRANCH  40  54
BRANCH  41  64
ATOM     64  C   UNL A   1      42.608  23.606  27.948  1.00  0.00    -0.014 A 
ATOM     65  C   UNL A   1      42.937  23.408  26.597  1.00  0.00     0.010 A 
ATOM     66  C   UNL A   1      42.113  22.522  28.698  1.00  0.00     0.010 A 
ATOM     67  C   UNL A   1      42.754  22.156  26.000  1.00  0.00     0.020 A 
ATOM     68  C   UNL A   1      41.952  21.264  28.112  1.00  0.00     0.020 A 
ATOM     69  C   UNL A   1      42.258  21.093  26.762  1.00  0.00     0.054 A 
BRANCH  69  70
ATOM     70  S   UNL A   1      42.057  19.466  25.983  1.00  0.00     0.124 S 
ATOM     71  O   UNL A   1      42.518  18.567  27.036  1.00  0.00    -0.237 OA
ATOM     72  O   UNL A   1      40.625  19.422  25.695  1.00  0.00    -0.237 OA
ATOM     73  O   UNL A   1      42.918  19.546  24.804  1.00  0.00    -0.744 OA
ENDBRANCH  69  70
ENDBRANCH  41  64
BRANCH  53  74
ATOM     74  C   UNL A   1      47.982  26.944  30.872  1.00  0.00    -0.014 A 
ATOM     75  C   UNL A   1      48.979  27.228  29.922  1.00  0.00     0.010 A 
ATOM     76  C   UNL A   1      48.340  26.328  32.084  1.00  0.00     0.010 A 
ATOM     77  C   UNL A   1      50.308  26.877  30.169  1.00  0.00     0.020 A 
ATOM     78  C   UNL A   1      49.673  25.996  32.344  1.00  0.00     0.020 A 
ATOM     79  C   UNL A   1      50.646  26.260  31.378  1.00  0.00     0.054 A 
BRANCH  79  80
ATOM     80  S   UNL A   1      52.385  25.851  31.697  1.00  0.00     0.124 S 
ATOM     81  O   UNL A   1      52.720  26.771  32.779  1.00  0.00    -0.237 OA
ATOM     82  O   UNL A   1      52.323  24.439  32.068  1.00  0.00    -0.237 OA
ATOM     83  O   UNL A   1      53.042  26.123  30.420  1.00  0.00    -0.744 OA
ENDBRANCH  79  80
ENDBRANCH  53  74
ENDBRANCH  27  28
ENDBRANCH  20  22
ENDBRANCH  19  20
ENDBRANCH  18  19
ENDBRANCH   1  18
TORSDOF 17
ENDMDL
MODEL 3
REMARK VINA RESULT:      -9.6      5.907     11.885
REMARK SMILES C[C@@H](NS(=O)(=O)c1ccccc1)C(=O)OCCOC(=O)c1ccc(-c2c3nc(c(-c4ccc(S(=O)(=O)[O-])cc4)c4ccc([nH]4)c(-c4ccc(S(=O)(=O)[O-])cc4)c4nc(c(-c5ccc(S(=O)(=O)[O-])cc5)c5ccc2[nH]5)C=C4)C=C3)cc1
REMARK SMILES IDX 16 1 15 2 13 3 14 4 2 5 1 6 3 7 4 9 5 10 6 11 7 12 8 13
REMARK SMILES IDX 12 14 9 15 11 16 10 17 17 18 18 19 19 20 20 21 21 22 22 23
REMARK SMILES IDX 80 24 23 25 79 26 24 27 25 28 26 29 73 30 27 31 78 32 72 33
REMARK SMILES IDX 74 34 28 35 77 36 71 37 70 38 29 40 59 41 40 42 58 43 41 44
REMARK SMILES IDX 44 45 57 46 75 47 42 48 43 49 56 51 76 52 45 53 30 54 31 55
REMARK SMILES IDX 39 56 32 57 38 58 33 59 34 60 35 61 36 62 37 63 60 64 61 65
REMARK SMILES IDX 69 66 62 67 68 68 63 69 64 70 65 71 66 72 67 73 46 74 47 75
REMARK SMILES IDX 55 76 48 77 54 78 49 79 50 80 51 81 52 82 53 83
REMARK H PARENT 3 8 74 39 44 50
REMARK Flexibility Score: inf
ROOT
ATOM      1  C   UNL A   1      43.918  24.219  26.665  1.00  0.00     0.274 C 
ENDROOT
BRANCH   1   2
ATOM      2  O   UNL A   1      42.791  24.212  27.562  1.00  0.00    -0.461 OA
BRANCH   2   3
ATOM      3  C   UNL A   1      42.520  23.020  28.162  1.00  0.00     0.324 C 
ATOM      4  O   UNL A   1      43.202  22.535  29.058  1.00  0.00    -0.250 OA
BRANCH   3   5
ATOM      5  C   UNL A   1      41.318  22.301  27.557  1.00  0.00     0.176 C 
ATOM      6  C   UNL A   1      40.119  23.222  27.351  1.00  0.00     0.038 C 
BRANCH   5   7
ATOM      7  N   UNL A   1      41.647  21.649  26.269  1.00  0.00    -0.197 NA
ATOM      8  H   UNL A   1      42.427  22.163  25.859  1.00  0.00     0.142 HD
BRANCH   7   9
ATOM      9  S   UNL A   1      42.081  20.012  26.293  1.00  0.00     0.241 S 
ATOM     10  O   UNL A   1      42.108  19.601  27.682  1.00  0.00    -0.207 OA
ATOM     11  O   UNL A   1      41.216  19.377  25.330  1.00  0.00    -0.207 OA
BRANCH   9  12
ATOM     12  C   UNL A   1      43.718  19.989  25.623  1.00  0.00     0.082 A 
ATOM     13  C   UNL A   1      44.439  21.185  25.537  1.00  0.00     0.022 A 
ATOM     14  C   UNL A   1      44.305  18.772  25.268  1.00  0.00     0.022 A 
ATOM     15  C   UNL A   1      45.768  21.154  25.115  1.00  0.00     0.001 A 
ATOM     16  C   UNL A   1      45.634  18.750  24.847  1.00  0.00     0.001 A 
ATOM     17  C   UNL A   1      46.365  19.938  24.776  1.00  0.00     0.000 A 
ENDBRANCH   9  12
ENDBRANCH   7   9
ENDBRANCH   5   7
ENDBRANCH   3   5
ENDBRANCH   2   3
ENDBRANCH   1   2
BRANCH   1  18
ATOM     18  C   UNL A   1      43.804  25.282  25.564  1.00  0.00     0.275 C 
BRANCH  18  19
ATOM     19  O   UNL A   1      42.489  25.864  25.495  1.00  0.00    -0.458 OA
BRANCH  19  20
ATOM     20  C   UNL A   1      42.462  27.215  25.394  1.00  0.00     0.338 C 
ATOM     21  O   UNL A   1      42.597  27.868  24.371  1.00  0.00    -0.246 OA
BRANCH  20  22
ATOM     22  C   UNL A   1      42.038  27.813  26.676  1.00  0.00     0.060 A 
ATOM     23  C   UNL A   1      42.633  29.025  27.047  1.00  0.00     0.016 A 
ATOM     24  C   UNL A   1      41.098  27.205  27.511  1.00  0.00     0.016 A 
ATOM     25  C   UNL A   1      42.284  29.644  28.242  1.00  0.00     0.010 A 
ATOM     26  C   UNL A   1      40.766  27.815  28.726  1.00  0.00     0.010 A 
ATOM     27  C   UNL A   1      41.361  29.034  29.097  1.00  0.00    -0.014 A 
BRANCH  27  28
ATOM     28  C   UNL A   1      41.083  29.648  30.414  1.00  0.00     0.031 A 
ATOM     29  C   UNL A   1      39.913  30.577  30.558  1.00  0.00     0.074 A 
ATOM     30  C   UNL A   1      41.847  29.338  31.478  1.00  0.00     0.049 A 
ATOM     31  N   UNL A   1      39.523  31.256  31.603  1.00  0.00    -0.248 NA
ATOM     32  C   UNL A   1      39.064  30.759  29.368  1.00  0.00     0.031 C 
ATOM     33  C   UNL A   1      42.966  28.396  31.470  1.00  0.00     0.029 A 
ATOM     34  N   UNL A   1      41.794  29.787  32.773  1.00  0.00    -0.354 N 
ATOM     35  C   UNL A   1      38.394  31.957  31.199  1.00  0.00     0.074 A 
ATOM     36  C   UNL A   1      38.164  31.628  29.809  1.00  0.00     0.031 C 
ATOM     37  C   UNL A   1      43.502  28.344  32.702  1.00  0.00     0.029 A 
ATOM     38  C   UNL A   1      42.789  29.277  33.572  1.00  0.00     0.049 A 
ATOM     39  H   UNL A   1      41.109  30.415  33.099  1.00  0.00     0.167 HD
ATOM     40  C   UNL A   1      37.623  32.802  31.922  1.00  0.00     0.031 A 
ATOM     41  C   UNL A   1      43.106  29.554  34.852  1.00  0.00     0.031 A 
ATOM     42  C   UNL A   1      37.861  33.131  33.302  1.00  0.00     0.049 A 
ATOM     43  C   UNL A   1      42.279  30.559  35.609  1.00  0.00     0.074 A 
ATOM     44  C   UNL A   1      37.137  33.978  34.122  1.00  0.00     0.029 A 
ATOM     45  N   UNL A   1      38.907  32.632  34.063  1.00  0.00    -0.354 N 
ATOM     46  N   UNL A   1      41.218  31.219  35.211  1.00  0.00    -0.248 NA
ATOM     47  C   UNL A   1      42.697  30.861  36.985  1.00  0.00     0.031 C 
ATOM     48  C   UNL A   1      37.773  34.027  35.368  1.00  0.00     0.029 A 
ATOM     49  C   UNL A   1      38.865  33.173  35.336  1.00  0.00     0.049 A 
ATOM     50  H   UNL A   1      39.580  31.988  33.745  1.00  0.00     0.167 HD
ATOM     51  C   UNL A   1      40.833  32.004  36.291  1.00  0.00     0.074 A 
ATOM     52  C   UNL A   1      41.764  31.723  37.366  1.00  0.00     0.031 C 
ATOM     53  C   UNL A   1      39.804  32.883  36.387  1.00  0.00     0.031 A 
BRANCH  40  54
ATOM     54  C   UNL A   1      36.470  33.465  31.221  1.00  0.00    -0.014 A 
ATOM     55  C   UNL A   1      35.251  33.696  31.882  1.00  0.00     0.010 A 
ATOM     56  C   UNL A   1      36.629  33.907  29.895  1.00  0.00     0.010 A 
ATOM     57  C   UNL A   1      34.201  34.339  31.219  1.00  0.00     0.020 A 
ATOM     58  C   UNL A   1      35.587  34.566  29.236  1.00  0.00     0.020 A 
ATOM     59  C   UNL A   1      34.376  34.768  29.899  1.00  0.00     0.054 A 
BRANCH  59  60
ATOM     60  S   UNL A   1      33.010  35.629  29.072  1.00  0.00     0.124 S 
ATOM     61  O   UNL A   1      33.711  36.694  28.361  1.00  0.00    -0.237 OA
ATOM     62  O   UNL A   1      32.434  34.585  28.229  1.00  0.00    -0.237 OA
ATOM     63  O   UNL A   1      32.160  36.071  30.176  1.00  0.00    -0.744 OA
ENDBRANCH  59  60
ENDBRANCH  40  54
BRANCH  41  64
ATOM     64  C   UNL A   1      44.295  28.918  35.482  1.00  0.00    -0.014 A 
ATOM     65  C   UNL A   1      44.178  27.714  36.195  1.00  0.00     0.010 A 
ATOM     66  C   UNL A   1      45.556  29.535  35.382  1.00  0.00     0.010 A 
ATOM     67  C   UNL A   1      45.297  27.149  36.818  1.00  0.00     0.020 A 
ATOM     68  C   UNL A   1      46.680  28.961  35.980  1.00  0.00     0.020 A 
ATOM     69  C   UNL A   1      46.541  27.779  36.708  1.00  0.00     0.054 A 
BRANCH  69  70
ATOM     70  S   UNL A   1      47.990  27.017  37.492  1.00  0.00     0.124 S 
ATOM     71  O   UNL A   1      49.086  27.574  36.707  1.00  0.00    -0.237 OA
ATOM     72  O   UNL A   1      47.894  27.488  38.871  1.00  0.00    -0.237 OA
ATOM     73  O   UNL A   1      47.756  25.584  37.315  1.00  0.00    -0.744 OA
ENDBRANCH  69  70
ENDBRANCH  41  64
BRANCH  53  74
ATOM     74  C   UNL A   1      39.623  33.589  37.702  1.00  0.00    -0.014 A 
ATOM     75  C   UNL A   1      40.160  34.872  37.913  1.00  0.00     0.010 A 
ATOM     76  C   UNL A   1      38.864  32.985  38.719  1.00  0.00     0.010 A 
ATOM     77  C   UNL A   1      39.963  35.527  39.131  1.00  0.00     0.020 A 
ATOM     78  C   UNL A   1      38.645  33.646  39.930  1.00  0.00     0.020 A 
ATOM     79  C   UNL A   1      39.208  34.908  40.133  1.00  0.00     0.054 A 
BRANCH  79  80
ATOM     80  S   UNL A   1      38.928  35.794  41.692  1.00  0.00     0.124 S 
ATOM     81  O   UNL A   1      40.028  35.308  42.520  1.00  0.00    -0.237 OA
ATOM     82  O   UNL A   1      39.017  37.196  41.288  1.00  0.00    -0.237 OA
ATOM     83  O   UNL A   1      37.596  35.355  42.102  1.00  0.00    -0.744 OA
ENDBRANCH  79  80
ENDBRANCH  53  74
ENDBRANCH  27  28
ENDBRANCH  20  22
ENDBRANCH  19  20
ENDBRANCH  18  19
ENDBRANCH   1  18
TORSDOF 17
ENDMDL
