MODEL 1
REMARK VINA RESULT:     -11.0      0.000      0.000
REMARK SMILES O=C(NNS(=O)(=O)c1cccc(C(=O)OCCOC(=O)c2ccc(-c3c4nc(c(-c5ccc(S(=O)(=O)[O-])cc5)c5ccc([nH]5)c(-c5ccc(S(=O)(=O)[O-])cc5)c5nc(c(-c6ccc(S(=O)(=O)[O-])cc6)c6ccc3[nH]6)C=C5)C=C4)cc2)c1)c1ccc2c(c1)OCO2
REMARK SMILES IDX 16 1 15 2 13 3 14 4 12 5 8 6 9 7 81 8 10 9 11 10 5 11 6 12
REMARK SMILES IDX 7 13 4 14 3 16 1 17 2 18 82 20 83 21 87 22 84 23 86 24 85 25
REMARK SMILES IDX 88 26 90 27 89 28 17 29 18 30 19 31 20 32 21 33 22 34 80 35
REMARK SMILES IDX 23 36 79 37 24 38 25 39 26 40 73 41 27 42 78 43 72 44 74 45
REMARK SMILES IDX 28 46 77 47 71 48 70 49 29 51 59 52 40 53 58 54 41 55 44 56
REMARK SMILES IDX 57 57 75 58 42 59 43 60 56 62 76 63 45 64 30 65 31 66 39 67
REMARK SMILES IDX 32 68 38 69 33 70 34 71 35 72 36 73 37 74 60 75 61 76 69 77
REMARK SMILES IDX 62 78 68 79 63 80 64 81 65 82 66 83 67 84 46 85 47 86 55 87
REMARK SMILES IDX 48 88 54 89 49 90 50 91 51 92 52 93 53 94
REMARK H PARENT 4 15 3 19 74 50 44 61
REMARK Flexibility Score: inf
ROOT
ATOM      1  C   UNL A   1      39.365  21.616  26.098  1.00  0.00     0.275 C 
ENDROOT
BRANCH   1   2
ATOM      2  O   UNL A   1      38.080  21.966  25.542  1.00  0.00    -0.458 OA
BRANCH   2   3
ATOM      3  C   UNL A   1      37.646  23.230  25.782  1.00  0.00     0.338 C 
ATOM      4  O   UNL A   1      38.198  24.073  26.467  1.00  0.00    -0.246 OA
BRANCH   3   5
ATOM      5  C   UNL A   1      36.417  23.505  24.996  1.00  0.00     0.061 A 
ATOM      6  C   UNL A   1      34.347  24.676  24.629  1.00  0.00     0.084 A 
ATOM      7  C   UNL A   1      34.069  23.873  23.517  1.00  0.00     0.022 A 
ATOM      8  C   UNL A   1      35.504  24.484  25.391  1.00  0.00     0.037 A 
ATOM      9  C   UNL A   1      34.995  22.922  23.110  1.00  0.00     0.002 A 
ATOM     10  C   UNL A   1      36.182  22.770  23.824  1.00  0.00     0.016 A 
BRANCH   6  11
ATOM     11  S   UNL A   1      33.172  25.927  25.040  1.00  0.00     0.257 S 
ATOM     12  O   UNL A   1      33.155  26.900  23.964  1.00  0.00    -0.205 OA
ATOM     13  O   UNL A   1      33.399  26.306  26.412  1.00  0.00    -0.205 OA
BRANCH  11  14
ATOM     14  N   UNL A   1      31.679  25.140  25.007  1.00  0.00    -0.123 NA
ATOM     15  H   UNL A   1      31.045  25.733  24.472  1.00  0.00     0.167 HD
BRANCH  14  16
ATOM     16  N   UNL A   1      31.006  24.820  26.244  1.00  0.00    -0.273 N 
ATOM     17  O   UNL A   1      30.051  23.232  27.569  1.00  0.00    -0.268 OA
ATOM     18  C   UNL A   1      30.891  23.538  26.730  1.00  0.00     0.266 C 
ATOM     19  H   UNL A   1      30.611  25.555  26.765  1.00  0.00     0.186 HD
BRANCH  18  20
ATOM     20  C   UNL A   1      31.871  22.523  26.273  1.00  0.00     0.045 A 
ATOM     21  C   UNL A   1      33.056  22.295  27.012  1.00  0.00     0.018 A 
ATOM     22  C   UNL A   1      31.548  21.722  25.173  1.00  0.00     0.064 A 
ATOM     23  C   UNL A   1      33.944  21.283  26.638  1.00  0.00     0.051 A 
ATOM     24  C   UNL A   1      32.431  20.715  24.849  1.00  0.00     0.166 A 
ATOM     25  C   UNL A   1      33.593  20.502  25.559  1.00  0.00     0.165 A 
ATOM     26  O   UNL A   1      32.269  19.809  23.847  1.00  0.00    -0.454 OA
ATOM     27  O   UNL A   1      34.298  19.438  25.091  1.00  0.00    -0.454 OA
ATOM     28  C   UNL A   1      33.377  18.924  24.108  1.00  0.00     0.468 C 
ENDBRANCH  18  20
ENDBRANCH  14  16
ENDBRANCH  11  14
ENDBRANCH   6  11
ENDBRANCH   3   5
ENDBRANCH   2   3
ENDBRANCH   1   2
BRANCH   1  29
ATOM     29  C   UNL A   1      39.589  20.103  26.095  1.00  0.00     0.275 C 
BRANCH  29  30
ATOM     30  O   UNL A   1      40.844  19.782  25.472  1.00  0.00    -0.458 OA
BRANCH  30  31
ATOM     31  C   UNL A   1      41.888  19.629  26.318  1.00  0.00     0.338 C 
ATOM     32  O   UNL A   1      42.279  18.600  26.841  1.00  0.00    -0.246 OA
BRANCH  31  33
ATOM     33  C   UNL A   1      42.600  20.907  26.450  1.00  0.00     0.060 A 
ATOM     34  C   UNL A   1      42.738  21.437  27.728  1.00  0.00     0.016 A 
ATOM     35  C   UNL A   1      42.985  21.650  25.338  1.00  0.00     0.016 A 
ATOM     36  C   UNL A   1      43.163  22.748  27.909  1.00  0.00     0.010 A 
ATOM     37  C   UNL A   1      43.508  22.936  25.526  1.00  0.00     0.010 A 
ATOM     38  C   UNL A   1      43.565  23.516  26.810  1.00  0.00    -0.014 A 
BRANCH  38  39
ATOM     39  C   UNL A   1      43.995  24.932  26.992  1.00  0.00     0.031 A 
ATOM     40  C   UNL A   1      45.429  25.320  26.737  1.00  0.00     0.074 A 
ATOM     41  C   UNL A   1      43.112  25.881  27.369  1.00  0.00     0.049 A 
ATOM     42  N   UNL A   1      46.054  26.429  27.039  1.00  0.00    -0.248 NA
ATOM     43  C   UNL A   1      46.276  24.320  26.066  1.00  0.00     0.031 C 
ATOM     44  C   UNL A   1      41.676  25.676  27.576  1.00  0.00     0.029 A 
ATOM     45  N   UNL A   1      43.295  27.214  27.645  1.00  0.00    -0.354 N 
ATOM     46  C   UNL A   1      47.378  26.236  26.659  1.00  0.00     0.074 A 
ATOM     47  C   UNL A   1      47.465  24.904  26.101  1.00  0.00     0.031 C 
ATOM     48  C   UNL A   1      41.107  26.843  27.911  1.00  0.00     0.029 A 
ATOM     49  C   UNL A   1      42.146  27.857  28.044  1.00  0.00     0.049 A 
ATOM     50  H   UNL A   1      44.166  27.666  27.565  1.00  0.00     0.167 HD
ATOM     51  C   UNL A   1      48.426  27.087  26.774  1.00  0.00     0.031 A 
ATOM     52  C   UNL A   1      41.951  29.103  28.517  1.00  0.00     0.031 A 
ATOM     53  C   UNL A   1      48.324  28.425  27.295  1.00  0.00     0.049 A 
ATOM     54  C   UNL A   1      43.133  30.015  28.687  1.00  0.00     0.074 A 
ATOM     55  C   UNL A   1      49.325  29.368  27.457  1.00  0.00     0.029 A 
ATOM     56  N   UNL A   1      47.145  29.020  27.721  1.00  0.00    -0.354 N 
ATOM     57  N   UNL A   1      44.393  29.790  28.400  1.00  0.00    -0.248 NA
ATOM     58  C   UNL A   1      42.871  31.340  29.263  1.00  0.00     0.031 C 
ATOM     59  C   UNL A   1      48.759  30.516  28.020  1.00  0.00     0.029 A 
ATOM     60  C   UNL A   1      47.395  30.310  28.156  1.00  0.00     0.049 A 
ATOM     61  H   UNL A   1      46.260  28.587  27.716  1.00  0.00     0.167 HD
ATOM     62  C   UNL A   1      45.072  30.953  28.744  1.00  0.00     0.074 A 
ATOM     63  C   UNL A   1      44.082  31.883  29.246  1.00  0.00     0.031 C 
ATOM     64  C   UNL A   1      46.397  31.224  28.651  1.00  0.00     0.031 A 
BRANCH  51  65
ATOM     65  C   UNL A   1      49.787  26.573  26.381  1.00  0.00    -0.014 A 
ATOM     66  C   UNL A   1      50.621  25.908  27.297  1.00  0.00     0.010 A 
ATOM     67  C   UNL A   1      50.232  26.749  25.056  1.00  0.00     0.010 A 
ATOM     68  C   UNL A   1      51.893  25.474  26.909  1.00  0.00     0.020 A 
ATOM     69  C   UNL A   1      51.490  26.292  24.658  1.00  0.00     0.020 A 
ATOM     70  C   UNL A   1      52.323  25.677  25.594  1.00  0.00     0.054 A 
BRANCH  70  71
ATOM     71  S   UNL A   1      53.979  25.109  25.116  1.00  0.00     0.124 S 
ATOM     72  O   UNL A   1      54.770  25.467  26.291  1.00  0.00    -0.237 OA
ATOM     73  O   UNL A   1      53.780  23.677  24.906  1.00  0.00    -0.237 OA
ATOM     74  O   UNL A   1      54.274  25.877  23.909  1.00  0.00    -0.744 OA
ENDBRANCH  70  71
ENDBRANCH  51  65
BRANCH  52  75
ATOM     75  C   UNL A   1      40.583  29.537  28.914  1.00  0.00    -0.014 A 
ATOM     76  C   UNL A   1      39.575  29.700  27.948  1.00  0.00     0.010 A 
ATOM     77  C   UNL A   1      40.273  29.756  30.269  1.00  0.00     0.010 A 
ATOM     78  C   UNL A   1      38.283  30.074  28.331  1.00  0.00     0.020 A 
ATOM     79  C   UNL A   1      38.975  30.099  30.659  1.00  0.00     0.020 A 
ATOM     80  C   UNL A   1      37.990  30.264  29.684  1.00  0.00     0.054 A 
BRANCH  80  81
ATOM     81  S   UNL A   1      36.288  30.670  30.166  1.00  0.00     0.124 S 
ATOM     82  O   UNL A   1      36.055  29.743  31.267  1.00  0.00    -0.237 OA
ATOM     83  O   UNL A   1      36.391  32.080  30.536  1.00  0.00    -0.237 OA
ATOM     84  O   UNL A   1      35.518  30.409  28.952  1.00  0.00    -0.744 OA
ENDBRANCH  80  81
ENDBRANCH  52  75
BRANCH  64  85
ATOM     85  C   UNL A   1      46.849  32.599  29.059  1.00  0.00    -0.014 A 
ATOM     86  C   UNL A   1      47.384  32.843  30.336  1.00  0.00     0.010 A 
ATOM     87  C   UNL A   1      46.787  33.650  28.126  1.00  0.00     0.010 A 
ATOM     88  C   UNL A   1      47.825  34.123  30.682  1.00  0.00     0.020 A 
ATOM     89  C   UNL A   1      47.248  34.925  28.461  1.00  0.00     0.020 A 
ATOM     90  C   UNL A   1      47.754  35.157  29.742  1.00  0.00     0.054 A 
BRANCH  90  91
ATOM     91  S   UNL A   1      48.377  36.798  30.196  1.00  0.00     0.124 S 
ATOM     92  O   UNL A   1      47.335  37.675  29.668  1.00  0.00    -0.237 OA
ATOM     93  O   UNL A   1      48.456  36.721  31.653  1.00  0.00    -0.237 OA
ATOM     94  O   UNL A   1      49.666  36.880  29.512  1.00  0.00    -0.744 OA
ENDBRANCH  90  91
ENDBRANCH  64  85
ENDBRANCH  38  39
ENDBRANCH  31  33
ENDBRANCH  30  31
ENDBRANCH  29  30
ENDBRANCH   1  29
TORSDOF 18
ENDMDL
MODEL 2
REMARK VINA RESULT:     -11.0      5.780      8.158
REMARK SMILES O=C(NNS(=O)(=O)c1cccc(C(=O)OCCOC(=O)c2ccc(-c3c4nc(c(-c5ccc(S(=O)(=O)[O-])cc5)c5ccc([nH]5)c(-c5ccc(S(=O)(=O)[O-])cc5)c5nc(c(-c6ccc(S(=O)(=O)[O-])cc6)c6ccc3[nH]6)C=C5)C=C4)cc2)c1)c1ccc2c(c1)OCO2
REMARK SMILES IDX 16 1 15 2 13 3 14 4 12 5 8 6 9 7 81 8 10 9 11 10 5 11 6 12
REMARK SMILES IDX 7 13 4 14 3 16 1 17 2 18 82 20 83 21 87 22 84 23 86 24 85 25
REMARK SMILES IDX 88 26 90 27 89 28 17 29 18 30 19 31 20 32 21 33 22 34 80 35
REMARK SMILES IDX 23 36 79 37 24 38 25 39 26 40 73 41 27 42 78 43 72 44 74 45
REMARK SMILES IDX 28 46 77 47 71 48 70 49 29 51 59 52 40 53 58 54 41 55 44 56
REMARK SMILES IDX 57 57 75 58 42 59 43 60 56 62 76 63 45 64 30 65 31 66 39 67
REMARK SMILES IDX 32 68 38 69 33 70 34 71 35 72 36 73 37 74 60 75 61 76 69 77
REMARK SMILES IDX 62 78 68 79 63 80 64 81 65 82 66 83 67 84 46 85 47 86 55 87
REMARK SMILES IDX 48 88 54 89 49 90 50 91 51 92 52 93 53 94
REMARK H PARENT 4 15 3 19 74 50 44 61
REMARK Flexibility Score: inf
ROOT
ATOM      1  C   UNL A   1      39.966  20.915  26.139  1.00  0.00     0.275 C 
ENDROOT
BRANCH   1   2
ATOM      2  O   UNL A   1      38.770  21.689  25.906  1.00  0.00    -0.458 OA
BRANCH   2   3
ATOM      3  C   UNL A   1      37.790  21.079  25.192  1.00  0.00     0.338 C 
ATOM      4  O   UNL A   1      37.821  19.956  24.721  1.00  0.00    -0.246 OA
BRANCH   3   5
ATOM      5  C   UNL A   1      36.586  21.946  25.135  1.00  0.00     0.061 A 
ATOM      6  C   UNL A   1      34.259  22.321  24.650  1.00  0.00     0.084 A 
ATOM      7  C   UNL A   1      34.398  23.681  24.948  1.00  0.00     0.022 A 
ATOM      8  C   UNL A   1      35.351  21.449  24.714  1.00  0.00     0.037 A 
ATOM      9  C   UNL A   1      35.620  24.163  25.396  1.00  0.00     0.002 A 
ATOM     10  C   UNL A   1      36.697  23.288  25.528  1.00  0.00     0.016 A 
BRANCH   6  11
ATOM     11  S   UNL A   1      32.658  21.754  24.174  1.00  0.00     0.257 S 
ATOM     12  O   UNL A   1      32.233  20.748  25.129  1.00  0.00    -0.205 OA
ATOM     13  O   UNL A   1      32.687  21.500  22.755  1.00  0.00    -0.205 OA
BRANCH  11  14
ATOM     14  N   UNL A   1      31.648  23.090  24.393  1.00  0.00    -0.123 NA
ATOM     15  H   UNL A   1      32.251  23.884  24.605  1.00  0.00     0.167 HD
BRANCH  14  16
ATOM     16  N   UNL A   1      30.624  23.060  25.410  1.00  0.00    -0.273 N 
ATOM     17  O   UNL A   1      29.679  24.054  27.229  1.00  0.00    -0.268 OA
ATOM     18  C   UNL A   1      30.279  24.158  26.166  1.00  0.00     0.266 C 
ATOM     19  H   UNL A   1      30.150  22.213  25.572  1.00  0.00     0.186 HD
BRANCH  18  20
ATOM     20  C   UNL A   1      30.581  25.505  25.624  1.00  0.00     0.045 A 
ATOM     21  C   UNL A   1      29.840  26.016  24.532  1.00  0.00     0.018 A 
ATOM     22  C   UNL A   1      31.524  26.300  26.283  1.00  0.00     0.064 A 
ATOM     23  C   UNL A   1      30.058  27.316  24.071  1.00  0.00     0.051 A 
ATOM     24  C   UNL A   1      31.694  27.587  25.821  1.00  0.00     0.166 A 
ATOM     25  C   UNL A   1      30.984  28.079  24.747  1.00  0.00     0.165 A 
ATOM     26  O   UNL A   1      32.526  28.520  26.357  1.00  0.00    -0.454 OA
ATOM     27  O   UNL A   1      31.281  29.379  24.482  1.00  0.00    -0.454 OA
ATOM     28  C   UNL A   1      32.145  29.684  25.596  1.00  0.00     0.468 C 
ENDBRANCH  18  20
ENDBRANCH  14  16
ENDBRANCH  11  14
ENDBRANCH   6  11
ENDBRANCH   3   5
ENDBRANCH   2   3
ENDBRANCH   1   2
BRANCH   1  29
ATOM     29  C   UNL A   1      41.146  21.804  26.534  1.00  0.00     0.275 C 
BRANCH  29  30
ATOM     30  O   UNL A   1      40.684  23.106  26.933  1.00  0.00    -0.458 OA
BRANCH  30  31
ATOM     31  C   UNL A   1      41.486  24.137  26.587  1.00  0.00     0.338 C 
ATOM     32  O   UNL A   1      42.283  24.184  25.665  1.00  0.00    -0.246 OA
BRANCH  31  33
ATOM     33  C   UNL A   1      41.184  25.297  27.436  1.00  0.00     0.060 A 
ATOM     34  C   UNL A   1      42.127  26.318  27.488  1.00  0.00     0.016 A 
ATOM     35  C   UNL A   1      40.081  25.317  28.284  1.00  0.00     0.016 A 
ATOM     36  C   UNL A   1      42.038  27.314  28.454  1.00  0.00     0.010 A 
ATOM     37  C   UNL A   1      39.938  26.376  29.190  1.00  0.00     0.010 A 
ATOM     38  C   UNL A   1      40.936  27.365  29.314  1.00  0.00    -0.014 A 
BRANCH  38  39
ATOM     39  C   UNL A   1      40.848  28.413  30.371  1.00  0.00     0.031 A 
ATOM     40  C   UNL A   1      41.811  28.391  31.532  1.00  0.00     0.074 A 
ATOM     41  C   UNL A   1      39.924  29.395  30.299  1.00  0.00     0.049 A 
ATOM     42  N   UNL A   1      41.773  29.064  32.653  1.00  0.00    -0.248 NA
ATOM     43  C   UNL A   1      42.961  27.480  31.419  1.00  0.00     0.031 C 
ATOM     44  C   UNL A   1      38.977  29.595  29.200  1.00  0.00     0.029 A 
ATOM     45  N   UNL A   1      39.632  30.414  31.173  1.00  0.00    -0.354 N 
ATOM     46  C   UNL A   1      42.850  28.609  33.406  1.00  0.00     0.074 A 
ATOM     47  C   UNL A   1      43.525  27.605  32.612  1.00  0.00     0.031 C 
ATOM     48  C   UNL A   1      38.236  30.685  29.448  1.00  0.00     0.029 A 
ATOM     49  C   UNL A   1      38.581  31.202  30.767  1.00  0.00     0.049 A 
ATOM     50  H   UNL A   1      40.129  30.564  32.010  1.00  0.00     0.167 HD
ATOM     51  C   UNL A   1      43.235  28.987  34.649  1.00  0.00     0.031 A 
ATOM     52  C   UNL A   1      37.926  32.195  31.401  1.00  0.00     0.031 A 
ATOM     53  C   UNL A   1      42.582  30.014  35.417  1.00  0.00     0.049 A 
ATOM     54  C   UNL A   1      38.333  32.564  32.799  1.00  0.00     0.074 A 
ATOM     55  C   UNL A   1      42.890  30.470  36.688  1.00  0.00     0.029 A 
ATOM     56  N   UNL A   1      41.497  30.760  34.979  1.00  0.00    -0.354 N 
ATOM     57  N   UNL A   1      39.303  32.069  33.531  1.00  0.00    -0.248 NA
ATOM     58  C   UNL A   1      37.547  33.611  33.464  1.00  0.00     0.031 C 
ATOM     59  C   UNL A   1      41.966  31.462  37.034  1.00  0.00     0.029 A 
ATOM     60  C   UNL A   1      41.117  31.664  35.957  1.00  0.00     0.049 A 
ATOM     61  H   UNL A   1      41.061  30.660  34.102  1.00  0.00     0.167 HD
ATOM     62  C   UNL A   1      39.254  32.757  34.738  1.00  0.00     0.074 A 
ATOM     63  C   UNL A   1      38.170  33.712  34.632  1.00  0.00     0.031 C 
ATOM     64  C   UNL A   1      40.037  32.610  35.834  1.00  0.00     0.031 A 
BRANCH  51  65
ATOM     65  C   UNL A   1      44.384  28.242  35.279  1.00  0.00    -0.014 A 
ATOM     66  C   UNL A   1      44.188  27.056  36.007  1.00  0.00     0.010 A 
ATOM     67  C   UNL A   1      45.693  28.739  35.123  1.00  0.00     0.010 A 
ATOM     68  C   UNL A   1      45.272  26.408  36.608  1.00  0.00     0.020 A 
ATOM     69  C   UNL A   1      46.782  28.079  35.698  1.00  0.00     0.020 A 
ATOM     70  C   UNL A   1      46.562  26.929  36.458  1.00  0.00     0.054 A 
BRANCH  70  71
ATOM     71  S   UNL A   1      47.951  26.073  37.250  1.00  0.00     0.124 S 
ATOM     72  O   UNL A   1      47.654  26.267  38.667  1.00  0.00    -0.237 OA
ATOM     73  O   UNL A   1      47.809  24.704  36.760  1.00  0.00    -0.237 OA
ATOM     74  O   UNL A   1      49.126  26.788  36.757  1.00  0.00    -0.744 OA
ENDBRANCH  70  71
ENDBRANCH  51  65
BRANCH  52  75
ATOM     75  C   UNL A   1      36.780  32.870  30.731  1.00  0.00    -0.014 A 
ATOM     76  C   UNL A   1      35.458  32.580  31.108  1.00  0.00     0.010 A 
ATOM     77  C   UNL A   1      37.010  33.836  29.733  1.00  0.00     0.010 A 
ATOM     78  C   UNL A   1      34.387  33.243  30.500  1.00  0.00     0.020 A 
ATOM     79  C   UNL A   1      35.945  34.523  29.144  1.00  0.00     0.020 A 
ATOM     80  C   UNL A   1      34.639  34.215  29.527  1.00  0.00     0.054 A 
BRANCH  80  81
ATOM     81  S   UNL A   1      33.239  35.120  28.807  1.00  0.00     0.124 S 
ATOM     82  O   UNL A   1      33.911  36.205  28.102  1.00  0.00    -0.237 OA
ATOM     83  O   UNL A   1      32.609  34.108  27.961  1.00  0.00    -0.237 OA
ATOM     84  O   UNL A   1      32.455  35.519  29.974  1.00  0.00    -0.744 OA
ENDBRANCH  80  81
ENDBRANCH  52  75
BRANCH  64  85
ATOM     85  C   UNL A   1      39.782  33.534  36.992  1.00  0.00    -0.014 A 
ATOM     86  C   UNL A   1      38.873  33.196  38.010  1.00  0.00     0.010 A 
ATOM     87  C   UNL A   1      40.507  34.735  37.089  1.00  0.00     0.010 A 
ATOM     88  C   UNL A   1      38.675  34.057  39.092  1.00  0.00     0.020 A 
ATOM     89  C   UNL A   1      40.329  35.588  38.181  1.00  0.00     0.020 A 
ATOM     90  C   UNL A   1      39.404  35.249  39.171  1.00  0.00     0.054 A 
BRANCH  90  91
ATOM     91  S   UNL A   1      39.166  36.328  40.608  1.00  0.00     0.124 S 
ATOM     92  O   UNL A   1      38.254  35.540  41.432  1.00  0.00    -0.237 OA
ATOM     93  O   UNL A   1      40.522  36.472  41.131  1.00  0.00    -0.237 OA
ATOM     94  O   UNL A   1      38.594  37.546  40.036  1.00  0.00    -0.744 OA
ENDBRANCH  90  91
ENDBRANCH  64  85
ENDBRANCH  38  39
ENDBRANCH  31  33
ENDBRANCH  30  31
ENDBRANCH  29  30
ENDBRANCH   1  29
TORSDOF 18
ENDMDL
MODEL 3
REMARK VINA RESULT:     -11.0      4.723      6.092
REMARK SMILES O=C(NNS(=O)(=O)c1cccc(C(=O)OCCOC(=O)c2ccc(-c3c4nc(c(-c5ccc(S(=O)(=O)[O-])cc5)c5ccc([nH]5)c(-c5ccc(S(=O)(=O)[O-])cc5)c5nc(c(-c6ccc(S(=O)(=O)[O-])cc6)c6ccc3[nH]6)C=C5)C=C4)cc2)c1)c1ccc2c(c1)OCO2
REMARK SMILES IDX 16 1 15 2 13 3 14 4 12 5 8 6 9 7 81 8 10 9 11 10 5 11 6 12
REMARK SMILES IDX 7 13 4 14 3 16 1 17 2 18 82 20 83 21 87 22 84 23 86 24 85 25
REMARK SMILES IDX 88 26 90 27 89 28 17 29 18 30 19 31 20 32 21 33 22 34 80 35
REMARK SMILES IDX 23 36 79 37 24 38 25 39 26 40 73 41 27 42 78 43 72 44 74 45
REMARK SMILES IDX 28 46 77 47 71 48 70 49 29 51 59 52 40 53 58 54 41 55 44 56
REMARK SMILES IDX 57 57 75 58 42 59 43 60 56 62 76 63 45 64 30 65 31 66 39 67
REMARK SMILES IDX 32 68 38 69 33 70 34 71 35 72 36 73 37 74 60 75 61 76 69 77
REMARK SMILES IDX 62 78 68 79 63 80 64 81 65 82 66 83 67 84 46 85 47 86 55 87
REMARK SMILES IDX 48 88 54 89 49 90 50 91 51 92 52 93 53 94
REMARK H PARENT 4 15 3 19 74 50 44 61
REMARK Flexibility Score: inf
ROOT
ATOM      1  C   UNL A   1      36.582  21.138  24.986  1.00  0.00     0.275 C 
ENDROOT
BRANCH   1   2
ATOM      2  O   UNL A   1      35.946  22.416  24.774  1.00  0.00    -0.458 OA
BRANCH   2   3
ATOM      3  C   UNL A   1      35.827  22.822  23.484  1.00  0.00     0.338 C 
ATOM      4  O   UNL A   1      36.700  22.819  22.635  1.00  0.00    -0.246 OA
BRANCH   3   5
ATOM      5  C   UNL A   1      34.419  23.192  23.194  1.00  0.00     0.061 A 
ATOM      6  C   UNL A   1      32.747  24.728  22.398  1.00  0.00     0.084 A 
ATOM      7  C   UNL A   1      31.729  23.853  22.792  1.00  0.00     0.022 A 
ATOM      8  C   UNL A   1      34.094  24.421  22.618  1.00  0.00     0.037 A 
ATOM      9  C   UNL A   1      32.059  22.619  23.336  1.00  0.00     0.002 A 
ATOM     10  C   UNL A   1      33.400  22.276  23.497  1.00  0.00     0.016 A 
BRANCH   6  11
ATOM     11  S   UNL A   1      32.262  26.241  21.629  1.00  0.00     0.257 S 
ATOM     12  O   UNL A   1      31.634  25.921  20.361  1.00  0.00    -0.205 OA
ATOM     13  O   UNL A   1      33.372  27.155  21.725  1.00  0.00    -0.205 OA
BRANCH  11  14
ATOM     14  N   UNL A   1      31.052  26.862  22.629  1.00  0.00    -0.123 NA
ATOM     15  H   UNL A   1      30.262  27.092  22.026  1.00  0.00     0.167 HD
BRANCH  14  16
ATOM     16  N   UNL A   1      31.313  28.028  23.438  1.00  0.00    -0.273 N 
ATOM     17  O   UNL A   1      31.497  28.933  25.521  1.00  0.00    -0.268 OA
ATOM     18  C   UNL A   1      31.613  27.964  24.780  1.00  0.00     0.266 C 
ATOM     19  H   UNL A   1      31.276  28.913  23.009  1.00  0.00     0.186 HD
BRANCH  18  20
ATOM     20  C   UNL A   1      32.167  26.696  25.315  1.00  0.00     0.045 A 
ATOM     21  C   UNL A   1      33.567  26.498  25.368  1.00  0.00     0.018 A 
ATOM     22  C   UNL A   1      31.290  25.759  25.869  1.00  0.00     0.064 A 
ATOM     23  C   UNL A   1      34.100  25.345  25.949  1.00  0.00     0.051 A 
ATOM     24  C   UNL A   1      31.850  24.647  26.460  1.00  0.00     0.166 A 
ATOM     25  C   UNL A   1      33.213  24.445  26.497  1.00  0.00     0.165 A 
ATOM     26  O   UNL A   1      31.166  23.653  27.089  1.00  0.00    -0.454 OA
ATOM     27  O   UNL A   1      33.549  23.305  27.156  1.00  0.00    -0.454 OA
ATOM     28  C   UNL A   1      32.258  22.894  27.649  1.00  0.00     0.468 C 
ENDBRANCH  18  20
ENDBRANCH  14  16
ENDBRANCH  11  14
ENDBRANCH   6  11
ENDBRANCH   3   5
ENDBRANCH   2   3
ENDBRANCH   1   2
BRANCH   1  29
ATOM     29  C   UNL A   1      37.932  21.288  25.688  1.00  0.00     0.275 C 
BRANCH  29  30
ATOM     30  O   UNL A   1      38.279  22.677  25.820  1.00  0.00    -0.458 OA
BRANCH  30  31
ATOM     31  C   UNL A   1      39.568  22.924  26.143  1.00  0.00     0.338 C 
ATOM     32  O   UNL A   1      40.552  22.278  25.828  1.00  0.00    -0.246 OA
BRANCH  31  33
ATOM     33  C   UNL A   1      39.653  24.198  26.869  1.00  0.00     0.060 A 
ATOM     34  C   UNL A   1      40.535  25.157  26.383  1.00  0.00     0.016 A 
ATOM     35  C   UNL A   1      39.006  24.394  28.085  1.00  0.00     0.016 A 
ATOM     36  C   UNL A   1      40.863  26.270  27.148  1.00  0.00     0.010 A 
ATOM     37  C   UNL A   1      39.260  25.565  28.811  1.00  0.00     0.010 A 
ATOM     38  C   UNL A   1      40.222  26.498  28.371  1.00  0.00    -0.014 A 
BRANCH  38  39
ATOM     39  C   UNL A   1      40.588  27.674  29.211  1.00  0.00     0.031 A 
ATOM     40  C   UNL A   1      41.888  27.674  29.975  1.00  0.00     0.074 A 
ATOM     41  C   UNL A   1      39.777  28.750  29.289  1.00  0.00     0.049 A 
ATOM     42  N   UNL A   1      42.293  28.483  30.920  1.00  0.00    -0.248 NA
ATOM     43  C   UNL A   1      42.853  26.615  29.640  1.00  0.00     0.031 C 
ATOM     44  C   UNL A   1      38.527  28.931  28.547  1.00  0.00     0.029 A 
ATOM     45  N   UNL A   1      39.887  29.901  30.030  1.00  0.00    -0.354 N 
ATOM     46  C   UNL A   1      43.526  27.992  31.339  1.00  0.00     0.074 A 
ATOM     47  C   UNL A   1      43.802  26.816  30.543  1.00  0.00     0.031 C 
ATOM     48  C   UNL A   1      38.006  30.131  28.844  1.00  0.00     0.029 A 
ATOM     49  C   UNL A   1      38.825  30.762  29.872  1.00  0.00     0.049 A 
ATOM     50  H   UNL A   1      40.652  30.091  30.620  1.00  0.00     0.167 HD
ATOM     51  C   UNL A   1      44.346  28.471  32.306  1.00  0.00     0.031 A 
ATOM     52  C   UNL A   1      38.511  31.904  30.514  1.00  0.00     0.031 A 
ATOM     53  C   UNL A   1      44.082  29.664  33.067  1.00  0.00     0.049 A 
ATOM     54  C   UNL A   1      39.405  32.391  31.619  1.00  0.00     0.074 A 
ATOM     55  C   UNL A   1      44.845  30.233  34.072  1.00  0.00     0.029 A 
ATOM     56  N   UNL A   1      42.975  30.483  32.896  1.00  0.00    -0.354 N 
ATOM     57  N   UNL A   1      40.525  31.871  32.060  1.00  0.00    -0.248 NA
ATOM     58  C   UNL A   1      38.983  33.607  32.325  1.00  0.00     0.031 C 
ATOM     59  C   UNL A   1      44.180  31.373  34.536  1.00  0.00     0.029 A 
ATOM     60  C   UNL A   1      43.029  31.545  33.782  1.00  0.00     0.049 A 
ATOM     61  H   UNL A   1      42.255  30.329  32.241  1.00  0.00     0.167 HD
ATOM     62  C   UNL A   1      40.952  32.707  33.085  1.00  0.00     0.074 A 
ATOM     63  C   UNL A   1      39.977  33.774  33.188  1.00  0.00     0.031 C 
ATOM     64  C   UNL A   1      42.052  32.600  33.870  1.00  0.00     0.031 A 
BRANCH  51  65
ATOM     65  C   UNL A   1      45.579  27.669  32.633  1.00  0.00    -0.014 A 
ATOM     66  C   UNL A   1      46.782  27.838  31.927  1.00  0.00     0.010 A 
ATOM     67  C   UNL A   1      45.530  26.734  33.685  1.00  0.00     0.010 A 
ATOM     68  C   UNL A   1      47.898  27.053  32.233  1.00  0.00     0.020 A 
ATOM     69  C   UNL A   1      46.652  25.968  34.013  1.00  0.00     0.020 A 
ATOM     70  C   UNL A   1      47.823  26.116  33.268  1.00  0.00     0.054 A 
BRANCH  70  71
ATOM     71  S   UNL A   1      49.283  25.106  33.645  1.00  0.00     0.124 S 
ATOM     72  O   UNL A   1      48.677  23.828  34.011  1.00  0.00    -0.237 OA
ATOM     73  O   UNL A   1      50.016  25.115  32.381  1.00  0.00    -0.237 OA
ATOM     74  O   UNL A   1      49.929  25.825  34.741  1.00  0.00    -0.744 OA
ENDBRANCH  70  71
ENDBRANCH  51  65
BRANCH  52  75
ATOM     75  C   UNL A   1      37.262  32.631  30.159  1.00  0.00    -0.014 A 
ATOM     76  C   UNL A   1      37.267  33.621  29.162  1.00  0.00     0.010 A 
ATOM     77  C   UNL A   1      36.048  32.310  30.796  1.00  0.00     0.010 A 
ATOM     78  C   UNL A   1      36.083  34.276  28.808  1.00  0.00     0.020 A 
ATOM     79  C   UNL A   1      34.857  32.939  30.425  1.00  0.00     0.020 A 
ATOM     80  C   UNL A   1      34.885  33.926  29.437  1.00  0.00     0.054 A 
BRANCH  80  81
ATOM     81  S   UNL A   1      33.347  34.732  28.908  1.00  0.00     0.124 S 
ATOM     82  O   UNL A   1      32.825  33.778  27.935  1.00  0.00    -0.237 OA
ATOM     83  O   UNL A   1      32.597  34.837  30.157  1.00  0.00    -0.237 OA
ATOM     84  O   UNL A   1      33.802  36.006  28.356  1.00  0.00    -0.744 OA
ENDBRANCH  80  81
ENDBRANCH  52  75
BRANCH  64  85
ATOM     85  C   UNL A   1      42.287  33.689  34.879  1.00  0.00    -0.014 A 
ATOM     86  C   UNL A   1      41.886  33.542  36.219  1.00  0.00     0.010 A 
ATOM     87  C   UNL A   1      42.971  34.855  34.490  1.00  0.00     0.010 A 
ATOM     88  C   UNL A   1      42.142  34.556  37.146  1.00  0.00     0.020 A 
ATOM     89  C   UNL A   1      43.250  35.859  35.419  1.00  0.00     0.020 A 
ATOM     90  C   UNL A   1      42.822  35.709  36.740  1.00  0.00     0.054 A 
BRANCH  90  91
ATOM     91  S   UNL A   1      43.187  36.990  37.971  1.00  0.00     0.124 S 
ATOM     92  O   UNL A   1      43.822  38.022  37.156  1.00  0.00    -0.237 OA
ATOM     93  O   UNL A   1      41.863  37.324  38.490  1.00  0.00    -0.237 OA
ATOM     94  O   UNL A   1      44.070  36.316  38.921  1.00  0.00    -0.744 OA
ENDBRANCH  90  91
ENDBRANCH  64  85
ENDBRANCH  38  39
ENDBRANCH  31  33
ENDBRANCH  30  31
ENDBRANCH  29  30
ENDBRANCH   1  29
TORSDOF 18
ENDMDL
