MODEL 1
REMARK VINA RESULT:     -10.1      0.000      0.000
REMARK SMILES CC[NH2+][C@]1(C(=O)OCCOC(=O)c2ccc(-c3c4nc(c(-c5ccc(S(=O)(=O)[O-])cc5)c5ccc([nH]5)c(-c5ccc(S(=O)(=O)[O-])cc5)c5nc(c(-c6ccc(S(=O)(=O)[O-])cc6)c6ccc3[nH]6)C=C5)C=C4)cc2)CCC[C@@H]1CC[N@H+]1C[C@H](C)OC[C@@H]1C
REMARK SMILES IDX 8 1 7 2 5 3 6 4 4 5 73 6 76 7 74 8 75 9 3 10 2 13 1 14 77 15
REMARK SMILES IDX 78 16 79 17 80 18 85 19 81 21 84 22 86 23 83 24 82 25 9 26
REMARK SMILES IDX 10 27 11 28 12 29 13 30 14 31 72 32 15 33 71 34 16 35 17 36
REMARK SMILES IDX 18 37 65 38 19 39 70 40 64 41 66 42 20 43 69 44 63 45 62 46
REMARK SMILES IDX 21 48 51 49 32 50 50 51 33 52 36 53 49 54 67 55 34 56 35 57
REMARK SMILES IDX 48 59 68 60 37 61 22 62 23 63 31 64 24 65 30 66 25 67 26 68
REMARK SMILES IDX 27 69 28 70 29 71 52 72 53 73 61 74 54 75 60 76 55 77 56 78
REMARK SMILES IDX 57 79 58 80 59 81 38 82 39 83 47 84 40 85 46 86 41 87 42 88
REMARK SMILES IDX 43 89 44 90 45 91
REMARK H PARENT 3 11 3 12 79 20 66 47 36 58
REMARK Flexibility Score: inf
ROOT
ATOM      1  C   UNL A   1      31.885  28.304  27.074  1.00  0.00     0.274 C 
ENDROOT
BRANCH   1   2
ATOM      2  O   UNL A   1      31.425  28.544  25.727  1.00  0.00    -0.457 OA
BRANCH   2   3
ATOM      3  C   UNL A   1      31.100  27.438  24.997  1.00  0.00     0.368 C 
ATOM      4  O   UNL A   1      30.462  26.489  25.440  1.00  0.00    -0.245 OA
BRANCH   3   5
ATOM      5  C   UNL A   1      31.724  27.472  23.571  1.00  0.00     0.197 C 
ATOM      6  C   UNL A   1      32.751  28.637  23.514  1.00  0.00     0.081 C 
ATOM      7  C   UNL A   1      32.674  26.267  23.270  1.00  0.00     0.068 C 
ATOM      8  C   UNL A   1      33.677  28.327  22.358  1.00  0.00     0.008 C 
ATOM      9  C   UNL A   1      33.657  26.811  22.214  1.00  0.00     0.011 C 
BRANCH   5  10
ATOM     10  N   UNL A   1      30.645  27.566  22.548  1.00  0.00    -0.332 N 
ATOM     11  H   UNL A   1      31.064  27.825  21.656  1.00  0.00     0.347 HD
ATOM     12  H   UNL A   1      30.188  26.655  22.507  1.00  0.00     0.347 HD
BRANCH  10  13
ATOM     13  C   UNL A   1      29.614  28.552  22.883  1.00  0.00     0.257 C 
ATOM     14  C   UNL A   1      29.747  29.782  22.000  1.00  0.00     0.071 C 
ENDBRANCH  10  13
ENDBRANCH   5  10
BRANCH   7  15
ATOM     15  C   UNL A   1      32.028  24.890  22.951  1.00  0.00     0.072 C 
BRANCH  15  16
ATOM     16  C   UNL A   1      32.937  23.647  22.902  1.00  0.00     0.263 C 
BRANCH  16  17
ATOM     17  N   UNL A   1      33.343  23.177  24.236  1.00  0.00    -0.329 N 
ATOM     18  C   UNL A   1      32.326  23.420  25.282  1.00  0.00     0.294 C 
ATOM     19  C   UNL A   1      33.739  21.747  24.229  1.00  0.00     0.207 C 
ATOM     20  H   UNL A   1      34.160  23.738  24.475  1.00  0.00     0.348 HD
ATOM     21  C   UNL A   1      31.164  22.398  25.290  1.00  0.00     0.170 C 
ATOM     22  C   UNL A   1      32.534  20.785  24.250  1.00  0.00     0.225 C 
ATOM     23  C   UNL A   1      34.685  21.469  25.407  1.00  0.00     0.078 C 
ATOM     24  O   UNL A   1      31.652  21.049  25.347  1.00  0.00    -0.366 OA
ATOM     25  C   UNL A   1      30.266  22.608  26.503  1.00  0.00     0.045 C 
ENDBRANCH  16  17
ENDBRANCH  15  16
ENDBRANCH   7  15
ENDBRANCH   3   5
ENDBRANCH   2   3
ENDBRANCH   1   2
BRANCH   1  26
ATOM     26  C   UNL A   1      33.395  28.081  27.096  1.00  0.00     0.275 C 
BRANCH  26  27
ATOM     27  O   UNL A   1      34.046  29.273  26.633  1.00  0.00    -0.458 OA
BRANCH  27  28
ATOM     28  C   UNL A   1      34.362  30.187  27.580  1.00  0.00     0.338 C 
ATOM     29  O   UNL A   1      33.641  31.054  28.039  1.00  0.00    -0.246 OA
BRANCH  28  30
ATOM     30  C   UNL A   1      35.757  29.960  28.006  1.00  0.00     0.060 A 
ATOM     31  C   UNL A   1      36.787  30.080  27.073  1.00  0.00     0.016 A 
ATOM     32  C   UNL A   1      36.043  29.554  29.306  1.00  0.00     0.016 A 
ATOM     33  C   UNL A   1      38.095  29.745  27.411  1.00  0.00     0.010 A 
ATOM     34  C   UNL A   1      37.370  29.295  29.669  1.00  0.00     0.010 A 
ATOM     35  C   UNL A   1      38.408  29.363  28.720  1.00  0.00    -0.014 A 
BRANCH  35  36
ATOM     36  C   UNL A   1      39.801  28.980  29.083  1.00  0.00     0.031 A 
ATOM     37  C   UNL A   1      40.684  29.969  29.802  1.00  0.00     0.074 A 
ATOM     38  C   UNL A   1      40.281  27.753  28.793  1.00  0.00     0.049 A 
ATOM     39  N   UNL A   1      41.970  29.912  30.033  1.00  0.00    -0.248 NA
ATOM     40  C   UNL A   1      40.034  31.186  30.316  1.00  0.00     0.031 C 
ATOM     41  C   UNL A   1      39.527  26.670  28.159  1.00  0.00     0.029 A 
ATOM     42  N   UNL A   1      41.526  27.209  29.002  1.00  0.00    -0.354 N 
ATOM     43  C   UNL A   1      42.294  31.108  30.664  1.00  0.00     0.074 A 
ATOM     44  C   UNL A   1      41.069  31.869  30.782  1.00  0.00     0.031 C 
ATOM     45  C   UNL A   1      40.313  25.584  28.059  1.00  0.00     0.029 A 
ATOM     46  C   UNL A   1      41.648  25.918  28.543  1.00  0.00     0.049 A 
ATOM     47  H   UNL A   1      42.261  27.697  29.438  1.00  0.00     0.167 HD
ATOM     48  C   UNL A   1      43.503  31.536  31.101  1.00  0.00     0.031 A 
ATOM     49  C   UNL A   1      42.721  25.105  28.475  1.00  0.00     0.031 A 
ATOM     50  C   UNL A   1      44.713  30.760  31.024  1.00  0.00     0.049 A 
ATOM     51  C   UNL A   1      44.059  25.612  28.938  1.00  0.00     0.074 A 
ATOM     52  C   UNL A   1      45.988  31.111  31.431  1.00  0.00     0.029 A 
ATOM     53  N   UNL A   1      44.793  29.468  30.528  1.00  0.00    -0.354 N 
ATOM     54  N   UNL A   1      44.362  26.776  29.458  1.00  0.00    -0.248 NA
ATOM     55  C   UNL A   1      45.202  24.700  28.785  1.00  0.00     0.031 C 
ATOM     56  C   UNL A   1      46.847  30.042  31.154  1.00  0.00     0.029 A 
ATOM     57  C   UNL A   1      46.096  29.009  30.613  1.00  0.00     0.049 A 
ATOM     58  H   UNL A   1      44.035  28.953  30.168  1.00  0.00     0.167 HD
ATOM     59  C   UNL A   1      45.731  26.736  29.699  1.00  0.00     0.074 A 
ATOM     60  C   UNL A   1      46.191  25.424  29.291  1.00  0.00     0.031 C 
ATOM     61  C   UNL A   1      46.537  27.702  30.203  1.00  0.00     0.031 A 
BRANCH  48  62
ATOM     62  C   UNL A   1      43.587  32.928  31.664  1.00  0.00    -0.014 A 
ATOM     63  C   UNL A   1      43.765  34.047  30.834  1.00  0.00     0.010 A 
ATOM     64  C   UNL A   1      43.444  33.118  33.052  1.00  0.00     0.010 A 
ATOM     65  C   UNL A   1      43.829  35.330  31.385  1.00  0.00     0.020 A 
ATOM     66  C   UNL A   1      43.485  34.402  33.603  1.00  0.00     0.020 A 
ATOM     67  C   UNL A   1      43.694  35.499  32.767  1.00  0.00     0.054 A 
BRANCH  67  68
ATOM     68  S   UNL A   1      43.753  37.177  33.455  1.00  0.00     0.124 S 
ATOM     69  O   UNL A   1      43.726  37.998  32.246  1.00  0.00    -0.237 OA
ATOM     70  O   UNL A   1      42.549  37.232  34.278  1.00  0.00    -0.237 OA
ATOM     71  O   UNL A   1      45.011  37.202  34.196  1.00  0.00    -0.744 OA
ENDBRANCH  67  68
ENDBRANCH  48  62
BRANCH  49  72
ATOM     72  C   UNL A   1      42.588  23.744  27.887  1.00  0.00    -0.014 A 
ATOM     73  C   UNL A   1      42.225  22.647  28.688  1.00  0.00     0.010 A 
ATOM     74  C   UNL A   1      42.828  23.539  26.516  1.00  0.00     0.010 A 
ATOM     75  C   UNL A   1      42.117  21.368  28.131  1.00  0.00     0.020 A 
ATOM     76  C   UNL A   1      42.695  22.268  25.950  1.00  0.00     0.020 A 
ATOM     77  C   UNL A   1      42.353  21.188  26.764  1.00  0.00     0.054 A 
BRANCH  77  78
ATOM     78  S   UNL A   1      42.157  19.533  26.045  1.00  0.00     0.124 S 
ATOM     79  O   UNL A   1      43.053  19.595  24.896  1.00  0.00    -0.237 OA
ATOM     80  O   UNL A   1      42.583  18.657  27.135  1.00  0.00    -0.237 OA
ATOM     81  O   UNL A   1      40.731  19.470  25.729  1.00  0.00    -0.744 OA
ENDBRANCH  77  78
ENDBRANCH  49  72
BRANCH  61  82
ATOM     82  C   UNL A   1      47.994  27.367  30.365  1.00  0.00    -0.014 A 
ATOM     83  C   UNL A   1      48.923  27.675  29.356  1.00  0.00     0.010 A 
ATOM     84  C   UNL A   1      48.442  26.770  31.556  1.00  0.00     0.010 A 
ATOM     85  C   UNL A   1      50.275  27.364  29.524  1.00  0.00     0.020 A 
ATOM     86  C   UNL A   1      49.796  26.477  31.737  1.00  0.00     0.020 A 
ATOM     87  C   UNL A   1      50.703  26.761  30.712  1.00  0.00     0.054 A 
BRANCH  87  88
ATOM     88  S   UNL A   1      52.466  26.396  30.925  1.00  0.00     0.124 S 
ATOM     89  O   UNL A   1      52.921  26.282  29.543  1.00  0.00    -0.237 OA
ATOM     90  O   UNL A   1      52.954  27.565  31.653  1.00  0.00    -0.237 OA
ATOM     91  O   UNL A   1      52.470  25.150  31.687  1.00  0.00    -0.744 OA
ENDBRANCH  87  88
ENDBRANCH  61  82
ENDBRANCH  35  36
ENDBRANCH  28  30
ENDBRANCH  27  28
ENDBRANCH  26  27
ENDBRANCH   1  26
TORSDOF 19
ENDMDL
MODEL 2
REMARK VINA RESULT:      -9.8      2.649      9.285
REMARK SMILES CC[NH2+][C@]1(C(=O)OCCOC(=O)c2ccc(-c3c4nc(c(-c5ccc(S(=O)(=O)[O-])cc5)c5ccc([nH]5)c(-c5ccc(S(=O)(=O)[O-])cc5)c5nc(c(-c6ccc(S(=O)(=O)[O-])cc6)c6ccc3[nH]6)C=C5)C=C4)cc2)CCC[C@@H]1CC[N@H+]1C[C@H](C)OC[C@@H]1C
REMARK SMILES IDX 8 1 7 2 5 3 6 4 4 5 73 6 76 7 74 8 75 9 3 10 2 13 1 14 77 15
REMARK SMILES IDX 78 16 79 17 80 18 85 19 81 21 84 22 86 23 83 24 82 25 9 26
REMARK SMILES IDX 10 27 11 28 12 29 13 30 14 31 72 32 15 33 71 34 16 35 17 36
REMARK SMILES IDX 18 37 65 38 19 39 70 40 64 41 66 42 20 43 69 44 63 45 62 46
REMARK SMILES IDX 21 48 51 49 32 50 50 51 33 52 36 53 49 54 67 55 34 56 35 57
REMARK SMILES IDX 48 59 68 60 37 61 22 62 23 63 31 64 24 65 30 66 25 67 26 68
REMARK SMILES IDX 27 69 28 70 29 71 52 72 53 73 61 74 54 75 60 76 55 77 56 78
REMARK SMILES IDX 57 79 58 80 59 81 38 82 39 83 47 84 40 85 46 86 41 87 42 88
REMARK SMILES IDX 43 89 44 90 45 91
REMARK H PARENT 3 11 3 12 79 20 66 47 36 58
REMARK Flexibility Score: inf
ROOT
ATOM      1  C   UNL A   1      36.502  22.447  23.720  1.00  0.00     0.274 C 
ENDROOT
BRANCH   1   2
ATOM      2  O   UNL A   1      35.483  21.679  24.396  1.00  0.00    -0.457 OA
BRANCH   2   3
ATOM      3  C   UNL A   1      34.194  22.068  24.178  1.00  0.00     0.368 C 
ATOM      4  O   UNL A   1      33.800  22.582  23.137  1.00  0.00    -0.245 OA
BRANCH   3   5
ATOM      5  C   UNL A   1      33.304  21.881  25.442  1.00  0.00     0.197 C 
ATOM      6  C   UNL A   1      34.231  21.820  26.688  1.00  0.00     0.081 C 
ATOM      7  C   UNL A   1      32.454  23.142  25.806  1.00  0.00     0.068 C 
ATOM      8  C   UNL A   1      33.361  22.160  27.879  1.00  0.00     0.008 C 
ATOM      9  C   UNL A   1      32.238  23.030  27.328  1.00  0.00     0.011 C 
BRANCH   5  10
ATOM     10  N   UNL A   1      32.433  20.684  25.276  1.00  0.00    -0.332 N 
ATOM     11  H   UNL A   1      31.731  20.687  26.016  1.00  0.00     0.347 HD
ATOM     12  H   UNL A   1      32.014  20.743  24.348  1.00  0.00     0.347 HD
BRANCH  10  13
ATOM     13  C   UNL A   1      33.170  19.419  25.339  1.00  0.00     0.257 C 
ATOM     14  C   UNL A   1      32.265  18.257  24.963  1.00  0.00     0.071 C 
ENDBRANCH  10  13
ENDBRANCH   5  10
BRANCH   7  15
ATOM     15  C   UNL A   1      31.185  23.436  24.959  1.00  0.00     0.072 C 
BRANCH  15  16
ATOM     16  C   UNL A   1      30.655  24.882  24.908  1.00  0.00     0.263 C 
BRANCH  16  17
ATOM     17  N   UNL A   1      30.770  25.491  23.573  1.00  0.00    -0.329 N 
ATOM     18  C   UNL A   1      30.110  26.812  23.468  1.00  0.00     0.294 C 
ATOM     19  C   UNL A   1      32.179  25.585  23.119  1.00  0.00     0.207 C 
ATOM     20  H   UNL A   1      30.271  24.856  22.951  1.00  0.00     0.348 HD
ATOM     21  C   UNL A   1      30.933  27.982  24.058  1.00  0.00     0.170 C 
ATOM     22  C   UNL A   1      32.935  26.779  23.737  1.00  0.00     0.225 C 
ATOM     23  C   UNL A   1      32.224  25.639  21.585  1.00  0.00     0.078 C 
ATOM     24  O   UNL A   1      32.259  28.021  23.509  1.00  0.00    -0.366 OA
ATOM     25  C   UNL A   1      30.273  29.320  23.747  1.00  0.00     0.045 C 
ENDBRANCH  16  17
ENDBRANCH  15  16
ENDBRANCH   7  15
ENDBRANCH   3   5
ENDBRANCH   2   3
ENDBRANCH   1   2
BRANCH   1  26
ATOM     26  C   UNL A   1      36.905  23.659  24.556  1.00  0.00     0.275 C 
BRANCH  26  27
ATOM     27  O   UNL A   1      37.278  23.213  25.868  1.00  0.00    -0.458 OA
BRANCH  27  28
ATOM     28  C   UNL A   1      38.594  22.963  26.063  1.00  0.00     0.338 C 
ATOM     29  O   UNL A   1      39.217  21.976  25.715  1.00  0.00    -0.246 OA
BRANCH  28  30
ATOM     30  C   UNL A   1      39.191  24.113  26.769  1.00  0.00     0.060 A 
ATOM     31  C   UNL A   1      38.903  24.314  28.118  1.00  0.00     0.016 A 
ATOM     32  C   UNL A   1      39.975  25.036  26.082  1.00  0.00     0.016 A 
ATOM     33  C   UNL A   1      39.344  25.458  28.776  1.00  0.00     0.010 A 
ATOM     34  C   UNL A   1      40.487  26.146  26.764  1.00  0.00     0.010 A 
ATOM     35  C   UNL A   1      40.157  26.384  28.113  1.00  0.00    -0.014 A 
BRANCH  35  36
ATOM     36  C   UNL A   1      40.613  27.622  28.803  1.00  0.00     0.031 A 
ATOM     37  C   UNL A   1      42.008  27.691  29.368  1.00  0.00     0.074 A 
ATOM     38  C   UNL A   1      39.800  28.692  28.915  1.00  0.00     0.049 A 
ATOM     39  N   UNL A   1      42.534  28.585  30.166  1.00  0.00    -0.248 NA
ATOM     40  C   UNL A   1      42.929  26.604  28.996  1.00  0.00     0.031 C 
ATOM     41  C   UNL A   1      38.447  28.799  28.365  1.00  0.00     0.029 A 
ATOM     42  N   UNL A   1      39.999  29.905  29.532  1.00  0.00    -0.354 N 
ATOM     43  C   UNL A   1      43.822  28.138  30.439  1.00  0.00     0.074 A 
ATOM     44  C   UNL A   1      44.000  26.896  29.719  1.00  0.00     0.031 C 
ATOM     45  C   UNL A   1      37.952  30.017  28.640  1.00  0.00     0.029 A 
ATOM     46  C   UNL A   1      38.915  30.748  29.457  1.00  0.00     0.049 A 
ATOM     47  H   UNL A   1      40.839  30.146  29.986  1.00  0.00     0.167 HD
ATOM     48  C   UNL A   1      44.769  28.709  31.222  1.00  0.00     0.031 A 
ATOM     49  C   UNL A   1      38.696  31.954  30.018  1.00  0.00     0.031 A 
ATOM     50  C   UNL A   1      44.608  29.967  31.902  1.00  0.00     0.049 A 
ATOM     51  C   UNL A   1      39.749  32.553  30.908  1.00  0.00     0.074 A 
ATOM     52  C   UNL A   1      45.506  30.622  32.726  1.00  0.00     0.029 A 
ATOM     53  N   UNL A   1      43.483  30.772  31.818  1.00  0.00    -0.354 N 
ATOM     54  N   UNL A   1      40.930  32.079  31.220  1.00  0.00    -0.248 NA
ATOM     55  C   UNL A   1      39.429  33.843  31.538  1.00  0.00     0.031 C 
ATOM     56  C   UNL A   1      44.913  31.811  33.164  1.00  0.00     0.029 A 
ATOM     57  C   UNL A   1      43.661  31.915  32.578  1.00  0.00     0.049 A 
ATOM     58  H   UNL A   1      42.675  30.563  31.294  1.00  0.00     0.167 HD
ATOM     59  C   UNL A   1      41.498  33.013  32.078  1.00  0.00     0.074 A 
ATOM     60  C   UNL A   1      40.540  34.092  32.216  1.00  0.00     0.031 C 
ATOM     61  C   UNL A   1      42.699  32.978  32.705  1.00  0.00     0.031 A 
BRANCH  48  62
ATOM     62  C   UNL A   1      46.054  27.953  31.423  1.00  0.00    -0.014 A 
ATOM     63  C   UNL A   1      46.214  27.042  32.480  1.00  0.00     0.010 A 
ATOM     64  C   UNL A   1      47.108  28.133  30.506  1.00  0.00     0.010 A 
ATOM     65  C   UNL A   1      47.416  26.347  32.636  1.00  0.00     0.020 A 
ATOM     66  C   UNL A   1      48.302  27.422  30.646  1.00  0.00     0.020 A 
ATOM     67  C   UNL A   1      48.455  26.545  31.721  1.00  0.00     0.054 A 
BRANCH  67  68
ATOM     68  S   UNL A   1      49.996  25.610  31.928  1.00  0.00     0.124 S 
ATOM     69  O   UNL A   1      50.219  25.097  30.578  1.00  0.00    -0.237 OA
ATOM     70  O   UNL A   1      50.938  26.633  32.373  1.00  0.00    -0.237 OA
ATOM     71  O   UNL A   1      49.657  24.602  32.929  1.00  0.00    -0.744 OA
ENDBRANCH  67  68
ENDBRANCH  48  62
BRANCH  49  72
ATOM     72  C   UNL A   1      37.397  32.649  29.806  1.00  0.00    -0.014 A 
ATOM     73  C   UNL A   1      36.274  32.328  30.588  1.00  0.00     0.010 A 
ATOM     74  C   UNL A   1      37.278  33.640  28.814  1.00  0.00     0.010 A 
ATOM     75  C   UNL A   1      35.053  32.976  30.373  1.00  0.00     0.020 A 
ATOM     76  C   UNL A   1      36.068  34.309  28.614  1.00  0.00     0.020 A 
ATOM     77  C   UNL A   1      34.959  33.963  29.387  1.00  0.00     0.054 A 
BRANCH  77  78
ATOM     78  S   UNL A   1      33.382  34.832  29.155  1.00  0.00     0.124 S 
ATOM     79  O   UNL A   1      32.691  33.960  28.212  1.00  0.00    -0.237 OA
ATOM     80  O   UNL A   1      32.832  34.865  30.508  1.00  0.00    -0.237 OA
ATOM     81  O   UNL A   1      33.789  36.133  28.627  1.00  0.00    -0.744 OA
ENDBRANCH  77  78
ENDBRANCH  49  72
BRANCH  61  82
ATOM     82  C   UNL A   1      43.055  34.150  33.576  1.00  0.00    -0.014 A 
ATOM     83  C   UNL A   1      42.780  34.137  34.955  1.00  0.00     0.010 A 
ATOM     84  C   UNL A   1      43.707  35.262  33.014  1.00  0.00     0.010 A 
ATOM     85  C   UNL A   1      43.124  35.232  35.752  1.00  0.00     0.020 A 
ATOM     86  C   UNL A   1      44.072  36.349  33.812  1.00  0.00     0.020 A 
ATOM     87  C   UNL A   1      43.764  36.334  35.175  1.00  0.00     0.054 A 
BRANCH  87  88
ATOM     88  S   UNL A   1      44.232  37.730  36.233  1.00  0.00     0.124 S 
ATOM     89  O   UNL A   1      45.645  37.463  36.480  1.00  0.00    -0.237 OA
ATOM     90  O   UNL A   1      43.949  38.888  35.387  1.00  0.00    -0.237 OA
ATOM     91  O   UNL A   1      43.358  37.589  37.396  1.00  0.00    -0.744 OA
ENDBRANCH  87  88
ENDBRANCH  61  82
ENDBRANCH  35  36
ENDBRANCH  28  30
ENDBRANCH  27  28
ENDBRANCH  26  27
ENDBRANCH   1  26
TORSDOF 19
ENDMDL
MODEL 3
REMARK VINA RESULT:      -9.8      3.074      8.573
REMARK SMILES CC[NH2+][C@]1(C(=O)OCCOC(=O)c2ccc(-c3c4nc(c(-c5ccc(S(=O)(=O)[O-])cc5)c5ccc([nH]5)c(-c5ccc(S(=O)(=O)[O-])cc5)c5nc(c(-c6ccc(S(=O)(=O)[O-])cc6)c6ccc3[nH]6)C=C5)C=C4)cc2)CCC[C@@H]1CC[N@H+]1C[C@H](C)OC[C@@H]1C
REMARK SMILES IDX 8 1 7 2 5 3 6 4 4 5 73 6 76 7 74 8 75 9 3 10 2 13 1 14 77 15
REMARK SMILES IDX 78 16 79 17 80 18 85 19 81 21 84 22 86 23 83 24 82 25 9 26
REMARK SMILES IDX 10 27 11 28 12 29 13 30 14 31 72 32 15 33 71 34 16 35 17 36
REMARK SMILES IDX 18 37 65 38 19 39 70 40 64 41 66 42 20 43 69 44 63 45 62 46
REMARK SMILES IDX 21 48 51 49 32 50 50 51 33 52 36 53 49 54 67 55 34 56 35 57
REMARK SMILES IDX 48 59 68 60 37 61 22 62 23 63 31 64 24 65 30 66 25 67 26 68
REMARK SMILES IDX 27 69 28 70 29 71 52 72 53 73 61 74 54 75 60 76 55 77 56 78
REMARK SMILES IDX 57 79 58 80 59 81 38 82 39 83 47 84 40 85 46 86 41 87 42 88
REMARK SMILES IDX 43 89 44 90 45 91
REMARK H PARENT 3 11 3 12 79 20 66 47 36 58
REMARK Flexibility Score: inf
ROOT
ATOM      1  C   UNL A   1      32.275  28.317  27.273  1.00  0.00     0.274 C 
ENDROOT
BRANCH   1   2
ATOM      2  O   UNL A   1      32.676  27.584  26.095  1.00  0.00    -0.457 OA
BRANCH   2   3
ATOM      3  C   UNL A   1      31.669  27.170  25.274  1.00  0.00     0.368 C 
ATOM      4  O   UNL A   1      30.624  26.668  25.671  1.00  0.00    -0.245 OA
BRANCH   3   5
ATOM      5  C   UNL A   1      32.045  27.311  23.769  1.00  0.00     0.197 C 
ATOM      6  C   UNL A   1      33.151  28.395  23.641  1.00  0.00     0.081 C 
ATOM      7  C   UNL A   1      32.815  26.078  23.194  1.00  0.00     0.068 C 
ATOM      8  C   UNL A   1      33.837  28.143  22.316  1.00  0.00     0.008 C 
ATOM      9  C   UNL A   1      33.653  26.658  22.037  1.00  0.00     0.011 C 
BRANCH   5  10
ATOM     10  N   UNL A   1      30.823  27.595  22.967  1.00  0.00    -0.332 N 
ATOM     11  H   UNL A   1      30.871  27.059  22.100  1.00  0.00     0.347 HD
ATOM     12  H   UNL A   1      30.019  27.331  23.537  1.00  0.00     0.347 HD
BRANCH  10  13
ATOM     13  C   UNL A   1      30.668  29.013  22.630  1.00  0.00     0.257 C 
ATOM     14  C   UNL A   1      29.597  29.652  23.499  1.00  0.00     0.071 C 
ENDBRANCH  10  13
ENDBRANCH   5  10
BRANCH   7  15
ATOM     15  C   UNL A   1      32.001  24.796  22.867  1.00  0.00     0.072 C 
BRANCH  15  16
ATOM     16  C   UNL A   1      32.287  23.517  23.678  1.00  0.00     0.263 C 
BRANCH  16  17
ATOM     17  N   UNL A   1      33.590  23.549  24.362  1.00  0.00    -0.329 N 
ATOM     18  C   UNL A   1      33.481  23.576  25.838  1.00  0.00     0.294 C 
ATOM     19  C   UNL A   1      34.475  22.437  23.935  1.00  0.00     0.207 C 
ATOM     20  H   UNL A   1      34.016  24.430  24.076  1.00  0.00     0.348 HD
ATOM     21  C   UNL A   1      33.192  22.199  26.480  1.00  0.00     0.170 C 
ATOM     22  C   UNL A   1      34.138  21.098  24.622  1.00  0.00     0.225 C 
ATOM     23  C   UNL A   1      35.941  22.825  24.174  1.00  0.00     0.078 C 
ATOM     24  O   UNL A   1      34.139  21.210  26.050  1.00  0.00    -0.366 OA
ATOM     25  C   UNL A   1      33.278  22.280  27.999  1.00  0.00     0.045 C 
ENDBRANCH  16  17
ENDBRANCH  15  16
ENDBRANCH   7  15
ENDBRANCH   3   5
ENDBRANCH   2   3
ENDBRANCH   1   2
BRANCH   1  26
ATOM     26  C   UNL A   1      32.394  29.821  27.036  1.00  0.00     0.275 C 
BRANCH  26  27
ATOM     27  O   UNL A   1      33.777  30.152  26.846  1.00  0.00    -0.458 OA
BRANCH  27  28
ATOM     28  C   UNL A   1      34.237  31.220  27.540  1.00  0.00     0.338 C 
ATOM     29  O   UNL A   1      33.691  32.300  27.679  1.00  0.00    -0.246 OA
BRANCH  28  30
ATOM     30  C   UNL A   1      35.536  30.865  28.142  1.00  0.00     0.060 A 
ATOM     31  C   UNL A   1      35.677  29.643  28.799  1.00  0.00     0.016 A 
ATOM     32  C   UNL A   1      36.595  31.769  28.125  1.00  0.00     0.016 A 
ATOM     33  C   UNL A   1      36.847  29.336  29.488  1.00  0.00     0.010 A 
ATOM     34  C   UNL A   1      37.801  31.427  28.750  1.00  0.00     0.010 A 
ATOM     35  C   UNL A   1      37.932  30.218  29.460  1.00  0.00    -0.014 A 
BRANCH  35  36
ATOM     36  C   UNL A   1      39.178  29.908  30.215  1.00  0.00     0.031 A 
ATOM     37  C   UNL A   1      40.093  28.814  29.728  1.00  0.00     0.074 A 
ATOM     38  C   UNL A   1      39.510  30.605  31.321  1.00  0.00     0.049 A 
ATOM     39  N   UNL A   1      41.112  28.258  30.333  1.00  0.00    -0.248 NA
ATOM     40  C   UNL A   1      39.818  28.266  28.389  1.00  0.00     0.031 C 
ATOM     41  C   UNL A   1      38.759  31.732  31.878  1.00  0.00     0.029 A 
ATOM     42  N   UNL A   1      40.577  30.467  32.177  1.00  0.00    -0.354 N 
ATOM     43  C   UNL A   1      41.559  27.256  29.477  1.00  0.00     0.074 A 
ATOM     44  C   UNL A   1      40.705  27.284  28.310  1.00  0.00     0.031 C 
ATOM     45  C   UNL A   1      39.403  32.201  32.959  1.00  0.00     0.029 A 
ATOM     46  C   UNL A   1      40.565  31.359  33.224  1.00  0.00     0.049 A 
ATOM     47  H   UNL A   1      41.283  29.793  32.053  1.00  0.00     0.167 HD
ATOM     48  C   UNL A   1      42.586  26.390  29.651  1.00  0.00     0.031 A 
ATOM     49  C   UNL A   1      41.367  31.464  34.301  1.00  0.00     0.031 A 
ATOM     50  C   UNL A   1      43.465  26.393  30.791  1.00  0.00     0.049 A 
ATOM     51  C   UNL A   1      42.482  30.472  34.489  1.00  0.00     0.074 A 
ATOM     52  C   UNL A   1      44.527  25.548  31.061  1.00  0.00     0.029 A 
ATOM     53  N   UNL A   1      43.397  27.297  31.838  1.00  0.00    -0.354 N 
ATOM     54  N   UNL A   1      42.841  29.482  33.709  1.00  0.00    -0.248 NA
ATOM     55  C   UNL A   1      43.286  30.602  35.712  1.00  0.00     0.031 C 
ATOM     56  C   UNL A   1      45.085  25.924  32.288  1.00  0.00     0.029 A 
ATOM     57  C   UNL A   1      44.395  27.029  32.760  1.00  0.00     0.049 A 
ATOM     58  H   UNL A   1      42.736  28.024  31.916  1.00  0.00     0.167 HD
ATOM     59  C   UNL A   1      43.916  28.872  34.345  1.00  0.00     0.074 A 
ATOM     60  C   UNL A   1      44.165  29.621  35.560  1.00  0.00     0.031 C 
ATOM     61  C   UNL A   1      44.628  27.784  33.963  1.00  0.00     0.031 A 
BRANCH  48  62
ATOM     62  C   UNL A   1      42.790  25.334  28.599  1.00  0.00    -0.014 A 
ATOM     63  C   UNL A   1      42.056  24.137  28.607  1.00  0.00     0.010 A 
ATOM     64  C   UNL A   1      43.711  25.568  27.559  1.00  0.00     0.010 A 
ATOM     65  C   UNL A   1      42.260  23.177  27.611  1.00  0.00     0.020 A 
ATOM     66  C   UNL A   1      43.901  24.621  26.550  1.00  0.00     0.020 A 
ATOM     67  C   UNL A   1      43.185  23.424  26.591  1.00  0.00     0.054 A 
BRANCH  67  68
ATOM     68  S   UNL A   1      43.413  22.175  25.294  1.00  0.00     0.124 S 
ATOM     69  O   UNL A   1      44.706  21.600  25.656  1.00  0.00    -0.237 OA
ATOM     70  O   UNL A   1      42.261  21.298  25.483  1.00  0.00    -0.237 OA
ATOM     71  O   UNL A   1      43.402  22.954  24.059  1.00  0.00    -0.744 OA
ENDBRANCH  67  68
ENDBRANCH  48  62
BRANCH  49  72
ATOM     72  C   UNL A   1      41.107  32.513  35.325  1.00  0.00    -0.014 A 
ATOM     73  C   UNL A   1      41.705  33.781  35.223  1.00  0.00     0.010 A 
ATOM     74  C   UNL A   1      40.255  32.245  36.413  1.00  0.00     0.010 A 
ATOM     75  C   UNL A   1      41.468  34.757  36.196  1.00  0.00     0.020 A 
ATOM     76  C   UNL A   1      39.993  33.226  37.373  1.00  0.00     0.020 A 
ATOM     77  C   UNL A   1      40.612  34.472  37.266  1.00  0.00     0.054 A 
BRANCH  77  78
ATOM     78  S   UNL A   1      40.271  35.765  38.492  1.00  0.00     0.124 S 
ATOM     79  O   UNL A   1      39.382  35.075  39.421  1.00  0.00    -0.237 OA
ATOM     80  O   UNL A   1      41.602  36.081  39.006  1.00  0.00    -0.237 OA
ATOM     81  O   UNL A   1      39.652  36.827  37.700  1.00  0.00    -0.744 OA
ENDBRANCH  77  78
ENDBRANCH  49  72
BRANCH  61  82
ATOM     82  C   UNL A   1      45.758  27.353  34.856  1.00  0.00    -0.014 A 
ATOM     83  C   UNL A   1      45.553  26.414  35.882  1.00  0.00     0.010 A 
ATOM     84  C   UNL A   1      47.049  27.867  34.641  1.00  0.00     0.010 A 
ATOM     85  C   UNL A   1      46.615  26.020  36.699  1.00  0.00     0.020 A 
ATOM     86  C   UNL A   1      48.118  27.458  35.442  1.00  0.00     0.020 A 
ATOM     87  C   UNL A   1      47.891  26.548  36.477  1.00  0.00     0.054 A 
BRANCH  87  88
ATOM     88  S   UNL A   1      49.263  25.996  37.526  1.00  0.00     0.124 S 
ATOM     89  O   UNL A   1      49.301  24.564  37.250  1.00  0.00    -0.237 OA
ATOM     90  O   UNL A   1      50.394  26.766  37.013  1.00  0.00    -0.237 OA
ATOM     91  O   UNL A   1      48.833  26.360  38.875  1.00  0.00    -0.744 OA
ENDBRANCH  87  88
ENDBRANCH  61  82
ENDBRANCH  35  36
ENDBRANCH  28  30
ENDBRANCH  27  28
ENDBRANCH  26  27
ENDBRANCH   1  26
TORSDOF 19
ENDMDL
