MODEL 1
REMARK VINA RESULT:     -11.3      0.000      0.000
REMARK SMILES CS(=O)(=O)c1ccc(/C=C(/C(=O)OCCOC(=O)c2ccc(-c3c4nc(c(-c5ccc(S(=O)(=O)[O-])cc5)c5ccc([nH]5)c(-c5ccc(S(=O)(=O)[O-])cc5)c5nc(c(-c6ccc(S(=O)(=O)[O-])cc6)c6ccc3[nH]6)C=C5)C=C4)cc2)c2ccc(O)cc2)cc1
REMARK SMILES IDX 15 1 14 2 13 3 11 4 12 5 10 6 9 7 8 8 5 9 6 10 87 11 7 12
REMARK SMILES IDX 86 13 2 14 1 15 3 16 4 17 79 18 80 19 85 20 81 21 84 22
REMARK SMILES IDX 82 23 83 24 16 26 17 27 18 28 19 29 20 30 78 31 21 32 77 33
REMARK SMILES IDX 22 34 23 35 24 36 71 37 25 38 76 39 70 40 72 41 26 42 75 43
REMARK SMILES IDX 69 44 68 45 27 47 57 48 38 49 56 50 39 51 42 52 55 53 73 54
REMARK SMILES IDX 40 55 41 56 54 58 74 59 43 60 28 61 29 62 37 63 30 64 36 65
REMARK SMILES IDX 31 66 32 67 33 68 34 69 35 70 58 71 59 72 67 73 60 74 66 75
REMARK SMILES IDX 61 76 62 77 63 78 64 79 65 80 44 81 45 82 53 83 46 84 52 85
REMARK SMILES IDX 47 86 48 87 49 88 50 89 51 90
REMARK H PARENT 83 25 72 46 42 57
REMARK Flexibility Score: inf
ROOT
ATOM      1  C   UNL A   1      32.916  28.582  25.927  1.00  0.00     0.275 C 
ENDROOT
BRANCH   1   2
ATOM      2  C   UNL A   1      33.548  27.920  24.705  1.00  0.00     0.275 C 
BRANCH   2   3
ATOM      3  O   UNL A   1      32.762  26.790  24.269  1.00  0.00    -0.458 OA
BRANCH   3   4
ATOM      4  C   UNL A   1      33.369  25.981  23.360  1.00  0.00     0.338 C 
ATOM      5  O   UNL A   1      33.810  26.339  22.278  1.00  0.00    -0.246 OA
BRANCH   4   6
ATOM      6  C   UNL A   1      33.471  24.572  23.845  1.00  0.00     0.067 C 
ATOM      7  C   UNL A   1      32.363  23.796  23.824  1.00  0.00     0.024 C 
BRANCH   7   8
ATOM      8  C   UNL A   1      32.299  22.319  23.949  1.00  0.00    -0.025 A 
ATOM      9  C   UNL A   1      32.553  19.523  23.970  1.00  0.00     0.067 A 
ATOM     10  C   UNL A   1      32.642  20.231  25.163  1.00  0.00     0.021 A 
ATOM     11  C   UNL A   1      32.268  20.184  22.774  1.00  0.00     0.021 A 
ATOM     12  C   UNL A   1      32.467  21.616  25.150  1.00  0.00     0.009 A 
ATOM     13  C   UNL A   1      32.141  21.578  22.769  1.00  0.00     0.009 A 
BRANCH   9  14
ATOM     14  S   UNL A   1      32.883  17.781  23.963  1.00  0.00     0.175 S 
ATOM     15  C   UNL A   1      34.605  17.699  24.363  1.00  0.00     0.163 C 
ATOM     16  O   UNL A   1      32.710  17.295  22.614  1.00  0.00    -0.224 OA
ATOM     17  O   UNL A   1      32.141  17.194  25.069  1.00  0.00    -0.224 OA
ENDBRANCH   9  14
ENDBRANCH   7   8
BRANCH   6  18
ATOM     18  C   UNL A   1      34.813  24.042  24.157  1.00  0.00    -0.011 A 
ATOM     19  C   UNL A   1      35.354  24.270  25.435  1.00  0.00     0.013 A 
ATOM     20  C   UNL A   1      35.519  23.251  23.244  1.00  0.00     0.013 A 
ATOM     21  C   UNL A   1      36.554  23.666  25.807  1.00  0.00     0.047 A 
ATOM     22  C   UNL A   1      36.736  22.667  23.612  1.00  0.00     0.047 A 
ATOM     23  C   UNL A   1      37.234  22.870  24.895  1.00  0.00     0.115 A 
BRANCH  23  24
ATOM     24  O   UNL A   1      38.401  22.305  25.309  1.00  0.00    -0.508 OA
ATOM     25  H   UNL A   1      38.588  21.411  25.098  1.00  0.00     0.293 HD
ENDBRANCH  23  24
ENDBRANCH   6  18
ENDBRANCH   4   6
ENDBRANCH   3   4
ENDBRANCH   2   3
ENDBRANCH   1   2
BRANCH   1  26
ATOM     26  O   UNL A   1      33.862  28.616  27.011  1.00  0.00    -0.458 OA
BRANCH  26  27
ATOM     27  C   UNL A   1      34.142  29.844  27.508  1.00  0.00     0.338 C 
ATOM     28  O   UNL A   1      33.382  30.795  27.588  1.00  0.00    -0.246 OA
BRANCH  27  29
ATOM     29  C   UNL A   1      35.530  29.895  28.005  1.00  0.00     0.060 A 
ATOM     30  C   UNL A   1      36.566  30.177  27.124  1.00  0.00     0.016 A 
ATOM     31  C   UNL A   1      35.823  29.477  29.302  1.00  0.00     0.016 A 
ATOM     32  C   UNL A   1      37.880  29.891  27.491  1.00  0.00     0.010 A 
ATOM     33  C   UNL A   1      37.159  29.315  29.704  1.00  0.00     0.010 A 
ATOM     34  C   UNL A   1      38.213  29.451  28.783  1.00  0.00    -0.014 A 
BRANCH  34  35
ATOM     35  C   UNL A   1      39.627  29.079  29.129  1.00  0.00     0.031 A 
ATOM     36  C   UNL A   1      40.510  30.015  29.933  1.00  0.00     0.074 A 
ATOM     37  C   UNL A   1      40.138  27.879  28.772  1.00  0.00     0.049 A 
ATOM     38  N   UNL A   1      41.802  29.953  30.151  1.00  0.00    -0.248 NA
ATOM     39  C   UNL A   1      39.866  31.187  30.550  1.00  0.00     0.031 C 
ATOM     40  C   UNL A   1      39.427  26.832  28.035  1.00  0.00     0.029 A 
ATOM     41  N   UNL A   1      41.375  27.322  29.007  1.00  0.00    -0.354 N 
ATOM     42  C   UNL A   1      42.136  31.112  30.848  1.00  0.00     0.074 A 
ATOM     43  C   UNL A   1      40.908  31.858  31.024  1.00  0.00     0.031 C 
ATOM     44  C   UNL A   1      40.194  25.736  27.967  1.00  0.00     0.029 A 
ATOM     45  C   UNL A   1      41.504  26.039  28.527  1.00  0.00     0.049 A 
ATOM     46  H   UNL A   1      42.099  27.797  29.476  1.00  0.00     0.167 HD
ATOM     47  C   UNL A   1      43.349  31.523  31.293  1.00  0.00     0.031 A 
ATOM     48  C   UNL A   1      42.562  25.204  28.483  1.00  0.00     0.031 A 
ATOM     49  C   UNL A   1      44.559  30.744  31.200  1.00  0.00     0.049 A 
ATOM     50  C   UNL A   1      43.894  25.672  28.985  1.00  0.00     0.074 A 
ATOM     51  C   UNL A   1      45.831  31.073  31.639  1.00  0.00     0.029 A 
ATOM     52  N   UNL A   1      44.643  29.467  30.666  1.00  0.00    -0.354 N 
ATOM     53  N   UNL A   1      44.208  26.819  29.537  1.00  0.00    -0.248 NA
ATOM     54  C   UNL A   1      45.022  24.743  28.832  1.00  0.00     0.031 C 
ATOM     55  C   UNL A   1      46.692  30.012  31.335  1.00  0.00     0.029 A 
ATOM     56  C   UNL A   1      45.945  29.000  30.756  1.00  0.00     0.049 A 
ATOM     57  H   UNL A   1      43.889  28.965  30.280  1.00  0.00     0.167 HD
ATOM     58  C   UNL A   1      45.572  26.752  29.791  1.00  0.00     0.074 A 
ATOM     59  C   UNL A   1      46.016  25.441  29.365  1.00  0.00     0.031 C 
ATOM     60  C   UNL A   1      46.384  27.700  30.318  1.00  0.00     0.031 A 
BRANCH  47  61
ATOM     61  C   UNL A   1      43.455  32.909  31.883  1.00  0.00    -0.014 A 
ATOM     62  C   UNL A   1      43.667  34.047  31.088  1.00  0.00     0.010 A 
ATOM     63  C   UNL A   1      43.272  33.073  33.271  1.00  0.00     0.010 A 
ATOM     64  C   UNL A   1      43.732  35.317  31.672  1.00  0.00     0.020 A 
ATOM     65  C   UNL A   1      43.306  34.342  33.855  1.00  0.00     0.020 A 
ATOM     66  C   UNL A   1      43.554  35.457  33.052  1.00  0.00     0.054 A 
BRANCH  66  67
ATOM     67  S   UNL A   1      43.614  37.117  33.783  1.00  0.00     0.124 S 
ATOM     68  O   UNL A   1      43.630  37.968  32.595  1.00  0.00    -0.237 OA
ATOM     69  O   UNL A   1      42.387  37.167  34.573  1.00  0.00    -0.237 OA
ATOM     70  O   UNL A   1      44.850  37.110  34.560  1.00  0.00    -0.744 OA
ENDBRANCH  66  67
ENDBRANCH  47  61
BRANCH  48  71
ATOM     71  C   UNL A   1      42.405  23.856  27.868  1.00  0.00    -0.014 A 
ATOM     72  C   UNL A   1      42.603  23.669  26.489  1.00  0.00     0.010 A 
ATOM     73  C   UNL A   1      42.101  22.743  28.674  1.00  0.00     0.010 A 
ATOM     74  C   UNL A   1      42.511  22.390  25.930  1.00  0.00     0.020 A 
ATOM     75  C   UNL A   1      42.043  21.460  28.125  1.00  0.00     0.020 A 
ATOM     76  C   UNL A   1      42.243  21.293  26.754  1.00  0.00     0.054 A 
BRANCH  76  77
ATOM     77  S   UNL A   1      42.229  19.628  26.032  1.00  0.00     0.124 S 
ATOM     78  O   UNL A   1      43.227  19.748  24.974  1.00  0.00    -0.237 OA
ATOM     79  O   UNL A   1      42.605  18.787  27.166  1.00  0.00    -0.237 OA
ATOM     80  O   UNL A   1      40.849  19.466  25.580  1.00  0.00    -0.744 OA
ENDBRANCH  76  77
ENDBRANCH  48  71
BRANCH  60  81
ATOM     81  C   UNL A   1      47.836  27.341  30.485  1.00  0.00    -0.014 A 
ATOM     82  C   UNL A   1      48.304  26.737  31.666  1.00  0.00     0.010 A 
ATOM     83  C   UNL A   1      48.741  27.602  29.441  1.00  0.00     0.010 A 
ATOM     84  C   UNL A   1      49.661  26.440  31.816  1.00  0.00     0.020 A 
ATOM     85  C   UNL A   1      50.094  27.285  29.579  1.00  0.00     0.020 A 
ATOM     86  C   UNL A   1      50.550  26.723  30.774  1.00  0.00     0.054 A 
BRANCH  86  87
ATOM     87  S   UNL A   1      52.306  26.322  30.988  1.00  0.00     0.124 S 
ATOM     88  O   UNL A   1      52.744  26.133  29.608  1.00  0.00    -0.237 OA
ATOM     89  O   UNL A   1      52.830  27.510  31.656  1.00  0.00    -0.237 OA
ATOM     90  O   UNL A   1      52.286  25.112  31.808  1.00  0.00    -0.744 OA
ENDBRANCH  86  87
ENDBRANCH  60  81
ENDBRANCH  34  35
ENDBRANCH  27  29
ENDBRANCH  26  27
ENDBRANCH   1  26
TORSDOF 18
ENDMDL
MODEL 2
REMARK VINA RESULT:     -10.8      0.598      8.158
REMARK SMILES CS(=O)(=O)c1ccc(/C=C(/C(=O)OCCOC(=O)c2ccc(-c3c4nc(c(-c5ccc(S(=O)(=O)[O-])cc5)c5ccc([nH]5)c(-c5ccc(S(=O)(=O)[O-])cc5)c5nc(c(-c6ccc(S(=O)(=O)[O-])cc6)c6ccc3[nH]6)C=C5)C=C4)cc2)c2ccc(O)cc2)cc1
REMARK SMILES IDX 15 1 14 2 13 3 11 4 12 5 10 6 9 7 8 8 5 9 6 10 87 11 7 12
REMARK SMILES IDX 86 13 2 14 1 15 3 16 4 17 79 18 80 19 85 20 81 21 84 22
REMARK SMILES IDX 82 23 83 24 16 26 17 27 18 28 19 29 20 30 78 31 21 32 77 33
REMARK SMILES IDX 22 34 23 35 24 36 71 37 25 38 76 39 70 40 72 41 26 42 75 43
REMARK SMILES IDX 69 44 68 45 27 47 57 48 38 49 56 50 39 51 42 52 55 53 73 54
REMARK SMILES IDX 40 55 41 56 54 58 74 59 43 60 28 61 29 62 37 63 30 64 36 65
REMARK SMILES IDX 31 66 32 67 33 68 34 69 35 70 58 71 59 72 67 73 60 74 66 75
REMARK SMILES IDX 61 76 62 77 63 78 64 79 65 80 44 81 45 82 53 83 46 84 52 85
REMARK SMILES IDX 47 86 48 87 49 88 50 89 51 90
REMARK H PARENT 83 25 72 46 42 57
REMARK Flexibility Score: inf
ROOT
ATOM      1  C   UNL A   1      32.924  28.113  26.423  1.00  0.00     0.275 C 
ENDROOT
BRANCH   1   2
ATOM      2  C   UNL A   1      33.342  27.930  24.966  1.00  0.00     0.275 C 
BRANCH   2   3
ATOM      3  O   UNL A   1      32.567  26.888  24.336  1.00  0.00    -0.458 OA
BRANCH   3   4
ATOM      4  C   UNL A   1      33.246  26.128  23.436  1.00  0.00     0.338 C 
ATOM      5  O   UNL A   1      33.736  26.535  22.393  1.00  0.00    -0.246 OA
BRANCH   4   6
ATOM      6  C   UNL A   1      33.359  24.705  23.877  1.00  0.00     0.067 C 
ATOM      7  C   UNL A   1      32.250  23.930  23.864  1.00  0.00     0.024 C 
BRANCH   7   8
ATOM      8  C   UNL A   1      32.189  22.450  23.948  1.00  0.00    -0.025 A 
ATOM      9  C   UNL A   1      32.456  19.656  23.908  1.00  0.00     0.067 A 
ATOM     10  C   UNL A   1      32.489  20.333  25.122  1.00  0.00     0.021 A 
ATOM     11  C   UNL A   1      32.220  20.346  22.718  1.00  0.00     0.021 A 
ATOM     12  C   UNL A   1      32.309  21.717  25.136  1.00  0.00     0.009 A 
ATOM     13  C   UNL A   1      32.086  21.739  22.743  1.00  0.00     0.009 A 
BRANCH   9  14
ATOM     14  S   UNL A   1      32.795  17.915  23.871  1.00  0.00     0.175 S 
ATOM     15  C   UNL A   1      34.484  17.826  24.394  1.00  0.00     0.163 C 
ATOM     16  O   UNL A   1      32.724  17.472  22.498  1.00  0.00    -0.224 OA
ATOM     17  O   UNL A   1      31.977  17.291  24.900  1.00  0.00    -0.224 OA
ENDBRANCH   9  14
ENDBRANCH   7   8
BRANCH   6  18
ATOM     18  C   UNL A   1      34.709  24.167  24.139  1.00  0.00    -0.011 A 
ATOM     19  C   UNL A   1      35.283  24.356  25.408  1.00  0.00     0.013 A 
ATOM     20  C   UNL A   1      35.391  23.403  23.184  1.00  0.00     0.013 A 
ATOM     21  C   UNL A   1      36.492  23.742  25.731  1.00  0.00     0.047 A 
ATOM     22  C   UNL A   1      36.616  22.808  23.503  1.00  0.00     0.047 A 
ATOM     23  C   UNL A   1      37.148  22.974  24.778  1.00  0.00     0.115 A 
BRANCH  23  24
ATOM     24  O   UNL A   1      38.324  22.397  25.144  1.00  0.00    -0.508 OA
ATOM     25  H   UNL A   1      38.506  22.238  26.049  1.00  0.00     0.293 HD
ENDBRANCH  23  24
ENDBRANCH   6  18
ENDBRANCH   4   6
ENDBRANCH   3   4
ENDBRANCH   2   3
ENDBRANCH   1   2
BRANCH   1  26
ATOM     26  O   UNL A   1      34.089  28.302  27.247  1.00  0.00    -0.458 OA
BRANCH  26  27
ATOM     27  C   UNL A   1      34.333  29.577  27.635  1.00  0.00     0.338 C 
ATOM     28  O   UNL A   1      33.539  30.503  27.659  1.00  0.00    -0.246 OA
BRANCH  27  29
ATOM     29  C   UNL A   1      35.731  29.720  28.083  1.00  0.00     0.060 A 
ATOM     30  C   UNL A   1      36.711  30.097  27.174  1.00  0.00     0.016 A 
ATOM     31  C   UNL A   1      36.101  29.297  29.360  1.00  0.00     0.016 A 
ATOM     32  C   UNL A   1      38.055  29.901  27.489  1.00  0.00     0.010 A 
ATOM     33  C   UNL A   1      37.459  29.226  29.710  1.00  0.00     0.010 A 
ATOM     34  C   UNL A   1      38.466  29.459  28.757  1.00  0.00    -0.014 A 
BRANCH  34  35
ATOM     35  C   UNL A   1      39.915  29.186  29.044  1.00  0.00     0.031 A 
ATOM     36  C   UNL A   1      40.572  27.893  28.601  1.00  0.00     0.074 A 
ATOM     37  C   UNL A   1      40.687  30.107  29.666  1.00  0.00     0.049 A 
ATOM     38  N   UNL A   1      41.744  27.402  28.932  1.00  0.00    -0.248 NA
ATOM     39  C   UNL A   1      39.808  27.024  27.690  1.00  0.00     0.031 C 
ATOM     40  C   UNL A   1      40.242  31.424  30.127  1.00  0.00     0.029 A 
ATOM     41  N   UNL A   1      42.023  30.086  29.996  1.00  0.00    -0.354 N 
ATOM     42  C   UNL A   1      41.816  26.140  28.346  1.00  0.00     0.074 A 
ATOM     43  C   UNL A   1      40.574  25.942  27.632  1.00  0.00     0.031 C 
ATOM     44  C   UNL A   1      41.295  32.115  30.582  1.00  0.00     0.029 A 
ATOM     45  C   UNL A   1      42.467  31.249  30.581  1.00  0.00     0.049 A 
ATOM     46  H   UNL A   1      42.607  29.311  29.827  1.00  0.00     0.167 HD
ATOM     47  C   UNL A   1      42.818  25.228  28.403  1.00  0.00     0.031 A 
ATOM     48  C   UNL A   1      43.659  31.583  31.113  1.00  0.00     0.031 A 
ATOM     49  C   UNL A   1      44.093  25.455  29.036  1.00  0.00     0.049 A 
ATOM     50  C   UNL A   1      44.758  30.565  31.162  1.00  0.00     0.074 A 
ATOM     51  C   UNL A   1      45.175  24.593  29.129  1.00  0.00     0.029 A 
ATOM     52  N   UNL A   1      44.475  26.636  29.652  1.00  0.00    -0.354 N 
ATOM     53  N   UNL A   1      44.761  29.337  30.701  1.00  0.00    -0.248 NA
ATOM     54  C   UNL A   1      46.004  30.967  31.829  1.00  0.00     0.031 C 
ATOM     55  C   UNL A   1      46.196  25.240  29.835  1.00  0.00     0.029 A 
ATOM     56  C   UNL A   1      45.771  26.523  30.134  1.00  0.00     0.049 A 
ATOM     57  H   UNL A   1      43.911  27.439  29.735  1.00  0.00     0.167 HD
ATOM     58  C   UNL A   1      46.008  28.818  31.029  1.00  0.00     0.074 A 
ATOM     59  C   UNL A   1      46.742  29.873  31.695  1.00  0.00     0.031 C 
ATOM     60  C   UNL A   1      46.492  27.571  30.808  1.00  0.00     0.031 A 
BRANCH  47  61
ATOM     61  C   UNL A   1      42.569  23.864  27.805  1.00  0.00    -0.014 A 
ATOM     62  C   UNL A   1      43.013  23.519  26.518  1.00  0.00     0.010 A 
ATOM     63  C   UNL A   1      41.925  22.884  28.588  1.00  0.00     0.010 A 
ATOM     64  C   UNL A   1      42.786  22.234  26.010  1.00  0.00     0.020 A 
ATOM     65  C   UNL A   1      41.722  21.591  28.097  1.00  0.00     0.020 A 
ATOM     66  C   UNL A   1      42.139  21.280  26.802  1.00  0.00     0.054 A 
BRANCH  66  67
ATOM     67  S   UNL A   1      41.880  19.613  26.133  1.00  0.00     0.124 S 
ATOM     68  O   UNL A   1      40.435  19.597  25.914  1.00  0.00    -0.237 OA
ATOM     69  O   UNL A   1      42.697  19.619  24.922  1.00  0.00    -0.237 OA
ATOM     70  O   UNL A   1      42.357  18.733  27.197  1.00  0.00    -0.744 OA
ENDBRANCH  66  67
ENDBRANCH  47  61
BRANCH  48  71
ATOM     71  C   UNL A   1      43.841  32.936  31.710  1.00  0.00    -0.014 A 
ATOM     72  C   UNL A   1      43.589  33.159  33.074  1.00  0.00     0.010 A 
ATOM     73  C   UNL A   1      44.316  33.999  30.919  1.00  0.00     0.010 A 
ATOM     74  C   UNL A   1      43.819  34.417  33.639  1.00  0.00     0.020 A 
ATOM     75  C   UNL A   1      44.581  35.247  31.486  1.00  0.00     0.020 A 
ATOM     76  C   UNL A   1      44.324  35.450  32.843  1.00  0.00     0.054 A 
BRANCH  76  77
ATOM     77  S   UNL A   1      44.714  37.047  33.611  1.00  0.00     0.124 S 
ATOM     78  O   UNL A   1      46.048  37.318  33.086  1.00  0.00    -0.237 OA
ATOM     79  O   UNL A   1      43.648  37.911  33.108  1.00  0.00    -0.237 OA
ATOM     80  O   UNL A   1      44.647  36.761  35.042  1.00  0.00    -0.744 OA
ENDBRANCH  76  77
ENDBRANCH  48  71
BRANCH  60  81
ATOM     81  C   UNL A   1      47.895  27.291  31.272  1.00  0.00    -0.014 A 
ATOM     82  C   UNL A   1      49.002  27.566  30.448  1.00  0.00     0.010 A 
ATOM     83  C   UNL A   1      48.110  26.755  32.555  1.00  0.00     0.010 A 
ATOM     84  C   UNL A   1      50.296  27.269  30.883  1.00  0.00     0.020 A 
ATOM     85  C   UNL A   1      49.404  26.480  33.002  1.00  0.00     0.020 A 
ATOM     86  C   UNL A   1      50.489  26.720  32.156  1.00  0.00     0.054 A 
BRANCH  86  87
ATOM     87  S   UNL A   1      52.178  26.349  32.702  1.00  0.00     0.124 S 
ATOM     88  O   UNL A   1      51.969  25.969  34.097  1.00  0.00    -0.237 OA
ATOM     89  O   UNL A   1      52.577  25.265  31.809  1.00  0.00    -0.237 OA
ATOM     90  O   UNL A   1      52.891  27.609  32.500  1.00  0.00    -0.744 OA
ENDBRANCH  86  87
ENDBRANCH  60  81
ENDBRANCH  34  35
ENDBRANCH  27  29
ENDBRANCH  26  27
ENDBRANCH   1  26
TORSDOF 18
ENDMDL
MODEL 3
REMARK VINA RESULT:     -10.7      2.766      3.921
REMARK SMILES CS(=O)(=O)c1ccc(/C=C(/C(=O)OCCOC(=O)c2ccc(-c3c4nc(c(-c5ccc(S(=O)(=O)[O-])cc5)c5ccc([nH]5)c(-c5ccc(S(=O)(=O)[O-])cc5)c5nc(c(-c6ccc(S(=O)(=O)[O-])cc6)c6ccc3[nH]6)C=C5)C=C4)cc2)c2ccc(O)cc2)cc1
REMARK SMILES IDX 15 1 14 2 13 3 11 4 12 5 10 6 9 7 8 8 5 9 6 10 87 11 7 12
REMARK SMILES IDX 86 13 2 14 1 15 3 16 4 17 79 18 80 19 85 20 81 21 84 22
REMARK SMILES IDX 82 23 83 24 16 26 17 27 18 28 19 29 20 30 78 31 21 32 77 33
REMARK SMILES IDX 22 34 23 35 24 36 71 37 25 38 76 39 70 40 72 41 26 42 75 43
REMARK SMILES IDX 69 44 68 45 27 47 57 48 38 49 56 50 39 51 42 52 55 53 73 54
REMARK SMILES IDX 40 55 41 56 54 58 74 59 43 60 28 61 29 62 37 63 30 64 36 65
REMARK SMILES IDX 31 66 32 67 33 68 34 69 35 70 58 71 59 72 67 73 60 74 66 75
REMARK SMILES IDX 61 76 62 77 63 78 64 79 65 80 44 81 45 82 53 83 46 84 52 85
REMARK SMILES IDX 47 86 48 87 49 88 50 89 51 90
REMARK H PARENT 83 25 72 46 42 57
REMARK Flexibility Score: inf
ROOT
ATOM      1  C   UNL A   1      34.098  30.438  27.816  1.00  0.00     0.275 C 
ENDROOT
BRANCH   1   2
ATOM      2  C   UNL A   1      34.149  29.345  26.751  1.00  0.00     0.275 C 
BRANCH   2   3
ATOM      3  O   UNL A   1      33.313  28.229  27.120  1.00  0.00    -0.458 OA
BRANCH   3   4
ATOM      4  C   UNL A   1      32.420  27.838  26.173  1.00  0.00     0.338 C 
ATOM      5  O   UNL A   1      31.471  28.501  25.778  1.00  0.00    -0.246 OA
BRANCH   4   6
ATOM      6  C   UNL A   1      32.741  26.486  25.624  1.00  0.00     0.067 C 
ATOM      7  C   UNL A   1      33.047  25.491  26.488  1.00  0.00     0.024 C 
BRANCH   7   8
ATOM      8  C   UNL A   1      33.083  24.035  26.202  1.00  0.00    -0.025 A 
ATOM      9  C   UNL A   1      32.913  21.377  25.314  1.00  0.00     0.067 A 
ATOM     10  C   UNL A   1      34.142  22.029  25.306  1.00  0.00     0.021 A 
ATOM     11  C   UNL A   1      31.780  22.010  25.826  1.00  0.00     0.021 A 
ATOM     12  C   UNL A   1      34.225  23.334  25.793  1.00  0.00     0.009 A 
ATOM     13  C   UNL A   1      31.869  23.334  26.269  1.00  0.00     0.009 A 
BRANCH   9  14
ATOM     14  S   UNL A   1      32.779  19.762  24.595  1.00  0.00     0.175 S 
ATOM     15  C   UNL A   1      34.457  19.201  24.557  1.00  0.00     0.163 C 
ATOM     16  O   UNL A   1      32.323  19.913  23.232  1.00  0.00    -0.224 OA
ATOM     17  O   UNL A   1      32.051  18.926  25.537  1.00  0.00    -0.224 OA
ENDBRANCH   9  14
ENDBRANCH   7   8
BRANCH   6  18
ATOM     18  C   UNL A   1      32.538  26.259  24.180  1.00  0.00    -0.011 A 
ATOM     19  C   UNL A   1      31.271  25.851  23.727  1.00  0.00     0.013 A 
ATOM     20  C   UNL A   1      33.549  26.520  23.248  1.00  0.00     0.013 A 
ATOM     21  C   UNL A   1      31.008  25.763  22.360  1.00  0.00     0.047 A 
ATOM     22  C   UNL A   1      33.290  26.407  21.878  1.00  0.00     0.047 A 
ATOM     23  C   UNL A   1      32.018  26.042  21.448  1.00  0.00     0.115 A 
BRANCH  23  24
ATOM     24  O   UNL A   1      31.709  25.941  20.127  1.00  0.00    -0.508 OA
ATOM     25  H   UNL A   1      30.813  25.888  19.858  1.00  0.00     0.293 HD
ENDBRANCH  23  24
ENDBRANCH   6  18
ENDBRANCH   4   6
ENDBRANCH   3   4
ENDBRANCH   2   3
ENDBRANCH   1   2
BRANCH   1  26
ATOM     26  O   UNL A   1      35.408  31.005  28.000  1.00  0.00    -0.458 OA
BRANCH  26  27
ATOM     27  C   UNL A   1      36.035  30.674  29.154  1.00  0.00     0.338 C 
ATOM     28  O   UNL A   1      35.665  30.925  30.290  1.00  0.00    -0.246 OA
BRANCH  27  29
ATOM     29  C   UNL A   1      37.260  29.903  28.872  1.00  0.00     0.060 A 
ATOM     30  C   UNL A   1      37.975  29.338  29.921  1.00  0.00     0.016 A 
ATOM     31  C   UNL A   1      37.803  29.900  27.588  1.00  0.00     0.016 A 
ATOM     32  C   UNL A   1      39.288  28.918  29.712  1.00  0.00     0.010 A 
ATOM     33  C   UNL A   1      39.078  29.355  27.364  1.00  0.00     0.010 A 
ATOM     34  C   UNL A   1      39.875  28.917  28.436  1.00  0.00    -0.014 A 
BRANCH  34  35
ATOM     35  C   UNL A   1      41.315  28.529  28.252  1.00  0.00     0.031 A 
ATOM     36  C   UNL A   1      42.434  29.526  28.493  1.00  0.00     0.074 A 
ATOM     37  C   UNL A   1      41.657  27.265  27.912  1.00  0.00     0.049 A 
ATOM     38  N   UNL A   1      43.707  29.430  28.193  1.00  0.00    -0.248 NA
ATOM     39  C   UNL A   1      42.073  30.806  29.125  1.00  0.00     0.031 C 
ATOM     40  C   UNL A   1      40.724  26.160  27.682  1.00  0.00     0.029 A 
ATOM     41  N   UNL A   1      42.892  26.686  27.726  1.00  0.00    -0.354 N 
ATOM     42  C   UNL A   1      44.276  30.660  28.517  1.00  0.00     0.074 A 
ATOM     43  C   UNL A   1      43.210  31.485  29.043  1.00  0.00     0.031 C 
ATOM     44  C   UNL A   1      41.414  25.028  27.488  1.00  0.00     0.029 A 
ATOM     45  C   UNL A   1      42.835  25.342  27.436  1.00  0.00     0.049 A 
ATOM     46  H   UNL A   1      43.737  27.187  27.795  1.00  0.00     0.167 HD
ATOM     47  C   UNL A   1      45.563  31.069  28.382  1.00  0.00     0.031 A 
ATOM     48  C   UNL A   1      43.798  24.457  27.109  1.00  0.00     0.031 A 
ATOM     49  C   UNL A   1      46.646  30.225  27.944  1.00  0.00     0.049 A 
ATOM     50  C   UNL A   1      45.216  24.925  26.971  1.00  0.00     0.074 A 
ATOM     51  C   UNL A   1      47.984  30.549  27.793  1.00  0.00     0.029 A 
ATOM     52  N   UNL A   1      46.526  28.882  27.622  1.00  0.00    -0.354 N 
ATOM     53  N   UNL A   1      45.709  26.123  27.174  1.00  0.00    -0.248 NA
ATOM     54  C   UNL A   1      46.202  23.929  26.533  1.00  0.00     0.031 C 
ATOM     55  C   UNL A   1      48.666  29.413  27.342  1.00  0.00     0.029 A 
ATOM     56  C   UNL A   1      47.763  28.367  27.264  1.00  0.00     0.049 A 
ATOM     57  H   UNL A   1      45.686  28.368  27.644  1.00  0.00     0.167 HD
ATOM     58  C   UNL A   1      47.064  26.025  26.880  1.00  0.00     0.074 A 
ATOM     59  C   UNL A   1      47.317  24.645  26.520  1.00  0.00     0.031 C 
ATOM     60  C   UNL A   1      48.008  26.997  26.895  1.00  0.00     0.031 A 
BRANCH  47  61
ATOM     61  C   UNL A   1      45.878  32.519  28.664  1.00  0.00    -0.014 A 
ATOM     62  C   UNL A   1      46.343  32.953  29.917  1.00  0.00     0.010 A 
ATOM     63  C   UNL A   1      45.763  33.456  27.618  1.00  0.00     0.010 A 
ATOM     64  C   UNL A   1      46.650  34.302  30.130  1.00  0.00     0.020 A 
ATOM     65  C   UNL A   1      46.097  34.799  27.817  1.00  0.00     0.020 A 
ATOM     66  C   UNL A   1      46.522  35.217  29.080  1.00  0.00     0.054 A 
BRANCH  66  67
ATOM     67  S   UNL A   1      46.953  36.955  29.371  1.00  0.00     0.124 S 
ATOM     68  O   UNL A   1      46.152  37.270  30.552  1.00  0.00    -0.237 OA
ATOM     69  O   UNL A   1      48.396  36.899  29.590  1.00  0.00    -0.237 OA
ATOM     70  O   UNL A   1      46.540  37.628  28.142  1.00  0.00    -0.744 OA
ENDBRANCH  66  67
ENDBRANCH  47  61
BRANCH  48  71
ATOM     71  C   UNL A   1      43.426  23.045  26.819  1.00  0.00    -0.014 A 
ATOM     72  C   UNL A   1      43.853  22.418  25.636  1.00  0.00     0.010 A 
ATOM     73  C   UNL A   1      42.678  22.305  27.754  1.00  0.00     0.010 A 
ATOM     74  C   UNL A   1      43.549  21.074  25.400  1.00  0.00     0.020 A 
ATOM     75  C   UNL A   1      42.402  20.953  27.538  1.00  0.00     0.020 A 
ATOM     76  C   UNL A   1      42.835  20.347  26.358  1.00  0.00     0.054 A 
BRANCH  76  77
ATOM     77  S   UNL A   1      42.536  18.579  26.084  1.00  0.00     0.124 S 
ATOM     78  O   UNL A   1      41.124  18.563  25.715  1.00  0.00    -0.237 OA
ATOM     79  O   UNL A   1      43.476  18.260  25.011  1.00  0.00    -0.237 OA
ATOM     80  O   UNL A   1      42.855  17.977  27.377  1.00  0.00    -0.744 OA
ENDBRANCH  76  77
ENDBRANCH  48  71
BRANCH  60  81
ATOM     81  C   UNL A   1      49.411  26.593  26.532  1.00  0.00    -0.014 A 
ATOM     82  C   UNL A   1      49.992  26.998  25.317  1.00  0.00     0.010 A 
ATOM     83  C   UNL A   1      50.161  25.806  27.425  1.00  0.00     0.010 A 
ATOM     84  C   UNL A   1      51.285  26.586  24.982  1.00  0.00     0.020 A 
ATOM     85  C   UNL A   1      51.462  25.413  27.103  1.00  0.00     0.020 A 
ATOM     86  C   UNL A   1      52.010  25.790  25.874  1.00  0.00     0.054 A 
BRANCH  86  87
ATOM     87  S   UNL A   1      53.689  25.274  25.422  1.00  0.00     0.124 S 
ATOM     88  O   UNL A   1      53.623  23.827  25.613  1.00  0.00    -0.237 OA
ATOM     89  O   UNL A   1      53.802  25.719  24.036  1.00  0.00    -0.237 OA
ATOM     90  O   UNL A   1      54.538  25.990  26.371  1.00  0.00    -0.744 OA
ENDBRANCH  86  87
ENDBRANCH  60  81
ENDBRANCH  34  35
ENDBRANCH  27  29
ENDBRANCH  26  27
ENDBRANCH   1  26
TORSDOF 18
ENDMDL
