MODEL 1
REMARK VINA RESULT:     -11.2      0.000      0.000
REMARK SMILES C[C@@H]1[NH2+]CC[C@@H]1C(=O)Nc1cc(F)ccc1C(=O)OCCOC(=O)c1ccc(-c2c3nc(c(-c4ccc(S(=O)(=O)[O-])cc4)c4ccc([nH]4)c(-c4ccc(S(=O)(=O)[O-])cc4)c4nc(c(-c5ccc(S(=O)(=O)[O-])cc5)c5ccc2[nH]5)C=C4)C=C3)cc1
REMARK SMILES IDX 21 1 20 2 19 3 17 4 18 5 16 6 10 7 11 8 12 9 15 10 13 11
REMARK SMILES IDX 14 12 9 13 7 14 8 15 6 17 1 18 2 19 3 20 4 21 5 24 22 25
REMARK SMILES IDX 23 26 24 27 25 28 26 29 84 30 27 31 83 32 28 33 29 34 30 35
REMARK SMILES IDX 77 36 31 37 82 38 76 39 78 40 32 41 81 42 75 43 74 44 33 46
REMARK SMILES IDX 63 47 44 48 62 49 45 50 48 51 61 52 79 53 46 54 47 55 60 57
REMARK SMILES IDX 80 58 49 59 34 60 35 61 43 62 36 63 42 64 37 65 38 66 39 67
REMARK SMILES IDX 40 68 41 69 64 70 65 71 73 72 66 73 72 74 67 75 68 76 69 77
REMARK SMILES IDX 70 78 71 79 50 80 51 81 59 82 52 83 58 84 53 85 54 86 55 87
REMARK SMILES IDX 56 88 57 89
REMARK H PARENT 9 16 3 22 3 23 78 45 48 56
REMARK Flexibility Score: inf
ROOT
ATOM      1  C   UNL A   1      39.086  22.438  26.140  1.00  0.00     0.275 C 
ENDROOT
BRANCH   1   2
ATOM      2  C   UNL A   1      37.719  23.090  25.931  1.00  0.00     0.275 C 
BRANCH   2   3
ATOM      3  O   UNL A   1      36.722  22.098  25.593  1.00  0.00    -0.458 OA
BRANCH   3   4
ATOM      4  C   UNL A   1      35.447  22.378  25.964  1.00  0.00     0.340 C 
ATOM      5  O   UNL A   1      35.081  23.387  26.546  1.00  0.00    -0.246 OA
BRANCH   4   6
ATOM      6  C   UNL A   1      34.490  21.345  25.467  1.00  0.00     0.083 A 
ATOM      7  C   UNL A   1      33.083  21.510  25.396  1.00  0.00     0.058 A 
ATOM      8  C   UNL A   1      32.335  20.414  24.976  1.00  0.00     0.066 A 
ATOM      9  C   UNL A   1      32.943  19.224  24.571  1.00  0.00     0.125 A 
ATOM     10  C   UNL A   1      35.088  20.135  25.045  1.00  0.00     0.021 A 
ATOM     11  F   UNL A   1      32.179  18.222  24.119  1.00  0.00    -0.207 F 
ATOM     12  C   UNL A   1      34.314  19.069  24.606  1.00  0.00     0.040 A 
BRANCH   7  13
ATOM     13  N   UNL A   1      32.525  22.775  25.671  1.00  0.00    -0.325 N 
ATOM     14  C   UNL A   1      32.041  23.853  25.005  1.00  0.00     0.233 C 
ATOM     15  O   UNL A   1      31.762  24.806  25.749  1.00  0.00    -0.274 OA
ATOM     16  H   UNL A   1      32.470  22.920  26.643  1.00  0.00     0.169 HD
BRANCH  14  17
ATOM     17  C   UNL A   1      31.748  23.942  23.503  1.00  0.00     0.142 C 
ATOM     18  C   UNL A   1      34.256  24.412  23.045  1.00  0.00     0.076 C 
ATOM     19  C   UNL A   1      32.913  23.942  22.503  1.00  0.00     0.192 C 
ATOM     20  N   UNL A   1      32.467  24.787  21.374  1.00  0.00    -0.343 N 
ATOM     21  C   UNL A   1      31.729  25.883  21.991  1.00  0.00     0.261 C 
ATOM     22  H   UNL A   1      31.863  24.257  20.746  1.00  0.00     0.346 HD
ATOM     23  H   UNL A   1      33.251  25.120  20.813  1.00  0.00     0.346 HD
ATOM     24  C   UNL A   1      30.996  25.255  23.162  1.00  0.00     0.081 C 
ENDBRANCH  14  17
ENDBRANCH   7  13
ENDBRANCH   4   6
ENDBRANCH   3   4
ENDBRANCH   2   3
ENDBRANCH   1   2
BRANCH   1  25
ATOM     25  O   UNL A   1      39.752  23.046  27.262  1.00  0.00    -0.458 OA
BRANCH  25  26
ATOM     26  C   UNL A   1      40.651  24.006  26.947  1.00  0.00     0.338 C 
ATOM     27  O   UNL A   1      41.573  23.925  26.152  1.00  0.00    -0.246 OA
BRANCH  26  28
ATOM     28  C   UNL A   1      40.319  25.265  27.635  1.00  0.00     0.060 A 
ATOM     29  C   UNL A   1      41.153  26.359  27.441  1.00  0.00     0.016 A 
ATOM     30  C   UNL A   1      39.346  25.301  28.629  1.00  0.00     0.016 A 
ATOM     31  C   UNL A   1      41.139  27.417  28.346  1.00  0.00     0.010 A 
ATOM     32  C   UNL A   1      39.238  26.438  29.445  1.00  0.00     0.010 A 
ATOM     33  C   UNL A   1      40.177  27.484  29.365  1.00  0.00    -0.014 A 
BRANCH  33  34
ATOM     34  C   UNL A   1      40.203  28.584  30.386  1.00  0.00     0.031 A 
ATOM     35  C   UNL A   1      41.242  28.565  31.490  1.00  0.00     0.074 A 
ATOM     36  C   UNL A   1      39.336  29.618  30.339  1.00  0.00     0.049 A 
ATOM     37  N   UNL A   1      41.278  29.249  32.606  1.00  0.00    -0.248 NA
ATOM     38  C   UNL A   1      42.373  27.638  31.326  1.00  0.00     0.031 C 
ATOM     39  C   UNL A   1      38.319  29.841  29.309  1.00  0.00     0.029 A 
ATOM     40  N   UNL A   1      39.180  30.696  31.183  1.00  0.00    -0.354 N 
ATOM     41  C   UNL A   1      42.375  28.767  33.315  1.00  0.00     0.074 A 
ATOM     42  C   UNL A   1      42.983  27.739  32.499  1.00  0.00     0.031 C 
ATOM     43  C   UNL A   1      37.695  31.006  29.543  1.00  0.00     0.029 A 
ATOM     44  C   UNL A   1      38.168  31.550  30.809  1.00  0.00     0.049 A 
ATOM     45  H   UNL A   1      39.740  30.841  31.980  1.00  0.00     0.167 HD
ATOM     46  C   UNL A   1      42.831  29.140  34.537  1.00  0.00     0.031 A 
ATOM     47  C   UNL A   1      37.625  32.614  31.434  1.00  0.00     0.031 A 
ATOM     48  C   UNL A   1      42.274  30.219  35.311  1.00  0.00     0.049 A 
ATOM     49  C   UNL A   1      38.124  32.998  32.798  1.00  0.00     0.074 A 
ATOM     50  C   UNL A   1      42.668  30.680  36.556  1.00  0.00     0.029 A 
ATOM     51  N   UNL A   1      41.227  31.030  34.899  1.00  0.00    -0.354 N 
ATOM     52  N   UNL A   1      39.088  32.458  33.502  1.00  0.00    -0.248 NA
ATOM     53  C   UNL A   1      37.443  34.118  33.461  1.00  0.00     0.031 C 
ATOM     54  C   UNL A   1      41.834  31.744  36.913  1.00  0.00     0.029 A 
ATOM     55  C   UNL A   1      40.958  31.982  35.868  1.00  0.00     0.049 A 
ATOM     56  H   UNL A   1      40.746  30.941  34.045  1.00  0.00     0.167 HD
ATOM     57  C   UNL A   1      39.138  33.182  34.688  1.00  0.00     0.074 A 
ATOM     58  C   UNL A   1      38.122  34.210  34.596  1.00  0.00     0.031 C 
ATOM     59  C   UNL A   1      39.949  33.005  35.760  1.00  0.00     0.031 A 
BRANCH  46  60
ATOM     60  C   UNL A   1      43.957  28.339  35.143  1.00  0.00    -0.014 A 
ATOM     61  C   UNL A   1      45.303  28.712  34.992  1.00  0.00     0.010 A 
ATOM     62  C   UNL A   1      43.648  27.204  35.919  1.00  0.00     0.010 A 
ATOM     63  C   UNL A   1      46.320  27.940  35.565  1.00  0.00     0.020 A 
ATOM     64  C   UNL A   1      44.658  26.448  36.519  1.00  0.00     0.020 A 
ATOM     65  C   UNL A   1      45.991  26.809  36.321  1.00  0.00     0.054 A 
BRANCH  65  66
ATOM     66  S   UNL A   1      47.328  25.833  37.063  1.00  0.00     0.124 S 
ATOM     67  O   UNL A   1      48.309  25.795  35.981  1.00  0.00    -0.237 OA
ATOM     68  O   UNL A   1      47.705  26.634  38.225  1.00  0.00    -0.237 OA
ATOM     69  O   UNL A   1      46.693  24.553  37.373  1.00  0.00    -0.744 OA
ENDBRANCH  65  66
ENDBRANCH  46  60
BRANCH  47  70
ATOM     70  C   UNL A   1      36.488  33.344  30.804  1.00  0.00    -0.014 A 
ATOM     71  C   UNL A   1      35.242  33.432  31.450  1.00  0.00     0.010 A 
ATOM     72  C   UNL A   1      36.652  33.972  29.554  1.00  0.00     0.010 A 
ATOM     73  C   UNL A   1      34.186  34.132  30.860  1.00  0.00     0.020 A 
ATOM     74  C   UNL A   1      35.610  34.702  28.978  1.00  0.00     0.020 A 
ATOM     75  C   UNL A   1      34.379  34.769  29.630  1.00  0.00     0.054 A 
BRANCH  75  76
ATOM     76  S   UNL A   1      33.019  35.733  28.914  1.00  0.00     0.124 S 
ATOM     77  O   UNL A   1      32.357  34.742  28.070  1.00  0.00    -0.237 OA
ATOM     78  O   UNL A   1      32.274  36.157  30.096  1.00  0.00    -0.237 OA
ATOM     79  O   UNL A   1      33.702  36.808  28.200  1.00  0.00    -0.744 OA
ENDBRANCH  75  76
ENDBRANCH  47  70
BRANCH  59  80
ATOM     80  C   UNL A   1      39.807  33.977  36.900  1.00  0.00    -0.014 A 
ATOM     81  C   UNL A   1      40.486  35.208  36.900  1.00  0.00     0.010 A 
ATOM     82  C   UNL A   1      38.945  33.667  37.968  1.00  0.00     0.010 A 
ATOM     83  C   UNL A   1      40.332  36.097  37.967  1.00  0.00     0.020 A 
ATOM     84  C   UNL A   1      38.769  34.565  39.023  1.00  0.00     0.020 A 
ATOM     85  C   UNL A   1      39.475  35.769  39.022  1.00  0.00     0.054 A 
BRANCH  85  86
ATOM     86  S   UNL A   1      39.264  36.955  40.378  1.00  0.00     0.124 S 
ATOM     87  O   UNL A   1      38.570  38.055  39.714  1.00  0.00    -0.237 OA
ATOM     88  O   UNL A   1      38.468  36.200  41.344  1.00  0.00    -0.237 OA
ATOM     89  O   UNL A   1      40.633  37.246  40.799  1.00  0.00    -0.744 OA
ENDBRANCH  85  86
ENDBRANCH  59  80
ENDBRANCH  33  34
ENDBRANCH  26  28
ENDBRANCH  25  26
ENDBRANCH   1  25
TORSDOF 16
ENDMDL
MODEL 2
REMARK VINA RESULT:     -11.1      5.308     10.991
REMARK SMILES C[C@@H]1[NH2+]CC[C@@H]1C(=O)Nc1cc(F)ccc1C(=O)OCCOC(=O)c1ccc(-c2c3nc(c(-c4ccc(S(=O)(=O)[O-])cc4)c4ccc([nH]4)c(-c4ccc(S(=O)(=O)[O-])cc4)c4nc(c(-c5ccc(S(=O)(=O)[O-])cc5)c5ccc2[nH]5)C=C4)C=C3)cc1
REMARK SMILES IDX 21 1 20 2 19 3 17 4 18 5 16 6 10 7 11 8 12 9 15 10 13 11
REMARK SMILES IDX 14 12 9 13 7 14 8 15 6 17 1 18 2 19 3 20 4 21 5 24 22 25
REMARK SMILES IDX 23 26 24 27 25 28 26 29 84 30 27 31 83 32 28 33 29 34 30 35
REMARK SMILES IDX 77 36 31 37 82 38 76 39 78 40 32 41 81 42 75 43 74 44 33 46
REMARK SMILES IDX 63 47 44 48 62 49 45 50 48 51 61 52 79 53 46 54 47 55 60 57
REMARK SMILES IDX 80 58 49 59 34 60 35 61 43 62 36 63 42 64 37 65 38 66 39 67
REMARK SMILES IDX 40 68 41 69 64 70 65 71 73 72 66 73 72 74 67 75 68 76 69 77
REMARK SMILES IDX 70 78 71 79 50 80 51 81 59 82 52 83 58 84 53 85 54 86 55 87
REMARK SMILES IDX 56 88 57 89
REMARK H PARENT 9 16 3 22 3 23 78 45 48 56
REMARK Flexibility Score: inf
ROOT
ATOM      1  C   UNL A   1      32.969  31.094  26.933  1.00  0.00     0.275 C 
ENDROOT
BRANCH   1   2
ATOM      2  C   UNL A   1      32.225  30.157  25.981  1.00  0.00     0.275 C 
BRANCH   2   3
ATOM      3  O   UNL A   1      33.154  29.353  25.219  1.00  0.00    -0.458 OA
BRANCH   3   4
ATOM      4  C   UNL A   1      32.785  29.051  23.948  1.00  0.00     0.340 C 
ATOM      5  O   UNL A   1      33.480  29.192  22.953  1.00  0.00    -0.246 OA
BRANCH   4   6
ATOM      6  C   UNL A   1      31.443  28.399  23.905  1.00  0.00     0.083 A 
ATOM      7  C   UNL A   1      31.131  27.144  24.489  1.00  0.00     0.058 A 
ATOM      8  C   UNL A   1      29.845  26.652  24.288  1.00  0.00     0.066 A 
ATOM      9  C   UNL A   1      28.877  27.389  23.604  1.00  0.00     0.125 A 
ATOM     10  C   UNL A   1      30.446  29.135  23.223  1.00  0.00     0.021 A 
ATOM     11  F   UNL A   1      27.638  26.894  23.492  1.00  0.00    -0.207 F 
ATOM     12  C   UNL A   1      29.164  28.626  23.062  1.00  0.00     0.040 A 
BRANCH   7  13
ATOM     13  N   UNL A   1      32.093  26.505  25.297  1.00  0.00    -0.325 N 
ATOM     14  C   UNL A   1      33.090  25.592  25.183  1.00  0.00     0.233 C 
ATOM     15  O   UNL A   1      33.587  25.268  26.273  1.00  0.00    -0.274 OA
ATOM     16  H   UNL A   1      32.018  26.815  26.228  1.00  0.00     0.169 HD
BRANCH  14  17
ATOM     17  C   UNL A   1      33.671  25.033  23.879  1.00  0.00     0.142 C 
ATOM     18  C   UNL A   1      31.674  23.390  23.697  1.00  0.00     0.076 C 
ATOM     19  C   UNL A   1      32.807  24.124  22.993  1.00  0.00     0.192 C 
ATOM     20  N   UNL A   1      33.748  23.175  22.361  1.00  0.00    -0.343 N 
ATOM     21  C   UNL A   1      34.723  22.861  23.400  1.00  0.00     0.261 C 
ATOM     22  H   UNL A   1      34.207  23.606  21.558  1.00  0.00     0.346 HD
ATOM     23  H   UNL A   1      33.274  22.341  22.015  1.00  0.00     0.346 HD
ATOM     24  C   UNL A   1      34.921  24.160  24.160  1.00  0.00     0.081 C 
ENDBRANCH  14  17
ENDBRANCH   7  13
ENDBRANCH   4   6
ENDBRANCH   3   4
ENDBRANCH   2   3
ENDBRANCH   1   2
BRANCH   1  25
ATOM     25  O   UNL A   1      33.630  30.329  27.957  1.00  0.00    -0.458 OA
BRANCH  25  26
ATOM     26  C   UNL A   1      34.614  30.981  28.618  1.00  0.00     0.338 C 
ATOM     27  O   UNL A   1      34.522  32.029  29.236  1.00  0.00    -0.246 OA
BRANCH  26  28
ATOM     28  C   UNL A   1      35.858  30.193  28.593  1.00  0.00     0.060 A 
ATOM     29  C   UNL A   1      36.312  29.646  29.785  1.00  0.00     0.016 A 
ATOM     30  C   UNL A   1      36.680  30.190  27.470  1.00  0.00     0.016 A 
ATOM     31  C   UNL A   1      37.643  29.254  29.912  1.00  0.00     0.010 A 
ATOM     32  C   UNL A   1      37.974  29.656  27.565  1.00  0.00     0.010 A 
ATOM     33  C   UNL A   1      38.502  29.245  28.804  1.00  0.00    -0.014 A 
BRANCH  33  34
ATOM     34  C   UNL A   1      39.955  28.895  28.950  1.00  0.00     0.031 A 
ATOM     35  C   UNL A   1      40.926  29.919  29.502  1.00  0.00     0.074 A 
ATOM     36  C   UNL A   1      40.428  27.672  28.626  1.00  0.00     0.049 A 
ATOM     37  N   UNL A   1      42.235  29.926  29.463  1.00  0.00    -0.248 NA
ATOM     38  C   UNL A   1      40.348  31.100  30.162  1.00  0.00     0.031 C 
ATOM     39  C   UNL A   1      39.629  26.540  28.151  1.00  0.00     0.029 A 
ATOM     40  N   UNL A   1      41.709  27.169  28.661  1.00  0.00    -0.354 N 
ATOM     41  C   UNL A   1      42.629  31.148  30.003  1.00  0.00     0.074 A 
ATOM     42  C   UNL A   1      41.419  31.852  30.369  1.00  0.00     0.031 C 
ATOM     43  C   UNL A   1      40.420  25.467  28.004  1.00  0.00     0.029 A 
ATOM     44  C   UNL A   1      41.802  25.862  28.240  1.00  0.00     0.049 A 
ATOM     45  H   UNL A   1      42.486  27.695  28.959  1.00  0.00     0.167 HD
ATOM     46  C   UNL A   1      43.880  31.642  30.170  1.00  0.00     0.031 A 
ATOM     47  C   UNL A   1      42.873  25.078  28.002  1.00  0.00     0.031 A 
ATOM     48  C   UNL A   1      45.084  30.906  29.880  1.00  0.00     0.049 A 
ATOM     49  C   UNL A   1      44.253  25.648  28.168  1.00  0.00     0.074 A 
ATOM     50  C   UNL A   1      46.399  31.314  30.022  1.00  0.00     0.029 A 
ATOM     51  N   UNL A   1      45.120  29.597  29.424  1.00  0.00    -0.354 N 
ATOM     52  N   UNL A   1      44.604  26.845  28.570  1.00  0.00    -0.248 NA
ATOM     53  C   UNL A   1      45.378  24.770  27.821  1.00  0.00     0.031 C 
ATOM     54  C   UNL A   1      47.230  30.265  29.615  1.00  0.00     0.029 A 
ATOM     55  C   UNL A   1      46.434  29.185  29.273  1.00  0.00     0.049 A 
ATOM     56  H   UNL A   1      44.329  29.042  29.235  1.00  0.00     0.167 HD
ATOM     57  C   UNL A   1      45.994  26.860  28.538  1.00  0.00     0.074 A 
ATOM     58  C   UNL A   1      46.418  25.546  28.097  1.00  0.00     0.031 C 
ATOM     59  C   UNL A   1      46.842  27.873  28.840  1.00  0.00     0.031 A 
BRANCH  46  60
ATOM     60  C   UNL A   1      44.017  33.069  30.639  1.00  0.00    -0.014 A 
ATOM     61  C   UNL A   1      44.298  33.391  31.978  1.00  0.00     0.010 A 
ATOM     62  C   UNL A   1      43.900  34.112  29.699  1.00  0.00     0.010 A 
ATOM     63  C   UNL A   1      44.412  34.727  32.376  1.00  0.00     0.020 A 
ATOM     64  C   UNL A   1      44.043  35.447  30.086  1.00  0.00     0.020 A 
ATOM     65  C   UNL A   1      44.278  35.748  31.428  1.00  0.00     0.054 A 
BRANCH  65  66
ATOM     66  S   UNL A   1      44.443  37.472  31.968  1.00  0.00     0.124 S 
ATOM     67  O   UNL A   1      45.658  37.418  32.777  1.00  0.00    -0.237 OA
ATOM     68  O   UNL A   1      44.562  38.195  30.704  1.00  0.00    -0.237 OA
ATOM     69  O   UNL A   1      43.210  37.722  32.711  1.00  0.00    -0.744 OA
ENDBRANCH  65  66
ENDBRANCH  46  60
BRANCH  47  70
ATOM     70  C   UNL A   1      42.677  23.687  27.502  1.00  0.00    -0.014 A 
ATOM     71  C   UNL A   1      42.799  23.390  26.133  1.00  0.00     0.010 A 
ATOM     72  C   UNL A   1      42.385  22.643  28.402  1.00  0.00     0.010 A 
ATOM     73  C   UNL A   1      42.630  22.080  25.675  1.00  0.00     0.020 A 
ATOM     74  C   UNL A   1      42.250  21.328  27.952  1.00  0.00     0.020 A 
ATOM     75  C   UNL A   1      42.363  21.056  26.589  1.00  0.00     0.054 A 
BRANCH  75  76
ATOM     76  S   UNL A   1      42.219  19.351  25.984  1.00  0.00     0.124 S 
ATOM     77  O   UNL A   1      42.790  18.589  27.090  1.00  0.00    -0.237 OA
ATOM     78  O   UNL A   1      40.779  19.204  25.790  1.00  0.00    -0.237 OA
ATOM     79  O   UNL A   1      43.007  19.358  24.754  1.00  0.00    -0.744 OA
ENDBRANCH  75  76
ENDBRANCH  47  70
BRANCH  59  80
ATOM     80  C   UNL A   1      48.317  27.587  28.754  1.00  0.00    -0.014 A 
ATOM     81  C   UNL A   1      49.020  27.040  29.842  1.00  0.00     0.010 A 
ATOM     82  C   UNL A   1      48.998  27.833  27.548  1.00  0.00     0.010 A 
ATOM     83  C   UNL A   1      50.388  26.777  29.735  1.00  0.00     0.020 A 
ATOM     84  C   UNL A   1      50.360  27.545  27.429  1.00  0.00     0.020 A 
ATOM     85  C   UNL A   1      51.049  27.032  28.529  1.00  0.00     0.054 A 
BRANCH  85  86
ATOM     86  S   UNL A   1      52.817  26.648  28.403  1.00  0.00     0.124 S 
ATOM     87  O   UNL A   1      53.117  26.150  29.743  1.00  0.00    -0.237 OA
ATOM     88  O   UNL A   1      52.853  25.648  27.338  1.00  0.00    -0.237 OA
ATOM     89  O   UNL A   1      53.427  27.932  28.065  1.00  0.00    -0.744 OA
ENDBRANCH  85  86
ENDBRANCH  59  80
ENDBRANCH  33  34
ENDBRANCH  26  28
ENDBRANCH  25  26
ENDBRANCH   1  25
TORSDOF 16
ENDMDL
MODEL 3
REMARK VINA RESULT:     -11.1      1.949      2.551
REMARK SMILES C[C@@H]1[NH2+]CC[C@@H]1C(=O)Nc1cc(F)ccc1C(=O)OCCOC(=O)c1ccc(-c2c3nc(c(-c4ccc(S(=O)(=O)[O-])cc4)c4ccc([nH]4)c(-c4ccc(S(=O)(=O)[O-])cc4)c4nc(c(-c5ccc(S(=O)(=O)[O-])cc5)c5ccc2[nH]5)C=C4)C=C3)cc1
REMARK SMILES IDX 21 1 20 2 19 3 17 4 18 5 16 6 10 7 11 8 12 9 15 10 13 11
REMARK SMILES IDX 14 12 9 13 7 14 8 15 6 17 1 18 2 19 3 20 4 21 5 24 22 25
REMARK SMILES IDX 23 26 24 27 25 28 26 29 84 30 27 31 83 32 28 33 29 34 30 35
REMARK SMILES IDX 77 36 31 37 82 38 76 39 78 40 32 41 81 42 75 43 74 44 33 46
REMARK SMILES IDX 63 47 44 48 62 49 45 50 48 51 61 52 79 53 46 54 47 55 60 57
REMARK SMILES IDX 80 58 49 59 34 60 35 61 43 62 36 63 42 64 37 65 38 66 39 67
REMARK SMILES IDX 40 68 41 69 64 70 65 71 73 72 66 73 72 74 67 75 68 76 69 77
REMARK SMILES IDX 70 78 71 79 50 80 51 81 59 82 52 83 58 84 53 85 54 86 55 87
REMARK SMILES IDX 56 88 57 89
REMARK H PARENT 9 16 3 22 3 23 78 45 48 56
REMARK Flexibility Score: inf
ROOT
ATOM      1  C   UNL A   1      39.508  23.143  26.539  1.00  0.00     0.275 C 
ENDROOT
BRANCH   1   2
ATOM      2  C   UNL A   1      38.395  22.384  25.816  1.00  0.00     0.275 C 
BRANCH   2   3
ATOM      3  O   UNL A   1      37.108  22.994  26.067  1.00  0.00    -0.458 OA
BRANCH   3   4
ATOM      4  C   UNL A   1      36.185  22.877  25.079  1.00  0.00     0.340 C 
ATOM      5  O   UNL A   1      36.425  22.631  23.907  1.00  0.00    -0.246 OA
BRANCH   4   6
ATOM      6  C   UNL A   1      34.794  22.966  25.613  1.00  0.00     0.083 A 
ATOM      7  C   UNL A   1      33.739  23.700  25.011  1.00  0.00     0.058 A 
ATOM      8  C   UNL A   1      32.522  23.735  25.687  1.00  0.00     0.066 A 
ATOM      9  C   UNL A   1      32.321  23.020  26.870  1.00  0.00     0.125 A 
ATOM     10  C   UNL A   1      34.568  22.243  26.807  1.00  0.00     0.021 A 
ATOM     11  F   UNL A   1      31.113  23.040  27.445  1.00  0.00    -0.207 F 
ATOM     12  C   UNL A   1      33.333  22.277  27.442  1.00  0.00     0.040 A 
BRANCH   7  13
ATOM     13  N   UNL A   1      33.944  24.282  23.744  1.00  0.00    -0.325 N 
ATOM     14  C   UNL A   1      33.755  25.469  23.113  1.00  0.00     0.233 C 
ATOM     15  O   UNL A   1      34.008  25.425  21.899  1.00  0.00    -0.274 OA
ATOM     16  H   UNL A   1      34.345  23.627  23.128  1.00  0.00     0.169 HD
BRANCH  14  17
ATOM     17  C   UNL A   1      33.363  26.797  23.768  1.00  0.00     0.142 C 
ATOM     18  C   UNL A   1      30.872  26.324  23.230  1.00  0.00     0.076 C 
ATOM     19  C   UNL A   1      31.886  27.085  24.073  1.00  0.00     0.192 C 
ATOM     20  N   UNL A   1      31.725  28.546  23.914  1.00  0.00    -0.343 N 
ATOM     21  C   UNL A   1      32.556  28.895  22.766  1.00  0.00     0.261 C 
ATOM     22  H   UNL A   1      32.045  29.036  24.749  1.00  0.00     0.346 HD
ATOM     23  H   UNL A   1      30.749  28.810  23.775  1.00  0.00     0.346 HD
ATOM     24  C   UNL A   1      33.774  27.997  22.875  1.00  0.00     0.081 C 
ENDBRANCH  14  17
ENDBRANCH   7  13
ENDBRANCH   4   6
ENDBRANCH   3   4
ENDBRANCH   2   3
ENDBRANCH   1   2
BRANCH   1  25
ATOM     25  O   UNL A   1      38.996  24.382  27.063  1.00  0.00    -0.458 OA
BRANCH  25  26
ATOM     26  C   UNL A   1      39.800  25.457  26.887  1.00  0.00     0.338 C 
ATOM     27  O   UNL A   1      40.610  25.638  25.993  1.00  0.00    -0.246 OA
BRANCH  26  28
ATOM     28  C   UNL A   1      39.505  26.488  27.896  1.00  0.00     0.060 A 
ATOM     29  C   UNL A   1      39.965  27.778  27.670  1.00  0.00     0.016 A 
ATOM     30  C   UNL A   1      38.992  26.142  29.143  1.00  0.00     0.016 A 
ATOM     31  C   UNL A   1      40.078  28.675  28.730  1.00  0.00     0.010 A 
ATOM     32  C   UNL A   1      38.972  27.098  30.169  1.00  0.00     0.010 A 
ATOM     33  C   UNL A   1      39.579  28.359  30.002  1.00  0.00    -0.014 A 
BRANCH  33  34
ATOM     34  C   UNL A   1      39.765  29.290  31.164  1.00  0.00     0.031 A 
ATOM     35  C   UNL A   1      41.000  29.175  32.035  1.00  0.00     0.074 A 
ATOM     36  C   UNL A   1      38.869  30.261  31.447  1.00  0.00     0.049 A 
ATOM     37  N   UNL A   1      41.230  29.683  33.219  1.00  0.00    -0.248 NA
ATOM     38  C   UNL A   1      42.110  28.360  31.515  1.00  0.00     0.031 C 
ATOM     39  C   UNL A   1      37.663  30.569  30.676  1.00  0.00     0.029 A 
ATOM     40  N   UNL A   1      38.843  31.186  32.467  1.00  0.00    -0.354 N 
ATOM     41  C   UNL A   1      42.461  29.173  33.623  1.00  0.00     0.074 A 
ATOM     42  C   UNL A   1      42.933  28.323  32.552  1.00  0.00     0.031 C 
ATOM     43  C   UNL A   1      37.056  31.641  31.207  1.00  0.00     0.029 A 
ATOM     44  C   UNL A   1      37.747  32.017  32.432  1.00  0.00     0.049 A 
ATOM     45  H   UNL A   1      39.543  31.246  33.157  1.00  0.00     0.167 HD
ATOM     46  C   UNL A   1      43.134  29.387  34.781  1.00  0.00     0.031 A 
ATOM     47  C   UNL A   1      37.299  32.937  33.311  1.00  0.00     0.031 A 
ATOM     48  C   UNL A   1      42.701  30.298  35.809  1.00  0.00     0.049 A 
ATOM     49  C   UNL A   1      38.042  33.143  34.601  1.00  0.00     0.074 A 
ATOM     50  C   UNL A   1      43.314  30.591  37.016  1.00  0.00     0.029 A 
ATOM     51  N   UNL A   1      41.565  31.090  35.737  1.00  0.00    -0.354 N 
ATOM     52  N   UNL A   1      39.144  32.568  35.015  1.00  0.00    -0.248 NA
ATOM     53  C   UNL A   1      37.464  34.103  35.551  1.00  0.00     0.031 C 
ATOM     54  C   UNL A   1      42.529  31.531  37.690  1.00  0.00     0.029 A 
ATOM     55  C   UNL A   1      41.457  31.866  36.879  1.00  0.00     0.049 A 
ATOM     56  H   UNL A   1      40.930  31.100  34.985  1.00  0.00     0.167 HD
ATOM     57  C   UNL A   1      39.400  33.106  36.272  1.00  0.00     0.074 A 
ATOM     58  C   UNL A   1      38.349  34.068  36.538  1.00  0.00     0.031 C 
ATOM     59  C   UNL A   1      40.410  32.824  37.129  1.00  0.00     0.031 A 
BRANCH  46  60
ATOM     60  C   UNL A   1      44.384  28.581  35.028  1.00  0.00    -0.014 A 
ATOM     61  C   UNL A   1      45.659  29.053  34.674  1.00  0.00     0.010 A 
ATOM     62  C   UNL A   1      44.276  27.331  35.671  1.00  0.00     0.010 A 
ATOM     63  C   UNL A   1      46.796  28.273  34.914  1.00  0.00     0.020 A 
ATOM     64  C   UNL A   1      45.411  26.562  35.941  1.00  0.00     0.020 A 
ATOM     65  C   UNL A   1      46.664  27.029  35.542  1.00  0.00     0.054 A 
BRANCH  65  66
ATOM     66  S   UNL A   1      48.155  26.043  35.854  1.00  0.00     0.124 S 
ATOM     67  O   UNL A   1      48.046  25.004  34.832  1.00  0.00    -0.237 OA
ATOM     68  O   UNL A   1      49.230  27.011  35.652  1.00  0.00    -0.237 OA
ATOM     69  O   UNL A   1      47.985  25.582  37.230  1.00  0.00    -0.744 OA
ENDBRANCH  65  66
ENDBRANCH  46  60
BRANCH  47  70
ATOM     70  C   UNL A   1      36.035  33.676  33.031  1.00  0.00    -0.014 A 
ATOM     71  C   UNL A   1      34.784  33.083  33.279  1.00  0.00     0.010 A 
ATOM     72  C   UNL A   1      36.078  34.992  32.530  1.00  0.00     0.010 A 
ATOM     73  C   UNL A   1      33.604  33.789  33.029  1.00  0.00     0.020 A 
ATOM     74  C   UNL A   1      34.902  35.713  32.313  1.00  0.00     0.020 A 
ATOM     75  C   UNL A   1      33.670  35.103  32.554  1.00  0.00     0.054 A 
BRANCH  75  76
ATOM     76  S   UNL A   1      32.130  36.029  32.305  1.00  0.00     0.124 S 
ATOM     77  O   UNL A   1      32.292  37.141  33.236  1.00  0.00    -0.237 OA
ATOM     78  O   UNL A   1      32.193  36.375  30.888  1.00  0.00    -0.237 OA
ATOM     79  O   UNL A   1      31.091  35.063  32.656  1.00  0.00    -0.744 OA
ENDBRANCH  75  76
ENDBRANCH  47  70
BRANCH  59  80
ATOM     80  C   UNL A   1      40.459  33.601  38.417  1.00  0.00    -0.014 A 
ATOM     81  C   UNL A   1      39.768  33.165  39.561  1.00  0.00     0.010 A 
ATOM     82  C   UNL A   1      41.245  34.765  38.490  1.00  0.00     0.010 A 
ATOM     83  C   UNL A   1      39.835  33.901  40.747  1.00  0.00     0.020 A 
ATOM     84  C   UNL A   1      41.336  35.489  39.681  1.00  0.00     0.020 A 
ATOM     85  C   UNL A   1      40.618  35.059  40.799  1.00  0.00     0.054 A 
BRANCH  85  86
ATOM     86  S   UNL A   1      40.719  35.977  42.360  1.00  0.00     0.124 S 
ATOM     87  O   UNL A   1      41.125  34.934  43.300  1.00  0.00    -0.237 OA
ATOM     88  O   UNL A   1      41.729  36.992  42.071  1.00  0.00    -0.237 OA
ATOM     89  O   UNL A   1      39.363  36.490  42.547  1.00  0.00    -0.744 OA
ENDBRANCH  85  86
ENDBRANCH  59  80
ENDBRANCH  33  34
ENDBRANCH  26  28
ENDBRANCH  25  26
ENDBRANCH   1  25
TORSDOF 16
ENDMDL
