MODEL 1
REMARK VINA RESULT:     -10.6      0.000      0.000
REMARK SMILES COc1cc(OC)cc(-c2ccc([C@@H](C)C(=O)OCCOC(=O)c3ccc(-c4c5nc(c(-c6ccc(S(=O)(=O)[O-])cc6)c6ccc([nH]6)c(-c6ccc(S(=O)(=O)[O-])cc6)c6nc(c(-c7ccc(S(=O)(=O)[O-])cc7)c7ccc4[nH]7)C=C6)C=C5)cc3)cc2F)c1
REMARK SMILES IDX 19 1 18 2 16 3 17 4 14 5 15 6 13 7 10 8 11 9 85 10 12 11
REMARK SMILES IDX 84 12 86 13 9 14 3 15 4 16 87 17 5 18 8 19 2 20 1 21 6 22
REMARK SMILES IDX 7 23 20 24 21 25 22 26 23 27 24 28 25 29 83 30 26 31 82 32
REMARK SMILES IDX 27 33 28 34 29 35 76 36 30 37 81 38 75 39 77 40 31 41 80 42
REMARK SMILES IDX 74 43 73 44 32 46 62 47 43 48 61 49 44 50 47 51 60 52 78 53
REMARK SMILES IDX 45 54 46 55 59 57 79 58 48 59 33 60 34 61 42 62 35 63 41 64
REMARK SMILES IDX 36 65 37 66 38 67 39 68 40 69 63 70 64 71 72 72 65 73 71 74
REMARK SMILES IDX 66 75 67 76 68 77 69 78 70 79 49 80 50 81 58 82 51 83 57 84
REMARK SMILES IDX 52 85 53 86 54 87 55 88 56 89
REMARK H PARENT 77 45 47 56
REMARK Flexibility Score: inf
ROOT
ATOM      1  C   UNL A   1      43.920  22.635  25.229  1.00  0.00     0.274 C 
ENDROOT
BRANCH   1   2
ATOM      2  O   UNL A   1      42.667  21.959  25.009  1.00  0.00    -0.462 OA
BRANCH   2   3
ATOM      3  C   UNL A   1      42.432  20.847  25.754  1.00  0.00     0.313 C 
ATOM      4  O   UNL A   1      42.985  19.767  25.571  1.00  0.00    -0.252 OA
BRANCH   3   5
ATOM      5  C   UNL A   1      41.357  21.037  26.817  1.00  0.00     0.126 C 
ATOM      6  C   UNL A   1      41.257  19.779  27.680  1.00  0.00     0.025 C 
BRANCH   5   7
ATOM      7  C   UNL A   1      39.999  21.506  26.314  1.00  0.00    -0.031 A 
ATOM      8  C   UNL A   1      37.439  22.407  25.454  1.00  0.00     0.018 A 
ATOM      9  C   UNL A   1      37.908  21.124  25.125  1.00  0.00     0.012 A 
ATOM     10  C   UNL A   1      38.290  23.236  26.192  1.00  0.00     0.131 A 
ATOM     11  C   UNL A   1      39.164  20.679  25.550  1.00  0.00     0.005 A 
ATOM     12  C   UNL A   1      39.542  22.797  26.624  1.00  0.00     0.044 A 
ATOM     13  F   UNL A   1      37.893  24.467  26.547  1.00  0.00    -0.206 F 
BRANCH   8  14
ATOM     14  C   UNL A   1      36.069  22.811  25.105  1.00  0.00    -0.008 A 
ATOM     15  C   UNL A   1      34.448  23.832  23.605  1.00  0.00     0.123 A 
ATOM     16  C   UNL A   1      33.436  23.578  24.537  1.00  0.00     0.092 A 
ATOM     17  C   UNL A   1      35.762  23.461  23.897  1.00  0.00     0.055 A 
ATOM     18  C   UNL A   1      33.716  22.943  25.746  1.00  0.00     0.123 A 
ATOM     19  C   UNL A   1      35.026  22.556  26.018  1.00  0.00     0.055 A 
BRANCH  15  20
ATOM     20  O   UNL A   1      34.021  24.463  22.469  1.00  0.00    -0.497 OA
ATOM     21  C   UNL A   1      33.666  25.835  22.592  1.00  0.00     0.278 C 
ENDBRANCH  15  20
BRANCH  18  22
ATOM     22  O   UNL A   1      32.641  22.749  26.569  1.00  0.00    -0.497 OA
ATOM     23  C   UNL A   1      32.930  22.478  27.936  1.00  0.00     0.278 C 
ENDBRANCH  18  22
ENDBRANCH   8  14
ENDBRANCH   5   7
ENDBRANCH   3   5
ENDBRANCH   2   3
ENDBRANCH   1   2
BRANCH   1  24
ATOM     24  C   UNL A   1      43.705  24.101  25.612  1.00  0.00     0.275 C 
BRANCH  24  25
ATOM     25  O   UNL A   1      42.399  24.312  26.178  1.00  0.00    -0.458 OA
BRANCH  25  26
ATOM     26  C   UNL A   1      41.899  25.556  25.998  1.00  0.00     0.338 C 
ATOM     27  O   UNL A   1      41.430  26.019  24.972  1.00  0.00    -0.246 OA
BRANCH  26  28
ATOM     28  C   UNL A   1      41.880  26.284  27.275  1.00  0.00     0.060 A 
ATOM     29  C   UNL A   1      40.867  25.976  28.186  1.00  0.00     0.016 A 
ATOM     30  C   UNL A   1      42.762  27.335  27.526  1.00  0.00     0.016 A 
ATOM     31  C   UNL A   1      40.697  26.745  29.331  1.00  0.00     0.010 A 
ATOM     32  C   UNL A   1      42.598  28.104  28.684  1.00  0.00     0.010 A 
ATOM     33  C   UNL A   1      41.544  27.832  29.575  1.00  0.00    -0.014 A 
BRANCH  33  34
ATOM     34  C   UNL A   1      41.251  28.735  30.713  1.00  0.00     0.031 A 
ATOM     35  C   UNL A   1      42.126  28.695  31.936  1.00  0.00     0.074 A 
ATOM     36  C   UNL A   1      40.243  29.624  30.630  1.00  0.00     0.049 A 
ATOM     37  N   UNL A   1      42.032  29.387  33.042  1.00  0.00    -0.248 NA
ATOM     38  C   UNL A   1      43.254  27.751  31.908  1.00  0.00     0.031 C 
ATOM     39  C   UNL A   1      39.355  29.791  29.478  1.00  0.00     0.029 A 
ATOM     40  N   UNL A   1      39.806  30.561  31.530  1.00  0.00    -0.354 N 
ATOM     41  C   UNL A   1      43.075  28.949  33.850  1.00  0.00     0.074 A 
ATOM     42  C   UNL A   1      43.777  27.920  33.114  1.00  0.00     0.031 C 
ATOM     43  C   UNL A   1      38.485  30.780  29.739  1.00  0.00     0.029 A 
ATOM     44  C   UNL A   1      38.732  31.293  31.084  1.00  0.00     0.049 A 
ATOM     45  H   UNL A   1      40.223  30.698  32.411  1.00  0.00     0.167 HD
ATOM     46  C   UNL A   1      43.417  29.367  35.094  1.00  0.00     0.031 A 
ATOM     47  C   UNL A   1      38.020  32.259  31.696  1.00  0.00     0.031 A 
ATOM     48  C   UNL A   1      42.720  30.393  35.823  1.00  0.00     0.049 A 
ATOM     49  C   UNL A   1      38.407  32.690  33.084  1.00  0.00     0.074 A 
ATOM     50  C   UNL A   1      42.981  30.876  37.093  1.00  0.00     0.029 A 
ATOM     51  N   UNL A   1      41.629  31.099  35.342  1.00  0.00    -0.354 N 
ATOM     52  N   UNL A   1      39.383  32.251  33.843  1.00  0.00    -0.248 NA
ATOM     53  C   UNL A   1      37.602  33.760  33.692  1.00  0.00     0.031 C 
ATOM     54  C   UNL A   1      42.028  31.858  37.391  1.00  0.00     0.029 A 
ATOM     55  C   UNL A   1      41.203  32.014  36.290  1.00  0.00     0.049 A 
ATOM     56  H   UNL A   1      41.218  30.971  34.456  1.00  0.00     0.167 HD
ATOM     57  C   UNL A   1      39.323  33.005  35.009  1.00  0.00     0.074 A 
ATOM     58  C   UNL A   1      38.225  33.938  34.849  1.00  0.00     0.031 C 
ATOM     59  C   UNL A   1      40.109  32.935  36.112  1.00  0.00     0.031 A 
BRANCH  46  60
ATOM     60  C   UNL A   1      44.579  28.676  35.754  1.00  0.00    -0.014 A 
ATOM     61  C   UNL A   1      45.889  29.172  35.631  1.00  0.00     0.010 A 
ATOM     62  C   UNL A   1      44.354  27.516  36.518  1.00  0.00     0.010 A 
ATOM     63  C   UNL A   1      46.959  28.497  36.225  1.00  0.00     0.020 A 
ATOM     64  C   UNL A   1      45.418  26.851  37.132  1.00  0.00     0.020 A 
ATOM     65  C   UNL A   1      46.717  27.335  36.964  1.00  0.00     0.054 A 
BRANCH  65  66
ATOM     66  S   UNL A   1      48.120  26.473  37.728  1.00  0.00     0.124 S 
ATOM     67  O   UNL A   1      48.424  25.452  36.729  1.00  0.00    -0.237 OA
ATOM     68  O   UNL A   1      49.115  27.533  37.866  1.00  0.00    -0.237 OA
ATOM     69  O   UNL A   1      47.573  25.970  38.986  1.00  0.00    -0.744 OA
ENDBRANCH  65  66
ENDBRANCH  46  60
BRANCH  47  70
ATOM     70  C   UNL A   1      36.865  32.881  30.998  1.00  0.00    -0.014 A 
ATOM     71  C   UNL A   1      35.548  32.521  31.327  1.00  0.00     0.010 A 
ATOM     72  C   UNL A   1      37.081  33.852  30.001  1.00  0.00     0.010 A 
ATOM     73  C   UNL A   1      34.466  33.107  30.663  1.00  0.00     0.020 A 
ATOM     74  C   UNL A   1      36.002  34.457  29.352  1.00  0.00     0.020 A 
ATOM     75  C   UNL A   1      34.701  34.072  29.679  1.00  0.00     0.054 A 
BRANCH  75  76
ATOM     76  S   UNL A   1      33.286  34.865  28.866  1.00  0.00     0.124 S 
ATOM     77  O   UNL A   1      32.849  33.827  27.938  1.00  0.00    -0.237 OA
ATOM     78  O   UNL A   1      32.385  35.134  29.984  1.00  0.00    -0.237 OA
ATOM     79  O   UNL A   1      33.870  36.053  28.250  1.00  0.00    -0.744 OA
ENDBRANCH  75  76
ENDBRANCH  47  70
BRANCH  59  80
ATOM     80  C   UNL A   1      39.833  33.922  37.213  1.00  0.00    -0.014 A 
ATOM     81  C   UNL A   1      39.065  33.569  38.336  1.00  0.00     0.010 A 
ATOM     82  C   UNL A   1      40.369  35.221  37.126  1.00  0.00     0.010 A 
ATOM     83  C   UNL A   1      38.801  34.512  39.334  1.00  0.00     0.020 A 
ATOM     84  C   UNL A   1      40.125  36.157  38.133  1.00  0.00     0.020 A 
ATOM     85  C   UNL A   1      39.325  35.804  39.221  1.00  0.00     0.054 A 
BRANCH  85  86
ATOM     86  S   UNL A   1      38.982  37.010  40.531  1.00  0.00     0.124 S 
ATOM     87  O   UNL A   1      38.295  38.068  39.796  1.00  0.00    -0.237 OA
ATOM     88  O   UNL A   1      38.151  36.251  41.464  1.00  0.00    -0.237 OA
ATOM     89  O   UNL A   1      40.309  37.358  41.034  1.00  0.00    -0.744 OA
ENDBRANCH  85  86
ENDBRANCH  59  80
ENDBRANCH  33  34
ENDBRANCH  26  28
ENDBRANCH  25  26
ENDBRANCH  24  25
ENDBRANCH   1  24
TORSDOF 18
ENDMDL
MODEL 2
REMARK VINA RESULT:     -10.5      0.944      8.285
REMARK SMILES COc1cc(OC)cc(-c2ccc([C@@H](C)C(=O)OCCOC(=O)c3ccc(-c4c5nc(c(-c6ccc(S(=O)(=O)[O-])cc6)c6ccc([nH]6)c(-c6ccc(S(=O)(=O)[O-])cc6)c6nc(c(-c7ccc(S(=O)(=O)[O-])cc7)c7ccc4[nH]7)C=C6)C=C5)cc3)cc2F)c1
REMARK SMILES IDX 19 1 18 2 16 3 17 4 14 5 15 6 13 7 10 8 11 9 85 10 12 11
REMARK SMILES IDX 84 12 86 13 9 14 3 15 4 16 87 17 5 18 8 19 2 20 1 21 6 22
REMARK SMILES IDX 7 23 20 24 21 25 22 26 23 27 24 28 25 29 83 30 26 31 82 32
REMARK SMILES IDX 27 33 28 34 29 35 76 36 30 37 81 38 75 39 77 40 31 41 80 42
REMARK SMILES IDX 74 43 73 44 32 46 62 47 43 48 61 49 44 50 47 51 60 52 78 53
REMARK SMILES IDX 45 54 46 55 59 57 79 58 48 59 33 60 34 61 42 62 35 63 41 64
REMARK SMILES IDX 36 65 37 66 38 67 39 68 40 69 63 70 64 71 72 72 65 73 71 74
REMARK SMILES IDX 66 75 67 76 68 77 69 78 70 79 49 80 50 81 58 82 51 83 57 84
REMARK SMILES IDX 52 85 53 86 54 87 55 88 56 89
REMARK H PARENT 77 45 47 56
REMARK Flexibility Score: inf
ROOT
ATOM      1  C   UNL A   1      43.996  23.057  25.415  1.00  0.00     0.274 C 
ENDROOT
BRANCH   1   2
ATOM      2  O   UNL A   1      42.671  22.629  25.048  1.00  0.00    -0.462 OA
BRANCH   2   3
ATOM      3  C   UNL A   1      42.095  21.681  25.832  1.00  0.00     0.313 C 
ATOM      4  O   UNL A   1      42.276  20.475  25.700  1.00  0.00    -0.252 OA
BRANCH   3   5
ATOM      5  C   UNL A   1      41.133  22.247  26.871  1.00  0.00     0.126 C 
ATOM      6  C   UNL A   1      41.250  21.450  28.171  1.00  0.00     0.025 C 
BRANCH   5   7
ATOM      7  C   UNL A   1      39.689  22.414  26.420  1.00  0.00    -0.031 A 
ATOM      8  C   UNL A   1      37.008  22.691  25.501  1.00  0.00     0.018 A 
ATOM      9  C   UNL A   1      37.708  23.780  26.045  1.00  0.00     0.012 A 
ATOM     10  C   UNL A   1      37.667  21.458  25.458  1.00  0.00     0.131 A 
ATOM     11  C   UNL A   1      39.027  23.647  26.493  1.00  0.00     0.005 A 
ATOM     12  C   UNL A   1      38.983  21.318  25.899  1.00  0.00     0.044 A 
ATOM     13  F   UNL A   1      37.055  20.382  24.940  1.00  0.00    -0.206 F 
BRANCH   8  14
ATOM     14  C   UNL A   1      35.670  22.878  24.921  1.00  0.00    -0.008 A 
ATOM     15  C   UNL A   1      33.294  22.370  24.797  1.00  0.00     0.123 A 
ATOM     16  C   UNL A   1      33.164  23.273  23.737  1.00  0.00     0.092 A 
ATOM     17  C   UNL A   1      34.547  22.166  25.378  1.00  0.00     0.055 A 
ATOM     18  C   UNL A   1      34.263  23.985  23.261  1.00  0.00     0.123 A 
ATOM     19  C   UNL A   1      35.505  23.791  23.861  1.00  0.00     0.055 A 
BRANCH  15  20
ATOM     20  O   UNL A   1      32.129  21.746  25.151  1.00  0.00    -0.497 OA
ATOM     21  C   UNL A   1      31.073  22.577  25.618  1.00  0.00     0.278 C 
ENDBRANCH  15  20
BRANCH  18  22
ATOM     22  O   UNL A   1      34.004  24.838  22.224  1.00  0.00    -0.497 OA
ATOM     23  C   UNL A   1      32.634  25.062  21.913  1.00  0.00     0.278 C 
ENDBRANCH  18  22
ENDBRANCH   8  14
ENDBRANCH   5   7
ENDBRANCH   3   5
ENDBRANCH   2   3
ENDBRANCH   1   2
BRANCH   1  24
ATOM     24  C   UNL A   1      44.028  24.548  25.759  1.00  0.00     0.275 C 
BRANCH  24  25
ATOM     25  O   UNL A   1      42.938  24.912  26.625  1.00  0.00    -0.458 OA
BRANCH  25  26
ATOM     26  C   UNL A   1      42.115  25.864  26.128  1.00  0.00     0.338 C 
ATOM     27  O   UNL A   1      41.719  25.967  24.979  1.00  0.00    -0.246 OA
BRANCH  26  28
ATOM     28  C   UNL A   1      41.635  26.736  27.211  1.00  0.00     0.060 A 
ATOM     29  C   UNL A   1      42.145  28.035  27.275  1.00  0.00     0.016 A 
ATOM     30  C   UNL A   1      40.798  26.252  28.216  1.00  0.00     0.016 A 
ATOM     31  C   UNL A   1      41.860  28.845  28.368  1.00  0.00     0.010 A 
ATOM     32  C   UNL A   1      40.502  27.071  29.312  1.00  0.00     0.010 A 
ATOM     33  C   UNL A   1      41.059  28.359  29.408  1.00  0.00    -0.014 A 
BRANCH  33  34
ATOM     34  C   UNL A   1      40.898  29.174  30.636  1.00  0.00     0.031 A 
ATOM     35  C   UNL A   1      39.791  30.189  30.711  1.00  0.00     0.074 A 
ATOM     36  C   UNL A   1      41.700  28.966  31.697  1.00  0.00     0.049 A 
ATOM     37  N   UNL A   1      39.489  31.011  31.682  1.00  0.00    -0.248 NA
ATOM     38  C   UNL A   1      38.910  30.293  29.537  1.00  0.00     0.031 C 
ATOM     39  C   UNL A   1      42.777  27.977  31.762  1.00  0.00     0.029 A 
ATOM     40  N   UNL A   1      41.723  29.570  32.927  1.00  0.00    -0.354 N 
ATOM     41  C   UNL A   1      38.396  31.744  31.231  1.00  0.00     0.074 A 
ATOM     42  C   UNL A   1      38.101  31.281  29.892  1.00  0.00     0.031 C 
ATOM     43  C   UNL A   1      43.349  28.036  32.976  1.00  0.00     0.029 A 
ATOM     44  C   UNL A   1      42.703  29.086  33.760  1.00  0.00     0.049 A 
ATOM     45  H   UNL A   1      41.096  30.282  33.191  1.00  0.00     0.167 HD
ATOM     46  C   UNL A   1      37.702  32.715  31.874  1.00  0.00     0.031 A 
ATOM     47  C   UNL A   1      43.049  29.455  35.008  1.00  0.00     0.031 A 
ATOM     48  C   UNL A   1      37.994  33.171  33.206  1.00  0.00     0.049 A 
ATOM     49  C   UNL A   1      42.275  30.549  35.692  1.00  0.00     0.074 A 
ATOM     50  C   UNL A   1      37.357  34.158  33.939  1.00  0.00     0.029 A 
ATOM     51  N   UNL A   1      39.003  32.665  34.010  1.00  0.00    -0.354 N 
ATOM     52  N   UNL A   1      41.259  31.246  35.243  1.00  0.00    -0.248 NA
ATOM     53  C   UNL A   1      42.689  30.896  37.059  1.00  0.00     0.031 C 
ATOM     54  C   UNL A   1      38.002  34.268  35.177  1.00  0.00     0.029 A 
ATOM     55  C   UNL A   1      39.010  33.319  35.230  1.00  0.00     0.049 A 
ATOM     56  H   UNL A   1      39.624  31.944  33.752  1.00  0.00     0.167 HD
ATOM     57  C   UNL A   1      40.897  32.099  36.279  1.00  0.00     0.074 A 
ATOM     58  C   UNL A   1      41.795  31.819  37.383  1.00  0.00     0.031 C 
ATOM     59  C   UNL A   1      39.909  33.026  36.317  1.00  0.00     0.031 A 
BRANCH  46  60
ATOM     60  C   UNL A   1      36.581  33.372  31.116  1.00  0.00    -0.014 A 
ATOM     61  C   UNL A   1      36.768  33.852  29.807  1.00  0.00     0.010 A 
ATOM     62  C   UNL A   1      35.318  33.504  31.721  1.00  0.00     0.010 A 
ATOM     63  C   UNL A   1      35.724  34.489  29.132  1.00  0.00     0.020 A 
ATOM     64  C   UNL A   1      34.264  34.121  31.041  1.00  0.00     0.020 A 
ATOM     65  C   UNL A   1      34.481  34.628  29.757  1.00  0.00     0.054 A 
BRANCH  65  66
ATOM     66  S   UNL A   1      33.137  35.458  28.865  1.00  0.00     0.124 S 
ATOM     67  O   UNL A   1      33.867  36.448  28.077  1.00  0.00    -0.237 OA
ATOM     68  O   UNL A   1      32.533  34.369  28.101  1.00  0.00    -0.237 OA
ATOM     69  O   UNL A   1      32.300  36.005  29.930  1.00  0.00    -0.744 OA
ENDBRANCH  65  66
ENDBRANCH  46  60
BRANCH  47  70
ATOM     70  C   UNL A   1      44.186  28.783  35.690  1.00  0.00    -0.014 A 
ATOM     71  C   UNL A   1      43.964  27.704  36.562  1.00  0.00     0.010 A 
ATOM     72  C   UNL A   1      45.504  29.220  35.461  1.00  0.00     0.010 A 
ATOM     73  C   UNL A   1      45.038  27.080  37.204  1.00  0.00     0.020 A 
ATOM     74  C   UNL A   1      46.582  28.584  36.083  1.00  0.00     0.020 A 
ATOM     75  C   UNL A   1      46.341  27.525  36.960  1.00  0.00     0.054 A 
BRANCH  75  76
ATOM     76  S   UNL A   1      47.728  26.669  37.757  1.00  0.00     0.124 S 
ATOM     77  O   UNL A   1      48.512  26.228  36.609  1.00  0.00    -0.237 OA
ATOM     78  O   UNL A   1      48.331  27.726  38.567  1.00  0.00    -0.237 OA
ATOM     79  O   UNL A   1      47.078  25.607  38.520  1.00  0.00    -0.744 OA
ENDBRANCH  75  76
ENDBRANCH  47  70
BRANCH  59  80
ATOM     80  C   UNL A   1      39.723  33.776  37.608  1.00  0.00    -0.014 A 
ATOM     81  C   UNL A   1      38.865  33.298  38.613  1.00  0.00     0.010 A 
ATOM     82  C   UNL A   1      40.436  34.971  37.821  1.00  0.00     0.010 A 
ATOM     83  C   UNL A   1      38.689  34.026  39.794  1.00  0.00     0.020 A 
ATOM     84  C   UNL A   1      40.279  35.688  39.009  1.00  0.00     0.020 A 
ATOM     85  C   UNL A   1      39.391  35.221  39.980  1.00  0.00     0.054 A 
BRANCH  85  86
ATOM     86  S   UNL A   1      39.160  36.146  41.524  1.00  0.00     0.124 S 
ATOM     87  O   UNL A   1      37.923  35.568  42.041  1.00  0.00    -0.237 OA
ATOM     88  O   UNL A   1      40.368  35.824  42.280  1.00  0.00    -0.237 OA
ATOM     89  O   UNL A   1      39.064  37.535  41.081  1.00  0.00    -0.744 OA
ENDBRANCH  85  86
ENDBRANCH  59  80
ENDBRANCH  33  34
ENDBRANCH  26  28
ENDBRANCH  25  26
ENDBRANCH  24  25
ENDBRANCH   1  24
TORSDOF 18
ENDMDL
MODEL 3
REMARK VINA RESULT:     -10.5      2.331      3.669
REMARK SMILES COc1cc(OC)cc(-c2ccc([C@@H](C)C(=O)OCCOC(=O)c3ccc(-c4c5nc(c(-c6ccc(S(=O)(=O)[O-])cc6)c6ccc([nH]6)c(-c6ccc(S(=O)(=O)[O-])cc6)c6nc(c(-c7ccc(S(=O)(=O)[O-])cc7)c7ccc4[nH]7)C=C6)C=C5)cc3)cc2F)c1
REMARK SMILES IDX 19 1 18 2 16 3 17 4 14 5 15 6 13 7 10 8 11 9 85 10 12 11
REMARK SMILES IDX 84 12 86 13 9 14 3 15 4 16 87 17 5 18 8 19 2 20 1 21 6 22
REMARK SMILES IDX 7 23 20 24 21 25 22 26 23 27 24 28 25 29 83 30 26 31 82 32
REMARK SMILES IDX 27 33 28 34 29 35 76 36 30 37 81 38 75 39 77 40 31 41 80 42
REMARK SMILES IDX 74 43 73 44 32 46 62 47 43 48 61 49 44 50 47 51 60 52 78 53
REMARK SMILES IDX 45 54 46 55 59 57 79 58 48 59 33 60 34 61 42 62 35 63 41 64
REMARK SMILES IDX 36 65 37 66 38 67 39 68 40 69 63 70 64 71 72 72 65 73 71 74
REMARK SMILES IDX 66 75 67 76 68 77 69 78 70 79 49 80 50 81 58 82 51 83 57 84
REMARK SMILES IDX 52 85 53 86 54 87 55 88 56 89
REMARK H PARENT 77 45 47 56
REMARK Flexibility Score: inf
ROOT
ATOM      1  C   UNL A   1      39.111  22.232  26.245  1.00  0.00     0.274 C 
ENDROOT
BRANCH   1   2
ATOM      2  O   UNL A   1      37.766  22.642  25.937  1.00  0.00    -0.462 OA
BRANCH   2   3
ATOM      3  C   UNL A   1      37.007  21.767  25.227  1.00  0.00     0.313 C 
ATOM      4  O   UNL A   1      37.437  21.061  24.320  1.00  0.00    -0.252 OA
BRANCH   3   5
ATOM      5  C   UNL A   1      35.532  21.780  25.613  1.00  0.00     0.126 C 
ATOM      6  C   UNL A   1      34.796  20.660  24.878  1.00  0.00     0.025 C 
BRANCH   5   7
ATOM      7  C   UNL A   1      34.824  23.121  25.487  1.00  0.00    -0.031 A 
ATOM      8  C   UNL A   1      33.422  25.588  25.254  1.00  0.00     0.018 A 
ATOM      9  C   UNL A   1      34.448  25.246  24.359  1.00  0.00     0.012 A 
ATOM     10  C   UNL A   1      33.137  24.686  26.284  1.00  0.00     0.131 A 
ATOM     11  C   UNL A   1      35.135  24.033  24.469  1.00  0.00     0.005 A 
ATOM     12  C   UNL A   1      33.814  23.471  26.398  1.00  0.00     0.044 A 
ATOM     13  F   UNL A   1      32.160  24.951  27.164  1.00  0.00    -0.206 F 
BRANCH   8  14
ATOM     14  C   UNL A   1      32.628  26.809  25.048  1.00  0.00    -0.008 A 
ATOM     15  C   UNL A   1      32.208  29.181  25.395  1.00  0.00     0.123 A 
ATOM     16  C   UNL A   1      31.039  29.077  24.633  1.00  0.00     0.092 A 
ATOM     17  C   UNL A   1      32.992  28.045  25.612  1.00  0.00     0.055 A 
ATOM     18  C   UNL A   1      30.653  27.862  24.071  1.00  0.00     0.123 A 
ATOM     19  C   UNL A   1      31.453  26.739  24.274  1.00  0.00     0.055 A 
BRANCH  15  20
ATOM     20  O   UNL A   1      32.453  30.435  25.881  1.00  0.00    -0.497 OA
ATOM     21  C   UNL A   1      32.958  30.521  27.208  1.00  0.00     0.278 C 
ENDBRANCH  15  20
BRANCH  18  22
ATOM     22  O   UNL A   1      29.494  27.892  23.346  1.00  0.00    -0.497 OA
ATOM     23  C   UNL A   1      29.299  29.028  22.511  1.00  0.00     0.278 C 
ENDBRANCH  18  22
ENDBRANCH   8  14
ENDBRANCH   5   7
ENDBRANCH   3   5
ENDBRANCH   2   3
ENDBRANCH   1   2
BRANCH   1  24
ATOM     24  C   UNL A   1      39.872  23.326  26.999  1.00  0.00     0.275 C 
BRANCH  24  25
ATOM     25  O   UNL A   1      39.136  24.563  27.015  1.00  0.00    -0.458 OA
BRANCH  25  26
ATOM     26  C   UNL A   1      39.893  25.673  26.857  1.00  0.00     0.338 C 
ATOM     27  O   UNL A   1      40.590  25.957  25.898  1.00  0.00    -0.246 OA
BRANCH  26  28
ATOM     28  C   UNL A   1      39.678  26.597  27.980  1.00  0.00     0.060 A 
ATOM     29  C   UNL A   1      40.338  27.827  27.947  1.00  0.00     0.016 A 
ATOM     30  C   UNL A   1      38.942  26.217  29.102  1.00  0.00     0.016 A 
ATOM     31  C   UNL A   1      40.308  28.667  29.055  1.00  0.00     0.010 A 
ATOM     32  C   UNL A   1      38.902  27.067  30.214  1.00  0.00     0.010 A 
ATOM     33  C   UNL A   1      39.613  28.281  30.207  1.00  0.00    -0.014 A 
BRANCH  33  34
ATOM     34  C   UNL A   1      39.724  29.111  31.429  1.00  0.00     0.031 A 
ATOM     35  C   UNL A   1      40.870  28.885  32.377  1.00  0.00     0.074 A 
ATOM     36  C   UNL A   1      38.838  30.098  31.661  1.00  0.00     0.049 A 
ATOM     37  N   UNL A   1      41.141  29.489  33.505  1.00  0.00    -0.248 NA
ATOM     38  C   UNL A   1      41.837  27.840  32.004  1.00  0.00     0.031 C 
ATOM     39  C   UNL A   1      37.713  30.445  30.792  1.00  0.00     0.029 A 
ATOM     40  N   UNL A   1      38.756  30.996  32.694  1.00  0.00    -0.354 N 
ATOM     41  C   UNL A   1      42.297  28.886  33.988  1.00  0.00     0.074 A 
ATOM     42  C   UNL A   1      42.665  27.858  33.039  1.00  0.00     0.031 C 
ATOM     43  C   UNL A   1      37.058  31.491  31.325  1.00  0.00     0.029 A 
ATOM     44  C   UNL A   1      37.696  31.864  32.585  1.00  0.00     0.049 A 
ATOM     45  H   UNL A   1      39.395  31.018  33.442  1.00  0.00     0.167 HD
ATOM     46  C   UNL A   1      42.989  29.164  35.120  1.00  0.00     0.031 A 
ATOM     47  C   UNL A   1      37.279  32.841  33.413  1.00  0.00     0.031 A 
ATOM     48  C   UNL A   1      42.624  30.190  36.060  1.00  0.00     0.049 A 
ATOM     49  C   UNL A   1      38.053  33.116  34.673  1.00  0.00     0.074 A 
ATOM     50  C   UNL A   1      43.253  30.539  37.243  1.00  0.00     0.029 A 
ATOM     51  N   UNL A   1      41.536  31.037  35.920  1.00  0.00    -0.354 N 
ATOM     52  N   UNL A   1      39.132  32.522  35.126  1.00  0.00    -0.248 NA
ATOM     53  C   UNL A   1      37.558  34.205  35.528  1.00  0.00     0.031 C 
ATOM     54  C   UNL A   1      42.527  31.581  37.833  1.00  0.00     0.029 A 
ATOM     55  C   UNL A   1      41.473  31.908  36.995  1.00  0.00     0.049 A 
ATOM     56  H   UNL A   1      40.902  31.023  35.167  1.00  0.00     0.167 HD
ATOM     57  C   UNL A   1      39.458  33.179  36.306  1.00  0.00     0.074 A 
ATOM     58  C   UNL A   1      38.471  34.225  36.490  1.00  0.00     0.031 C 
ATOM     59  C   UNL A   1      40.485  32.942  37.160  1.00  0.00     0.031 A 
BRANCH  46  60
ATOM     60  C   UNL A   1      44.192  28.311  35.415  1.00  0.00    -0.014 A 
ATOM     61  C   UNL A   1      45.474  28.674  34.962  1.00  0.00     0.010 A 
ATOM     62  C   UNL A   1      44.040  27.131  36.166  1.00  0.00     0.010 A 
ATOM     63  C   UNL A   1      46.574  27.851  35.218  1.00  0.00     0.020 A 
ATOM     64  C   UNL A   1      45.141  26.317  36.444  1.00  0.00     0.020 A 
ATOM     65  C   UNL A   1      46.398  26.672  35.950  1.00  0.00     0.054 A 
BRANCH  65  66
ATOM     66  S   UNL A   1      47.838  25.617  36.273  1.00  0.00     0.124 S 
ATOM     67  O   UNL A   1      47.206  24.346  36.621  1.00  0.00    -0.237 OA
ATOM     68  O   UNL A   1      48.548  25.637  34.997  1.00  0.00    -0.237 OA
ATOM     69  O   UNL A   1      48.522  26.293  37.373  1.00  0.00    -0.744 OA
ENDBRANCH  65  66
ENDBRANCH  46  60
BRANCH  47  70
ATOM     70  C   UNL A   1      36.065  33.629  33.076  1.00  0.00    -0.014 A 
ATOM     71  C   UNL A   1      36.175  34.921  32.537  1.00  0.00     0.010 A 
ATOM     72  C   UNL A   1      34.786  33.080  33.287  1.00  0.00     0.010 A 
ATOM     73  C   UNL A   1      35.027  35.659  32.227  1.00  0.00     0.020 A 
ATOM     74  C   UNL A   1      33.638  33.805  32.956  1.00  0.00     0.020 A 
ATOM     75  C   UNL A   1      33.766  35.095  32.439  1.00  0.00     0.054 A 
BRANCH  75  76
ATOM     76  S   UNL A   1      32.288  36.043  31.979  1.00  0.00     0.124 S 
ATOM     77  O   UNL A   1      32.337  35.992  30.522  1.00  0.00    -0.237 OA
ATOM     78  O   UNL A   1      31.212  35.277  32.604  1.00  0.00    -0.237 OA
ATOM     79  O   UNL A   1      32.530  37.356  32.571  1.00  0.00    -0.744 OA
ENDBRANCH  75  76
ENDBRANCH  47  70
BRANCH  59  80
ATOM     80  C   UNL A   1      40.613  33.858  38.347  1.00  0.00    -0.014 A 
ATOM     81  C   UNL A   1      39.936  33.594  39.550  1.00  0.00     0.010 A 
ATOM     82  C   UNL A   1      41.442  34.991  38.257  1.00  0.00     0.010 A 
ATOM     83  C   UNL A   1      40.051  34.473  40.630  1.00  0.00     0.020 A 
ATOM     84  C   UNL A   1      41.576  35.859  39.343  1.00  0.00     0.020 A 
ATOM     85  C   UNL A   1      40.864  35.606  40.517  1.00  0.00     0.054 A 
BRANCH  85  86
ATOM     86  S   UNL A   1      41.011  36.729  41.933  1.00  0.00     0.124 S 
ATOM     87  O   UNL A   1      39.673  37.309  42.000  1.00  0.00    -0.237 OA
ATOM     88  O   UNL A   1      41.361  35.827  43.029  1.00  0.00    -0.237 OA
ATOM     89  O   UNL A   1      42.072  37.650  41.533  1.00  0.00    -0.744 OA
ENDBRANCH  85  86
ENDBRANCH  59  80
ENDBRANCH  33  34
ENDBRANCH  26  28
ENDBRANCH  25  26
ENDBRANCH  24  25
ENDBRANCH   1  24
TORSDOF 18
ENDMDL
