MODEL 1
REMARK VINA RESULT:     -11.5      0.000      0.000
REMARK SMILES Cc1nc[nH]c1C(=O)[NH+]1CCC2(CC1)C[C@@H](C(=O)OCCOC(=O)c1ccc(-c3c4nc(c(-c5ccc(S(=O)(=O)[O-])cc5)c5ccc([nH]5)c(-c5ccc(S(=O)(=O)[O-])cc5)c5nc(c(-c6ccc(S(=O)(=O)[O-])cc6)c6ccc3[nH]6)C=C5)C=C4)cc1)N(C(=O)C1CC1)C2
REMARK SMILES IDX 21 1 20 2 19 3 17 4 18 5 16 6 9 7 10 8 14 9 11 11 13 12
REMARK SMILES IDX 12 13 15 14 91 15 85 16 7 17 8 18 6 19 1 20 2 21 3 22 4 23
REMARK SMILES IDX 5 24 86 26 87 27 88 28 89 29 90 30 22 31 23 32 24 33 25 34
REMARK SMILES IDX 26 35 84 36 27 37 83 38 28 39 29 40 30 41 77 42 31 43 82 44
REMARK SMILES IDX 76 45 78 46 32 47 81 48 75 49 74 50 33 52 63 53 44 54 62 55
REMARK SMILES IDX 45 56 48 57 61 58 79 59 46 60 47 61 60 63 80 64 49 65 34 66
REMARK SMILES IDX 35 67 43 68 36 69 42 70 37 71 38 72 39 73 40 74 41 75 64 76
REMARK SMILES IDX 65 77 73 78 66 79 72 80 67 81 68 82 69 83 70 84 71 85 50 86
REMARK SMILES IDX 51 87 59 88 52 89 58 90 53 91 54 92 55 93 56 94 57 95
REMARK H PARENT 9 10 5 25 78 51 48 62
REMARK Flexibility Score: inf
ROOT
ATOM      1  C   UNL A   1      32.169  32.824  27.354  1.00  0.00     0.275 C 
ENDROOT
BRANCH   1   2
ATOM      2  C   UNL A   1      32.682  31.445  26.944  1.00  0.00     0.274 C 
BRANCH   2   3
ATOM      3  O   UNL A   1      31.711  30.749  26.137  1.00  0.00    -0.461 OA
BRANCH   3   4
ATOM      4  C   UNL A   1      32.177  29.665  25.455  1.00  0.00     0.328 C 
ATOM      5  O   UNL A   1      33.297  29.592  24.959  1.00  0.00    -0.250 OA
BRANCH   4   6
ATOM      6  C   UNL A   1      31.139  28.543  25.305  1.00  0.00     0.195 C 
ATOM      7  N   UNL A   1      33.818  24.047  26.137  1.00  0.00    -0.266 N 
ATOM      8  C   UNL A   1      32.512  23.871  25.536  1.00  0.00     0.271 C 
ATOM      9  C   UNL A   1      34.534  25.254  25.745  1.00  0.00     0.271 C 
ATOM     10  H   UNL A   1      33.323  24.853  26.412  1.00  0.00     0.357 HD
ATOM     11  C   UNL A   1      31.633  25.009  26.013  1.00  0.00     0.071 C 
ATOM     12  C   UNL A   1      33.705  26.521  25.967  1.00  0.00     0.071 C 
ATOM     13  C   UNL A   1      32.205  26.384  25.607  1.00  0.00     0.001 C 
ATOM     14  C   UNL A   1      31.378  27.464  26.338  1.00  0.00     0.046 C 
ATOM     15  C   UNL A   1      31.957  26.647  24.103  1.00  0.00     0.128 C 
ATOM     16  N   UNL A   1      31.119  27.822  24.040  1.00  0.00    -0.328 N 
BRANCH   7  17
ATOM     17  C   UNL A   1      34.408  22.943  26.727  1.00  0.00     0.362 C 
ATOM     18  O   UNL A   1      34.180  22.668  27.906  1.00  0.00    -0.224 OA
BRANCH  17  19
ATOM     19  C   UNL A   1      35.371  22.173  25.979  1.00  0.00     0.167 A 
ATOM     20  C   UNL A   1      37.646  23.448  25.799  1.00  0.00     0.069 C 
ATOM     21  C   UNL A   1      36.694  22.336  25.591  1.00  0.00     0.072 A 
ATOM     22  N   UNL A   1      37.164  21.194  24.974  1.00  0.00    -0.241 NA
ATOM     23  C   UNL A   1      36.190  20.323  25.046  1.00  0.00     0.197 A 
ATOM     24  N   UNL A   1      35.091  20.866  25.633  1.00  0.00    -0.337 N 
ATOM     25  H   UNL A   1      34.237  20.404  25.785  1.00  0.00     0.168 HD
ENDBRANCH  17  19
ENDBRANCH   7  17
BRANCH  16  26
ATOM     26  C   UNL A   1      30.255  28.234  23.044  1.00  0.00     0.226 C 
ATOM     27  O   UNL A   1      30.415  27.855  21.886  1.00  0.00    -0.275 OA
BRANCH  26  28
ATOM     28  C   UNL A   1      29.108  29.153  23.290  1.00  0.00     0.079 C 
ATOM     29  C   UNL A   1      28.276  29.962  22.336  1.00  0.00     0.014 C 
ATOM     30  C   UNL A   1      27.704  28.709  22.937  1.00  0.00     0.014 C 
ENDBRANCH  26  28
ENDBRANCH  16  26
ENDBRANCH   4   6
ENDBRANCH   3   4
ENDBRANCH   2   3
ENDBRANCH   1   2
BRANCH   1  31
ATOM     31  O   UNL A   1      33.267  33.727  27.562  1.00  0.00    -0.458 OA
BRANCH  31  32
ATOM     32  C   UNL A   1      33.401  34.178  28.834  1.00  0.00     0.338 C 
ATOM     33  O   UNL A   1      32.638  34.908  29.439  1.00  0.00    -0.246 OA
BRANCH  32  34
ATOM     34  C   UNL A   1      34.635  33.618  29.407  1.00  0.00     0.060 A 
ATOM     35  C   UNL A   1      34.542  32.584  30.337  1.00  0.00     0.016 A 
ATOM     36  C   UNL A   1      35.872  34.178  29.100  1.00  0.00     0.016 A 
ATOM     37  C   UNL A   1      35.670  32.140  31.016  1.00  0.00     0.010 A 
ATOM     38  C   UNL A   1      37.016  33.693  29.741  1.00  0.00     0.010 A 
ATOM     39  C   UNL A   1      36.920  32.690  30.723  1.00  0.00    -0.014 A 
BRANCH  39  40
ATOM     40  C   UNL A   1      38.115  32.256  31.487  1.00  0.00     0.031 A 
ATOM     41  C   UNL A   1      38.991  31.166  30.936  1.00  0.00     0.074 A 
ATOM     42  C   UNL A   1      38.420  32.846  32.658  1.00  0.00     0.049 A 
ATOM     43  N   UNL A   1      39.981  30.534  31.511  1.00  0.00    -0.248 NA
ATOM     44  C   UNL A   1      38.711  30.725  29.559  1.00  0.00     0.031 C 
ATOM     45  C   UNL A   1      37.686  33.960  33.263  1.00  0.00     0.029 A 
ATOM     46  N   UNL A   1      39.428  32.587  33.552  1.00  0.00    -0.354 N 
ATOM     47  C   UNL A   1      40.410  29.588  30.587  1.00  0.00     0.074 A 
ATOM     48  C   UNL A   1      39.573  29.728  29.415  1.00  0.00     0.031 C 
ATOM     49  C   UNL A   1      38.273  34.295  34.423  1.00  0.00     0.029 A 
ATOM     50  C   UNL A   1      39.379  33.377  34.676  1.00  0.00     0.049 A 
ATOM     51  H   UNL A   1      40.120  31.904  33.401  1.00  0.00     0.167 HD
ATOM     52  C   UNL A   1      41.408  28.681  30.713  1.00  0.00     0.031 A 
ATOM     53  C   UNL A   1      40.116  33.339  35.803  1.00  0.00     0.031 A 
ATOM     54  C   UNL A   1      42.251  28.570  31.874  1.00  0.00     0.049 A 
ATOM     55  C   UNL A   1      41.189  32.297  35.938  1.00  0.00     0.074 A 
ATOM     56  C   UNL A   1      43.295  27.689  32.100  1.00  0.00     0.029 A 
ATOM     57  N   UNL A   1      42.155  29.373  33.000  1.00  0.00    -0.354 N 
ATOM     58  N   UNL A   1      41.556  31.378  35.077  1.00  0.00    -0.248 NA
ATOM     59  C   UNL A   1      41.943  32.279  37.199  1.00  0.00     0.031 C 
ATOM     60  C   UNL A   1      43.803  27.934  33.380  1.00  0.00     0.029 A 
ATOM     61  C   UNL A   1      43.108  29.000  33.932  1.00  0.00     0.049 A 
ATOM     62  H   UNL A   1      41.503  30.103  33.120  1.00  0.00     0.167 HD
ATOM     63  C   UNL A   1      42.592  30.680  35.685  1.00  0.00     0.074 A 
ATOM     64  C   UNL A   1      42.805  31.294  36.980  1.00  0.00     0.031 C 
ATOM     65  C   UNL A   1      43.300  29.624  35.216  1.00  0.00     0.031 A 
BRANCH  52  66
ATOM     66  C   UNL A   1      41.607  27.704  29.585  1.00  0.00    -0.014 A 
ATOM     67  C   UNL A   1      40.713  26.642  29.365  1.00  0.00     0.010 A 
ATOM     68  C   UNL A   1      42.699  27.873  28.714  1.00  0.00     0.010 A 
ATOM     69  C   UNL A   1      40.928  25.746  28.313  1.00  0.00     0.020 A 
ATOM     70  C   UNL A   1      42.905  26.993  27.648  1.00  0.00     0.020 A 
ATOM     71  C   UNL A   1      42.027  25.923  27.464  1.00  0.00     0.054 A 
BRANCH  71  72
ATOM     72  S   UNL A   1      42.274  24.759  26.096  1.00  0.00     0.124 S 
ATOM     73  O   UNL A   1      42.070  25.616  24.930  1.00  0.00    -0.237 OA
ATOM     74  O   UNL A   1      43.646  24.301  26.304  1.00  0.00    -0.237 OA
ATOM     75  O   UNL A   1      41.244  23.746  26.312  1.00  0.00    -0.744 OA
ENDBRANCH  71  72
ENDBRANCH  52  66
BRANCH  53  76
ATOM     76  C   UNL A   1      39.822  34.290  36.910  1.00  0.00    -0.014 A 
ATOM     77  C   UNL A   1      39.058  33.888  38.017  1.00  0.00     0.010 A 
ATOM     78  C   UNL A   1      40.334  35.601  36.871  1.00  0.00     0.010 A 
ATOM     79  C   UNL A   1      38.807  34.780  39.065  1.00  0.00     0.020 A 
ATOM     80  C   UNL A   1      40.107  36.487  37.927  1.00  0.00     0.020 A 
ATOM     81  C   UNL A   1      39.335  36.073  39.014  1.00  0.00     0.054 A 
BRANCH  81  82
ATOM     82  S   UNL A   1      39.055  37.194  40.414  1.00  0.00     0.124 S 
ATOM     83  O   UNL A   1      38.330  36.338  41.347  1.00  0.00    -0.237 OA
ATOM     84  O   UNL A   1      40.414  37.555  40.809  1.00  0.00    -0.237 OA
ATOM     85  O   UNL A   1      38.276  38.283  39.827  1.00  0.00    -0.744 OA
ENDBRANCH  81  82
ENDBRANCH  53  76
BRANCH  65  86
ATOM     86  C   UNL A   1      44.391  29.083  36.098  1.00  0.00    -0.014 A 
ATOM     87  C   UNL A   1      45.674  29.659  36.101  1.00  0.00     0.010 A 
ATOM     88  C   UNL A   1      44.112  28.019  36.973  1.00  0.00     0.010 A 
ATOM     89  C   UNL A   1      46.667  29.161  36.948  1.00  0.00     0.020 A 
ATOM     90  C   UNL A   1      45.096  27.533  37.837  1.00  0.00     0.020 A 
ATOM     91  C   UNL A   1      46.372  28.099  37.809  1.00  0.00     0.054 A 
BRANCH  91  92
ATOM     92  S   UNL A   1      47.663  27.498  38.933  1.00  0.00     0.124 S 
ATOM     93  O   UNL A   1      48.735  27.150  38.004  1.00  0.00    -0.237 OA
ATOM     94  O   UNL A   1      47.920  28.659  39.781  1.00  0.00    -0.237 OA
ATOM     95  O   UNL A   1      47.033  26.367  39.610  1.00  0.00    -0.744 OA
ENDBRANCH  91  92
ENDBRANCH  65  86
ENDBRANCH  39  40
ENDBRANCH  32  34
ENDBRANCH  31  32
ENDBRANCH   1  31
TORSDOF 18
ENDMDL
MODEL 2
REMARK VINA RESULT:     -11.3      1.973      2.685
REMARK SMILES Cc1nc[nH]c1C(=O)[NH+]1CCC2(CC1)C[C@@H](C(=O)OCCOC(=O)c1ccc(-c3c4nc(c(-c5ccc(S(=O)(=O)[O-])cc5)c5ccc([nH]5)c(-c5ccc(S(=O)(=O)[O-])cc5)c5nc(c(-c6ccc(S(=O)(=O)[O-])cc6)c6ccc3[nH]6)C=C5)C=C4)cc1)N(C(=O)C1CC1)C2
REMARK SMILES IDX 21 1 20 2 19 3 17 4 18 5 16 6 9 7 10 8 14 9 11 11 13 12
REMARK SMILES IDX 12 13 15 14 91 15 85 16 7 17 8 18 6 19 1 20 2 21 3 22 4 23
REMARK SMILES IDX 5 24 86 26 87 27 88 28 89 29 90 30 22 31 23 32 24 33 25 34
REMARK SMILES IDX 26 35 84 36 27 37 83 38 28 39 29 40 30 41 77 42 31 43 82 44
REMARK SMILES IDX 76 45 78 46 32 47 81 48 75 49 74 50 33 52 63 53 44 54 62 55
REMARK SMILES IDX 45 56 48 57 61 58 79 59 46 60 47 61 60 63 80 64 49 65 34 66
REMARK SMILES IDX 35 67 43 68 36 69 42 70 37 71 38 72 39 73 40 74 41 75 64 76
REMARK SMILES IDX 65 77 73 78 66 79 72 80 67 81 68 82 69 83 70 84 71 85 50 86
REMARK SMILES IDX 51 87 59 88 52 89 58 90 53 91 54 92 55 93 56 94 57 95
REMARK H PARENT 9 10 5 25 78 51 48 62
REMARK Flexibility Score: inf
ROOT
ATOM      1  C   UNL A   1      32.517  30.977  27.048  1.00  0.00     0.275 C 
ENDROOT
BRANCH   1   2
ATOM      2  C   UNL A   1      31.875  29.734  26.434  1.00  0.00     0.274 C 
BRANCH   2   3
ATOM      3  O   UNL A   1      32.836  28.979  25.669  1.00  0.00    -0.461 OA
BRANCH   3   4
ATOM      4  C   UNL A   1      32.313  28.116  24.753  1.00  0.00     0.328 C 
ATOM      5  O   UNL A   1      32.721  28.001  23.601  1.00  0.00    -0.250 OA
BRANCH   4   6
ATOM      6  C   UNL A   1      31.106  27.323  25.278  1.00  0.00     0.195 C 
ATOM      7  N   UNL A   1      32.809  22.326  25.733  1.00  0.00    -0.266 N 
ATOM      8  C   UNL A   1      31.371  22.483  25.792  1.00  0.00     0.271 C 
ATOM      9  C   UNL A   1      33.508  23.251  24.851  1.00  0.00     0.271 C 
ATOM     10  H   UNL A   1      32.687  23.256  26.033  1.00  0.00     0.357 HD
ATOM     11  C   UNL A   1      31.084  23.854  26.370  1.00  0.00     0.071 C 
ATOM     12  C   UNL A   1      33.175  24.713  25.158  1.00  0.00     0.071 C 
ATOM     13  C   UNL A   1      31.690  24.979  25.504  1.00  0.00     0.001 C 
ATOM     14  C   UNL A   1      31.552  26.298  26.295  1.00  0.00     0.046 C 
ATOM     15  C   UNL A   1      30.840  25.193  24.229  1.00  0.00     0.128 C 
ATOM     16  N   UNL A   1      30.347  26.549  24.305  1.00  0.00    -0.328 N 
BRANCH   7  17
ATOM     17  C   UNL A   1      33.348  21.146  26.216  1.00  0.00     0.362 C 
ATOM     18  O   UNL A   1      34.276  21.167  27.026  1.00  0.00    -0.224 OA
BRANCH  17  19
ATOM     19  C   UNL A   1      32.879  19.888  25.688  1.00  0.00     0.167 A 
ATOM     20  C   UNL A   1      32.414  20.072  23.121  1.00  0.00     0.069 C 
ATOM     21  C   UNL A   1      32.501  19.409  24.440  1.00  0.00     0.072 A 
ATOM     22  N   UNL A   1      32.249  18.053  24.496  1.00  0.00    -0.241 NA
ATOM     23  C   UNL A   1      32.536  17.688  25.720  1.00  0.00     0.197 A 
ATOM     24  N   UNL A   1      32.910  18.754  26.474  1.00  0.00    -0.337 N 
ATOM     25  H   UNL A   1      33.162  18.723  27.424  1.00  0.00     0.168 HD
ENDBRANCH  17  19
ENDBRANCH   7  17
BRANCH  16  26
ATOM     26  C   UNL A   1      29.235  27.115  23.713  1.00  0.00     0.226 C 
ATOM     27  O   UNL A   1      28.115  26.657  23.930  1.00  0.00    -0.275 OA
BRANCH  26  28
ATOM     28  C   UNL A   1      29.310  28.278  22.784  1.00  0.00     0.079 C 
ATOM     29  C   UNL A   1      28.257  29.256  22.349  1.00  0.00     0.014 C 
ATOM     30  C   UNL A   1      29.299  29.684  23.344  1.00  0.00     0.014 C 
ENDBRANCH  26  28
ENDBRANCH  16  26
ENDBRANCH   4   6
ENDBRANCH   3   4
ENDBRANCH   2   3
ENDBRANCH   1   2
BRANCH   1  31
ATOM     31  O   UNL A   1      33.920  30.763  27.267  1.00  0.00    -0.458 OA
BRANCH  31  32
ATOM     32  C   UNL A   1      34.614  31.868  27.637  1.00  0.00     0.338 C 
ATOM     33  O   UNL A   1      34.269  33.029  27.511  1.00  0.00    -0.246 OA
BRANCH  32  34
ATOM     34  C   UNL A   1      35.880  31.447  28.256  1.00  0.00     0.060 A 
ATOM     35  C   UNL A   1      35.978  30.165  28.796  1.00  0.00     0.016 A 
ATOM     36  C   UNL A   1      36.933  32.347  28.389  1.00  0.00     0.016 A 
ATOM     37  C   UNL A   1      37.098  29.789  29.527  1.00  0.00     0.010 A 
ATOM     38  C   UNL A   1      38.085  31.951  29.076  1.00  0.00     0.010 A 
ATOM     39  C   UNL A   1      38.165  30.679  29.673  1.00  0.00    -0.014 A 
BRANCH  39  40
ATOM     40  C   UNL A   1      39.336  30.299  30.500  1.00  0.00     0.031 A 
ATOM     41  C   UNL A   1      40.296  29.261  29.991  1.00  0.00     0.074 A 
ATOM     42  C   UNL A   1      39.544  30.893  31.690  1.00  0.00     0.049 A 
ATOM     43  N   UNL A   1      41.283  28.673  30.617  1.00  0.00    -0.248 NA
ATOM     44  C   UNL A   1      40.116  28.819  28.598  1.00  0.00     0.031 C 
ATOM     45  C   UNL A   1      38.722  31.962  32.260  1.00  0.00     0.029 A 
ATOM     46  N   UNL A   1      40.513  30.677  32.638  1.00  0.00    -0.354 N 
ATOM     47  C   UNL A   1      41.811  27.759  29.713  1.00  0.00     0.074 A 
ATOM     48  C   UNL A   1      41.034  27.869  28.497  1.00  0.00     0.031 C 
ATOM     49  C   UNL A   1      39.226  32.315  33.454  1.00  0.00     0.029 A 
ATOM     50  C   UNL A   1      40.361  31.452  33.762  1.00  0.00     0.049 A 
ATOM     51  H   UNL A   1      41.246  30.030  32.521  1.00  0.00     0.167 HD
ATOM     52  C   UNL A   1      42.845  26.903  29.888  1.00  0.00     0.031 A 
ATOM     53  C   UNL A   1      41.035  31.441  34.929  1.00  0.00     0.031 A 
ATOM     54  C   UNL A   1      43.627  26.824  31.094  1.00  0.00     0.049 A 
ATOM     55  C   UNL A   1      42.151  30.452  35.117  1.00  0.00     0.074 A 
ATOM     56  C   UNL A   1      44.700  25.994  31.372  1.00  0.00     0.029 A 
ATOM     57  N   UNL A   1      43.427  27.610  32.219  1.00  0.00    -0.354 N 
ATOM     58  N   UNL A   1      42.612  29.562  34.271  1.00  0.00    -0.248 NA
ATOM     59  C   UNL A   1      42.833  30.460  36.418  1.00  0.00     0.031 C 
ATOM     60  C   UNL A   1      45.122  26.252  32.680  1.00  0.00     0.029 A 
ATOM     61  C   UNL A   1      44.344  27.276  33.200  1.00  0.00     0.049 A 
ATOM     62  H   UNL A   1      42.733  28.304  32.306  1.00  0.00     0.167 HD
ATOM     63  C   UNL A   1      43.646  28.911  34.932  1.00  0.00     0.074 A 
ATOM     64  C   UNL A   1      43.755  29.523  36.241  1.00  0.00     0.031 C 
ATOM     65  C   UNL A   1      44.433  27.897  34.497  1.00  0.00     0.031 A 
BRANCH  52  66
ATOM     66  C   UNL A   1      43.156  25.948  28.767  1.00  0.00    -0.014 A 
ATOM     67  C   UNL A   1      42.591  24.662  28.716  1.00  0.00     0.010 A 
ATOM     68  C   UNL A   1      44.013  26.362  27.730  1.00  0.00     0.010 A 
ATOM     69  C   UNL A   1      42.905  23.795  27.666  1.00  0.00     0.020 A 
ATOM     70  C   UNL A   1      44.311  25.506  26.666  1.00  0.00     0.020 A 
ATOM     71  C   UNL A   1      43.768  24.220  26.649  1.00  0.00     0.054 A 
BRANCH  71  72
ATOM     72  S   UNL A   1      44.146  23.083  25.287  1.00  0.00     0.124 S 
ATOM     73  O   UNL A   1      42.823  22.553  24.962  1.00  0.00    -0.237 OA
ATOM     74  O   UNL A   1      44.732  23.965  24.282  1.00  0.00    -0.237 OA
ATOM     75  O   UNL A   1      45.071  22.122  25.883  1.00  0.00    -0.744 OA
ENDBRANCH  71  72
ENDBRANCH  52  66
BRANCH  53  76
ATOM     76  C   UNL A   1      40.631  32.365  36.024  1.00  0.00    -0.014 A 
ATOM     77  C   UNL A   1      39.534  32.065  36.848  1.00  0.00     0.010 A 
ATOM     78  C   UNL A   1      41.368  33.540  36.265  1.00  0.00     0.010 A 
ATOM     79  C   UNL A   1      39.176  32.926  37.890  1.00  0.00     0.020 A 
ATOM     80  C   UNL A   1      41.029  34.390  37.321  1.00  0.00     0.020 A 
ATOM     81  C   UNL A   1      39.928  34.081  38.121  1.00  0.00     0.054 A 
BRANCH  81  82
ATOM     82  S   UNL A   1      39.489  35.152  39.520  1.00  0.00     0.124 S 
ATOM     83  O   UNL A   1      38.357  34.439  40.104  1.00  0.00    -0.237 OA
ATOM     84  O   UNL A   1      40.714  35.154  40.315  1.00  0.00    -0.237 OA
ATOM     85  O   UNL A   1      39.167  36.428  38.885  1.00  0.00    -0.744 OA
ENDBRANCH  81  82
ENDBRANCH  53  76
BRANCH  65  86
ATOM     86  C   UNL A   1      45.499  27.404  35.435  1.00  0.00    -0.014 A 
ATOM     87  C   UNL A   1      45.252  26.339  36.319  1.00  0.00     0.010 A 
ATOM     88  C   UNL A   1      46.781  27.980  35.392  1.00  0.00     0.010 A 
ATOM     89  C   UNL A   1      46.263  25.876  37.164  1.00  0.00     0.020 A 
ATOM     90  C   UNL A   1      47.801  27.504  36.219  1.00  0.00     0.020 A 
ATOM     91  C   UNL A   1      47.531  26.464  37.110  1.00  0.00     0.054 A 
BRANCH  91  92
ATOM     92  S   UNL A   1      48.843  25.816  38.184  1.00  0.00     0.124 S 
ATOM     93  O   UNL A   1      48.447  26.333  39.491  1.00  0.00    -0.237 OA
ATOM     94  O   UNL A   1      48.714  24.371  38.015  1.00  0.00    -0.237 OA
ATOM     95  O   UNL A   1      50.063  26.396  37.627  1.00  0.00    -0.744 OA
ENDBRANCH  91  92
ENDBRANCH  65  86
ENDBRANCH  39  40
ENDBRANCH  32  34
ENDBRANCH  31  32
ENDBRANCH   1  31
TORSDOF 18
ENDMDL
MODEL 3
REMARK VINA RESULT:     -10.6      2.760      8.767
REMARK SMILES Cc1nc[nH]c1C(=O)[NH+]1CCC2(CC1)C[C@@H](C(=O)OCCOC(=O)c1ccc(-c3c4nc(c(-c5ccc(S(=O)(=O)[O-])cc5)c5ccc([nH]5)c(-c5ccc(S(=O)(=O)[O-])cc5)c5nc(c(-c6ccc(S(=O)(=O)[O-])cc6)c6ccc3[nH]6)C=C5)C=C4)cc1)N(C(=O)C1CC1)C2
REMARK SMILES IDX 21 1 20 2 19 3 17 4 18 5 16 6 9 7 10 8 14 9 11 11 13 12
REMARK SMILES IDX 12 13 15 14 91 15 85 16 7 17 8 18 6 19 1 20 2 21 3 22 4 23
REMARK SMILES IDX 5 24 86 26 87 27 88 28 89 29 90 30 22 31 23 32 24 33 25 34
REMARK SMILES IDX 26 35 84 36 27 37 83 38 28 39 29 40 30 41 77 42 31 43 82 44
REMARK SMILES IDX 76 45 78 46 32 47 81 48 75 49 74 50 33 52 63 53 44 54 62 55
REMARK SMILES IDX 45 56 48 57 61 58 79 59 46 60 47 61 60 63 80 64 49 65 34 66
REMARK SMILES IDX 35 67 43 68 36 69 42 70 37 71 38 72 39 73 40 74 41 75 64 76
REMARK SMILES IDX 65 77 73 78 66 79 72 80 67 81 68 82 69 83 70 84 71 85 50 86
REMARK SMILES IDX 51 87 59 88 52 89 58 90 53 91 54 92 55 93 56 94 57 95
REMARK H PARENT 9 10 5 25 78 51 48 62
REMARK Flexibility Score: inf
ROOT
ATOM      1  C   UNL A   1      34.494  29.330  27.437  1.00  0.00     0.275 C 
ENDROOT
BRANCH   1   2
ATOM      2  C   UNL A   1      34.190  28.792  26.041  1.00  0.00     0.274 C 
BRANCH   2   3
ATOM      3  O   UNL A   1      33.260  29.647  25.346  1.00  0.00    -0.461 OA
BRANCH   3   4
ATOM      4  C   UNL A   1      32.826  29.189  24.139  1.00  0.00     0.328 C 
ATOM      5  O   UNL A   1      33.460  29.291  23.092  1.00  0.00    -0.250 OA
BRANCH   4   6
ATOM      6  C   UNL A   1      31.419  28.574  24.187  1.00  0.00     0.195 C 
ATOM      7  N   UNL A   1      32.082  23.475  22.905  1.00  0.00    -0.266 N 
ATOM      8  C   UNL A   1      30.710  23.937  22.859  1.00  0.00     0.271 C 
ATOM      9  C   UNL A   1      33.090  24.454  22.521  1.00  0.00     0.271 C 
ATOM     10  H   UNL A   1      32.074  24.245  23.518  1.00  0.00     0.357 HD
ATOM     11  C   UNL A   1      30.569  25.051  23.877  1.00  0.00     0.071 C 
ATOM     12  C   UNL A   1      32.972  25.755  23.319  1.00  0.00     0.071 C 
ATOM     13  C   UNL A   1      31.520  26.228  23.574  1.00  0.00     0.001 C 
ATOM     14  C   UNL A   1      31.473  27.185  24.784  1.00  0.00     0.046 C 
ATOM     15  C   UNL A   1      30.980  27.063  22.388  1.00  0.00     0.128 C 
ATOM     16  N   UNL A   1      30.733  28.385  22.916  1.00  0.00    -0.328 N 
BRANCH   7  17
ATOM     17  C   UNL A   1      32.299  22.109  22.962  1.00  0.00     0.362 C 
ATOM     18  O   UNL A   1      31.803  21.361  22.119  1.00  0.00    -0.224 OA
BRANCH  17  19
ATOM     19  C   UNL A   1      33.033  21.557  24.074  1.00  0.00     0.167 A 
ATOM     20  C   UNL A   1      35.528  22.339  24.022  1.00  0.00     0.069 C 
ATOM     21  C   UNL A   1      34.337  21.634  24.545  1.00  0.00     0.072 A 
ATOM     22  N   UNL A   1      34.457  20.981  25.755  1.00  0.00    -0.241 NA
ATOM     23  C   UNL A   1      33.250  20.578  26.063  1.00  0.00     0.197 A 
ATOM     24  N   UNL A   1      32.364  20.893  25.083  1.00  0.00    -0.337 N 
ATOM     25  H   UNL A   1      31.404  20.682  25.090  1.00  0.00     0.168 HD
ENDBRANCH  17  19
ENDBRANCH   7  17
BRANCH  16  26
ATOM     26  C   UNL A   1      29.872  29.367  22.464  1.00  0.00     0.226 C 
ATOM     27  O   UNL A   1      29.950  29.776  21.307  1.00  0.00    -0.275 OA
BRANCH  26  28
ATOM     28  C   UNL A   1      28.829  29.995  23.323  1.00  0.00     0.079 C 
ATOM     29  C   UNL A   1      27.795  31.037  23.007  1.00  0.00     0.014 C 
ATOM     30  C   UNL A   1      27.379  29.599  23.147  1.00  0.00     0.014 C 
ENDBRANCH  26  28
ENDBRANCH  16  26
ENDBRANCH   4   6
ENDBRANCH   3   4
ENDBRANCH   2   3
ENDBRANCH   1   2
BRANCH   1  31
ATOM     31  O   UNL A   1      35.070  30.644  27.356  1.00  0.00    -0.458 OA
BRANCH  31  32
ATOM     32  C   UNL A   1      35.126  31.316  28.532  1.00  0.00     0.338 C 
ATOM     33  O   UNL A   1      34.309  32.110  28.964  1.00  0.00    -0.246 OA
BRANCH  32  34
ATOM     34  C   UNL A   1      36.347  30.917  29.249  1.00  0.00     0.060 A 
ATOM     35  C   UNL A   1      37.563  31.496  28.890  1.00  0.00     0.016 A 
ATOM     36  C   UNL A   1      36.305  29.906  30.204  1.00  0.00     0.016 A 
ATOM     37  C   UNL A   1      38.755  31.031  29.432  1.00  0.00     0.010 A 
ATOM     38  C   UNL A   1      37.498  29.475  30.792  1.00  0.00     0.010 A 
ATOM     39  C   UNL A   1      38.734  30.015  30.391  1.00  0.00    -0.014 A 
BRANCH  39  40
ATOM     40  C   UNL A   1      40.009  29.480  30.928  1.00  0.00     0.031 A 
ATOM     41  C   UNL A   1      40.608  30.093  32.162  1.00  0.00     0.074 A 
ATOM     42  C   UNL A   1      40.614  28.441  30.322  1.00  0.00     0.049 A 
ATOM     43  N   UNL A   1      41.782  29.885  32.699  1.00  0.00    -0.248 NA
ATOM     44  C   UNL A   1      39.781  31.077  32.881  1.00  0.00     0.031 C 
ATOM     45  C   UNL A   1      40.096  27.718  29.159  1.00  0.00     0.029 A 
ATOM     46  N   UNL A   1      41.803  27.815  30.600  1.00  0.00    -0.354 N 
ATOM     47  C   UNL A   1      41.855  30.745  33.788  1.00  0.00     0.074 A 
ATOM     48  C   UNL A   1      40.609  31.477  33.835  1.00  0.00     0.031 C 
ATOM     49  C   UNL A   1      40.957  26.742  28.829  1.00  0.00     0.029 A 
ATOM     50  C   UNL A   1      42.117  26.815  29.711  1.00  0.00     0.049 A 
ATOM     51  H   UNL A   1      42.375  28.059  31.363  1.00  0.00     0.167 HD
ATOM     52  C   UNL A   1      42.876  30.910  34.663  1.00  0.00     0.031 A 
ATOM     53  C   UNL A   1      43.232  26.069  29.593  1.00  0.00     0.031 A 
ATOM     54  C   UNL A   1      44.100  30.155  34.622  1.00  0.00     0.049 A 
ATOM     55  C   UNL A   1      44.368  26.299  30.548  1.00  0.00     0.074 A 
ATOM     56  C   UNL A   1      45.194  30.241  35.465  1.00  0.00     0.029 A 
ATOM     57  N   UNL A   1      44.388  29.167  33.692  1.00  0.00    -0.354 N 
ATOM     58  N   UNL A   1      44.444  27.146  31.547  1.00  0.00    -0.248 NA
ATOM     59  C   UNL A   1      45.573  25.481  30.358  1.00  0.00     0.031 C 
ATOM     60  C   UNL A   1      46.161  29.332  35.020  1.00  0.00     0.029 A 
ATOM     61  C   UNL A   1      45.649  28.646  33.929  1.00  0.00     0.049 A 
ATOM     62  H   UNL A   1      43.785  28.879  32.969  1.00  0.00     0.167 HD
ATOM     63  C   UNL A   1      45.698  26.955  32.113  1.00  0.00     0.074 A 
ATOM     64  C   UNL A   1      46.340  25.899  31.355  1.00  0.00     0.031 C 
ATOM     65  C   UNL A   1      46.269  27.597  33.161  1.00  0.00     0.031 A 
BRANCH  52  66
ATOM     66  C   UNL A   1      42.730  31.983  35.709  1.00  0.00    -0.014 A 
ATOM     67  C   UNL A   1      43.156  33.302  35.475  1.00  0.00     0.010 A 
ATOM     68  C   UNL A   1      42.127  31.666  36.940  1.00  0.00     0.010 A 
ATOM     69  C   UNL A   1      43.014  34.276  36.468  1.00  0.00     0.020 A 
ATOM     70  C   UNL A   1      41.962  32.642  37.927  1.00  0.00     0.020 A 
ATOM     71  C   UNL A   1      42.423  33.938  37.691  1.00  0.00     0.054 A 
BRANCH  71  72
ATOM     72  S   UNL A   1      42.233  35.223  38.957  1.00  0.00     0.124 S 
ATOM     73  O   UNL A   1      43.394  36.073  38.699  1.00  0.00    -0.237 OA
ATOM     74  O   UNL A   1      40.939  35.814  38.627  1.00  0.00    -0.237 OA
ATOM     75  O   UNL A   1      42.272  34.481  40.214  1.00  0.00    -0.744 OA
ENDBRANCH  71  72
ENDBRANCH  52  66
BRANCH  53  76
ATOM     76  C   UNL A   1      43.340  25.071  28.493  1.00  0.00    -0.014 A 
ATOM     77  C   UNL A   1      43.865  25.436  27.243  1.00  0.00     0.010 A 
ATOM     78  C   UNL A   1      42.943  23.737  28.706  1.00  0.00     0.010 A 
ATOM     79  C   UNL A   1      43.985  24.488  26.222  1.00  0.00     0.020 A 
ATOM     80  C   UNL A   1      43.086  22.781  27.698  1.00  0.00     0.020 A 
ATOM     81  C   UNL A   1      43.598  23.166  26.458  1.00  0.00     0.054 A 
BRANCH  81  82
ATOM     82  S   UNL A   1      43.826  21.934  25.143  1.00  0.00     0.124 S 
ATOM     83  O   UNL A   1      43.514  22.708  23.946  1.00  0.00    -0.237 OA
ATOM     84  O   UNL A   1      45.226  21.552  25.305  1.00  0.00    -0.237 OA
ATOM     85  O   UNL A   1      42.861  20.890  25.485  1.00  0.00    -0.744 OA
ENDBRANCH  81  82
ENDBRANCH  53  76
BRANCH  65  86
ATOM     86  C   UNL A   1      47.647  27.155  33.569  1.00  0.00    -0.014 A 
ATOM     87  C   UNL A   1      48.793  27.773  33.040  1.00  0.00     0.010 A 
ATOM     88  C   UNL A   1      47.793  26.143  34.534  1.00  0.00     0.010 A 
ATOM     89  C   UNL A   1      50.065  27.368  33.451  1.00  0.00     0.020 A 
ATOM     90  C   UNL A   1      49.063  25.752  34.965  1.00  0.00     0.020 A 
ATOM     91  C   UNL A   1      50.192  26.358  34.410  1.00  0.00     0.054 A 
BRANCH  91  92
ATOM     92  S   UNL A   1      51.852  25.879  34.964  1.00  0.00     0.124 S 
ATOM     93  O   UNL A   1      51.741  24.425  35.029  1.00  0.00    -0.237 OA
ATOM     94  O   UNL A   1      52.709  26.396  33.900  1.00  0.00    -0.237 OA
ATOM     95  O   UNL A   1      51.994  26.553  36.252  1.00  0.00    -0.744 OA
ENDBRANCH  91  92
ENDBRANCH  65  86
ENDBRANCH  39  40
ENDBRANCH  32  34
ENDBRANCH  31  32
ENDBRANCH   1  31
TORSDOF 18
ENDMDL
