MODEL 1
REMARK VINA RESULT:      -8.9      0.000      0.000
REMARK SMILES CC(C)Cc1ccc([C@H](C)C(=O)OCCOC(=O)c2ccc(-c3c4nc(c(-c5ccc(S(=O)(=O)[O-])cc5)c5ccc([nH]5)c(-c5ccc(S(=O)(=O)[O-])cc5)c5nc(c(-c6ccc(S(=O)(=O)[O-])cc6)c6ccc3[nH]6)C=C5)C=C4)cc2)cc1
REMARK SMILES IDX 14 1 13 2 11 3 12 4 9 5 10 6 8 7 5 8 6 9 80 10 7 11 79 12
REMARK SMILES IDX 4 13 2 14 1 15 3 16 15 17 16 18 17 19 18 20 19 21 20 22
REMARK SMILES IDX 78 23 21 24 77 25 22 26 23 27 24 28 71 29 25 30 76 31 70 32
REMARK SMILES IDX 72 33 26 34 75 35 69 36 68 37 27 39 57 40 38 41 56 42 39 43
REMARK SMILES IDX 42 44 55 45 73 46 40 47 41 48 54 50 74 51 43 52 28 53 29 54
REMARK SMILES IDX 37 55 30 56 36 57 31 58 32 59 33 60 34 61 35 62 58 63 59 64
REMARK SMILES IDX 67 65 60 66 66 67 61 68 62 69 63 70 64 71 65 72 44 73 45 74
REMARK SMILES IDX 53 75 46 76 52 77 47 78 48 79 49 80 50 81 51 82
REMARK H PARENT 72 38 42 49
REMARK Flexibility Score: inf
ROOT
ATOM      1  C   UNL A   1      33.949  34.025  28.880  1.00  0.00     0.274 C 
ENDROOT
BRANCH   1   2
ATOM      2  O   UNL A   1      33.991  33.733  30.289  1.00  0.00    -0.462 OA
BRANCH   2   3
ATOM      3  C   UNL A   1      33.681  34.768  31.117  1.00  0.00     0.313 C 
ATOM      4  O   UNL A   1      32.612  35.369  31.099  1.00  0.00    -0.252 OA
BRANCH   3   5
ATOM      5  C   UNL A   1      34.822  35.133  32.066  1.00  0.00     0.126 C 
ATOM      6  C   UNL A   1      34.383  35.729  33.398  1.00  0.00     0.025 C 
BRANCH   5   7
ATOM      7  C   UNL A   1      35.796  33.986  32.245  1.00  0.00    -0.034 A 
ATOM      8  C   UNL A   1      37.669  31.950  32.779  1.00  0.00    -0.048 A 
ATOM      9  C   UNL A   1      37.960  32.958  31.853  1.00  0.00     0.004 A 
ATOM     10  C   UNL A   1      36.409  31.933  33.386  1.00  0.00     0.004 A 
ATOM     11  C   UNL A   1      37.027  33.957  31.575  1.00  0.00     0.005 A 
ATOM     12  C   UNL A   1      35.486  32.945  33.130  1.00  0.00     0.005 A 
BRANCH   8  13
ATOM     13  C   UNL A   1      38.718  30.933  33.159  1.00  0.00     0.038 C 
BRANCH  13  14
ATOM     14  C   UNL A   1      40.065  31.565  33.569  1.00  0.00    -0.013 C 
ATOM     15  C   UNL A   1      40.031  32.159  34.981  1.00  0.00     0.008 C 
ATOM     16  C   UNL A   1      41.174  30.513  33.491  1.00  0.00     0.008 C 
ENDBRANCH  13  14
ENDBRANCH   8  13
ENDBRANCH   5   7
ENDBRANCH   3   5
ENDBRANCH   2   3
ENDBRANCH   1   2
BRANCH   1  17
ATOM     17  C   UNL A   1      34.151  32.762  28.040  1.00  0.00     0.275 C 
BRANCH  17  18
ATOM     18  O   UNL A   1      34.188  31.577  28.855  1.00  0.00    -0.458 OA
BRANCH  18  19
ATOM     19  C   UNL A   1      34.506  30.433  28.204  1.00  0.00     0.338 C 
ATOM     20  O   UNL A   1      33.798  29.783  27.456  1.00  0.00    -0.246 OA
BRANCH  19  21
ATOM     21  C   UNL A   1      35.918  30.114  28.453  1.00  0.00     0.060 A 
ATOM     22  C   UNL A   1      36.796  30.065  27.369  1.00  0.00     0.016 A 
ATOM     23  C   UNL A   1      36.360  29.805  29.739  1.00  0.00     0.016 A 
ATOM     24  C   UNL A   1      38.129  29.711  27.562  1.00  0.00     0.010 A 
ATOM     25  C   UNL A   1      37.702  29.471  29.937  1.00  0.00     0.010 A 
ATOM     26  C   UNL A   1      38.595  29.426  28.850  1.00  0.00    -0.014 A 
BRANCH  26  27
ATOM     27  C   UNL A   1      40.026  29.114  29.072  1.00  0.00     0.031 A 
ATOM     28  C   UNL A   1      40.974  30.193  29.509  1.00  0.00     0.074 A 
ATOM     29  C   UNL A   1      40.469  27.863  28.841  1.00  0.00     0.049 A 
ATOM     30  N   UNL A   1      42.277  30.156  29.589  1.00  0.00    -0.248 NA
ATOM     31  C   UNL A   1      40.380  31.481  29.903  1.00  0.00     0.031 C 
ATOM     32  C   UNL A   1      39.632  26.725  28.454  1.00  0.00     0.029 A 
ATOM     33  N   UNL A   1      41.739  27.344  28.877  1.00  0.00    -0.354 N 
ATOM     34  C   UNL A   1      42.665  31.422  30.009  1.00  0.00     0.074 A 
ATOM     35  C   UNL A   1      41.459  32.205  30.172  1.00  0.00     0.031 C 
ATOM     36  C   UNL A   1      40.412  25.647  28.272  1.00  0.00     0.029 A 
ATOM     37  C   UNL A   1      41.804  26.032  28.467  1.00  0.00     0.049 A 
ATOM     38  H   UNL A   1      42.526  27.859  29.167  1.00  0.00     0.167 HD
ATOM     39  C   UNL A   1      43.918  31.886  30.226  1.00  0.00     0.031 A 
ATOM     40  C   UNL A   1      42.869  25.245  28.221  1.00  0.00     0.031 A 
ATOM     41  C   UNL A   1      45.109  31.093  30.075  1.00  0.00     0.049 A 
ATOM     42  C   UNL A   1      44.251  25.812  28.400  1.00  0.00     0.074 A 
ATOM     43  C   UNL A   1      46.422  31.458  30.317  1.00  0.00     0.029 A 
ATOM     44  N   UNL A   1      45.134  29.779  29.635  1.00  0.00    -0.354 N 
ATOM     45  N   UNL A   1      44.602  27.005  28.816  1.00  0.00    -0.248 NA
ATOM     46  C   UNL A   1      45.377  24.932  28.060  1.00  0.00     0.031 C 
ATOM     47  C   UNL A   1      47.245  30.382  29.970  1.00  0.00     0.029 A 
ATOM     48  C   UNL A   1      46.442  29.332  29.559  1.00  0.00     0.049 A 
ATOM     49  H   UNL A   1      44.339  29.242  29.410  1.00  0.00     0.167 HD
ATOM     50  C   UNL A   1      45.991  27.016  28.794  1.00  0.00     0.074 A 
ATOM     51  C   UNL A   1      46.416  25.705  28.347  1.00  0.00     0.031 C 
ATOM     52  C   UNL A   1      46.842  28.024  29.107  1.00  0.00     0.031 A 
BRANCH  39  53
ATOM     53  C   UNL A   1      44.083  33.330  30.613  1.00  0.00    -0.014 A 
ATOM     54  C   UNL A   1      44.330  34.322  29.648  1.00  0.00     0.010 A 
ATOM     55  C   UNL A   1      43.897  33.708  31.956  1.00  0.00     0.010 A 
ATOM     56  C   UNL A   1      44.395  35.668  30.023  1.00  0.00     0.020 A 
ATOM     57  C   UNL A   1      43.945  35.052  32.331  1.00  0.00     0.020 A 
ATOM     58  C   UNL A   1      44.200  36.025  31.362  1.00  0.00     0.054 A 
BRANCH  58  59
ATOM     59  S   UNL A   1      44.229  37.783  31.810  1.00  0.00     0.124 S 
ATOM     60  O   UNL A   1      43.550  37.775  33.103  1.00  0.00    -0.237 OA
ATOM     61  O   UNL A   1      45.658  38.081  31.853  1.00  0.00    -0.237 OA
ATOM     62  O   UNL A   1      43.493  38.428  30.725  1.00  0.00    -0.744 OA
ENDBRANCH  58  59
ENDBRANCH  39  53
BRANCH  40  63
ATOM     63  C   UNL A   1      42.674  23.868  27.693  1.00  0.00    -0.014 A 
ATOM     64  C   UNL A   1      42.712  23.614  26.311  1.00  0.00     0.010 A 
ATOM     65  C   UNL A   1      42.429  22.802  28.578  1.00  0.00     0.010 A 
ATOM     66  C   UNL A   1      42.482  22.324  25.824  1.00  0.00     0.020 A 
ATOM     67  C   UNL A   1      42.225  21.506  28.097  1.00  0.00     0.020 A 
ATOM     68  C   UNL A   1      42.235  21.279  26.719  1.00  0.00     0.054 A 
BRANCH  68  69
ATOM     69  S   UNL A   1      41.960  19.606  26.073  1.00  0.00     0.124 S 
ATOM     70  O   UNL A   1      40.532  19.629  25.773  1.00  0.00    -0.237 OA
ATOM     71  O   UNL A   1      42.850  19.561  24.914  1.00  0.00    -0.237 OA
ATOM     72  O   UNL A   1      42.355  18.743  27.184  1.00  0.00    -0.744 OA
ENDBRANCH  68  69
ENDBRANCH  40  63
BRANCH  52  73
ATOM     73  C   UNL A   1      48.313  27.746  28.987  1.00  0.00    -0.014 A 
ATOM     74  C   UNL A   1      49.040  27.238  30.077  1.00  0.00     0.010 A 
ATOM     75  C   UNL A   1      48.962  27.939  27.754  1.00  0.00     0.010 A 
ATOM     76  C   UNL A   1      50.399  26.943  29.942  1.00  0.00     0.020 A 
ATOM     77  C   UNL A   1      50.315  27.624  27.610  1.00  0.00     0.020 A 
ATOM     78  C   UNL A   1      51.028  27.138  28.708  1.00  0.00     0.054 A 
BRANCH  78  79
ATOM     79  S   UNL A   1      52.778  26.695  28.541  1.00  0.00     0.124 S 
ATOM     80  O   UNL A   1      53.376  27.966  28.140  1.00  0.00    -0.237 OA
ATOM     81  O   UNL A   1      53.125  26.234  29.884  1.00  0.00    -0.237 OA
ATOM     82  O   UNL A   1      52.775  25.655  27.514  1.00  0.00    -0.744 OA
ENDBRANCH  78  79
ENDBRANCH  52  73
ENDBRANCH  26  27
ENDBRANCH  19  21
ENDBRANCH  18  19
ENDBRANCH  17  18
ENDBRANCH   1  17
TORSDOF 17
ENDMDL
MODEL 2
REMARK VINA RESULT:      -8.8      2.591     11.219
REMARK SMILES CC(C)Cc1ccc([C@H](C)C(=O)OCCOC(=O)c2ccc(-c3c4nc(c(-c5ccc(S(=O)(=O)[O-])cc5)c5ccc([nH]5)c(-c5ccc(S(=O)(=O)[O-])cc5)c5nc(c(-c6ccc(S(=O)(=O)[O-])cc6)c6ccc3[nH]6)C=C5)C=C4)cc2)cc1
REMARK SMILES IDX 14 1 13 2 11 3 12 4 9 5 10 6 8 7 5 8 6 9 80 10 7 11 79 12
REMARK SMILES IDX 4 13 2 14 1 15 3 16 15 17 16 18 17 19 18 20 19 21 20 22
REMARK SMILES IDX 78 23 21 24 77 25 22 26 23 27 24 28 71 29 25 30 76 31 70 32
REMARK SMILES IDX 72 33 26 34 75 35 69 36 68 37 27 39 57 40 38 41 56 42 39 43
REMARK SMILES IDX 42 44 55 45 73 46 40 47 41 48 54 50 74 51 43 52 28 53 29 54
REMARK SMILES IDX 37 55 30 56 36 57 31 58 32 59 33 60 34 61 35 62 58 63 59 64
REMARK SMILES IDX 67 65 60 66 66 67 61 68 62 69 63 70 64 71 65 72 44 73 45 74
REMARK SMILES IDX 53 75 46 76 52 77 47 78 48 79 49 80 50 81 51 82
REMARK H PARENT 72 38 42 49
REMARK Flexibility Score: inf
ROOT
ATOM      1  C   UNL A   1      40.784  19.959  26.496  1.00  0.00     0.274 C 
ENDROOT
BRANCH   1   2
ATOM      2  O   UNL A   1      41.878  20.584  27.190  1.00  0.00    -0.462 OA
BRANCH   2   3
ATOM      3  C   UNL A   1      42.612  21.470  26.462  1.00  0.00     0.313 C 
ATOM      4  O   UNL A   1      43.220  21.182  25.436  1.00  0.00    -0.252 OA
BRANCH   3   5
ATOM      5  C   UNL A   1      42.628  22.871  27.071  1.00  0.00     0.126 C 
ATOM      6  C   UNL A   1      42.356  22.924  28.569  1.00  0.00     0.025 C 
BRANCH   5   7
ATOM      7  C   UNL A   1      43.880  23.636  26.690  1.00  0.00    -0.034 A 
ATOM      8  C   UNL A   1      46.230  24.912  25.801  1.00  0.00    -0.048 A 
ATOM      9  C   UNL A   1      46.263  24.048  26.902  1.00  0.00     0.004 A 
ATOM     10  C   UNL A   1      45.000  25.183  25.191  1.00  0.00     0.004 A 
ATOM     11  C   UNL A   1      45.097  23.428  27.353  1.00  0.00     0.005 A 
ATOM     12  C   UNL A   1      43.839  24.544  25.623  1.00  0.00     0.005 A 
BRANCH   8  13
ATOM     13  C   UNL A   1      47.507  25.497  25.248  1.00  0.00     0.038 C 
BRANCH  13  14
ATOM     14  C   UNL A   1      48.354  26.233  26.308  1.00  0.00    -0.013 C 
ATOM     15  C   UNL A   1      49.853  25.954  26.161  1.00  0.00     0.008 C 
ATOM     16  C   UNL A   1      48.109  27.741  26.209  1.00  0.00     0.008 C 
ENDBRANCH  13  14
ENDBRANCH   8  13
ENDBRANCH   5   7
ENDBRANCH   3   5
ENDBRANCH   2   3
ENDBRANCH   1   2
BRANCH   1  17
ATOM     17  C   UNL A   1      39.920  20.992  25.768  1.00  0.00     0.275 C 
BRANCH  17  18
ATOM     18  O   UNL A   1      39.254  21.877  26.686  1.00  0.00    -0.458 OA
BRANCH  18  19
ATOM     19  C   UNL A   1      38.655  22.953  26.126  1.00  0.00     0.338 C 
ATOM     20  O   UNL A   1      37.738  22.959  25.324  1.00  0.00    -0.246 OA
BRANCH  19  21
ATOM     21  C   UNL A   1      39.217  24.177  26.713  1.00  0.00     0.060 A 
ATOM     22  C   UNL A   1      38.913  24.485  28.040  1.00  0.00     0.016 A 
ATOM     23  C   UNL A   1      39.988  25.045  25.941  1.00  0.00     0.016 A 
ATOM     24  C   UNL A   1      39.382  25.665  28.611  1.00  0.00     0.010 A 
ATOM     25  C   UNL A   1      40.478  26.218  26.520  1.00  0.00     0.010 A 
ATOM     26  C   UNL A   1      40.182  26.533  27.859  1.00  0.00    -0.014 A 
BRANCH  26  27
ATOM     27  C   UNL A   1      40.740  27.756  28.480  1.00  0.00     0.031 A 
ATOM     28  C   UNL A   1      42.150  27.765  28.994  1.00  0.00     0.074 A 
ATOM     29  C   UNL A   1      39.956  28.845  28.609  1.00  0.00     0.049 A 
ATOM     30  N   UNL A   1      42.756  28.672  29.713  1.00  0.00    -0.248 NA
ATOM     31  C   UNL A   1      42.987  26.601  28.659  1.00  0.00     0.031 C 
ATOM     32  C   UNL A   1      38.585  28.965  28.108  1.00  0.00     0.029 A 
ATOM     33  N   UNL A   1      40.194  30.050  29.220  1.00  0.00    -0.354 N 
ATOM     34  C   UNL A   1      44.033  28.177  29.948  1.00  0.00     0.074 A 
ATOM     35  C   UNL A   1      44.118  26.890  29.291  1.00  0.00     0.031 C 
ATOM     36  C   UNL A   1      38.097  30.169  28.448  1.00  0.00     0.029 A 
ATOM     37  C   UNL A   1      39.095  30.878  29.240  1.00  0.00     0.049 A 
ATOM     38  H   UNL A   1      41.064  30.298  29.607  1.00  0.00     0.167 HD
ATOM     39  C   UNL A   1      45.034  28.745  30.659  1.00  0.00     0.031 A 
ATOM     40  C   UNL A   1      38.895  32.049  29.874  1.00  0.00     0.031 A 
ATOM     41  C   UNL A   1      44.941  30.032  31.296  1.00  0.00     0.049 A 
ATOM     42  C   UNL A   1      40.002  32.620  30.717  1.00  0.00     0.074 A 
ATOM     43  C   UNL A   1      45.918  30.715  32.000  1.00  0.00     0.029 A 
ATOM     44  N   UNL A   1      43.806  30.826  31.314  1.00  0.00    -0.354 N 
ATOM     45  N   UNL A   1      41.210  32.150  30.915  1.00  0.00    -0.248 NA
ATOM     46  C   UNL A   1      39.712  33.868  31.436  1.00  0.00     0.031 C 
ATOM     47  C   UNL A   1      45.355  31.898  32.490  1.00  0.00     0.029 A 
ATOM     48  C   UNL A   1      44.043  31.973  32.051  1.00  0.00     0.049 A 
ATOM     49  H   UNL A   1      42.955  30.607  30.868  1.00  0.00     0.167 HD
ATOM     50  C   UNL A   1      41.827  33.050  31.775  1.00  0.00     0.074 A 
ATOM     51  C   UNL A   1      40.868  34.103  32.042  1.00  0.00     0.031 C 
ATOM     52  C   UNL A   1      43.073  33.006  32.307  1.00  0.00     0.031 A 
BRANCH  39  53
ATOM     53  C   UNL A   1      46.312  27.971  30.829  1.00  0.00    -0.014 A 
ATOM     54  C   UNL A   1      46.446  26.990  31.827  1.00  0.00     0.010 A 
ATOM     55  C   UNL A   1      47.362  28.167  29.913  1.00  0.00     0.010 A 
ATOM     56  C   UNL A   1      47.614  26.225  31.910  1.00  0.00     0.020 A 
ATOM     57  C   UNL A   1      48.523  27.393  29.982  1.00  0.00     0.020 A 
ATOM     58  C   UNL A   1      48.644  26.430  30.986  1.00  0.00     0.054 A 
BRANCH  58  59
ATOM     59  S   UNL A   1      50.121  25.381  31.079  1.00  0.00     0.124 S 
ATOM     60  O   UNL A   1      51.177  26.366  31.297  1.00  0.00    -0.237 OA
ATOM     61  O   UNL A   1      49.828  24.513  32.217  1.00  0.00    -0.237 OA
ATOM     62  O   UNL A   1      50.153  24.711  29.781  1.00  0.00    -0.744 OA
ENDBRANCH  58  59
ENDBRANCH  39  53
BRANCH  40  63
ATOM     63  C   UNL A   1      37.566  32.716  29.809  1.00  0.00    -0.014 A 
ATOM     64  C   UNL A   1      36.588  32.467  30.787  1.00  0.00     0.010 A 
ATOM     65  C   UNL A   1      37.268  33.593  28.750  1.00  0.00     0.010 A 
ATOM     66  C   UNL A   1      35.326  33.064  30.691  1.00  0.00     0.020 A 
ATOM     67  C   UNL A   1      36.019  34.212  28.665  1.00  0.00     0.020 A 
ATOM     68  C   UNL A   1      35.049  33.929  29.628  1.00  0.00     0.054 A 
BRANCH  68  69
ATOM     69  S   UNL A   1      33.415  34.713  29.529  1.00  0.00     0.124 S 
ATOM     70  O   UNL A   1      33.728  35.981  28.879  1.00  0.00    -0.237 OA
ATOM     71  O   UNL A   1      32.652  33.761  28.725  1.00  0.00    -0.237 OA
ATOM     72  O   UNL A   1      33.000  34.808  30.926  1.00  0.00    -0.744 OA
ENDBRANCH  68  69
ENDBRANCH  40  63
BRANCH  52  73
ATOM     73  C   UNL A   1      43.473  34.131  33.219  1.00  0.00    -0.014 A 
ATOM     74  C   UNL A   1      43.193  34.074  34.595  1.00  0.00     0.010 A 
ATOM     75  C   UNL A   1      44.188  35.227  32.703  1.00  0.00     0.010 A 
ATOM     76  C   UNL A   1      43.607  35.107  35.440  1.00  0.00     0.020 A 
ATOM     77  C   UNL A   1      44.622  36.249  33.550  1.00  0.00     0.020 A 
ATOM     78  C   UNL A   1      44.319  36.188  34.912  1.00  0.00     0.054 A 
BRANCH  78  79
ATOM     79  S   UNL A   1      44.895  37.488  36.037  1.00  0.00     0.124 S 
ATOM     80  O   UNL A   1      46.148  36.926  36.535  1.00  0.00    -0.237 OA
ATOM     81  O   UNL A   1      45.033  38.643  35.152  1.00  0.00    -0.237 OA
ATOM     82  O   UNL A   1      43.822  37.593  37.023  1.00  0.00    -0.744 OA
ENDBRANCH  78  79
ENDBRANCH  52  73
ENDBRANCH  26  27
ENDBRANCH  19  21
ENDBRANCH  18  19
ENDBRANCH  17  18
ENDBRANCH   1  17
TORSDOF 17
ENDMDL
MODEL 3
REMARK VINA RESULT:      -8.8      2.398     10.122
REMARK SMILES CC(C)Cc1ccc([C@H](C)C(=O)OCCOC(=O)c2ccc(-c3c4nc(c(-c5ccc(S(=O)(=O)[O-])cc5)c5ccc([nH]5)c(-c5ccc(S(=O)(=O)[O-])cc5)c5nc(c(-c6ccc(S(=O)(=O)[O-])cc6)c6ccc3[nH]6)C=C5)C=C4)cc2)cc1
REMARK SMILES IDX 14 1 13 2 11 3 12 4 9 5 10 6 8 7 5 8 6 9 80 10 7 11 79 12
REMARK SMILES IDX 4 13 2 14 1 15 3 16 15 17 16 18 17 19 18 20 19 21 20 22
REMARK SMILES IDX 78 23 21 24 77 25 22 26 23 27 24 28 71 29 25 30 76 31 70 32
REMARK SMILES IDX 72 33 26 34 75 35 69 36 68 37 27 39 57 40 38 41 56 42 39 43
REMARK SMILES IDX 42 44 55 45 73 46 40 47 41 48 54 50 74 51 43 52 28 53 29 54
REMARK SMILES IDX 37 55 30 56 36 57 31 58 32 59 33 60 34 61 35 62 58 63 59 64
REMARK SMILES IDX 67 65 60 66 66 67 61 68 62 69 63 70 64 71 65 72 44 73 45 74
REMARK SMILES IDX 53 75 46 76 52 77 47 78 48 79 49 80 50 81 51 82
REMARK H PARENT 72 38 42 49
REMARK Flexibility Score: inf
ROOT
ATOM      1  C   UNL A   1      40.749  20.040  26.305  1.00  0.00     0.274 C 
ENDROOT
BRANCH   1   2
ATOM      2  O   UNL A   1      41.658  20.747  27.168  1.00  0.00    -0.462 OA
BRANCH   2   3
ATOM      3  C   UNL A   1      42.492  21.630  26.553  1.00  0.00     0.313 C 
ATOM      4  O   UNL A   1      43.172  21.363  25.567  1.00  0.00    -0.252 OA
BRANCH   3   5
ATOM      5  C   UNL A   1      42.523  22.996  27.237  1.00  0.00     0.126 C 
ATOM      6  C   UNL A   1      42.371  22.959  28.753  1.00  0.00     0.025 C 
BRANCH   5   7
ATOM      7  C   UNL A   1      43.720  23.818  26.801  1.00  0.00    -0.034 A 
ATOM      8  C   UNL A   1      45.908  25.480  26.178  1.00  0.00    -0.048 A 
ATOM      9  C   UNL A   1      44.704  25.594  25.472  1.00  0.00     0.004 A 
ATOM     10  C   UNL A   1      46.028  24.483  27.152  1.00  0.00     0.004 A 
ATOM     11  C   UNL A   1      43.625  24.761  25.769  1.00  0.00     0.005 A 
ATOM     12  C   UNL A   1      44.943  23.668  27.469  1.00  0.00     0.005 A 
BRANCH   8  13
ATOM     13  C   UNL A   1      47.036  26.451  25.930  1.00  0.00     0.038 C 
BRANCH  13  14
ATOM     14  C   UNL A   1      48.317  25.779  25.391  1.00  0.00    -0.013 C 
ATOM     15  C   UNL A   1      48.279  25.573  23.874  1.00  0.00     0.008 C 
ATOM     16  C   UNL A   1      49.538  26.629  25.754  1.00  0.00     0.008 C 
ENDBRANCH  13  14
ENDBRANCH   8  13
ENDBRANCH   5   7
ENDBRANCH   3   5
ENDBRANCH   2   3
ENDBRANCH   1   2
BRANCH   1  17
ATOM     17  C   UNL A   1      39.716  20.985  25.687  1.00  0.00     0.275 C 
BRANCH  17  18
ATOM     18  O   UNL A   1      39.238  21.953  26.639  1.00  0.00    -0.458 OA
BRANCH  18  19
ATOM     19  C   UNL A   1      38.665  23.058  26.106  1.00  0.00     0.338 C 
ATOM     20  O   UNL A   1      37.780  23.106  25.270  1.00  0.00    -0.246 OA
BRANCH  19  21
ATOM     21  C   UNL A   1      39.206  24.250  26.772  1.00  0.00     0.060 A 
ATOM     22  C   UNL A   1      38.931  24.445  28.126  1.00  0.00     0.016 A 
ATOM     23  C   UNL A   1      39.928  25.199  26.050  1.00  0.00     0.016 A 
ATOM     24  C   UNL A   1      39.381  25.592  28.774  1.00  0.00     0.010 A 
ATOM     25  C   UNL A   1      40.399  26.340  26.705  1.00  0.00     0.010 A 
ATOM     26  C   UNL A   1      40.132  26.541  28.072  1.00  0.00    -0.014 A 
BRANCH  26  27
ATOM     27  C   UNL A   1      40.671  27.730  28.771  1.00  0.00     0.031 A 
ATOM     28  C   UNL A   1      39.789  28.915  29.033  1.00  0.00     0.074 A 
ATOM     29  C   UNL A   1      41.968  27.747  29.134  1.00  0.00     0.049 A 
ATOM     30  N   UNL A   1      40.117  30.100  29.473  1.00  0.00    -0.248 NA
ATOM     31  C   UNL A   1      38.352  28.747  28.763  1.00  0.00     0.031 C 
ATOM     32  C   UNL A   1      42.909  26.636  28.968  1.00  0.00     0.029 A 
ATOM     33  N   UNL A   1      42.726  28.742  29.698  1.00  0.00    -0.354 N 
ATOM     34  C   UNL A   1      38.937  30.834  29.501  1.00  0.00     0.074 A 
ATOM     35  C   UNL A   1      37.881  29.958  29.037  1.00  0.00     0.031 C 
ATOM     36  C   UNL A   1      44.121  27.017  29.404  1.00  0.00     0.029 A 
ATOM     37  C   UNL A   1      44.056  28.413  29.820  1.00  0.00     0.049 A 
ATOM     38  H   UNL A   1      42.355  29.607  29.987  1.00  0.00     0.167 HD
ATOM     39  C   UNL A   1      38.760  32.124  29.870  1.00  0.00     0.031 A 
ATOM     40  C   UNL A   1      45.115  29.167  30.172  1.00  0.00     0.031 A 
ATOM     41  C   UNL A   1      39.815  32.979  30.342  1.00  0.00     0.049 A 
ATOM     42  C   UNL A   1      44.897  30.618  30.505  1.00  0.00     0.074 A 
ATOM     43  C   UNL A   1      39.728  34.288  30.785  1.00  0.00     0.029 A 
ATOM     44  N   UNL A   1      41.150  32.617  30.427  1.00  0.00    -0.354 N 
ATOM     45  N   UNL A   1      43.773  31.292  30.545  1.00  0.00    -0.248 NA
ATOM     46  C   UNL A   1      46.092  31.412  30.823  1.00  0.00     0.031 C 
ATOM     47  C   UNL A   1      41.018  34.734  31.085  1.00  0.00     0.029 A 
ATOM     48  C   UNL A   1      41.902  33.688  30.875  1.00  0.00     0.049 A 
ATOM     49  H   UNL A   1      41.510  31.728  30.202  1.00  0.00     0.167 HD
ATOM     50  C   UNL A   1      44.125  32.589  30.900  1.00  0.00     0.074 A 
ATOM     51  C   UNL A   1      45.562  32.599  31.085  1.00  0.00     0.031 C 
ATOM     52  C   UNL A   1      43.332  33.678  31.049  1.00  0.00     0.031 A 
BRANCH  39  53
ATOM     53  C   UNL A   1      37.383  32.715  29.743  1.00  0.00    -0.014 A 
ATOM     54  C   UNL A   1      36.541  32.854  30.861  1.00  0.00     0.010 A 
ATOM     55  C   UNL A   1      36.963  33.222  28.499  1.00  0.00     0.010 A 
ATOM     56  C   UNL A   1      35.299  33.484  30.733  1.00  0.00     0.020 A 
ATOM     57  C   UNL A   1      35.731  33.867  28.372  1.00  0.00     0.020 A 
ATOM     58  C   UNL A   1      34.902  33.988  29.489  1.00  0.00     0.054 A 
BRANCH  58  59
ATOM     59  S   UNL A   1      33.314  34.855  29.366  1.00  0.00     0.124 S 
ATOM     60  O   UNL A   1      33.707  36.119  28.748  1.00  0.00    -0.237 OA
ATOM     61  O   UNL A   1      32.525  33.963  28.521  1.00  0.00    -0.237 OA
ATOM     62  O   UNL A   1      32.864  34.954  30.752  1.00  0.00    -0.744 OA
ENDBRANCH  58  59
ENDBRANCH  39  53
BRANCH  40  63
ATOM     63  C   UNL A   1      46.487  28.592  30.140  1.00  0.00    -0.014 A 
ATOM     64  C   UNL A   1      47.238  28.584  28.953  1.00  0.00     0.010 A 
ATOM     65  C   UNL A   1      47.041  28.028  31.304  1.00  0.00     0.010 A 
ATOM     66  C   UNL A   1      48.508  27.999  28.924  1.00  0.00     0.020 A 
ATOM     67  C   UNL A   1      48.320  27.467  31.287  1.00  0.00     0.020 A 
ATOM     68  C   UNL A   1      49.039  27.440  30.090  1.00  0.00     0.054 A 
BRANCH  68  69
ATOM     69  S   UNL A   1      50.697  26.704  30.042  1.00  0.00     0.124 S 
ATOM     70  O   UNL A   1      51.381  27.566  29.084  1.00  0.00    -0.237 OA
ATOM     71  O   UNL A   1      51.139  26.823  31.430  1.00  0.00    -0.237 OA
ATOM     72  O   UNL A   1      50.449  25.337  29.592  1.00  0.00    -0.744 OA
ENDBRANCH  68  69
ENDBRANCH  40  63
BRANCH  52  73
ATOM     73  C   UNL A   1      43.998  34.966  31.442  1.00  0.00    -0.014 A 
ATOM     74  C   UNL A   1      44.416  35.886  30.466  1.00  0.00     0.010 A 
ATOM     75  C   UNL A   1      44.153  35.284  32.803  1.00  0.00     0.010 A 
ATOM     76  C   UNL A   1      44.997  37.099  30.844  1.00  0.00     0.020 A 
ATOM     77  C   UNL A   1      44.712  36.506  33.185  1.00  0.00     0.020 A 
ATOM     78  C   UNL A   1      45.141  37.402  32.202  1.00  0.00     0.054 A 
BRANCH  78  79
ATOM     79  S   UNL A   1      45.844  39.006  32.669  1.00  0.00     0.124 S 
ATOM     80  O   UNL A   1      45.816  39.731  31.402  1.00  0.00    -0.237 OA
ATOM     81  O   UNL A   1      44.911  39.484  33.688  1.00  0.00    -0.237 OA
ATOM     82  O   UNL A   1      47.177  38.668  33.165  1.00  0.00    -0.744 OA
ENDBRANCH  78  79
ENDBRANCH  52  73
ENDBRANCH  26  27
ENDBRANCH  19  21
ENDBRANCH  18  19
ENDBRANCH  17  18
ENDBRANCH   1  17
TORSDOF 17
ENDMDL
