MODEL 1
REMARK VINA RESULT:     -11.6      0.000      0.000
REMARK SMILES COC(=O)[C@@H]1CN(C(=O)NC(=O)CCCC(=O)OCCOC(=O)c2ccc(-c3c4nc(c(-c5ccc(S(=O)(=O)[O-])cc5)c5ccc([nH]5)c(-c5ccc(S(=O)(=O)[O-])cc5)c5nc(c(-c6ccc(S(=O)(=O)[O-])cc6)c6ccc3[nH]6)C=C5)C=C4)cc2)C[C@H]1C
REMARK SMILES IDX 18 1 16 2 17 3 15 4 14 5 13 6 11 7 8 8 9 9 10 10 12 12 7 13
REMARK SMILES IDX 5 14 6 15 85 16 84 17 86 18 3 19 4 20 2 21 1 22 19 23 20 24
REMARK SMILES IDX 21 25 22 26 23 27 24 28 25 29 83 30 26 31 82 32 27 33 28 34
REMARK SMILES IDX 29 35 76 36 30 37 81 38 75 39 77 40 31 41 80 42 74 43 73 44
REMARK SMILES IDX 32 46 62 47 43 48 61 49 44 50 47 51 60 52 78 53 45 54 46 55
REMARK SMILES IDX 59 57 79 58 48 59 33 60 34 61 42 62 35 63 41 64 36 65 37 66
REMARK SMILES IDX 38 67 39 68 40 69 63 70 64 71 72 72 65 73 71 74 66 75 67 76
REMARK SMILES IDX 68 77 69 78 70 79 49 80 50 81 58 82 51 83 57 84 52 85 53 86
REMARK SMILES IDX 54 87 55 88 56 89
REMARK H PARENT 10 11 77 45 47 56
REMARK Flexibility Score: inf
ROOT
ATOM      1  O   UNL A   1      30.664  28.815  24.250  1.00  0.00    -0.462 OA
ENDROOT
BRANCH   1   2
ATOM      2  C   UNL A   1      29.576  27.235  24.191  1.00  0.00     0.305 C 
ATOM      3  O   UNL A   1      28.547  27.106  23.475  1.00  0.00    -0.252 OA
BRANCH   2   4
ATOM      4  C   UNL A   1      29.740  25.868  24.995  1.00  0.00     0.123 C 
BRANCH   4   5
ATOM      5  C   UNL A   1      30.834  24.933  24.462  1.00  0.00     0.022 C 
BRANCH   5   6
ATOM      6  C   UNL A   1      32.281  25.404  24.417  1.00  0.00     0.101 C 
BRANCH   6   7
ATOM      7  C   UNL A   1      32.891  25.782  23.093  1.00  0.00     0.228 C 
ATOM      8  C   UNL A   1      33.518  23.568  21.922  1.00  0.00     0.324 C 
ATOM      9  O   UNL A   1      33.430  23.288  20.724  1.00  0.00    -0.248 OA
ATOM     10  N   UNL A   1      33.547  24.900  22.258  1.00  0.00    -0.278 N 
ATOM     11  H   UNL A   1      34.249  25.367  21.749  1.00  0.00     0.174 HD
ATOM     12  O   UNL A   1      32.844  26.966  22.734  1.00  0.00    -0.275 OA
BRANCH   8  13
ATOM     13  N   UNL A   1      33.384  22.603  22.871  1.00  0.00    -0.323 N 
ATOM     14  C   UNL A   1      32.705  20.004  24.555  1.00  0.00     0.123 C 
ATOM     15  C   UNL A   1      32.136  21.204  23.029  1.00  0.00     0.137 C 
ATOM     16  C   UNL A   1      34.442  20.932  25.353  1.00  0.00     0.021 C 
ATOM     17  C   UNL A   1      34.712  22.579  24.209  1.00  0.00     0.125 C 
ATOM     18  C   UNL A   1      34.803  21.768  26.729  1.00  0.00     0.010 C 
BRANCH  14  19
ATOM     19  C   UNL A   1      32.326  18.574  24.062  1.00  0.00     0.310 C 
ATOM     20  O   UNL A   1      32.577  18.136  22.949  1.00  0.00    -0.252 OA
BRANCH  19  21
ATOM     21  O   UNL A   1      32.013  17.776  25.117  1.00  0.00    -0.469 OA
ATOM     22  C   UNL A   1      32.769  16.579  25.233  1.00  0.00     0.282 C 
ENDBRANCH  19  21
ENDBRANCH  14  19
ENDBRANCH   8  13
ENDBRANCH   6   7
ENDBRANCH   5   6
ENDBRANCH   4   5
ENDBRANCH   2   4
ENDBRANCH   1   2
BRANCH   1  23
ATOM     23  C   UNL A   1      31.976  29.525  25.271  1.00  0.00     0.274 C 
BRANCH  23  24
ATOM     24  C   UNL A   1      33.336  28.508  25.840  1.00  0.00     0.275 C 
BRANCH  24  25
ATOM     25  O   UNL A   1      33.914  28.726  27.225  1.00  0.00    -0.458 OA
BRANCH  25  26
ATOM     26  C   UNL A   1      34.348  29.897  27.776  1.00  0.00     0.338 C 
ATOM     27  O   UNL A   1      33.664  30.882  27.980  1.00  0.00    -0.246 OA
BRANCH  26  28
ATOM     28  C   UNL A   1      35.802  29.924  28.183  1.00  0.00     0.060 A 
ATOM     29  C   UNL A   1      36.822  29.998  27.217  1.00  0.00     0.016 A 
ATOM     30  C   UNL A   1      36.181  29.575  29.481  1.00  0.00     0.016 A 
ATOM     31  C   UNL A   1      38.177  29.828  27.525  1.00  0.00     0.010 A 
ATOM     32  C   UNL A   1      37.540  29.333  29.789  1.00  0.00     0.010 A 
ATOM     33  C   UNL A   1      38.544  29.458  28.811  1.00  0.00    -0.014 A 
BRANCH  33  34
ATOM     34  C   UNL A   1      39.958  29.097  29.082  1.00  0.00     0.031 A 
ATOM     35  C   UNL A   1      40.893  30.135  29.634  1.00  0.00     0.074 A 
ATOM     36  C   UNL A   1      40.376  27.830  28.897  1.00  0.00     0.049 A 
ATOM     37  N   UNL A   1      42.194  30.102  29.753  1.00  0.00    -0.248 NA
ATOM     38  C   UNL A   1      40.275  31.373  30.134  1.00  0.00     0.031 C 
ATOM     39  C   UNL A   1      39.509  26.704  28.544  1.00  0.00     0.029 A 
ATOM     40  N   UNL A   1      41.629  27.276  28.971  1.00  0.00    -0.354 N 
ATOM     41  C   UNL A   1      42.556  31.330  30.302  1.00  0.00     0.074 A 
ATOM     42  C   UNL A   1      41.335  32.073  30.516  1.00  0.00     0.031 C 
ATOM     43  C   UNL A   1      40.262  25.603  28.386  1.00  0.00     0.029 A 
ATOM     44  C   UNL A   1      41.666  25.964  28.557  1.00  0.00     0.049 A 
ATOM     45  H   UNL A   1      42.421  27.768  29.287  1.00  0.00     0.167 HD
ATOM     46  C   UNL A   1      43.802  31.793  30.567  1.00  0.00     0.031 A 
ATOM     47  C   UNL A   1      42.720  25.171  28.280  1.00  0.00     0.031 A 
ATOM     48  C   UNL A   1      44.994  31.026  30.311  1.00  0.00     0.049 A 
ATOM     49  C   UNL A   1      44.101  25.748  28.448  1.00  0.00     0.074 A 
ATOM     50  C   UNL A   1      46.317  31.395  30.473  1.00  0.00     0.029 A 
ATOM     51  N   UNL A   1      44.999  29.722  29.829  1.00  0.00    -0.354 N 
ATOM     52  N   UNL A   1      44.446  26.942  28.874  1.00  0.00    -0.248 NA
ATOM     53  C   UNL A   1      45.232  24.883  28.090  1.00  0.00     0.031 C 
ATOM     54  C   UNL A   1      47.120  30.334  30.036  1.00  0.00     0.029 A 
ATOM     55  C   UNL A   1      46.298  29.279  29.667  1.00  0.00     0.049 A 
ATOM     56  H   UNL A   1      44.192  29.191  29.635  1.00  0.00     0.167 HD
ATOM     57  C   UNL A   1      45.835  26.965  28.858  1.00  0.00     0.074 A 
ATOM     58  C   UNL A   1      46.264  25.658  28.394  1.00  0.00     0.031 C 
ATOM     59  C   UNL A   1      46.682  27.968  29.197  1.00  0.00     0.031 A 
BRANCH  46  60
ATOM     60  C   UNL A   1      43.934  33.213  31.062  1.00  0.00    -0.014 A 
ATOM     61  C   UNL A   1      43.963  34.310  30.182  1.00  0.00     0.010 A 
ATOM     62  C   UNL A   1      44.026  33.454  32.446  1.00  0.00     0.010 A 
ATOM     63  C   UNL A   1      44.123  35.612  30.673  1.00  0.00     0.020 A 
ATOM     64  C   UNL A   1      44.161  34.754  32.943  1.00  0.00     0.020 A 
ATOM     65  C   UNL A   1      44.228  35.824  32.052  1.00  0.00     0.054 A 
BRANCH  65  66
ATOM     66  S   UNL A   1      44.433  37.522  32.663  1.00  0.00     0.124 S 
ATOM     67  O   UNL A   1      43.195  37.725  33.414  1.00  0.00    -0.237 OA
ATOM     68  O   UNL A   1      45.646  37.429  33.469  1.00  0.00    -0.237 OA
ATOM     69  O   UNL A   1      44.558  38.319  31.444  1.00  0.00    -0.744 OA
ENDBRANCH  65  66
ENDBRANCH  46  60
BRANCH  47  70
ATOM     70  C   UNL A   1      42.502  23.798  27.741  1.00  0.00    -0.014 A 
ATOM     71  C   UNL A   1      42.411  23.568  26.357  1.00  0.00     0.010 A 
ATOM     72  C   UNL A   1      42.412  22.699  28.618  1.00  0.00     0.010 A 
ATOM     73  C   UNL A   1      42.233  22.271  25.863  1.00  0.00     0.020 A 
ATOM     74  C   UNL A   1      42.264  21.399  28.127  1.00  0.00     0.020 A 
ATOM     75  C   UNL A   1      42.167  21.193  26.751  1.00  0.00     0.054 A 
BRANCH  75  76
ATOM     76  S   UNL A   1      42.002  19.512  26.084  1.00  0.00     0.124 S 
ATOM     77  O   UNL A   1      42.475  18.696  27.197  1.00  0.00    -0.237 OA
ATOM     78  O   UNL A   1      40.572  19.427  25.798  1.00  0.00    -0.237 OA
ATOM     79  O   UNL A   1      42.864  19.525  24.904  1.00  0.00    -0.744 OA
ENDBRANCH  75  76
ENDBRANCH  47  70
BRANCH  59  80
ATOM     80  C   UNL A   1      48.154  27.672  29.118  1.00  0.00    -0.014 A 
ATOM     81  C   UNL A   1      48.853  27.765  27.903  1.00  0.00     0.010 A 
ATOM     82  C   UNL A   1      48.853  27.347  30.295  1.00  0.00     0.010 A 
ATOM     83  C   UNL A   1      50.224  27.507  27.862  1.00  0.00     0.020 A 
ATOM     84  C   UNL A   1      50.229  27.116  30.262  1.00  0.00     0.020 A 
ATOM     85  C   UNL A   1      50.904  27.185  29.041  1.00  0.00     0.054 A 
BRANCH  85  86
ATOM     86  S   UNL A   1      52.692  26.899  28.968  1.00  0.00     0.124 S 
ATOM     87  O   UNL A   1      52.915  26.073  30.152  1.00  0.00    -0.237 OA
ATOM     88  O   UNL A   1      52.855  26.218  27.686  1.00  0.00    -0.237 OA
ATOM     89  O   UNL A   1      53.261  28.243  29.030  1.00  0.00    -0.744 OA
ENDBRANCH  85  86
ENDBRANCH  59  80
ENDBRANCH  33  34
ENDBRANCH  26  28
ENDBRANCH  25  26
ENDBRANCH  24  25
ENDBRANCH  23  24
ENDBRANCH   1  23
TORSDOF 20
ENDMDL
MODEL 2
REMARK VINA RESULT:     -11.4      1.785      2.607
REMARK SMILES COC(=O)[C@@H]1CN(C(=O)NC(=O)CCCC(=O)OCCOC(=O)c2ccc(-c3c4nc(c(-c5ccc(S(=O)(=O)[O-])cc5)c5ccc([nH]5)c(-c5ccc(S(=O)(=O)[O-])cc5)c5nc(c(-c6ccc(S(=O)(=O)[O-])cc6)c6ccc3[nH]6)C=C5)C=C4)cc2)C[C@H]1C
REMARK SMILES IDX 18 1 16 2 17 3 15 4 14 5 13 6 11 7 8 8 9 9 10 10 12 12 7 13
REMARK SMILES IDX 5 14 6 15 85 16 84 17 86 18 3 19 4 20 2 21 1 22 19 23 20 24
REMARK SMILES IDX 21 25 22 26 23 27 24 28 25 29 83 30 26 31 82 32 27 33 28 34
REMARK SMILES IDX 29 35 76 36 30 37 81 38 75 39 77 40 31 41 80 42 74 43 73 44
REMARK SMILES IDX 32 46 62 47 43 48 61 49 44 50 47 51 60 52 78 53 45 54 46 55
REMARK SMILES IDX 59 57 79 58 48 59 33 60 34 61 42 62 35 63 41 64 36 65 37 66
REMARK SMILES IDX 38 67 39 68 40 69 63 70 64 71 72 72 65 73 71 74 66 75 67 76
REMARK SMILES IDX 68 77 69 78 70 79 49 80 50 81 58 82 51 83 57 84 52 85 53 86
REMARK SMILES IDX 54 87 55 88 56 89
REMARK H PARENT 10 11 77 45 47 56
REMARK Flexibility Score: inf
ROOT
ATOM      1  O   UNL A   1      33.593  29.274  25.621  1.00  0.00    -0.462 OA
ENDROOT
BRANCH   1   2
ATOM      2  C   UNL A   1      33.591  28.308  23.963  1.00  0.00     0.305 C 
ATOM      3  O   UNL A   1      34.094  28.736  22.890  1.00  0.00    -0.252 OA
BRANCH   2   4
ATOM      4  C   UNL A   1      32.979  26.873  23.635  1.00  0.00     0.123 C 
BRANCH   4   5
ATOM      5  C   UNL A   1      33.458  25.741  24.554  1.00  0.00     0.022 C 
BRANCH   5   6
ATOM      6  C   UNL A   1      33.262  25.850  26.059  1.00  0.00     0.101 C 
BRANCH   6   7
ATOM      7  C   UNL A   1      31.887  26.130  26.605  1.00  0.00     0.228 C 
ATOM      8  C   UNL A   1      30.573  23.914  26.437  1.00  0.00     0.324 C 
ATOM      9  O   UNL A   1      29.759  23.448  27.239  1.00  0.00    -0.248 OA
ATOM     10  N   UNL A   1      30.816  25.264  26.500  1.00  0.00    -0.278 N 
ATOM     11  H   UNL A   1      29.971  25.768  26.455  1.00  0.00     0.174 HD
ATOM     12  O   UNL A   1      31.676  27.220  27.153  1.00  0.00    -0.275 OA
BRANCH   8  13
ATOM     13  N   UNL A   1      31.340  23.092  25.671  1.00  0.00    -0.323 N 
ATOM     14  C   UNL A   1      33.067  20.725  24.459  1.00  0.00     0.123 C 
ATOM     15  C   UNL A   1      32.434  21.638  26.151  1.00  0.00     0.137 C 
ATOM     16  C   UNL A   1      32.259  21.894  22.880  1.00  0.00     0.021 C 
ATOM     17  C   UNL A   1      31.235  23.371  23.810  1.00  0.00     0.125 C 
ATOM     18  C   UNL A   1      32.868  22.951  21.768  1.00  0.00     0.010 C 
BRANCH  14  19
ATOM     19  C   UNL A   1      33.080  19.213  24.839  1.00  0.00     0.310 C 
ATOM     20  O   UNL A   1      32.110  18.473  24.773  1.00  0.00    -0.252 OA
BRANCH  19  21
ATOM     21  O   UNL A   1      34.357  18.751  24.904  1.00  0.00    -0.469 OA
ATOM     22  C   UNL A   1      35.376  19.740  24.858  1.00  0.00     0.282 C 
ENDBRANCH  19  21
ENDBRANCH  14  19
ENDBRANCH   8  13
ENDBRANCH   6   7
ENDBRANCH   5   6
ENDBRANCH   4   5
ENDBRANCH   2   4
ENDBRANCH   1   2
BRANCH   1  23
ATOM     23  C   UNL A   1      32.657  30.594  26.428  1.00  0.00     0.274 C 
BRANCH  23  24
ATOM     24  C   UNL A   1      33.433  31.633  27.664  1.00  0.00     0.275 C 
BRANCH  24  25
ATOM     25  O   UNL A   1      34.919  31.503  27.935  1.00  0.00    -0.458 OA
BRANCH  25  26
ATOM     26  C   UNL A   1      35.540  31.354  29.141  1.00  0.00     0.338 C 
ATOM     27  O   UNL A   1      35.143  31.793  30.204  1.00  0.00    -0.246 OA
BRANCH  26  28
ATOM     28  C   UNL A   1      36.813  30.542  29.120  1.00  0.00     0.060 A 
ATOM     29  C   UNL A   1      37.542  30.311  30.302  1.00  0.00     0.016 A 
ATOM     30  C   UNL A   1      37.455  30.261  27.913  1.00  0.00     0.016 A 
ATOM     31  C   UNL A   1      38.820  29.739  30.308  1.00  0.00     0.010 A 
ATOM     32  C   UNL A   1      38.772  29.747  27.905  1.00  0.00     0.010 A 
ATOM     33  C   UNL A   1      39.461  29.484  29.104  1.00  0.00    -0.014 A 
BRANCH  33  34
ATOM     34  C   UNL A   1      40.882  29.057  29.119  1.00  0.00     0.031 A 
ATOM     35  C   UNL A   1      41.951  30.058  29.456  1.00  0.00     0.074 A 
ATOM     36  C   UNL A   1      41.200  27.767  28.898  1.00  0.00     0.049 A 
ATOM     37  N   UNL A   1      43.248  29.961  29.334  1.00  0.00    -0.248 NA
ATOM     38  C   UNL A   1      41.494  31.336  30.025  1.00  0.00     0.031 C 
ATOM     39  C   UNL A   1      40.231  26.679  28.746  1.00  0.00     0.029 A 
ATOM     40  N   UNL A   1      42.417  27.152  28.755  1.00  0.00    -0.354 N 
ATOM     41  C   UNL A   1      43.762  31.180  29.769  1.00  0.00     0.074 A 
ATOM     42  C   UNL A   1      42.638  31.989  30.183  1.00  0.00     0.031 C 
ATOM     43  C   UNL A   1      40.890  25.539  28.484  1.00  0.00     0.029 A 
ATOM     44  C   UNL A   1      42.316  25.831  28.382  1.00  0.00     0.049 A 
ATOM     45  H   UNL A   1      43.276  27.609  28.905  1.00  0.00     0.167 HD
ATOM     46  C   UNL A   1      45.056  31.585  29.785  1.00  0.00     0.031 A 
ATOM     47  C   UNL A   1      43.262  24.980  27.938  1.00  0.00     0.031 A 
ATOM     48  C   UNL A   1      46.143  30.753  29.336  1.00  0.00     0.049 A 
ATOM     49  C   UNL A   1      44.676  25.489  27.831  1.00  0.00     0.074 A 
ATOM     50  C   UNL A   1      47.488  31.057  29.240  1.00  0.00     0.029 A 
ATOM     51  N   UNL A   1      45.997  29.441  28.901  1.00  0.00    -0.354 N 
ATOM     52  N   UNL A   1      45.149  26.672  28.149  1.00  0.00    -0.248 NA
ATOM     53  C   UNL A   1      45.679  24.560  27.296  1.00  0.00     0.031 C 
ATOM     54  C   UNL A   1      48.145  29.948  28.694  1.00  0.00     0.029 A 
ATOM     55  C   UNL A   1      47.222  28.928  28.514  1.00  0.00     0.049 A 
ATOM     56  H   UNL A   1      45.145  28.947  28.875  1.00  0.00     0.167 HD
ATOM     57  C   UNL A   1      46.510  26.624  27.876  1.00  0.00     0.074 A 
ATOM     58  C   UNL A   1      46.784  25.288  27.380  1.00  0.00     0.031 C 
ATOM     59  C   UNL A   1      47.450  27.590  28.022  1.00  0.00     0.031 A 
BRANCH  46  60
ATOM     60  C   UNL A   1      45.342  33.006  30.204  1.00  0.00    -0.014 A 
ATOM     61  C   UNL A   1      45.357  34.067  29.281  1.00  0.00     0.010 A 
ATOM     62  C   UNL A   1      45.599  33.286  31.560  1.00  0.00     0.010 A 
ATOM     63  C   UNL A   1      45.663  35.369  29.698  1.00  0.00     0.020 A 
ATOM     64  C   UNL A   1      45.881  34.588  31.986  1.00  0.00     0.020 A 
ATOM     65  C   UNL A   1      45.930  35.619  31.048  1.00  0.00     0.054 A 
BRANCH  65  66
ATOM     66  S   UNL A   1      46.322  37.316  31.563  1.00  0.00     0.124 S 
ATOM     67  O   UNL A   1      46.173  38.055  30.311  1.00  0.00    -0.237 OA
ATOM     68  O   UNL A   1      45.305  37.587  32.575  1.00  0.00    -0.237 OA
ATOM     69  O   UNL A   1      47.689  37.220  32.069  1.00  0.00    -0.744 OA
ENDBRANCH  65  66
ENDBRANCH  46  60
BRANCH  47  70
ATOM     70  C   UNL A   1      42.885  23.609  27.490  1.00  0.00    -0.014 A 
ATOM     71  C   UNL A   1      42.644  23.329  26.134  1.00  0.00     0.010 A 
ATOM     72  C   UNL A   1      42.791  22.559  28.426  1.00  0.00     0.010 A 
ATOM     73  C   UNL A   1      42.316  22.032  25.724  1.00  0.00     0.020 A 
ATOM     74  C   UNL A   1      42.494  21.256  28.016  1.00  0.00     0.020 A 
ATOM     75  C   UNL A   1      42.249  21.001  26.666  1.00  0.00     0.054 A 
BRANCH  75  76
ATOM     76  S   UNL A   1      41.887  19.314  26.101  1.00  0.00     0.124 S 
ATOM     77  O   UNL A   1      42.323  18.513  27.241  1.00  0.00    -0.237 OA
ATOM     78  O   UNL A   1      40.445  19.362  25.875  1.00  0.00    -0.237 OA
ATOM     79  O   UNL A   1      42.695  19.177  24.892  1.00  0.00    -0.744 OA
ENDBRANCH  75  76
ENDBRANCH  47  70
BRANCH  59  80
ATOM     80  C   UNL A   1      48.867  27.218  27.681  1.00  0.00    -0.014 A 
ATOM     81  C   UNL A   1      49.802  26.908  28.683  1.00  0.00     0.010 A 
ATOM     82  C   UNL A   1      49.247  27.128  26.330  1.00  0.00     0.010 A 
ATOM     83  C   UNL A   1      51.104  26.542  28.338  1.00  0.00     0.020 A 
ATOM     84  C   UNL A   1      50.540  26.736  25.981  1.00  0.00     0.020 A 
ATOM     85  C   UNL A   1      51.465  26.458  26.990  1.00  0.00     0.054 A 
BRANCH  85  86
ATOM     86  S   UNL A   1      53.149  25.937  26.568  1.00  0.00     0.124 S 
ATOM     87  O   UNL A   1      52.919  24.626  25.968  1.00  0.00    -0.237 OA
ATOM     88  O   UNL A   1      53.585  26.983  25.645  1.00  0.00    -0.237 OA
ATOM     89  O   UNL A   1      53.840  25.922  27.855  1.00  0.00    -0.744 OA
ENDBRANCH  85  86
ENDBRANCH  59  80
ENDBRANCH  33  34
ENDBRANCH  26  28
ENDBRANCH  25  26
ENDBRANCH  24  25
ENDBRANCH  23  24
ENDBRANCH   1  23
TORSDOF 20
ENDMDL
MODEL 3
REMARK VINA RESULT:     -11.3      2.988      8.231
REMARK SMILES COC(=O)[C@@H]1CN(C(=O)NC(=O)CCCC(=O)OCCOC(=O)c2ccc(-c3c4nc(c(-c5ccc(S(=O)(=O)[O-])cc5)c5ccc([nH]5)c(-c5ccc(S(=O)(=O)[O-])cc5)c5nc(c(-c6ccc(S(=O)(=O)[O-])cc6)c6ccc3[nH]6)C=C5)C=C4)cc2)C[C@H]1C
REMARK SMILES IDX 18 1 16 2 17 3 15 4 14 5 13 6 11 7 8 8 9 9 10 10 12 12 7 13
REMARK SMILES IDX 5 14 6 15 85 16 84 17 86 18 3 19 4 20 2 21 1 22 19 23 20 24
REMARK SMILES IDX 21 25 22 26 23 27 24 28 25 29 83 30 26 31 82 32 27 33 28 34
REMARK SMILES IDX 29 35 76 36 30 37 81 38 75 39 77 40 31 41 80 42 74 43 73 44
REMARK SMILES IDX 32 46 62 47 43 48 61 49 44 50 47 51 60 52 78 53 45 54 46 55
REMARK SMILES IDX 59 57 79 58 48 59 33 60 34 61 42 62 35 63 41 64 36 65 37 66
REMARK SMILES IDX 38 67 39 68 40 69 63 70 64 71 72 72 65 73 71 74 66 75 67 76
REMARK SMILES IDX 68 77 69 78 70 79 49 80 50 81 58 82 51 83 57 84 52 85 53 86
REMARK SMILES IDX 54 87 55 88 56 89
REMARK H PARENT 10 11 77 45 47 56
REMARK Flexibility Score: inf
ROOT
ATOM      1  O   UNL A   1      37.631  21.538  24.725  1.00  0.00    -0.462 OA
ENDROOT
BRANCH   1   2
ATOM      2  C   UNL A   1      36.453  22.692  23.742  1.00  0.00     0.305 C 
ATOM      3  O   UNL A   1      36.640  23.051  22.549  1.00  0.00    -0.252 OA
BRANCH   2   4
ATOM      4  C   UNL A   1      35.100  23.390  24.217  1.00  0.00     0.123 C 
BRANCH   4   5
ATOM      5  C   UNL A   1      33.947  23.317  23.208  1.00  0.00     0.022 C 
BRANCH   5   6
ATOM      6  C   UNL A   1      32.514  23.165  23.700  1.00  0.00     0.101 C 
BRANCH   6   7
ATOM      7  C   UNL A   1      32.243  22.352  24.938  1.00  0.00     0.228 C 
ATOM      8  C   UNL A   1      30.907  23.883  26.532  1.00  0.00     0.324 C 
ATOM      9  O   UNL A   1      29.973  23.576  27.278  1.00  0.00    -0.248 OA
ATOM     10  N   UNL A   1      31.737  22.871  26.114  1.00  0.00    -0.278 N 
ATOM     11  H   UNL A   1      32.075  22.362  26.886  1.00  0.00     0.174 HD
ATOM     12  O   UNL A   1      32.523  21.147  24.931  1.00  0.00    -0.275 OA
BRANCH   8  13
ATOM     13  N   UNL A   1      30.981  25.128  25.990  1.00  0.00    -0.323 N 
ATOM     14  C   UNL A   1      31.815  28.036  25.041  1.00  0.00     0.123 C 
ATOM     15  C   UNL A   1      32.058  26.602  26.447  1.00  0.00     0.137 C 
ATOM     16  C   UNL A   1      30.365  27.242  23.706  1.00  0.00     0.021 C 
ATOM     17  C   UNL A   1      29.910  25.424  24.467  1.00  0.00     0.125 C 
ATOM     18  C   UNL A   1      28.779  27.553  23.371  1.00  0.00     0.010 C 
BRANCH  14  19
ATOM     19  C   UNL A   1      33.235  28.666  24.907  1.00  0.00     0.310 C 
ATOM     20  O   UNL A   1      34.039  28.382  24.032  1.00  0.00    -0.252 OA
BRANCH  19  21
ATOM     21  O   UNL A   1      33.322  29.801  25.649  1.00  0.00    -0.469 OA
ATOM     22  C   UNL A   1      32.099  30.289  26.181  1.00  0.00     0.282 C 
ENDBRANCH  19  21
ENDBRANCH  14  19
ENDBRANCH   8  13
ENDBRANCH   6   7
ENDBRANCH   5   6
ENDBRANCH   4   5
ENDBRANCH   2   4
ENDBRANCH   1   2
BRANCH   1  23
ATOM     23  C   UNL A   1      37.837  19.775  25.065  1.00  0.00     0.274 C 
BRANCH  23  24
ATOM     24  C   UNL A   1      39.463  19.095  25.384  1.00  0.00     0.275 C 
BRANCH  24  25
ATOM     25  O   UNL A   1      40.401  19.799  26.345  1.00  0.00    -0.458 OA
BRANCH  25  26
ATOM     26  C   UNL A   1      41.663  20.256  26.100  1.00  0.00     0.338 C 
ATOM     27  O   UNL A   1      42.534  19.652  25.502  1.00  0.00    -0.246 OA
BRANCH  26  28
ATOM     28  C   UNL A   1      41.959  21.648  26.604  1.00  0.00     0.060 A 
ATOM     29  C   UNL A   1      42.134  22.719  25.708  1.00  0.00     0.016 A 
ATOM     30  C   UNL A   1      42.364  21.853  27.924  1.00  0.00     0.016 A 
ATOM     31  C   UNL A   1      42.601  23.977  26.108  1.00  0.00     0.010 A 
ATOM     32  C   UNL A   1      42.902  23.098  28.324  1.00  0.00     0.010 A 
ATOM     33  C   UNL A   1      43.023  24.166  27.416  1.00  0.00    -0.014 A 
BRANCH  33  34
ATOM     34  C   UNL A   1      43.691  25.440  27.782  1.00  0.00     0.031 A 
ATOM     35  C   UNL A   1      42.878  26.558  28.372  1.00  0.00     0.074 A 
ATOM     36  C   UNL A   1      45.025  25.564  27.647  1.00  0.00     0.049 A 
ATOM     37  N   UNL A   1      43.205  27.806  28.573  1.00  0.00    -0.248 NA
ATOM     38  C   UNL A   1      41.515  26.215  28.810  1.00  0.00     0.031 C 
ATOM     39  C   UNL A   1      45.932  24.482  27.261  1.00  0.00     0.029 A 
ATOM     40  N   UNL A   1      45.849  26.648  27.809  1.00  0.00    -0.354 N 
ATOM     41  C   UNL A   1      42.076  28.411  29.121  1.00  0.00     0.074 A 
ATOM     42  C   UNL A   1      41.065  27.385  29.245  1.00  0.00     0.031 C 
ATOM     43  C   UNL A   1      47.181  24.967  27.171  1.00  0.00     0.029 A 
ATOM     44  C   UNL A   1      47.147  26.404  27.424  1.00  0.00     0.049 A 
ATOM     45  H   UNL A   1      45.543  27.513  28.166  1.00  0.00     0.167 HD
ATOM     46  C   UNL A   1      41.903  29.713  29.456  1.00  0.00     0.031 A 
ATOM     47  C   UNL A   1      48.170  27.260  27.228  1.00  0.00     0.031 A 
ATOM     48  C   UNL A   1      42.931  30.708  29.289  1.00  0.00     0.049 A 
ATOM     49  C   UNL A   1      47.921  28.725  27.472  1.00  0.00     0.074 A 
ATOM     50  C   UNL A   1      42.872  32.069  29.528  1.00  0.00     0.029 A 
ATOM     51  N   UNL A   1      44.217  30.438  28.833  1.00  0.00    -0.354 N 
ATOM     52  N   UNL A   1      46.825  29.312  27.896  1.00  0.00    -0.248 NA
ATOM     53  C   UNL A   1      49.034  29.643  27.202  1.00  0.00     0.031 C 
ATOM     54  C   UNL A   1      44.102  32.628  29.162  1.00  0.00     0.029 A 
ATOM     55  C   UNL A   1      44.952  31.607  28.761  1.00  0.00     0.049 A 
ATOM     56  H   UNL A   1      44.554  29.543  28.598  1.00  0.00     0.167 HD
ATOM     57  C   UNL A   1      47.122  30.667  27.968  1.00  0.00     0.074 A 
ATOM     58  C   UNL A   1      48.507  30.808  27.556  1.00  0.00     0.031 C 
ATOM     59  C   UNL A   1      46.330  31.703  28.341  1.00  0.00     0.031 A 
BRANCH  46  60
ATOM     60  C   UNL A   1      40.536  30.141  29.931  1.00  0.00    -0.014 A 
ATOM     61  C   UNL A   1      39.458  30.314  29.044  1.00  0.00     0.010 A 
ATOM     62  C   UNL A   1      40.326  30.371  31.304  1.00  0.00     0.010 A 
ATOM     63  C   UNL A   1      38.212  30.749  29.515  1.00  0.00     0.020 A 
ATOM     64  C   UNL A   1      39.077  30.780  31.783  1.00  0.00     0.020 A 
ATOM     65  C   UNL A   1      38.032  30.985  30.882  1.00  0.00     0.054 A 
BRANCH  65  66
ATOM     66  S   UNL A   1      36.407  31.545  31.467  1.00  0.00     0.124 S 
ATOM     67  O   UNL A   1      36.743  32.796  32.144  1.00  0.00    -0.237 OA
ATOM     68  O   UNL A   1      35.651  31.688  30.226  1.00  0.00    -0.237 OA
ATOM     69  O   UNL A   1      35.960  30.464  32.343  1.00  0.00    -0.744 OA
ENDBRANCH  65  66
ENDBRANCH  46  60
BRANCH  47  70
ATOM     70  C   UNL A   1      49.473  26.762  26.701  1.00  0.00    -0.014 A 
ATOM     71  C   UNL A   1      50.446  26.226  27.563  1.00  0.00     0.010 A 
ATOM     72  C   UNL A   1      49.738  26.796  25.318  1.00  0.00     0.010 A 
ATOM     73  C   UNL A   1      51.654  25.738  27.053  1.00  0.00     0.020 A 
ATOM     74  C   UNL A   1      50.931  26.282  24.802  1.00  0.00     0.020 A 
ATOM     75  C   UNL A   1      51.887  25.763  25.675  1.00  0.00     0.054 A 
BRANCH  75  76
ATOM     76  S   UNL A   1      53.434  25.064  25.031  1.00  0.00     0.124 S 
ATOM     77  O   UNL A   1      53.240  23.636  25.260  1.00  0.00    -0.237 OA
ATOM     78  O   UNL A   1      53.414  25.490  23.634  1.00  0.00    -0.237 OA
ATOM     79  O   UNL A   1      54.464  25.697  25.852  1.00  0.00    -0.744 OA
ENDBRANCH  75  76
ENDBRANCH  47  70
BRANCH  59  80
ATOM     80  C   UNL A   1      46.959  33.068  28.360  1.00  0.00    -0.014 A 
ATOM     81  C   UNL A   1      46.915  33.908  27.235  1.00  0.00     0.010 A 
ATOM     82  C   UNL A   1      47.557  33.532  29.546  1.00  0.00     0.010 A 
ATOM     83  C   UNL A   1      47.487  35.181  27.287  1.00  0.00     0.020 A 
ATOM     84  C   UNL A   1      48.104  34.814  29.610  1.00  0.00     0.020 A 
ATOM     85  C   UNL A   1      48.077  35.626  28.474  1.00  0.00     0.054 A 
BRANCH  85  86
ATOM     86  S   UNL A   1      48.772  37.299  28.529  1.00  0.00     0.124 S 
ATOM     87  O   UNL A   1      50.157  37.065  28.130  1.00  0.00    -0.237 OA
ATOM     88  O   UNL A   1      47.950  38.019  27.559  1.00  0.00    -0.237 OA
ATOM     89  O   UNL A   1      48.584  37.707  29.920  1.00  0.00    -0.744 OA
ENDBRANCH  85  86
ENDBRANCH  59  80
ENDBRANCH  33  34
ENDBRANCH  26  28
ENDBRANCH  25  26
ENDBRANCH  24  25
ENDBRANCH  23  24
ENDBRANCH   1  23
TORSDOF 20
ENDMDL
