MODEL 1
REMARK VINA RESULT:     -11.5      0.000      0.000
REMARK SMILES C[C@@H](C(=O)OCCOC(=O)c1ccc(-c2c3nc(c(-c4ccc(S(=O)(=O)[O-])cc4)c4ccc([nH]4)c(-c4ccc(S(=O)(=O)[O-])cc4)c4nc(c(-c5ccc(S(=O)(=O)[O-])cc5)c5ccc2[nH]5)C=C4)C=C3)cc1)c1ccc(-c2cccc(OC(=O)NCCCc3ccccc3)c2)c(F)c1
REMARK SMILES IDX 3 1 4 2 2 3 1 4 71 5 72 6 96 7 73 8 94 9 74 10 95 11 75 12
REMARK SMILES IDX 76 13 93 14 77 15 79 16 78 17 80 18 81 19 82 20 83 21 84 23
REMARK SMILES IDX 85 24 86 25 87 26 88 27 92 28 89 29 91 30 90 31 5 32 6 33
REMARK SMILES IDX 7 34 8 35 9 36 10 37 11 38 12 39 70 40 13 41 69 42 14 43
REMARK SMILES IDX 15 44 16 45 63 46 17 47 68 48 62 49 64 50 18 51 67 52 61 53
REMARK SMILES IDX 60 54 19 56 49 57 30 58 48 59 31 60 34 61 47 62 65 63 32 64
REMARK SMILES IDX 33 65 46 67 66 68 35 69 20 70 21 71 29 72 22 73 28 74 23 75
REMARK SMILES IDX 24 76 25 77 26 78 27 79 50 80 51 81 59 82 52 83 58 84 53 85
REMARK SMILES IDX 54 86 55 87 56 88 57 89 36 90 37 91 45 92 38 93 44 94 39 95
REMARK SMILES IDX 40 96 41 97 42 98 43 99
REMARK H PARENT 83 22 64 55 34 66
REMARK Flexibility Score: inf
ROOT
ATOM      1  C   UNL A   1      33.023  28.657  25.696  1.00  0.00     0.313 C 
ATOM      2  O   UNL A   1      33.288  29.269  24.668  1.00  0.00    -0.252 OA
ENDROOT
BRANCH   1   3
ATOM      3  C   UNL A   1      32.188  27.365  25.726  1.00  0.00     0.126 C 
ATOM      4  C   UNL A   1      31.095  27.374  26.798  1.00  0.00     0.025 C 
BRANCH   3   5
ATOM      5  C   UNL A   1      33.054  26.103  25.769  1.00  0.00    -0.031 A 
ATOM      6  C   UNL A   1      34.284  25.991  25.111  1.00  0.00     0.005 A 
ATOM      7  C   UNL A   1      32.600  24.971  26.456  1.00  0.00     0.044 A 
ATOM      8  C   UNL A   1      34.988  24.765  25.080  1.00  0.00     0.012 A 
ATOM      9  C   UNL A   1      33.314  23.760  26.430  1.00  0.00     0.131 A 
ATOM     10  C   UNL A   1      34.496  23.591  25.691  1.00  0.00     0.018 A 
ATOM     11  F   UNL A   1      32.807  22.750  27.152  1.00  0.00    -0.206 F 
BRANCH  10  12
ATOM     12  C   UNL A   1      35.137  22.249  25.470  1.00  0.00    -0.012 A 
ATOM     13  C   UNL A   1      36.532  22.068  25.564  1.00  0.00     0.009 A 
ATOM     14  C   UNL A   1      34.382  21.108  25.082  1.00  0.00     0.056 A 
ATOM     15  C   UNL A   1      37.141  20.841  25.265  1.00  0.00     0.004 A 
ATOM     16  C   UNL A   1      34.988  19.872  24.806  1.00  0.00     0.133 A 
ATOM     17  C   UNL A   1      36.371  19.742  24.889  1.00  0.00     0.047 A 
BRANCH  16  18
ATOM     18  O   UNL A   1      34.282  18.667  24.497  1.00  0.00    -0.410 OA
BRANCH  18  19
ATOM     19  C   UNL A   1      32.977  18.362  24.903  1.00  0.00     0.412 C 
ATOM     20  O   UNL A   1      32.657  18.013  26.028  1.00  0.00    -0.224 OA
ATOM     21  N   UNL A   1      32.030  18.473  23.901  1.00  0.00    -0.321 N 
ATOM     22  H   UNL A   1      31.112  18.202  24.131  1.00  0.00     0.167 HD
BRANCH  21  23
ATOM     23  C   UNL A   1      32.247  18.944  22.546  1.00  0.00     0.120 C 
BRANCH  23  24
ATOM     24  C   UNL A   1      32.108  20.455  22.267  1.00  0.00     0.026 C 
BRANCH  24  25
ATOM     25  C   UNL A   1      31.825  21.466  23.393  1.00  0.00     0.037 C 
BRANCH  25  26
ATOM     26  C   UNL A   1      31.815  22.971  23.182  1.00  0.00    -0.048 A 
ATOM     27  C   UNL A   1      30.770  23.828  23.539  1.00  0.00     0.004 A 
ATOM     28  C   UNL A   1      32.865  23.506  22.405  1.00  0.00     0.004 A 
ATOM     29  C   UNL A   1      30.722  25.139  23.033  1.00  0.00     0.000 A 
ATOM     30  C   UNL A   1      32.834  24.818  21.930  1.00  0.00     0.000 A 
ATOM     31  C   UNL A   1      31.742  25.628  22.217  1.00  0.00     0.000 A 
ENDBRANCH  25  26
ENDBRANCH  24  25
ENDBRANCH  23  24
ENDBRANCH  21  23
ENDBRANCH  18  19
ENDBRANCH  16  18
ENDBRANCH  10  12
ENDBRANCH   3   5
ENDBRANCH   1   3
BRANCH   1  32
ATOM     32  O   UNL A   1      33.367  29.093  26.942  1.00  0.00    -0.462 OA
BRANCH  32  33
ATOM     33  C   UNL A   1      33.527  30.517  27.124  1.00  0.00     0.274 C 
BRANCH  33  34
ATOM     34  C   UNL A   1      34.716  30.819  28.034  1.00  0.00     0.275 C 
BRANCH  34  35
ATOM     35  O   UNL A   1      35.450  29.614  28.309  1.00  0.00    -0.458 OA
BRANCH  35  36
ATOM     36  C   UNL A   1      36.343  29.711  29.319  1.00  0.00     0.338 C 
ATOM     37  O   UNL A   1      36.145  30.123  30.450  1.00  0.00    -0.246 OA
BRANCH  36  38
ATOM     38  C   UNL A   1      37.639  29.173  28.896  1.00  0.00     0.060 A 
ATOM     39  C   UNL A   1      38.407  28.482  29.822  1.00  0.00     0.016 A 
ATOM     40  C   UNL A   1      38.177  29.532  27.660  1.00  0.00     0.016 A 
ATOM     41  C   UNL A   1      39.757  28.280  29.567  1.00  0.00     0.010 A 
ATOM     42  C   UNL A   1      39.511  29.218  27.370  1.00  0.00     0.010 A 
ATOM     43  C   UNL A   1      40.343  28.645  28.345  1.00  0.00    -0.014 A 
BRANCH  43  44
ATOM     44  C   UNL A   1      41.802  28.428  28.103  1.00  0.00     0.031 A 
ATOM     45  C   UNL A   1      42.825  29.499  28.398  1.00  0.00     0.074 A 
ATOM     46  C   UNL A   1      42.229  27.253  27.602  1.00  0.00     0.049 A 
ATOM     47  N   UNL A   1      44.110  29.511  28.137  1.00  0.00    -0.248 NA
ATOM     48  C   UNL A   1      42.347  30.718  29.070  1.00  0.00     0.031 C 
ATOM     49  C   UNL A   1      41.376  26.096  27.343  1.00  0.00     0.029 A 
ATOM     50  N   UNL A   1      43.485  26.828  27.233  1.00  0.00    -0.354 N 
ATOM     51  C   UNL A   1      44.575  30.758  28.541  1.00  0.00     0.074 A 
ATOM     52  C   UNL A   1      43.435  31.476  29.069  1.00  0.00     0.031 C 
ATOM     53  C   UNL A   1      42.129  25.088  26.906  1.00  0.00     0.029 A 
ATOM     54  C   UNL A   1      43.492  25.561  26.703  1.00  0.00     0.049 A 
ATOM     55  H   UNL A   1      44.295  27.378  27.338  1.00  0.00     0.167 HD
ATOM     56  C   UNL A   1      45.833  31.258  28.469  1.00  0.00     0.031 A 
ATOM     57  C   UNL A   1      44.454  24.840  26.092  1.00  0.00     0.031 A 
ATOM     58  C   UNL A   1      46.978  30.516  27.998  1.00  0.00     0.049 A 
ATOM     59  C   UNL A   1      45.864  25.355  26.146  1.00  0.00     0.074 A 
ATOM     60  C   UNL A   1      48.291  30.943  27.892  1.00  0.00     0.029 A 
ATOM     61  N   UNL A   1      46.955  29.197  27.567  1.00  0.00    -0.354 N 
ATOM     62  N   UNL A   1      46.293  26.518  26.579  1.00  0.00    -0.248 NA
ATOM     63  C   UNL A   1      46.933  24.447  25.715  1.00  0.00     0.031 C 
ATOM     64  C   UNL A   1      49.049  29.902  27.346  1.00  0.00     0.029 A 
ATOM     65  C   UNL A   1      48.225  28.802  27.172  1.00  0.00     0.049 A 
ATOM     66  H   UNL A   1      46.154  28.624  27.547  1.00  0.00     0.167 HD
ATOM     67  C   UNL A   1      47.677  26.491  26.455  1.00  0.00     0.074 A 
ATOM     68  C   UNL A   1      48.019  25.165  25.980  1.00  0.00     0.031 C 
ATOM     69  C   UNL A   1      48.572  27.487  26.681  1.00  0.00     0.031 A 
BRANCH  56  70
ATOM     70  C   UNL A   1      46.035  32.705  28.847  1.00  0.00    -0.014 A 
ATOM     71  C   UNL A   1      45.871  33.752  27.924  1.00  0.00     0.010 A 
ATOM     72  C   UNL A   1      46.354  33.020  30.183  1.00  0.00     0.010 A 
ATOM     73  C   UNL A   1      46.060  35.081  28.320  1.00  0.00     0.020 A 
ATOM     74  C   UNL A   1      46.513  34.348  30.590  1.00  0.00     0.020 A 
ATOM     75  C   UNL A   1      46.381  35.371  29.651  1.00  0.00     0.054 A 
BRANCH  75  76
ATOM     76  S   UNL A   1      46.599  37.104  30.142  1.00  0.00     0.124 S 
ATOM     77  O   UNL A   1      45.784  37.179  31.353  1.00  0.00    -0.237 OA
ATOM     78  O   UNL A   1      48.041  37.198  30.349  1.00  0.00    -0.237 OA
ATOM     79  O   UNL A   1      46.086  37.857  29.000  1.00  0.00    -0.744 OA
ENDBRANCH  75  76
ENDBRANCH  56  70
BRANCH  57  80
ATOM     80  C   UNL A   1      44.047  23.492  25.576  1.00  0.00    -0.014 A 
ATOM     81  C   UNL A   1      44.255  23.225  24.227  1.00  0.00     0.010 A 
ATOM     82  C   UNL A   1      43.842  22.395  26.442  1.00  0.00     0.010 A 
ATOM     83  C   UNL A   1      44.465  21.922  23.779  1.00  0.00     0.020 A 
ATOM     84  C   UNL A   1      44.046  21.077  25.992  1.00  0.00     0.020 A 
ATOM     85  C   UNL A   1      44.411  20.856  24.667  1.00  0.00     0.054 A 
BRANCH  85  86
ATOM     86  S   UNL A   1      44.979  19.235  24.082  1.00  0.00     0.124 S 
ATOM     87  O   UNL A   1      44.250  18.298  24.929  1.00  0.00    -0.237 OA
ATOM     88  O   UNL A   1      44.559  19.253  22.682  1.00  0.00    -0.237 OA
ATOM     89  O   UNL A   1      46.421  19.276  24.305  1.00  0.00    -0.744 OA
ENDBRANCH  85  86
ENDBRANCH  57  80
BRANCH  69  90
ATOM     90  C   UNL A   1      50.022  27.216  26.350  1.00  0.00    -0.014 A 
ATOM     91  C   UNL A   1      50.486  27.348  25.027  1.00  0.00     0.010 A 
ATOM     92  C   UNL A   1      50.950  26.909  27.364  1.00  0.00     0.010 A 
ATOM     93  C   UNL A   1      51.829  27.130  24.716  1.00  0.00     0.020 A 
ATOM     94  C   UNL A   1      52.305  26.725  27.062  1.00  0.00     0.020 A 
ATOM     95  C   UNL A   1      52.732  26.819  25.735  1.00  0.00     0.054 A 
BRANCH  95  96
ATOM     96  S   UNL A   1      54.476  26.575  25.299  1.00  0.00     0.124 S 
ATOM     97  O   UNL A   1      54.445  25.272  24.641  1.00  0.00    -0.237 OA
ATOM     98  O   UNL A   1      54.750  27.714  24.425  1.00  0.00    -0.237 OA
ATOM     99  O   UNL A   1      55.164  26.606  26.588  1.00  0.00    -0.744 OA
ENDBRANCH  95  96
ENDBRANCH  69  90
ENDBRANCH  43  44
ENDBRANCH  36  38
ENDBRANCH  35  36
ENDBRANCH  34  35
ENDBRANCH  33  34
ENDBRANCH  32  33
ENDBRANCH   1  32
TORSDOF 22
ENDMDL
MODEL 2
REMARK VINA RESULT:     -11.2      3.444      4.087
REMARK SMILES C[C@@H](C(=O)OCCOC(=O)c1ccc(-c2c3nc(c(-c4ccc(S(=O)(=O)[O-])cc4)c4ccc([nH]4)c(-c4ccc(S(=O)(=O)[O-])cc4)c4nc(c(-c5ccc(S(=O)(=O)[O-])cc5)c5ccc2[nH]5)C=C4)C=C3)cc1)c1ccc(-c2cccc(OC(=O)NCCCc3ccccc3)c2)c(F)c1
REMARK SMILES IDX 3 1 4 2 2 3 1 4 71 5 72 6 96 7 73 8 94 9 74 10 95 11 75 12
REMARK SMILES IDX 76 13 93 14 77 15 79 16 78 17 80 18 81 19 82 20 83 21 84 23
REMARK SMILES IDX 85 24 86 25 87 26 88 27 92 28 89 29 91 30 90 31 5 32 6 33
REMARK SMILES IDX 7 34 8 35 9 36 10 37 11 38 12 39 70 40 13 41 69 42 14 43
REMARK SMILES IDX 15 44 16 45 63 46 17 47 68 48 62 49 64 50 18 51 67 52 61 53
REMARK SMILES IDX 60 54 19 56 49 57 30 58 48 59 31 60 34 61 47 62 65 63 32 64
REMARK SMILES IDX 33 65 46 67 66 68 35 69 20 70 21 71 29 72 22 73 28 74 23 75
REMARK SMILES IDX 24 76 25 77 26 78 27 79 50 80 51 81 59 82 52 83 58 84 53 85
REMARK SMILES IDX 54 86 55 87 56 88 57 89 36 90 37 91 45 92 38 93 44 94 39 95
REMARK SMILES IDX 40 96 41 97 42 98 43 99
REMARK H PARENT 83 22 64 55 34 66
REMARK Flexibility Score: inf
ROOT
ATOM      1  C   UNL A   1      31.375  28.168  25.183  1.00  0.00     0.313 C 
ATOM      2  O   UNL A   1      30.739  27.992  24.150  1.00  0.00    -0.252 OA
ENDROOT
BRANCH   1   3
ATOM      3  C   UNL A   1      31.267  27.254  26.416  1.00  0.00     0.126 C 
ATOM      4  C   UNL A   1      31.328  28.015  27.743  1.00  0.00     0.025 C 
BRANCH   3   5
ATOM      5  C   UNL A   1      32.240  26.072  26.361  1.00  0.00    -0.031 A 
ATOM      6  C   UNL A   1      33.578  26.194  25.970  1.00  0.00     0.005 A 
ATOM      7  C   UNL A   1      31.787  24.784  26.670  1.00  0.00     0.044 A 
ATOM      8  C   UNL A   1      34.402  25.056  25.820  1.00  0.00     0.012 A 
ATOM      9  C   UNL A   1      32.619  23.660  26.529  1.00  0.00     0.131 A 
ATOM     10  C   UNL A   1      33.931  23.742  26.038  1.00  0.00     0.018 A 
ATOM     11  F   UNL A   1      32.094  22.478  26.886  1.00  0.00    -0.206 F 
BRANCH  10  12
ATOM     12  C   UNL A   1      34.743  22.532  25.667  1.00  0.00    -0.012 A 
ATOM     13  C   UNL A   1      36.148  22.585  25.562  1.00  0.00     0.009 A 
ATOM     14  C   UNL A   1      34.136  21.292  25.330  1.00  0.00     0.056 A 
ATOM     15  C   UNL A   1      36.899  21.485  25.124  1.00  0.00     0.004 A 
ATOM     16  C   UNL A   1      34.889  20.183  24.915  1.00  0.00     0.133 A 
ATOM     17  C   UNL A   1      36.273  20.283  24.802  1.00  0.00     0.047 A 
BRANCH  16  18
ATOM     18  O   UNL A   1      34.352  18.884  24.646  1.00  0.00    -0.410 OA
BRANCH  18  19
ATOM     19  C   UNL A   1      33.105  18.415  25.079  1.00  0.00     0.412 C 
ATOM     20  O   UNL A   1      32.800  18.211  26.243  1.00  0.00    -0.224 OA
ATOM     21  N   UNL A   1      32.203  18.172  24.059  1.00  0.00    -0.321 N 
ATOM     22  H   UNL A   1      31.340  17.778  24.320  1.00  0.00     0.167 HD
BRANCH  21  23
ATOM     23  C   UNL A   1      32.395  18.435  22.646  1.00  0.00     0.120 C 
BRANCH  23  24
ATOM     24  C   UNL A   1      32.178  19.875  22.135  1.00  0.00     0.026 C 
BRANCH  24  25
ATOM     25  C   UNL A   1      31.832  21.033  23.090  1.00  0.00     0.037 C 
BRANCH  25  26
ATOM     26  C   UNL A   1      32.022  22.497  22.731  1.00  0.00    -0.048 A 
ATOM     27  C   UNL A   1      33.184  23.048  22.181  1.00  0.00     0.004 A 
ATOM     28  C   UNL A   1      31.011  23.387  23.153  1.00  0.00     0.004 A 
ATOM     29  C   UNL A   1      33.373  24.440  22.169  1.00  0.00     0.000 A 
ATOM     30  C   UNL A   1      31.186  24.771  23.110  1.00  0.00     0.000 A 
ATOM     31  C   UNL A   1      32.384  25.300  22.648  1.00  0.00     0.000 A 
ENDBRANCH  25  26
ENDBRANCH  24  25
ENDBRANCH  23  24
ENDBRANCH  21  23
ENDBRANCH  18  19
ENDBRANCH  16  18
ENDBRANCH  10  12
ENDBRANCH   3   5
ENDBRANCH   1   3
BRANCH   1  32
ATOM     32  O   UNL A   1      32.192  29.241  25.392  1.00  0.00    -0.462 OA
BRANCH  32  33
ATOM     33  C   UNL A   1      31.561  30.498  25.724  1.00  0.00     0.274 C 
BRANCH  33  34
ATOM     34  C   UNL A   1      32.367  31.248  26.782  1.00  0.00     0.275 C 
BRANCH  34  35
ATOM     35  O   UNL A   1      33.601  30.561  27.046  1.00  0.00    -0.458 OA
BRANCH  35  36
ATOM     36  C   UNL A   1      34.423  31.185  27.919  1.00  0.00     0.338 C 
ATOM     37  O   UNL A   1      34.244  32.257  28.474  1.00  0.00    -0.246 OA
BRANCH  36  38
ATOM     38  C   UNL A   1      35.594  30.346  28.192  1.00  0.00     0.060 A 
ATOM     39  C   UNL A   1      35.715  29.759  29.443  1.00  0.00     0.016 A 
ATOM     40  C   UNL A   1      36.659  30.317  27.293  1.00  0.00     0.016 A 
ATOM     41  C   UNL A   1      36.952  29.271  29.846  1.00  0.00     0.010 A 
ATOM     42  C   UNL A   1      37.867  29.717  27.671  1.00  0.00     0.010 A 
ATOM     43  C   UNL A   1      38.055  29.243  28.979  1.00  0.00    -0.014 A 
BRANCH  43  44
ATOM     44  C   UNL A   1      39.378  28.724  29.444  1.00  0.00     0.031 A 
ATOM     45  C   UNL A   1      40.251  29.511  30.392  1.00  0.00     0.074 A 
ATOM     46  C   UNL A   1      39.818  27.529  29.008  1.00  0.00     0.049 A 
ATOM     47  N   UNL A   1      41.472  29.256  30.799  1.00  0.00    -0.248 NA
ATOM     48  C   UNL A   1      39.686  30.746  30.958  1.00  0.00     0.031 C 
ATOM     49  C   UNL A   1      39.057  26.618  28.157  1.00  0.00     0.029 A 
ATOM     50  N   UNL A   1      41.005  26.865  29.227  1.00  0.00    -0.354 N 
ATOM     51  C   UNL A   1      41.844  30.329  31.600  1.00  0.00     0.074 A 
ATOM     52  C   UNL A   1      40.720  31.239  31.628  1.00  0.00     0.031 C 
ATOM     53  C   UNL A   1      39.766  25.506  27.965  1.00  0.00     0.029 A 
ATOM     54  C   UNL A   1      41.091  25.676  28.544  1.00  0.00     0.049 A 
ATOM     55  H   UNL A   1      41.717  27.208  29.813  1.00  0.00     0.167 HD
ATOM     56  C   UNL A   1      43.018  30.539  32.245  1.00  0.00     0.031 A 
ATOM     57  C   UNL A   1      42.109  24.811  28.358  1.00  0.00     0.031 A 
ATOM     58  C   UNL A   1      44.115  29.601  32.264  1.00  0.00     0.049 A 
ATOM     59  C   UNL A   1      43.349  24.990  29.188  1.00  0.00     0.074 A 
ATOM     60  C   UNL A   1      45.342  29.730  32.893  1.00  0.00     0.029 A 
ATOM     61  N   UNL A   1      44.118  28.360  31.642  1.00  0.00    -0.354 N 
ATOM     62  N   UNL A   1      43.664  25.988  29.981  1.00  0.00    -0.248 NA
ATOM     63  C   UNL A   1      44.335  23.904  29.173  1.00  0.00     0.031 C 
ATOM     64  C   UNL A   1      46.106  28.594  32.605  1.00  0.00     0.029 A 
ATOM     65  C   UNL A   1      45.333  27.724  31.851  1.00  0.00     0.049 A 
ATOM     66  H   UNL A   1      43.366  27.985  31.128  1.00  0.00     0.167 HD
ATOM     67  C   UNL A   1      44.891  25.662  30.545  1.00  0.00     0.074 A 
ATOM     68  C   UNL A   1      45.224  24.336  30.062  1.00  0.00     0.031 C 
ATOM     69  C   UNL A   1      45.680  26.410  31.359  1.00  0.00     0.031 A 
BRANCH  56  70
ATOM     70  C   UNL A   1      43.213  31.868  32.933  1.00  0.00    -0.014 A 
ATOM     71  C   UNL A   1      43.726  32.992  32.265  1.00  0.00     0.010 A 
ATOM     72  C   UNL A   1      42.824  31.998  34.282  1.00  0.00     0.010 A 
ATOM     73  C   UNL A   1      43.882  34.208  32.939  1.00  0.00     0.020 A 
ATOM     74  C   UNL A   1      42.949  33.219  34.951  1.00  0.00     0.020 A 
ATOM     75  C   UNL A   1      43.493  34.313  34.279  1.00  0.00     0.054 A 
BRANCH  75  76
ATOM     76  S   UNL A   1      43.686  35.908  35.124  1.00  0.00     0.124 S 
ATOM     77  O   UNL A   1      44.276  36.736  34.075  1.00  0.00    -0.237 OA
ATOM     78  O   UNL A   1      42.312  36.243  35.490  1.00  0.00    -0.237 OA
ATOM     79  O   UNL A   1      44.570  35.603  36.247  1.00  0.00    -0.744 OA
ENDBRANCH  75  76
ENDBRANCH  56  70
BRANCH  57  80
ATOM     80  C   UNL A   1      41.827  23.635  27.470  1.00  0.00    -0.014 A 
ATOM     81  C   UNL A   1      42.771  23.316  26.500  1.00  0.00     0.010 A 
ATOM     82  C   UNL A   1      40.882  22.646  27.823  1.00  0.00     0.010 A 
ATOM     83  C   UNL A   1      42.916  22.006  26.046  1.00  0.00     0.020 A 
ATOM     84  C   UNL A   1      41.020  21.325  27.361  1.00  0.00     0.020 A 
ATOM     85  C   UNL A   1      42.076  21.004  26.513  1.00  0.00     0.054 A 
BRANCH  85  86
ATOM     86  S   UNL A   1      42.501  19.286  26.111  1.00  0.00     0.124 S 
ATOM     87  O   UNL A   1      41.228  18.715  25.688  1.00  0.00    -0.237 OA
ATOM     88  O   UNL A   1      43.484  19.458  25.043  1.00  0.00    -0.237 OA
ATOM     89  O   UNL A   1      43.026  18.761  27.368  1.00  0.00    -0.744 OA
ENDBRANCH  85  86
ENDBRANCH  57  80
BRANCH  69  90
ATOM     90  C   UNL A   1      47.033  25.849  31.733  1.00  0.00    -0.014 A 
ATOM     91  C   UNL A   1      48.115  25.945  30.838  1.00  0.00     0.010 A 
ATOM     92  C   UNL A   1      47.258  25.296  33.009  1.00  0.00     0.010 A 
ATOM     93  C   UNL A   1      49.377  25.459  31.186  1.00  0.00     0.020 A 
ATOM     94  C   UNL A   1      48.530  24.839  33.376  1.00  0.00     0.020 A 
ATOM     95  C   UNL A   1      49.577  24.906  32.454  1.00  0.00     0.054 A 
BRANCH  95  96
ATOM     96  S   UNL A   1      51.237  24.314  32.884  1.00  0.00     0.124 S 
ATOM     97  O   UNL A   1      51.339  23.093  32.090  1.00  0.00    -0.237 OA
ATOM     98  O   UNL A   1      52.093  25.417  32.453  1.00  0.00    -0.237 OA
ATOM     99  O   UNL A   1      51.170  24.113  34.330  1.00  0.00    -0.744 OA
ENDBRANCH  95  96
ENDBRANCH  69  90
ENDBRANCH  43  44
ENDBRANCH  36  38
ENDBRANCH  35  36
ENDBRANCH  34  35
ENDBRANCH  33  34
ENDBRANCH  32  33
ENDBRANCH   1  32
TORSDOF 22
ENDMDL
MODEL 3
REMARK VINA RESULT:      -9.8      5.894     10.318
REMARK SMILES C[C@@H](C(=O)OCCOC(=O)c1ccc(-c2c3nc(c(-c4ccc(S(=O)(=O)[O-])cc4)c4ccc([nH]4)c(-c4ccc(S(=O)(=O)[O-])cc4)c4nc(c(-c5ccc(S(=O)(=O)[O-])cc5)c5ccc2[nH]5)C=C4)C=C3)cc1)c1ccc(-c2cccc(OC(=O)NCCCc3ccccc3)c2)c(F)c1
REMARK SMILES IDX 3 1 4 2 2 3 1 4 71 5 72 6 96 7 73 8 94 9 74 10 95 11 75 12
REMARK SMILES IDX 76 13 93 14 77 15 79 16 78 17 80 18 81 19 82 20 83 21 84 23
REMARK SMILES IDX 85 24 86 25 87 26 88 27 92 28 89 29 91 30 90 31 5 32 6 33
REMARK SMILES IDX 7 34 8 35 9 36 10 37 11 38 12 39 70 40 13 41 69 42 14 43
REMARK SMILES IDX 15 44 16 45 63 46 17 47 68 48 62 49 64 50 18 51 67 52 61 53
REMARK SMILES IDX 60 54 19 56 49 57 30 58 48 59 31 60 34 61 47 62 65 63 32 64
REMARK SMILES IDX 33 65 46 67 66 68 35 69 20 70 21 71 29 72 22 73 28 74 23 75
REMARK SMILES IDX 24 76 25 77 26 78 27 79 50 80 51 81 59 82 52 83 58 84 53 85
REMARK SMILES IDX 54 86 55 87 56 88 57 89 36 90 37 91 45 92 38 93 44 94 39 95
REMARK SMILES IDX 40 96 41 97 42 98 43 99
REMARK H PARENT 83 22 64 55 34 66
REMARK Flexibility Score: inf
ROOT
ATOM      1  C   UNL A   1      32.660  28.425  25.217  1.00  0.00     0.313 C 
ATOM      2  O   UNL A   1      32.823  28.477  24.003  1.00  0.00    -0.252 OA
ENDROOT
BRANCH   1   3
ATOM      3  C   UNL A   1      32.009  27.232  25.939  1.00  0.00     0.126 C 
ATOM      4  C   UNL A   1      31.463  27.586  27.324  1.00  0.00     0.025 C 
BRANCH   3   5
ATOM      5  C   UNL A   1      32.904  25.989  25.950  1.00  0.00    -0.031 A 
ATOM      6  C   UNL A   1      34.158  25.938  25.331  1.00  0.00     0.005 A 
ATOM      7  C   UNL A   1      32.454  24.814  26.563  1.00  0.00     0.044 A 
ATOM      8  C   UNL A   1      34.891  24.731  25.265  1.00  0.00     0.012 A 
ATOM      9  C   UNL A   1      33.197  23.623  26.502  1.00  0.00     0.131 A 
ATOM     10  C   UNL A   1      34.407  23.517  25.799  1.00  0.00     0.018 A 
ATOM     11  F   UNL A   1      32.689  22.566  27.155  1.00  0.00    -0.206 F 
BRANCH  10  12
ATOM     12  C   UNL A   1      35.087  22.202  25.534  1.00  0.00    -0.012 A 
ATOM     13  C   UNL A   1      36.488  22.062  25.615  1.00  0.00     0.009 A 
ATOM     14  C   UNL A   1      34.365  21.051  25.117  1.00  0.00     0.056 A 
ATOM     15  C   UNL A   1      37.132  20.863  25.276  1.00  0.00     0.004 A 
ATOM     16  C   UNL A   1      35.007  19.843  24.802  1.00  0.00     0.133 A 
ATOM     17  C   UNL A   1      36.394  19.753  24.872  1.00  0.00     0.047 A 
BRANCH  16  18
ATOM     18  O   UNL A   1      34.337  18.626  24.461  1.00  0.00    -0.410 OA
BRANCH  18  19
ATOM     19  C   UNL A   1      33.074  18.236  24.926  1.00  0.00     0.412 C 
ATOM     20  O   UNL A   1      32.831  17.865  26.064  1.00  0.00    -0.224 OA
ATOM     21  N   UNL A   1      32.076  18.285  23.970  1.00  0.00    -0.321 N 
ATOM     22  H   UNL A   1      31.190  17.954  24.242  1.00  0.00     0.167 HD
BRANCH  21  23
ATOM     23  C   UNL A   1      32.197  18.771  22.609  1.00  0.00     0.120 C 
BRANCH  23  24
ATOM     24  C   UNL A   1      32.290  20.295  22.384  1.00  0.00     0.026 C 
BRANCH  24  25
ATOM     25  C   UNL A   1      31.645  21.301  23.355  1.00  0.00     0.037 C 
BRANCH  25  26
ATOM     26  C   UNL A   1      31.755  22.808  23.191  1.00  0.00    -0.048 A 
ATOM     27  C   UNL A   1      30.741  23.726  23.479  1.00  0.00     0.004 A 
ATOM     28  C   UNL A   1      32.906  23.289  22.531  1.00  0.00     0.004 A 
ATOM     29  C   UNL A   1      30.828  25.049  23.013  1.00  0.00     0.000 A 
ATOM     30  C   UNL A   1      33.007  24.612  22.098  1.00  0.00     0.000 A 
ATOM     31  C   UNL A   1      31.950  25.487  22.310  1.00  0.00     0.000 A 
ENDBRANCH  25  26
ENDBRANCH  24  25
ENDBRANCH  23  24
ENDBRANCH  21  23
ENDBRANCH  18  19
ENDBRANCH  16  18
ENDBRANCH  10  12
ENDBRANCH   3   5
ENDBRANCH   1   3
BRANCH   1  32
ATOM     32  O   UNL A   1      32.961  29.453  26.062  1.00  0.00    -0.462 OA
BRANCH  32  33
ATOM     33  C   UNL A   1      32.201  30.673  25.917  1.00  0.00     0.274 C 
BRANCH  33  34
ATOM     34  C   UNL A   1      32.113  31.420  27.246  1.00  0.00     0.275 C 
BRANCH  34  35
ATOM     35  O   UNL A   1      33.408  31.914  27.625  1.00  0.00    -0.458 OA
BRANCH  35  36
ATOM     36  C   UNL A   1      33.401  33.122  28.230  1.00  0.00     0.338 C 
ATOM     37  O   UNL A   1      32.685  34.077  27.977  1.00  0.00    -0.246 OA
BRANCH  36  38
ATOM     38  C   UNL A   1      34.364  33.135  29.336  1.00  0.00     0.060 A 
ATOM     39  C   UNL A   1      34.543  34.313  30.047  1.00  0.00     0.016 A 
ATOM     40  C   UNL A   1      35.227  32.057  29.525  1.00  0.00     0.016 A 
ATOM     41  C   UNL A   1      35.675  34.459  30.840  1.00  0.00     0.010 A 
ATOM     42  C   UNL A   1      36.299  32.179  30.419  1.00  0.00     0.010 A 
ATOM     43  C   UNL A   1      36.580  33.406  31.041  1.00  0.00    -0.014 A 
BRANCH  43  44
ATOM     44  C   UNL A   1      37.796  33.597  31.889  1.00  0.00     0.031 A 
ATOM     45  C   UNL A   1      39.153  33.866  31.283  1.00  0.00     0.074 A 
ATOM     46  C   UNL A   1      37.696  33.522  33.230  1.00  0.00     0.049 A 
ATOM     47  N   UNL A   1      40.324  33.939  31.871  1.00  0.00    -0.248 NA
ATOM     48  C   UNL A   1      39.210  34.078  29.828  1.00  0.00     0.031 C 
ATOM     49  C   UNL A   1      36.445  33.349  33.964  1.00  0.00     0.029 A 
ATOM     50  N   UNL A   1      38.653  33.593  34.216  1.00  0.00    -0.354 N 
ATOM     51  C   UNL A   1      41.255  34.128  30.857  1.00  0.00     0.074 A 
ATOM     52  C   UNL A   1      40.516  34.162  29.614  1.00  0.00     0.031 C 
ATOM     53  C   UNL A   1      36.701  33.375  35.272  1.00  0.00     0.029 A 
ATOM     54  C   UNL A   1      38.143  33.409  35.478  1.00  0.00     0.049 A 
ATOM     55  H   UNL A   1      39.606  33.759  34.034  1.00  0.00     0.167 HD
ATOM     56  C   UNL A   1      42.602  34.252  30.954  1.00  0.00     0.031 A 
ATOM     57  C   UNL A   1      38.734  33.253  36.680  1.00  0.00     0.031 A 
ATOM     58  C   UNL A   1      43.328  34.277  32.201  1.00  0.00     0.049 A 
ATOM     59  C   UNL A   1      40.207  33.529  36.784  1.00  0.00     0.074 A 
ATOM     60  C   UNL A   1      44.694  34.401  32.394  1.00  0.00     0.029 A 
ATOM     61  N   UNL A   1      42.756  34.192  33.463  1.00  0.00    -0.354 N 
ATOM     62  N   UNL A   1      41.065  33.757  35.817  1.00  0.00    -0.248 NA
ATOM     63  C   UNL A   1      40.786  33.614  38.130  1.00  0.00     0.031 C 
ATOM     64  C   UNL A   1      44.952  34.334  33.768  1.00  0.00     0.029 A 
ATOM     65  C   UNL A   1      43.742  34.234  34.438  1.00  0.00     0.049 A 
ATOM     66  H   UNL A   1      41.791  34.113  33.640  1.00  0.00     0.167 HD
ATOM     67  C   UNL A   1      42.288  33.992  36.433  1.00  0.00     0.074 A 
ATOM     68  C   UNL A   1      42.041  33.957  37.861  1.00  0.00     0.031 C 
ATOM     69  C   UNL A   1      43.506  34.184  35.863  1.00  0.00     0.031 A 
BRANCH  56  70
ATOM     70  C   UNL A   1      43.396  34.302  29.672  1.00  0.00    -0.014 A 
ATOM     71  C   UNL A   1      43.921  33.147  29.068  1.00  0.00     0.010 A 
ATOM     72  C   UNL A   1      43.579  35.545  29.034  1.00  0.00     0.010 A 
ATOM     73  C   UNL A   1      44.645  33.238  27.874  1.00  0.00     0.020 A 
ATOM     74  C   UNL A   1      44.274  35.637  27.825  1.00  0.00     0.020 A 
ATOM     75  C   UNL A   1      44.817  34.483  27.260  1.00  0.00     0.054 A 
BRANCH  75  76
ATOM     76  S   UNL A   1      45.741  34.570  25.700  1.00  0.00     0.124 S 
ATOM     77  O   UNL A   1      46.360  35.891  25.790  1.00  0.00    -0.237 OA
ATOM     78  O   UNL A   1      46.658  33.439  25.809  1.00  0.00    -0.237 OA
ATOM     79  O   UNL A   1      44.708  34.436  24.676  1.00  0.00    -0.744 OA
ENDBRANCH  75  76
ENDBRANCH  56  70
BRANCH  57  80
ATOM     80  C   UNL A   1      37.819  32.998  37.841  1.00  0.00    -0.014 A 
ATOM     81  C   UNL A   1      37.427  31.686  38.080  1.00  0.00     0.010 A 
ATOM     82  C   UNL A   1      37.669  33.933  38.890  1.00  0.00     0.010 A 
ATOM     83  C   UNL A   1      37.097  31.259  39.366  1.00  0.00     0.020 A 
ATOM     84  C   UNL A   1      37.330  33.508  40.187  1.00  0.00     0.020 A 
ATOM     85  C   UNL A   1      37.099  32.157  40.425  1.00  0.00     0.054 A 
BRANCH  85  86
ATOM     86  S   UNL A   1      36.950  31.486  42.105  1.00  0.00     0.124 S 
ATOM     87  O   UNL A   1      37.413  32.583  42.947  1.00  0.00    -0.237 OA
ATOM     88  O   UNL A   1      35.520  31.203  42.194  1.00  0.00    -0.237 OA
ATOM     89  O   UNL A   1      37.822  30.314  42.084  1.00  0.00    -0.744 OA
ENDBRANCH  85  86
ENDBRANCH  57  80
BRANCH  69  90
ATOM     90  C   UNL A   1      44.700  34.301  36.782  1.00  0.00    -0.014 A 
ATOM     91  C   UNL A   1      45.112  35.562  37.255  1.00  0.00     0.010 A 
ATOM     92  C   UNL A   1      45.370  33.153  37.248  1.00  0.00     0.010 A 
ATOM     93  C   UNL A   1      46.195  35.679  38.130  1.00  0.00     0.020 A 
ATOM     94  C   UNL A   1      46.434  33.263  38.152  1.00  0.00     0.020 A 
ATOM     95  C   UNL A   1      46.851  34.528  38.573  1.00  0.00     0.054 A 
BRANCH  95  96
ATOM     96  S   UNL A   1      48.232  34.715  39.734  1.00  0.00     0.124 S 
ATOM     97  O   UNL A   1      47.909  35.980  40.389  1.00  0.00    -0.237 OA
ATOM     98  O   UNL A   1      48.108  33.524  40.572  1.00  0.00    -0.237 OA
ATOM     99  O   UNL A   1      49.410  34.743  38.871  1.00  0.00    -0.744 OA
ENDBRANCH  95  96
ENDBRANCH  69  90
ENDBRANCH  43  44
ENDBRANCH  36  38
ENDBRANCH  35  36
ENDBRANCH  34  35
ENDBRANCH  33  34
ENDBRANCH  32  33
ENDBRANCH   1  32
TORSDOF 22
ENDMDL
