MODEL 1
REMARK VINA RESULT:     -10.7      0.000      0.000
REMARK SMILES Cc1oc(-c2ccc(Cl)cc2[N+](=O)[O-])cc1C(=O)OCCOC(=O)c1ccc(-c2c3nc(c(-c4ccc(S(=O)(=O)[O-])cc4)c4ccc([nH]4)c(-c4ccc(S(=O)(=O)[O-])cc4)c4nc(c(-c5ccc(S(=O)(=O)[O-])cc5)c5ccc2[nH]5)C=C4)C=C3)cc1
REMARK SMILES IDX 21 1 20 2 19 3 17 4 18 5 16 6 1 7 2 8 3 9 4 10 15 11 5 12
REMARK SMILES IDX 6 13 11 14 7 15 10 16 8 17 9 18 12 19 13 20 14 21 22 22
REMARK SMILES IDX 23 23 24 24 25 25 26 26 84 27 27 28 83 29 28 30 29 31 30 32
REMARK SMILES IDX 77 33 31 34 82 35 76 36 78 37 32 38 81 39 75 40 74 41 33 43
REMARK SMILES IDX 63 44 44 45 62 46 45 47 48 48 61 49 79 50 46 51 47 52 60 54
REMARK SMILES IDX 80 55 49 56 34 57 35 58 43 59 36 60 42 61 37 62 38 63 39 64
REMARK SMILES IDX 40 65 41 66 64 67 65 68 73 69 66 70 72 71 67 72 68 73 69 74
REMARK SMILES IDX 70 75 71 76 50 77 51 78 59 79 52 80 58 81 53 82 54 83 55 84
REMARK SMILES IDX 56 85 57 86
REMARK H PARENT 78 42 48 53
REMARK Flexibility Score: inf
ROOT
ATOM      1  C   UNL A   1      33.036  28.791  27.227  1.00  0.00     0.275 C 
ENDROOT
BRANCH   1   2
ATOM      2  C   UNL A   1      31.807  28.605  26.335  1.00  0.00     0.275 C 
BRANCH   2   3
ATOM      3  O   UNL A   1      31.916  27.401  25.551  1.00  0.00    -0.458 OA
BRANCH   3   4
ATOM      4  C   UNL A   1      32.505  27.548  24.329  1.00  0.00     0.341 C 
ATOM      5  O   UNL A   1      32.535  28.597  23.703  1.00  0.00    -0.246 OA
BRANCH   4   6
ATOM      6  C   UNL A   1      33.229  26.369  23.881  1.00  0.00     0.101 A 
ATOM      7  C   UNL A   1      32.781  26.134  21.285  1.00  0.00     0.088 C 
ATOM      8  C   UNL A   1      33.283  25.775  22.629  1.00  0.00     0.116 A 
ATOM      9  O   UNL A   1      33.995  24.605  22.691  1.00  0.00    -0.460 OA
ATOM     10  C   UNL A   1      34.428  24.467  23.971  1.00  0.00     0.142 A 
ATOM     11  C   UNL A   1      34.055  25.558  24.715  1.00  0.00     0.067 A 
BRANCH  10  12
ATOM     12  C   UNL A   1      35.133  23.248  24.313  1.00  0.00     0.095 A 
ATOM     13  C   UNL A   1      36.538  23.275  24.315  1.00  0.00     0.021 A 
ATOM     14  C   UNL A   1      34.498  22.024  24.563  1.00  0.00     0.281 A 
ATOM     15  C   UNL A   1      37.278  22.110  24.543  1.00  0.00     0.022 A 
ATOM     16  C   UNL A   1      35.231  20.850  24.796  1.00  0.00     0.107 A 
ATOM     17  C   UNL A   1      36.622  20.903  24.776  1.00  0.00     0.047 A 
ATOM     18  Cl  UNL A   1      37.533  19.469  25.036  1.00  0.00    -0.084 Cl
BRANCH  14  19
ATOM     19  N   UNL A   1      33.047  21.920  24.589  1.00  0.00     0.063 N 
ATOM     20  O   UNL A   1      32.468  22.434  25.557  1.00  0.00    -0.258 OA
ATOM     21  O   UNL A   1      32.493  21.291  23.679  1.00  0.00    -0.258 OA
ENDBRANCH  14  19
ENDBRANCH  10  12
ENDBRANCH   4   6
ENDBRANCH   3   4
ENDBRANCH   2   3
ENDBRANCH   1   2
BRANCH   1  22
ATOM     22  O   UNL A   1      33.820  29.915  26.785  1.00  0.00    -0.458 OA
BRANCH  22  23
ATOM     23  C   UNL A   1      34.446  30.616  27.759  1.00  0.00     0.338 C 
ATOM     24  O   UNL A   1      34.003  31.550  28.404  1.00  0.00    -0.246 OA
BRANCH  23  25
ATOM     25  C   UNL A   1      35.782  30.043  27.995  1.00  0.00     0.060 A 
ATOM     26  C   UNL A   1      36.076  29.551  29.264  1.00  0.00     0.016 A 
ATOM     27  C   UNL A   1      36.773  30.106  27.018  1.00  0.00     0.016 A 
ATOM     28  C   UNL A   1      37.373  29.155  29.584  1.00  0.00     0.010 A 
ATOM     29  C   UNL A   1      38.067  29.658  27.322  1.00  0.00     0.010 A 
ATOM     30  C   UNL A   1      38.386  29.203  28.616  1.00  0.00    -0.014 A 
BRANCH  30  31
ATOM     31  C   UNL A   1      39.782  28.830  28.978  1.00  0.00     0.031 A 
ATOM     32  C   UNL A   1      40.658  29.807  29.718  1.00  0.00     0.074 A 
ATOM     33  C   UNL A   1      40.262  27.607  28.676  1.00  0.00     0.049 A 
ATOM     34  N   UNL A   1      41.927  29.712  30.024  1.00  0.00    -0.248 NA
ATOM     35  C   UNL A   1      40.025  31.057  30.171  1.00  0.00     0.031 C 
ATOM     36  C   UNL A   1      39.512  26.541  28.008  1.00  0.00     0.029 A 
ATOM     37  N   UNL A   1      41.499  27.051  28.899  1.00  0.00    -0.354 N 
ATOM     38  C   UNL A   1      42.256  30.903  30.662  1.00  0.00     0.074 A 
ATOM     39  C   UNL A   1      41.053  31.706  30.697  1.00  0.00     0.031 C 
ATOM     40  C   UNL A   1      40.292  25.454  27.903  1.00  0.00     0.029 A 
ATOM     41  C   UNL A   1      41.618  25.764  28.430  1.00  0.00     0.049 A 
ATOM     42  H   UNL A   1      42.231  27.529  29.351  1.00  0.00     0.167 HD
ATOM     43  C   UNL A   1      43.450  31.295  31.168  1.00  0.00     0.031 A 
ATOM     44  C   UNL A   1      42.679  24.933  28.395  1.00  0.00     0.031 A 
ATOM     45  C   UNL A   1      44.643  30.489  31.156  1.00  0.00     0.049 A 
ATOM     46  C   UNL A   1      44.003  25.404  28.928  1.00  0.00     0.074 A 
ATOM     47  C   UNL A   1      45.900  30.803  31.646  1.00  0.00     0.029 A 
ATOM     48  N   UNL A   1      44.726  29.205  30.640  1.00  0.00    -0.354 N 
ATOM     49  N   UNL A   1      44.304  26.552  29.485  1.00  0.00    -0.248 NA
ATOM     50  C   UNL A   1      45.133  24.471  28.816  1.00  0.00     0.031 C 
ATOM     51  C   UNL A   1      46.752  29.723  31.393  1.00  0.00     0.029 A 
ATOM     52  C   UNL A   1      46.014  28.719  30.788  1.00  0.00     0.049 A 
ATOM     53  H   UNL A   1      43.979  28.713  30.229  1.00  0.00     0.167 HD
ATOM     54  C   UNL A   1      45.657  26.476  29.797  1.00  0.00     0.074 A 
ATOM     55  C   UNL A   1      46.111  25.163  29.386  1.00  0.00     0.031 C 
ATOM     56  C   UNL A   1      46.454  27.413  30.369  1.00  0.00     0.031 A 
BRANCH  43  57
ATOM     57  C   UNL A   1      43.538  32.685  31.738  1.00  0.00    -0.014 A 
ATOM     58  C   UNL A   1      43.848  33.792  30.928  1.00  0.00     0.010 A 
ATOM     59  C   UNL A   1      43.276  32.888  33.106  1.00  0.00     0.010 A 
ATOM     60  C   UNL A   1      43.936  35.070  31.485  1.00  0.00     0.020 A 
ATOM     61  C   UNL A   1      43.341  34.168  33.662  1.00  0.00     0.020 A 
ATOM     62  C   UNL A   1      43.691  35.250  32.850  1.00  0.00     0.054 A 
BRANCH  62  63
ATOM     63  S   UNL A   1      43.806  36.920  33.549  1.00  0.00     0.124 S 
ATOM     64  O   UNL A   1      42.581  36.997  34.341  1.00  0.00    -0.237 OA
ATOM     65  O   UNL A   1      45.046  36.865  34.317  1.00  0.00    -0.237 OA
ATOM     66  O   UNL A   1      43.843  37.786  32.373  1.00  0.00    -0.744 OA
ENDBRANCH  62  63
ENDBRANCH  43  57
BRANCH  44  67
ATOM     67  C   UNL A   1      42.539  23.581  27.791  1.00  0.00    -0.014 A 
ATOM     68  C   UNL A   1      42.930  23.344  26.462  1.00  0.00     0.010 A 
ATOM     69  C   UNL A   1      42.025  22.515  28.554  1.00  0.00     0.010 A 
ATOM     70  C   UNL A   1      42.806  22.068  25.905  1.00  0.00     0.020 A 
ATOM     71  C   UNL A   1      41.924  21.233  28.008  1.00  0.00     0.020 A 
ATOM     72  C   UNL A   1      42.306  21.019  26.683  1.00  0.00     0.054 A 
BRANCH  72  73
ATOM     73  S   UNL A   1      42.215  19.355  25.967  1.00  0.00     0.124 S 
ATOM     74  O   UNL A   1      40.786  19.213  25.711  1.00  0.00    -0.237 OA
ATOM     75  O   UNL A   1      43.062  19.469  24.782  1.00  0.00    -0.237 OA
ATOM     76  O   UNL A   1      42.752  18.501  27.025  1.00  0.00    -0.744 OA
ENDBRANCH  72  73
ENDBRANCH  44  67
BRANCH  56  77
ATOM     77  C   UNL A   1      47.892  27.044  30.606  1.00  0.00    -0.014 A 
ATOM     78  C   UNL A   1      48.884  27.356  29.660  1.00  0.00     0.010 A 
ATOM     79  C   UNL A   1      48.262  26.420  31.810  1.00  0.00     0.010 A 
ATOM     80  C   UNL A   1      50.220  27.024  29.903  1.00  0.00     0.020 A 
ATOM     81  C   UNL A   1      49.600  26.107  32.066  1.00  0.00     0.020 A 
ATOM     82  C   UNL A   1      50.569  26.398  31.104  1.00  0.00     0.054 A 
BRANCH  82  83
ATOM     83  S   UNL A   1      52.313  26.014  31.418  1.00  0.00     0.124 S 
ATOM     84  O   UNL A   1      52.889  26.102  30.079  1.00  0.00    -0.237 OA
ATOM     85  O   UNL A   1      52.715  27.069  32.346  1.00  0.00    -0.237 OA
ATOM     86  O   UNL A   1      52.273  24.671  31.992  1.00  0.00    -0.744 OA
ENDBRANCH  82  83
ENDBRANCH  56  77
ENDBRANCH  30  31
ENDBRANCH  23  25
ENDBRANCH  22  23
ENDBRANCH   1  22
TORSDOF 16
ENDMDL
MODEL 2
REMARK VINA RESULT:     -10.4      2.944      3.729
REMARK SMILES Cc1oc(-c2ccc(Cl)cc2[N+](=O)[O-])cc1C(=O)OCCOC(=O)c1ccc(-c2c3nc(c(-c4ccc(S(=O)(=O)[O-])cc4)c4ccc([nH]4)c(-c4ccc(S(=O)(=O)[O-])cc4)c4nc(c(-c5ccc(S(=O)(=O)[O-])cc5)c5ccc2[nH]5)C=C4)C=C3)cc1
REMARK SMILES IDX 21 1 20 2 19 3 17 4 18 5 16 6 1 7 2 8 3 9 4 10 15 11 5 12
REMARK SMILES IDX 6 13 11 14 7 15 10 16 8 17 9 18 12 19 13 20 14 21 22 22
REMARK SMILES IDX 23 23 24 24 25 25 26 26 84 27 27 28 83 29 28 30 29 31 30 32
REMARK SMILES IDX 77 33 31 34 82 35 76 36 78 37 32 38 81 39 75 40 74 41 33 43
REMARK SMILES IDX 63 44 44 45 62 46 45 47 48 48 61 49 79 50 46 51 47 52 60 54
REMARK SMILES IDX 80 55 49 56 34 57 35 58 43 59 36 60 42 61 37 62 38 63 39 64
REMARK SMILES IDX 40 65 41 66 64 67 65 68 73 69 66 70 72 71 67 72 68 73 69 74
REMARK SMILES IDX 70 75 71 76 50 77 51 78 59 79 52 80 58 81 53 82 54 83 55 84
REMARK SMILES IDX 56 85 57 86
REMARK H PARENT 78 42 48 53
REMARK Flexibility Score: inf
ROOT
ATOM      1  C   UNL A   1      34.780  31.699  28.645  1.00  0.00     0.275 C 
ENDROOT
BRANCH   1   2
ATOM      2  C   UNL A   1      33.734  31.451  27.557  1.00  0.00     0.275 C 
BRANCH   2   3
ATOM      3  O   UNL A   1      33.957  30.185  26.906  1.00  0.00    -0.458 OA
BRANCH   3   4
ATOM      4  C   UNL A   1      32.875  29.660  26.259  1.00  0.00     0.341 C 
ATOM      5  O   UNL A   1      31.797  30.225  26.154  1.00  0.00    -0.246 OA
BRANCH   4   6
ATOM      6  C   UNL A   1      33.153  28.408  25.573  1.00  0.00     0.101 A 
ATOM      7  C   UNL A   1      32.421  28.736  23.053  1.00  0.00     0.088 C 
ATOM      8  C   UNL A   1      32.906  28.035  24.261  1.00  0.00     0.116 A 
ATOM      9  O   UNL A   1      33.223  26.713  24.077  1.00  0.00    -0.460 OA
ATOM     10  C   UNL A   1      33.706  26.250  25.260  1.00  0.00     0.142 A 
ATOM     11  C   UNL A   1      33.759  27.267  26.178  1.00  0.00     0.067 A 
BRANCH  10  12
ATOM     12  C   UNL A   1      34.025  24.839  25.347  1.00  0.00     0.095 A 
ATOM     13  C   UNL A   1      35.338  24.438  25.046  1.00  0.00     0.021 A 
ATOM     14  C   UNL A   1      33.083  23.843  25.636  1.00  0.00     0.281 A 
ATOM     15  C   UNL A   1      35.687  23.084  25.019  1.00  0.00     0.022 A 
ATOM     16  C   UNL A   1      33.423  22.481  25.615  1.00  0.00     0.107 A 
ATOM     17  C   UNL A   1      34.727  22.113  25.298  1.00  0.00     0.047 A 
ATOM     18  Cl  UNL A   1      35.153  20.448  25.244  1.00  0.00    -0.084 Cl
BRANCH  14  19
ATOM     19  N   UNL A   1      31.708  24.181  25.969  1.00  0.00     0.063 N 
ATOM     20  O   UNL A   1      31.439  24.308  27.172  1.00  0.00    -0.258 OA
ATOM     21  O   UNL A   1      30.891  24.271  25.044  1.00  0.00    -0.258 OA
ENDBRANCH  14  19
ENDBRANCH  10  12
ENDBRANCH   4   6
ENDBRANCH   3   4
ENDBRANCH   2   3
ENDBRANCH   1   2
BRANCH   1  22
ATOM     22  O   UNL A   1      35.632  30.549  28.804  1.00  0.00    -0.458 OA
BRANCH  22  23
ATOM     23  C   UNL A   1      36.332  30.490  29.962  1.00  0.00     0.338 C 
ATOM     24  O   UNL A   1      35.896  30.557  31.097  1.00  0.00    -0.246 OA
BRANCH  23  25
ATOM     25  C   UNL A   1      37.755  30.262  29.663  1.00  0.00     0.060 A 
ATOM     26  C   UNL A   1      38.137  30.112  28.332  1.00  0.00     0.016 A 
ATOM     27  C   UNL A   1      38.683  30.071  30.685  1.00  0.00     0.016 A 
ATOM     28  C   UNL A   1      39.437  29.729  28.008  1.00  0.00     0.010 A 
ATOM     29  C   UNL A   1      40.005  29.737  30.359  1.00  0.00     0.010 A 
ATOM     30  C   UNL A   1      40.389  29.537  29.019  1.00  0.00    -0.014 A 
BRANCH  30  31
ATOM     31  C   UNL A   1      41.762  29.075  28.672  1.00  0.00     0.031 A 
ATOM     32  C   UNL A   1      42.919  30.040  28.717  1.00  0.00     0.074 A 
ATOM     33  C   UNL A   1      41.987  27.786  28.347  1.00  0.00     0.049 A 
ATOM     34  N   UNL A   1      44.161  29.858  28.347  1.00  0.00    -0.248 NA
ATOM     35  C   UNL A   1      42.641  31.386  29.245  1.00  0.00     0.031 C 
ATOM     36  C   UNL A   1      40.973  26.730  28.312  1.00  0.00     0.029 A 
ATOM     37  N   UNL A   1      43.147  27.143  27.989  1.00  0.00    -0.354 N 
ATOM     38  C   UNL A   1      44.801  31.076  28.552  1.00  0.00     0.074 A 
ATOM     39  C   UNL A   1      43.809  31.989  29.078  1.00  0.00     0.031 C 
ATOM     40  C   UNL A   1      41.560  25.568  27.983  1.00  0.00     0.029 A 
ATOM     41  C   UNL A   1      42.975  25.807  27.714  1.00  0.00     0.049 A 
ATOM     42  H   UNL A   1      44.019  27.596  27.933  1.00  0.00     0.167 HD
ATOM     43  C   UNL A   1      46.095  31.405  28.320  1.00  0.00     0.031 A 
ATOM     44  C   UNL A   1      43.845  24.880  27.264  1.00  0.00     0.031 A 
ATOM     45  C   UNL A   1      47.090  30.494  27.821  1.00  0.00     0.049 A 
ATOM     46  C   UNL A   1      45.266  25.279  26.978  1.00  0.00     0.074 A 
ATOM     47  C   UNL A   1      48.427  30.739  27.554  1.00  0.00     0.029 A 
ATOM     48  N   UNL A   1      46.863  29.159  27.523  1.00  0.00    -0.354 N 
ATOM     49  N   UNL A   1      45.840  26.447  27.135  1.00  0.00    -0.248 NA
ATOM     50  C   UNL A   1      46.152  24.236  26.443  1.00  0.00     0.031 C 
ATOM     51  C   UNL A   1      48.999  29.561  27.061  1.00  0.00     0.029 A 
ATOM     52  C   UNL A   1      48.030  28.572  27.064  1.00  0.00     0.049 A 
ATOM     53  H   UNL A   1      45.999  28.698  27.622  1.00  0.00     0.167 HD
ATOM     54  C   UNL A   1      47.157  26.278  26.725  1.00  0.00     0.074 A 
ATOM     55  C   UNL A   1      47.301  24.891  26.332  1.00  0.00     0.031 C 
ATOM     56  C   UNL A   1      48.158  27.191  26.672  1.00  0.00     0.031 A 
BRANCH  43  57
ATOM     57  C   UNL A   1      46.498  32.835  28.562  1.00  0.00    -0.014 A 
ATOM     58  C   UNL A   1      46.373  33.812  27.558  1.00  0.00     0.010 A 
ATOM     59  C   UNL A   1      46.985  33.211  29.827  1.00  0.00     0.010 A 
ATOM     60  C   UNL A   1      46.768  35.130  27.803  1.00  0.00     0.020 A 
ATOM     61  C   UNL A   1      47.359  34.532  30.084  1.00  0.00     0.020 A 
ATOM     62  C   UNL A   1      47.267  35.480  29.062  1.00  0.00     0.054 A 
BRANCH  62  63
ATOM     63  S   UNL A   1      47.768  37.199  29.359  1.00  0.00     0.124 S 
ATOM     64  O   UNL A   1      49.203  37.142  29.091  1.00  0.00    -0.237 OA
ATOM     65  O   UNL A   1      46.976  37.940  28.382  1.00  0.00    -0.237 OA
ATOM     66  O   UNL A   1      47.403  37.429  30.755  1.00  0.00    -0.744 OA
ENDBRANCH  62  63
ENDBRANCH  43  57
BRANCH  44  67
ATOM     67  C   UNL A   1      43.380  23.489  27.015  1.00  0.00    -0.014 A 
ATOM     68  C   UNL A   1      43.088  23.053  25.711  1.00  0.00     0.010 A 
ATOM     69  C   UNL A   1      43.242  22.587  28.087  1.00  0.00     0.010 A 
ATOM     70  C   UNL A   1      42.662  21.741  25.484  1.00  0.00     0.020 A 
ATOM     71  C   UNL A   1      42.842  21.268  27.860  1.00  0.00     0.020 A 
ATOM     72  C   UNL A   1      42.544  20.855  26.561  1.00  0.00     0.054 A 
BRANCH  72  73
ATOM     73  S   UNL A   1      42.056  19.138  26.240  1.00  0.00     0.124 S 
ATOM     74  O   UNL A   1      42.266  18.515  27.543  1.00  0.00    -0.237 OA
ATOM     75  O   UNL A   1      40.663  19.273  25.821  1.00  0.00    -0.237 OA
ATOM     76  O   UNL A   1      42.976  18.716  25.186  1.00  0.00    -0.744 OA
ENDBRANCH  72  73
ENDBRANCH  44  67
BRANCH  56  77
ATOM     77  C   UNL A   1      49.503  26.716  26.197  1.00  0.00    -0.014 A 
ATOM     78  C   UNL A   1      49.882  26.850  24.850  1.00  0.00     0.010 A 
ATOM     79  C   UNL A   1      50.415  26.172  27.117  1.00  0.00     0.010 A 
ATOM     80  C   UNL A   1      51.144  26.421  24.426  1.00  0.00     0.020 A 
ATOM     81  C   UNL A   1      51.685  25.762  26.702  1.00  0.00     0.020 A 
ATOM     82  C   UNL A   1      52.036  25.876  25.355  1.00  0.00     0.054 A 
BRANCH  82  83
ATOM     83  S   UNL A   1      53.683  25.364  24.794  1.00  0.00     0.124 S 
ATOM     84  O   UNL A   1      53.772  26.010  23.487  1.00  0.00    -0.237 OA
ATOM     85  O   UNL A   1      54.562  25.909  25.827  1.00  0.00    -0.237 OA
ATOM     86  O   UNL A   1      53.599  23.906  24.763  1.00  0.00    -0.744 OA
ENDBRANCH  82  83
ENDBRANCH  56  77
ENDBRANCH  30  31
ENDBRANCH  23  25
ENDBRANCH  22  23
ENDBRANCH   1  22
TORSDOF 16
ENDMDL
MODEL 3
REMARK VINA RESULT:     -10.3      4.533     10.376
REMARK SMILES Cc1oc(-c2ccc(Cl)cc2[N+](=O)[O-])cc1C(=O)OCCOC(=O)c1ccc(-c2c3nc(c(-c4ccc(S(=O)(=O)[O-])cc4)c4ccc([nH]4)c(-c4ccc(S(=O)(=O)[O-])cc4)c4nc(c(-c5ccc(S(=O)(=O)[O-])cc5)c5ccc2[nH]5)C=C4)C=C3)cc1
REMARK SMILES IDX 21 1 20 2 19 3 17 4 18 5 16 6 1 7 2 8 3 9 4 10 15 11 5 12
REMARK SMILES IDX 6 13 11 14 7 15 10 16 8 17 9 18 12 19 13 20 14 21 22 22
REMARK SMILES IDX 23 23 24 24 25 25 26 26 84 27 27 28 83 29 28 30 29 31 30 32
REMARK SMILES IDX 77 33 31 34 82 35 76 36 78 37 32 38 81 39 75 40 74 41 33 43
REMARK SMILES IDX 63 44 44 45 62 46 45 47 48 48 61 49 79 50 46 51 47 52 60 54
REMARK SMILES IDX 80 55 49 56 34 57 35 58 43 59 36 60 42 61 37 62 38 63 39 64
REMARK SMILES IDX 40 65 41 66 64 67 65 68 73 69 66 70 72 71 67 72 68 73 69 74
REMARK SMILES IDX 70 75 71 76 50 77 51 78 59 79 52 80 58 81 53 82 54 83 55 84
REMARK SMILES IDX 56 85 57 86
REMARK H PARENT 78 42 48 53
REMARK Flexibility Score: inf
ROOT
ATOM      1  C   UNL A   1      40.387  22.419  26.203  1.00  0.00     0.275 C 
ENDROOT
BRANCH   1   2
ATOM      2  C   UNL A   1      38.913  22.449  26.610  1.00  0.00     0.275 C 
BRANCH   2   3
ATOM      3  O   UNL A   1      38.076  22.798  25.491  1.00  0.00    -0.458 OA
BRANCH   3   4
ATOM      4  C   UNL A   1      36.860  22.178  25.453  1.00  0.00     0.341 C 
ATOM      5  O   UNL A   1      36.707  20.976  25.297  1.00  0.00    -0.246 OA
BRANCH   4   6
ATOM      6  C   UNL A   1      35.743  23.059  25.755  1.00  0.00     0.101 A 
ATOM      7  C   UNL A   1      34.209  21.785  27.492  1.00  0.00     0.088 C 
ATOM      8  C   UNL A   1      34.633  22.851  26.559  1.00  0.00     0.116 A 
ATOM      9  O   UNL A   1      33.770  23.912  26.458  1.00  0.00    -0.460 OA
ATOM     10  C   UNL A   1      34.342  24.814  25.619  1.00  0.00     0.142 A 
ATOM     11  C   UNL A   1      35.582  24.375  25.229  1.00  0.00     0.067 A 
BRANCH  10  12
ATOM     12  C   UNL A   1      33.571  25.992  25.275  1.00  0.00     0.095 A 
ATOM     13  C   UNL A   1      33.433  26.998  26.246  1.00  0.00     0.021 A 
ATOM     14  C   UNL A   1      32.890  26.152  24.061  1.00  0.00     0.281 A 
ATOM     15  C   UNL A   1      32.625  28.116  26.012  1.00  0.00     0.022 A 
ATOM     16  C   UNL A   1      32.079  27.271  23.814  1.00  0.00     0.107 A 
ATOM     17  C   UNL A   1      31.948  28.243  24.801  1.00  0.00     0.047 A 
ATOM     18  Cl  UNL A   1      30.939  29.607  24.522  1.00  0.00    -0.084 Cl
BRANCH  14  19
ATOM     19  N   UNL A   1      32.995  25.158  23.003  1.00  0.00     0.063 N 
ATOM     20  O   UNL A   1      32.225  24.189  23.069  1.00  0.00    -0.258 OA
ATOM     21  O   UNL A   1      33.869  25.316  22.141  1.00  0.00    -0.258 OA
ENDBRANCH  14  19
ENDBRANCH  10  12
ENDBRANCH   4   6
ENDBRANCH   3   4
ENDBRANCH   2   3
ENDBRANCH   1   2
BRANCH   1  22
ATOM     22  O   UNL A   1      41.181  23.212  27.106  1.00  0.00    -0.458 OA
BRANCH  22  23
ATOM     23  C   UNL A   1      41.663  24.373  26.602  1.00  0.00     0.338 C 
ATOM     24  O   UNL A   1      42.224  24.543  25.535  1.00  0.00    -0.246 OA
BRANCH  23  25
ATOM     25  C   UNL A   1      41.356  25.474  27.530  1.00  0.00     0.060 A 
ATOM     26  C   UNL A   1      42.276  26.512  27.653  1.00  0.00     0.016 A 
ATOM     27  C   UNL A   1      40.240  25.422  28.363  1.00  0.00     0.016 A 
ATOM     28  C   UNL A   1      42.114  27.486  28.637  1.00  0.00     0.010 A 
ATOM     29  C   UNL A   1      40.048  26.431  29.318  1.00  0.00     0.010 A 
ATOM     30  C   UNL A   1      40.996  27.459  29.482  1.00  0.00    -0.014 A 
BRANCH  30  31
ATOM     31  C   UNL A   1      40.856  28.470  30.566  1.00  0.00     0.031 A 
ATOM     32  C   UNL A   1      41.799  28.456  31.741  1.00  0.00     0.074 A 
ATOM     33  C   UNL A   1      39.906  29.425  30.490  1.00  0.00     0.049 A 
ATOM     34  N   UNL A   1      41.771  29.179  32.831  1.00  0.00    -0.248 NA
ATOM     35  C   UNL A   1      42.918  27.501  31.683  1.00  0.00     0.031 C 
ATOM     36  C   UNL A   1      38.957  29.593  29.387  1.00  0.00     0.029 A 
ATOM     37  N   UNL A   1      39.588  30.441  31.358  1.00  0.00    -0.354 N 
ATOM     38  C   UNL A   1      42.836  28.737  33.609  1.00  0.00     0.074 A 
ATOM     39  C   UNL A   1      43.490  27.682  32.864  1.00  0.00     0.031 C 
ATOM     40  C   UNL A   1      38.186  30.664  29.631  1.00  0.00     0.029 A 
ATOM     41  C   UNL A   1      38.534  31.217  30.936  1.00  0.00     0.049 A 
ATOM     42  H   UNL A   1      40.069  30.598  32.203  1.00  0.00     0.167 HD
ATOM     43  C   UNL A   1      43.232  29.167  34.831  1.00  0.00     0.031 A 
ATOM     44  C   UNL A   1      37.894  32.238  31.541  1.00  0.00     0.031 A 
ATOM     45  C   UNL A   1      42.600  30.232  35.563  1.00  0.00     0.049 A 
ATOM     46  C   UNL A   1      38.328  32.672  32.913  1.00  0.00     0.074 A 
ATOM     47  C   UNL A   1      42.932  30.736  36.810  1.00  0.00     0.029 A 
ATOM     48  N   UNL A   1      41.514  30.966  35.113  1.00  0.00    -0.354 N 
ATOM     49  N   UNL A   1      39.309  32.210  33.651  1.00  0.00    -0.248 NA
ATOM     50  C   UNL A   1      37.559  33.757  33.539  1.00  0.00     0.031 C 
ATOM     51  C   UNL A   1      42.024  31.752  37.129  1.00  0.00     0.029 A 
ATOM     52  C   UNL A   1      41.156  31.910  36.061  1.00  0.00     0.049 A 
ATOM     53  H   UNL A   1      41.064  30.836  34.247  1.00  0.00     0.167 HD
ATOM     54  C   UNL A   1      39.279  32.954  34.825  1.00  0.00     0.074 A 
ATOM     55  C   UNL A   1      38.198  33.909  34.692  1.00  0.00     0.031 C 
ATOM     56  C   UNL A   1      40.074  32.851  35.919  1.00  0.00     0.031 A 
BRANCH  43  57
ATOM     57  C   UNL A   1      44.384  28.445  35.479  1.00  0.00    -0.014 A 
ATOM     58  C   UNL A   1      45.707  28.898  35.332  1.00  0.00     0.010 A 
ATOM     59  C   UNL A   1      44.131  27.310  36.270  1.00  0.00     0.010 A 
ATOM     60  C   UNL A   1      46.760  28.202  35.932  1.00  0.00     0.020 A 
ATOM     61  C   UNL A   1      45.179  26.625  36.890  1.00  0.00     0.020 A 
ATOM     62  C   UNL A   1      46.491  27.065  36.700  1.00  0.00     0.054 A 
BRANCH  62  63
ATOM     63  S   UNL A   1      47.874  26.181  37.474  1.00  0.00     0.124 S 
ATOM     64  O   UNL A   1      47.610  24.802  37.071  1.00  0.00    -0.237 OA
ATOM     65  O   UNL A   1      49.041  26.802  36.855  1.00  0.00    -0.237 OA
ATOM     66  O   UNL A   1      47.707  26.457  38.898  1.00  0.00    -0.744 OA
ENDBRANCH  62  63
ENDBRANCH  43  57
BRANCH  44  67
ATOM     67  C   UNL A   1      36.743  32.893  30.863  1.00  0.00    -0.014 A 
ATOM     68  C   UNL A   1      35.425  32.636  31.279  1.00  0.00     0.010 A 
ATOM     69  C   UNL A   1      36.964  33.793  29.804  1.00  0.00     0.010 A 
ATOM     70  C   UNL A   1      34.349  33.263  30.645  1.00  0.00     0.020 A 
ATOM     71  C   UNL A   1      35.892  34.442  29.186  1.00  0.00     0.020 A 
ATOM     72  C   UNL A   1      34.590  34.166  29.603  1.00  0.00     0.054 A 
BRANCH  72  73
ATOM     73  S   UNL A   1      33.187  35.023  28.837  1.00  0.00     0.124 S 
ATOM     74  O   UNL A   1      32.302  35.236  29.977  1.00  0.00    -0.237 OA
ATOM     75  O   UNL A   1      33.808  36.224  28.284  1.00  0.00    -0.237 OA
ATOM     76  O   UNL A   1      32.708  34.066  27.841  1.00  0.00    -0.744 OA
ENDBRANCH  72  73
ENDBRANCH  44  67
BRANCH  56  77
ATOM     77  C   UNL A   1      39.821  33.810  37.049  1.00  0.00    -0.014 A 
ATOM     78  C   UNL A   1      38.991  33.456  38.126  1.00  0.00     0.010 A 
ATOM     79  C   UNL A   1      40.459  35.063  37.055  1.00  0.00     0.010 A 
ATOM     80  C   UNL A   1      38.781  34.351  39.179  1.00  0.00     0.020 A 
ATOM     81  C   UNL A   1      40.268  35.952  38.116  1.00  0.00     0.020 A 
ATOM     82  C   UNL A   1      39.419  35.596  39.165  1.00  0.00     0.054 A 
BRANCH  82  83
ATOM     83  S   UNL A   1      39.166  36.726  40.561  1.00  0.00     0.124 S 
ATOM     84  O   UNL A   1      38.540  37.874  39.912  1.00  0.00    -0.237 OA
ATOM     85  O   UNL A   1      38.299  35.955  41.450  1.00  0.00    -0.237 OA
ATOM     86  O   UNL A   1      40.517  36.956  41.067  1.00  0.00    -0.744 OA
ENDBRANCH  82  83
ENDBRANCH  56  77
ENDBRANCH  30  31
ENDBRANCH  23  25
ENDBRANCH  22  23
ENDBRANCH   1  22
TORSDOF 16
ENDMDL
