MODEL 1
REMARK VINA RESULT:     -11.5      0.000      0.000
REMARK SMILES CC(=O)Nc1ccc(/C(=C\c2ccc(S(C)(=O)=O)cc2)C(=O)OCCOC(=O)c2ccc(-c3c4nc(c(-c5ccc(S(=O)(=O)[O-])cc5)c5ccc([nH]5)c(-c5ccc(S(=O)(=O)[O-])cc5)c5nc(c(-c6ccc(S(=O)(=O)[O-])cc6)c6ccc3[nH]6)C=C5)C=C4)cc2)cc1
REMARK SMILES IDX 25 1 24 2 23 3 21 4 22 5 9 6 10 7 8 8 5 9 6 10 90 11 7 12
REMARK SMILES IDX 89 13 4 14 1 15 2 16 3 17 11 19 12 20 20 21 13 22 19 23
REMARK SMILES IDX 14 24 15 25 16 26 17 27 18 28 26 29 27 30 28 31 29 32 30 33
REMARK SMILES IDX 88 34 31 35 87 36 32 37 33 38 34 39 81 40 35 41 86 42 80 43
REMARK SMILES IDX 82 44 36 45 85 46 79 47 78 48 37 50 67 51 48 52 66 53 49 54
REMARK SMILES IDX 52 55 65 56 83 57 50 58 51 59 64 61 84 62 53 63 38 64 39 65
REMARK SMILES IDX 47 66 40 67 46 68 41 69 42 70 43 71 44 72 45 73 68 74 69 75
REMARK SMILES IDX 77 76 70 77 76 78 71 79 72 80 73 81 74 82 75 83 54 84 55 85
REMARK SMILES IDX 63 86 56 87 62 88 57 89 58 90 59 91 60 92 61 93
REMARK H PARENT 4 18 82 49 52 60
REMARK Flexibility Score: inf
ROOT
ATOM      1  C   UNL A   1      33.160  29.137  25.529  1.00  0.00     0.275 C 
ENDROOT
BRANCH   1   2
ATOM      2  C   UNL A   1      32.662  27.736  25.165  1.00  0.00     0.275 C 
BRANCH   2   3
ATOM      3  O   UNL A   1      33.772  26.886  24.802  1.00  0.00    -0.458 OA
BRANCH   3   4
ATOM      4  C   UNL A   1      33.662  26.181  23.640  1.00  0.00     0.338 C 
ATOM      5  O   UNL A   1      33.506  26.672  22.533  1.00  0.00    -0.246 OA
BRANCH   4   6
ATOM      6  C   UNL A   1      33.739  24.692  23.895  1.00  0.00     0.067 C 
ATOM      7  C   UNL A   1      32.543  24.075  23.692  1.00  0.00     0.024 C 
BRANCH   6   8
ATOM      8  C   UNL A   1      35.052  24.058  24.313  1.00  0.00    -0.011 A 
ATOM      9  C   UNL A   1      37.272  22.493  25.211  1.00  0.00     0.041 A 
ATOM     10  C   UNL A   1      36.958  22.556  23.866  1.00  0.00     0.027 A 
ATOM     11  C   UNL A   1      36.594  23.320  26.096  1.00  0.00     0.027 A 
ATOM     12  C   UNL A   1      35.876  23.334  23.437  1.00  0.00     0.011 A 
ATOM     13  C   UNL A   1      35.505  24.102  25.646  1.00  0.00     0.011 A 
BRANCH   9  14
ATOM     14  N   UNL A   1      38.309  21.640  25.600  1.00  0.00    -0.326 N 
ATOM     15  C   UNL A   1      39.757  23.408  26.581  1.00  0.00     0.114 C 
ATOM     16  C   UNL A   1      39.436  21.968  26.306  1.00  0.00     0.221 C 
ATOM     17  O   UNL A   1      40.135  21.060  26.759  1.00  0.00    -0.275 OA
ATOM     18  H   UNL A   1      38.218  20.695  25.336  1.00  0.00     0.169 HD
ENDBRANCH   9  14
ENDBRANCH   6   8
BRANCH   7  19
ATOM     19  C   UNL A   1      32.239  22.643  23.781  1.00  0.00    -0.025 A 
ATOM     20  C   UNL A   1      32.181  21.904  22.589  1.00  0.00     0.009 A 
ATOM     21  C   UNL A   1      32.200  21.984  25.017  1.00  0.00     0.009 A 
ATOM     22  C   UNL A   1      32.228  20.511  22.629  1.00  0.00     0.021 A 
ATOM     23  C   UNL A   1      32.252  20.587  25.061  1.00  0.00     0.021 A 
ATOM     24  C   UNL A   1      32.308  19.863  23.866  1.00  0.00     0.067 A 
BRANCH  24  25
ATOM     25  S   UNL A   1      32.726  18.133  23.895  1.00  0.00     0.175 S 
ATOM     26  C   UNL A   1      34.418  18.104  24.407  1.00  0.00     0.163 C 
ATOM     27  O   UNL A   1      31.934  17.520  24.945  1.00  0.00    -0.224 OA
ATOM     28  O   UNL A   1      32.662  17.639  22.534  1.00  0.00    -0.224 OA
ENDBRANCH  24  25
ENDBRANCH   7  19
ENDBRANCH   4   6
ENDBRANCH   3   4
ENDBRANCH   2   3
ENDBRANCH   1   2
BRANCH   1  29
ATOM     29  O   UNL A   1      33.665  29.138  26.875  1.00  0.00    -0.458 OA
BRANCH  29  30
ATOM     30  C   UNL A   1      34.225  30.306  27.270  1.00  0.00     0.338 C 
ATOM     31  O   UNL A   1      33.694  31.404  27.307  1.00  0.00    -0.246 OA
BRANCH  30  32
ATOM     32  C   UNL A   1      35.518  30.009  27.904  1.00  0.00     0.060 A 
ATOM     33  C   UNL A   1      35.470  29.629  29.239  1.00  0.00     0.016 A 
ATOM     34  C   UNL A   1      36.745  30.094  27.237  1.00  0.00     0.016 A 
ATOM     35  C   UNL A   1      36.646  29.306  29.902  1.00  0.00     0.010 A 
ATOM     36  C   UNL A   1      37.932  29.783  27.924  1.00  0.00     0.010 A 
ATOM     37  C   UNL A   1      37.888  29.377  29.265  1.00  0.00    -0.014 A 
BRANCH  37  38
ATOM     38  C   UNL A   1      39.103  29.113  30.079  1.00  0.00     0.031 A 
ATOM     39  C   UNL A   1      40.078  28.063  29.624  1.00  0.00     0.074 A 
ATOM     40  C   UNL A   1      39.442  29.919  31.105  1.00  0.00     0.049 A 
ATOM     41  N   UNL A   1      41.241  27.742  30.129  1.00  0.00    -0.248 NA
ATOM     42  C   UNL A   1      39.711  27.305  28.417  1.00  0.00     0.031 C 
ATOM     43  C   UNL A   1      38.672  31.074  31.563  1.00  0.00     0.029 A 
ATOM     44  N   UNL A   1      40.547  29.907  31.922  1.00  0.00    -0.354 N 
ATOM     45  C   UNL A   1      41.758  26.761  29.293  1.00  0.00     0.074 A 
ATOM     46  C   UNL A   1      40.772  26.526  28.258  1.00  0.00     0.031 C 
ATOM     47  C   UNL A   1      39.332  31.663  32.576  1.00  0.00     0.029 A 
ATOM     48  C   UNL A   1      40.547  30.903  32.872  1.00  0.00     0.049 A 
ATOM     49  H   UNL A   1      41.273  29.247  31.835  1.00  0.00     0.167 HD
ATOM     50  C   UNL A   1      42.941  26.107  29.376  1.00  0.00     0.031 A 
ATOM     51  C   UNL A   1      41.405  31.156  33.883  1.00  0.00     0.031 A 
ATOM     52  C   UNL A   1      43.908  26.288  30.424  1.00  0.00     0.049 A 
ATOM     53  C   UNL A   1      42.615  30.276  34.075  1.00  0.00     0.074 A 
ATOM     54  C   UNL A   1      45.101  25.612  30.618  1.00  0.00     0.029 A 
ATOM     55  N   UNL A   1      43.791  27.196  31.463  1.00  0.00    -0.354 N 
ATOM     56  N   UNL A   1      43.064  29.312  33.308  1.00  0.00    -0.248 NA
ATOM     57  C   UNL A   1      43.426  30.507  35.282  1.00  0.00     0.031 C 
ATOM     58  C   UNL A   1      45.672  26.067  31.812  1.00  0.00     0.029 A 
ATOM     59  C   UNL A   1      44.863  27.064  32.331  1.00  0.00     0.049 A 
ATOM     60  H   UNL A   1      43.055  27.841  31.569  1.00  0.00     0.167 HD
ATOM     61  C   UNL A   1      44.215  28.835  33.929  1.00  0.00     0.074 A 
ATOM     62  C   UNL A   1      44.402  29.622  35.130  1.00  0.00     0.031 C 
ATOM     63  C   UNL A   1      45.041  27.835  33.535  1.00  0.00     0.031 A 
BRANCH  50  64
ATOM     64  C   UNL A   1      43.215  25.070  28.326  1.00  0.00    -0.014 A 
ATOM     65  C   UNL A   1      42.916  23.715  28.547  1.00  0.00     0.010 A 
ATOM     66  C   UNL A   1      43.776  25.463  27.098  1.00  0.00     0.010 A 
ATOM     67  C   UNL A   1      43.212  22.762  27.568  1.00  0.00     0.020 A 
ATOM     68  C   UNL A   1      44.058  24.517  26.111  1.00  0.00     0.020 A 
ATOM     69  C   UNL A   1      43.791  23.169  26.361  1.00  0.00     0.054 A 
BRANCH  69  70
ATOM     70  S   UNL A   1      44.183  21.913  25.112  1.00  0.00     0.124 S 
ATOM     71  O   UNL A   1      43.951  22.644  23.869  1.00  0.00    -0.237 OA
ATOM     72  O   UNL A   1      45.579  21.595  25.402  1.00  0.00    -0.237 OA
ATOM     73  O   UNL A   1      43.232  20.839  25.389  1.00  0.00    -0.744 OA
ENDBRANCH  69  70
ENDBRANCH  50  64
BRANCH  51  74
ATOM     74  C   UNL A   1      41.108  32.246  34.855  1.00  0.00    -0.014 A 
ATOM     75  C   UNL A   1      41.550  33.562  34.637  1.00  0.00     0.010 A 
ATOM     76  C   UNL A   1      40.397  31.952  36.034  1.00  0.00     0.010 A 
ATOM     77  C   UNL A   1      41.292  34.561  35.582  1.00  0.00     0.020 A 
ATOM     78  C   UNL A   1      40.113  32.953  36.967  1.00  0.00     0.020 A 
ATOM     79  C   UNL A   1      40.574  34.250  36.741  1.00  0.00     0.054 A 
BRANCH  79  80
ATOM     80  S   UNL A   1      40.203  35.565  37.936  1.00  0.00     0.124 S 
ATOM     81  O   UNL A   1      40.054  36.729  37.069  1.00  0.00    -0.237 OA
ATOM     82  O   UNL A   1      38.977  35.085  38.569  1.00  0.00    -0.237 OA
ATOM     83  O   UNL A   1      41.378  35.576  38.804  1.00  0.00    -0.744 OA
ENDBRANCH  79  80
ENDBRANCH  51  74
BRANCH  63  84
ATOM     84  C   UNL A   1      46.233  27.519  34.402  1.00  0.00    -0.014 A 
ATOM     85  C   UNL A   1      46.156  26.535  35.405  1.00  0.00     0.010 A 
ATOM     86  C   UNL A   1      47.465  28.153  34.160  1.00  0.00     0.010 A 
ATOM     87  C   UNL A   1      47.287  26.202  36.159  1.00  0.00     0.020 A 
ATOM     88  C   UNL A   1      48.603  27.807  34.896  1.00  0.00     0.020 A 
ATOM     89  C   UNL A   1      48.504  26.839  35.898  1.00  0.00     0.054 A 
BRANCH  89  90
ATOM     90  S   UNL A   1      49.972  26.342  36.845  1.00  0.00     0.124 S 
ATOM     91  O   UNL A   1      49.696  24.935  37.119  1.00  0.00    -0.237 OA
ATOM     92  O   UNL A   1      51.063  26.597  35.906  1.00  0.00    -0.237 OA
ATOM     93  O   UNL A   1      49.947  27.222  38.012  1.00  0.00    -0.744 OA
ENDBRANCH  89  90
ENDBRANCH  63  84
ENDBRANCH  37  38
ENDBRANCH  30  32
ENDBRANCH  29  30
ENDBRANCH   1  29
TORSDOF 18
ENDMDL
MODEL 2
REMARK VINA RESULT:     -11.3      4.757      9.955
REMARK SMILES CC(=O)Nc1ccc(/C(=C\c2ccc(S(C)(=O)=O)cc2)C(=O)OCCOC(=O)c2ccc(-c3c4nc(c(-c5ccc(S(=O)(=O)[O-])cc5)c5ccc([nH]5)c(-c5ccc(S(=O)(=O)[O-])cc5)c5nc(c(-c6ccc(S(=O)(=O)[O-])cc6)c6ccc3[nH]6)C=C5)C=C4)cc2)cc1
REMARK SMILES IDX 25 1 24 2 23 3 21 4 22 5 9 6 10 7 8 8 5 9 6 10 90 11 7 12
REMARK SMILES IDX 89 13 4 14 1 15 2 16 3 17 11 19 12 20 20 21 13 22 19 23
REMARK SMILES IDX 14 24 15 25 16 26 17 27 18 28 26 29 27 30 28 31 29 32 30 33
REMARK SMILES IDX 88 34 31 35 87 36 32 37 33 38 34 39 81 40 35 41 86 42 80 43
REMARK SMILES IDX 82 44 36 45 85 46 79 47 78 48 37 50 67 51 48 52 66 53 49 54
REMARK SMILES IDX 52 55 65 56 83 57 50 58 51 59 64 61 84 62 53 63 38 64 39 65
REMARK SMILES IDX 47 66 40 67 46 68 41 69 42 70 43 71 44 72 45 73 68 74 69 75
REMARK SMILES IDX 77 76 70 77 76 78 71 79 72 80 73 81 74 82 75 83 54 84 55 85
REMARK SMILES IDX 63 86 56 87 62 88 57 89 58 90 59 91 60 92 61 93
REMARK H PARENT 4 18 82 49 52 60
REMARK Flexibility Score: inf
ROOT
ATOM      1  C   UNL A   1      36.121  22.549  26.172  1.00  0.00     0.275 C 
ENDROOT
BRANCH   1   2
ATOM      2  C   UNL A   1      34.880  22.932  25.361  1.00  0.00     0.275 C 
BRANCH   2   3
ATOM      3  O   UNL A   1      34.359  24.203  25.808  1.00  0.00    -0.458 OA
BRANCH   3   4
ATOM      4  C   UNL A   1      33.043  24.246  26.162  1.00  0.00     0.338 C 
ATOM      5  O   UNL A   1      32.470  23.405  26.839  1.00  0.00    -0.246 OA
BRANCH   4   6
ATOM      6  C   UNL A   1      32.363  25.470  25.591  1.00  0.00     0.067 C 
ATOM      7  C   UNL A   1      31.521  25.159  24.568  1.00  0.00     0.024 C 
BRANCH   6   8
ATOM      8  C   UNL A   1      32.649  26.840  26.174  1.00  0.00    -0.011 A 
ATOM      9  C   UNL A   1      32.985  29.590  26.891  1.00  0.00     0.041 A 
ATOM     10  C   UNL A   1      31.916  28.865  27.381  1.00  0.00     0.027 A 
ATOM     11  C   UNL A   1      33.973  28.926  26.177  1.00  0.00     0.027 A 
ATOM     12  C   UNL A   1      31.767  27.517  27.033  1.00  0.00     0.011 A 
ATOM     13  C   UNL A   1      33.809  27.564  25.835  1.00  0.00     0.011 A 
BRANCH   9  14
ATOM     14  N   UNL A   1      33.047  30.952  27.201  1.00  0.00    -0.326 N 
ATOM     15  C   UNL A   1      35.221  30.855  28.406  1.00  0.00     0.114 C 
ATOM     16  C   UNL A   1      34.074  31.621  27.813  1.00  0.00     0.221 C 
ATOM     17  O   UNL A   1      34.064  32.852  27.808  1.00  0.00    -0.275 OA
ATOM     18  H   UNL A   1      32.263  31.492  26.950  1.00  0.00     0.169 HD
ENDBRANCH   9  14
ENDBRANCH   6   8
BRANCH   7  19
ATOM     19  C   UNL A   1      30.648  26.061  23.811  1.00  0.00    -0.025 A 
ATOM     20  C   UNL A   1      29.287  26.106  24.150  1.00  0.00     0.009 A 
ATOM     21  C   UNL A   1      31.176  26.996  22.909  1.00  0.00     0.009 A 
ATOM     22  C   UNL A   1      28.491  27.160  23.706  1.00  0.00     0.021 A 
ATOM     23  C   UNL A   1      30.383  28.057  22.465  1.00  0.00     0.021 A 
ATOM     24  C   UNL A   1      29.057  28.154  22.900  1.00  0.00     0.067 A 
BRANCH  24  25
ATOM     25  S   UNL A   1      28.145  29.661  22.640  1.00  0.00     0.175 S 
ATOM     26  C   UNL A   1      29.106  30.897  23.461  1.00  0.00     0.163 C 
ATOM     27  O   UNL A   1      28.182  29.941  21.217  1.00  0.00    -0.224 OA
ATOM     28  O   UNL A   1      26.881  29.540  23.339  1.00  0.00    -0.224 OA
ENDBRANCH  24  25
ENDBRANCH   7  19
ENDBRANCH   4   6
ENDBRANCH   3   4
ENDBRANCH   2   3
ENDBRANCH   1   2
BRANCH   1  29
ATOM     29  O   UNL A   1      37.258  23.292  25.698  1.00  0.00    -0.458 OA
BRANCH  29  30
ATOM     30  C   UNL A   1      38.443  22.920  26.238  1.00  0.00     0.338 C 
ATOM     31  O   UNL A   1      39.000  21.839  26.124  1.00  0.00    -0.246 OA
BRANCH  30  32
ATOM     32  C   UNL A   1      39.100  24.116  26.784  1.00  0.00     0.060 A 
ATOM     33  C   UNL A   1      39.839  24.871  25.883  1.00  0.00     0.016 A 
ATOM     34  C   UNL A   1      39.010  24.505  28.125  1.00  0.00     0.016 A 
ATOM     35  C   UNL A   1      40.468  26.031  26.314  1.00  0.00     0.010 A 
ATOM     36  C   UNL A   1      39.667  25.672  28.556  1.00  0.00     0.010 A 
ATOM     37  C   UNL A   1      40.396  26.450  27.646  1.00  0.00    -0.014 A 
BRANCH  37  38
ATOM     38  C   UNL A   1      41.184  27.646  28.042  1.00  0.00     0.031 A 
ATOM     39  C   UNL A   1      40.476  28.820  28.658  1.00  0.00     0.074 A 
ATOM     40  C   UNL A   1      42.532  27.626  28.035  1.00  0.00     0.049 A 
ATOM     41  N   UNL A   1      40.980  29.918  29.161  1.00  0.00    -0.248 NA
ATOM     42  C   UNL A   1      39.011  28.725  28.759  1.00  0.00     0.031 C 
ATOM     43  C   UNL A   1      43.358  26.497  27.611  1.00  0.00     0.029 A 
ATOM     44  N   UNL A   1      43.441  28.576  28.436  1.00  0.00    -0.354 N 
ATOM     45  C   UNL A   1      39.901  30.637  29.657  1.00  0.00     0.074 A 
ATOM     46  C   UNL A   1      38.711  29.858  29.378  1.00  0.00     0.031 C 
ATOM     47  C   UNL A   1      44.653  26.819  27.779  1.00  0.00     0.029 A 
ATOM     48  C   UNL A   1      44.753  28.191  28.278  1.00  0.00     0.049 A 
ATOM     49  H   UNL A   1      43.178  29.451  28.802  1.00  0.00     0.167 HD
ATOM     50  C   UNL A   1      39.891  31.837  30.285  1.00  0.00     0.031 A 
ATOM     51  C   UNL A   1      45.901  28.872  28.479  1.00  0.00     0.031 A 
ATOM     52  C   UNL A   1      41.054  32.648  30.523  1.00  0.00     0.049 A 
ATOM     53  C   UNL A   1      45.849  30.292  28.987  1.00  0.00     0.074 A 
ATOM     54  C   UNL A   1      41.120  33.910  31.089  1.00  0.00     0.029 A 
ATOM     55  N   UNL A   1      42.352  32.290  30.197  1.00  0.00    -0.354 N 
ATOM     56  N   UNL A   1      44.814  30.982  29.400  1.00  0.00    -0.248 NA
ATOM     57  C   UNL A   1      47.122  31.030  29.039  1.00  0.00     0.031 C 
ATOM     58  C   UNL A   1      42.450  34.341  31.045  1.00  0.00     0.029 A 
ATOM     59  C   UNL A   1      43.220  33.325  30.502  1.00  0.00     0.049 A 
ATOM     60  H   UNL A   1      42.617  31.426  29.806  1.00  0.00     0.167 HD
ATOM     61  C   UNL A   1      45.312  32.227  29.776  1.00  0.00     0.074 A 
ATOM     62  C   UNL A   1      46.742  32.194  29.552  1.00  0.00     0.031 C 
ATOM     63  C   UNL A   1      44.640  33.299  30.264  1.00  0.00     0.031 A 
BRANCH  50  64
ATOM     64  C   UNL A   1      38.551  32.378  30.690  1.00  0.00    -0.014 A 
ATOM     65  C   UNL A   1      37.955  32.007  31.908  1.00  0.00     0.010 A 
ATOM     66  C   UNL A   1      37.883  33.275  29.838  1.00  0.00     0.010 A 
ATOM     67  C   UNL A   1      36.690  32.496  32.247  1.00  0.00     0.020 A 
ATOM     68  C   UNL A   1      36.628  33.779  30.182  1.00  0.00     0.020 A 
ATOM     69  C   UNL A   1      36.031  33.371  31.377  1.00  0.00     0.054 A 
BRANCH  69  70
ATOM     70  S   UNL A   1      34.383  33.978  31.830  1.00  0.00     0.124 S 
ATOM     71  O   UNL A   1      34.709  35.163  32.622  1.00  0.00    -0.237 OA
ATOM     72  O   UNL A   1      33.768  34.241  30.532  1.00  0.00    -0.237 OA
ATOM     73  O   UNL A   1      33.799  32.870  32.581  1.00  0.00    -0.744 OA
ENDBRANCH  69  70
ENDBRANCH  50  64
BRANCH  51  74
ATOM     74  C   UNL A   1      47.207  28.252  28.116  1.00  0.00    -0.014 A 
ATOM     75  C   UNL A   1      47.685  28.271  26.795  1.00  0.00     0.010 A 
ATOM     76  C   UNL A   1      47.969  27.606  29.108  1.00  0.00     0.010 A 
ATOM     77  C   UNL A   1      48.896  27.649  26.471  1.00  0.00     0.020 A 
ATOM     78  C   UNL A   1      49.192  27.008  28.795  1.00  0.00     0.020 A 
ATOM     79  C   UNL A   1      49.642  27.022  27.475  1.00  0.00     0.054 A 
BRANCH  79  80
ATOM     80  S   UNL A   1      51.236  26.262  27.051  1.00  0.00     0.124 S 
ATOM     81  O   UNL A   1      51.478  26.792  25.714  1.00  0.00    -0.237 OA
ATOM     82  O   UNL A   1      52.118  26.765  28.101  1.00  0.00    -0.237 OA
ATOM     83  O   UNL A   1      50.957  24.830  27.118  1.00  0.00    -0.744 OA
ENDBRANCH  79  80
ENDBRANCH  51  74
BRANCH  63  84
ATOM     84  C   UNL A   1      45.432  34.539  30.595  1.00  0.00    -0.014 A 
ATOM     85  C   UNL A   1      45.604  35.562  29.644  1.00  0.00     0.010 A 
ATOM     86  C   UNL A   1      45.941  34.720  31.894  1.00  0.00     0.010 A 
ATOM     87  C   UNL A   1      46.282  36.737  29.983  1.00  0.00     0.020 A 
ATOM     88  C   UNL A   1      46.600  35.903  32.242  1.00  0.00     0.020 A 
ATOM     89  C   UNL A   1      46.774  36.902  31.282  1.00  0.00     0.054 A 
BRANCH  89  90
ATOM     90  S   UNL A   1      47.592  38.464  31.716  1.00  0.00     0.124 S 
ATOM     91  O   UNL A   1      46.481  39.409  31.686  1.00  0.00    -0.237 OA
ATOM     92  O   UNL A   1      48.142  38.182  33.041  1.00  0.00    -0.237 OA
ATOM     93  O   UNL A   1      48.589  38.638  30.661  1.00  0.00    -0.744 OA
ENDBRANCH  89  90
ENDBRANCH  63  84
ENDBRANCH  37  38
ENDBRANCH  30  32
ENDBRANCH  29  30
ENDBRANCH   1  29
TORSDOF 18
ENDMDL
MODEL 3
REMARK VINA RESULT:     -11.0      4.769      7.531
REMARK SMILES CC(=O)Nc1ccc(/C(=C\c2ccc(S(C)(=O)=O)cc2)C(=O)OCCOC(=O)c2ccc(-c3c4nc(c(-c5ccc(S(=O)(=O)[O-])cc5)c5ccc([nH]5)c(-c5ccc(S(=O)(=O)[O-])cc5)c5nc(c(-c6ccc(S(=O)(=O)[O-])cc6)c6ccc3[nH]6)C=C5)C=C4)cc2)cc1
REMARK SMILES IDX 25 1 24 2 23 3 21 4 22 5 9 6 10 7 8 8 5 9 6 10 90 11 7 12
REMARK SMILES IDX 89 13 4 14 1 15 2 16 3 17 11 19 12 20 20 21 13 22 19 23
REMARK SMILES IDX 14 24 15 25 16 26 17 27 18 28 26 29 27 30 28 31 29 32 30 33
REMARK SMILES IDX 88 34 31 35 87 36 32 37 33 38 34 39 81 40 35 41 86 42 80 43
REMARK SMILES IDX 82 44 36 45 85 46 79 47 78 48 37 50 67 51 48 52 66 53 49 54
REMARK SMILES IDX 52 55 65 56 83 57 50 58 51 59 64 61 84 62 53 63 38 64 39 65
REMARK SMILES IDX 47 66 40 67 46 68 41 69 42 70 43 71 44 72 45 73 68 74 69 75
REMARK SMILES IDX 77 76 70 77 76 78 71 79 72 80 73 81 74 82 75 83 54 84 55 85
REMARK SMILES IDX 63 86 56 87 62 88 57 89 58 90 59 91 60 92 61 93
REMARK H PARENT 4 18 82 49 52 60
REMARK Flexibility Score: inf
ROOT
ATOM      1  C   UNL A   1      36.552  22.652  26.042  1.00  0.00     0.275 C 
ENDROOT
BRANCH   1   2
ATOM      2  C   UNL A   1      35.414  23.133  25.139  1.00  0.00     0.275 C 
BRANCH   2   3
ATOM      3  O   UNL A   1      34.798  24.316  25.692  1.00  0.00    -0.458 OA
BRANCH   3   4
ATOM      4  C   UNL A   1      33.476  24.234  26.019  1.00  0.00     0.338 C 
ATOM      5  O   UNL A   1      32.962  23.316  26.640  1.00  0.00    -0.246 OA
BRANCH   4   6
ATOM      6  C   UNL A   1      32.709  25.429  25.497  1.00  0.00     0.067 C 
ATOM      7  C   UNL A   1      31.895  25.100  24.457  1.00  0.00     0.024 C 
BRANCH   6   8
ATOM      8  C   UNL A   1      32.892  26.790  26.139  1.00  0.00    -0.011 A 
ATOM      9  C   UNL A   1      33.048  29.527  26.962  1.00  0.00     0.041 A 
ATOM     10  C   UNL A   1      31.990  28.734  27.364  1.00  0.00     0.027 A 
ATOM     11  C   UNL A   1      34.108  28.936  26.287  1.00  0.00     0.027 A 
ATOM     12  C   UNL A   1      31.929  27.393  26.965  1.00  0.00     0.011 A 
ATOM     13  C   UNL A   1      34.032  27.580  25.892  1.00  0.00     0.011 A 
BRANCH   9  14
ATOM     14  N   UNL A   1      33.023  30.878  27.318  1.00  0.00    -0.326 N 
ATOM     15  C   UNL A   1      35.268  30.914  28.390  1.00  0.00     0.114 C 
ATOM     16  C   UNL A   1      34.031  31.606  27.894  1.00  0.00     0.221 C 
ATOM     17  O   UNL A   1      33.926  32.833  27.934  1.00  0.00    -0.275 OA
ATOM     18  H   UNL A   1      32.186  31.363  27.132  1.00  0.00     0.169 HD
ENDBRANCH   9  14
ENDBRANCH   6   8
BRANCH   7  19
ATOM     19  C   UNL A   1      30.960  25.968  23.733  1.00  0.00    -0.025 A 
ATOM     20  C   UNL A   1      29.613  25.965  24.129  1.00  0.00     0.009 A 
ATOM     21  C   UNL A   1      31.416  26.916  22.808  1.00  0.00     0.009 A 
ATOM     22  C   UNL A   1      28.763  26.988  23.715  1.00  0.00     0.021 A 
ATOM     23  C   UNL A   1      30.567  27.946  22.394  1.00  0.00     0.021 A 
ATOM     24  C   UNL A   1      29.258  27.998  22.883  1.00  0.00     0.067 A 
BRANCH  24  25
ATOM     25  S   UNL A   1      28.283  29.470  22.656  1.00  0.00     0.175 S 
ATOM     26  C   UNL A   1      29.167  30.717  23.545  1.00  0.00     0.163 C 
ATOM     27  O   UNL A   1      28.339  29.805  21.245  1.00  0.00    -0.224 OA
ATOM     28  O   UNL A   1      27.011  29.265  23.320  1.00  0.00    -0.224 OA
ENDBRANCH  24  25
ENDBRANCH   7  19
ENDBRANCH   4   6
ENDBRANCH   3   4
ENDBRANCH   2   3
ENDBRANCH   1   2
BRANCH   1  29
ATOM     29  O   UNL A   1      37.818  22.979  25.443  1.00  0.00    -0.458 OA
BRANCH  29  30
ATOM     30  C   UNL A   1      38.900  22.536  26.126  1.00  0.00     0.338 C 
ATOM     31  O   UNL A   1      39.422  21.436  26.050  1.00  0.00    -0.246 OA
BRANCH  30  32
ATOM     32  C   UNL A   1      39.523  23.684  26.802  1.00  0.00     0.060 A 
ATOM     33  C   UNL A   1      39.408  24.908  26.156  1.00  0.00     0.016 A 
ATOM     34  C   UNL A   1      40.200  23.590  28.023  1.00  0.00     0.016 A 
ATOM     35  C   UNL A   1      39.947  26.045  26.742  1.00  0.00     0.010 A 
ATOM     36  C   UNL A   1      40.758  24.745  28.599  1.00  0.00     0.010 A 
ATOM     37  C   UNL A   1      40.627  25.987  27.962  1.00  0.00    -0.014 A 
BRANCH  37  38
ATOM     38  C   UNL A   1      41.259  27.234  28.466  1.00  0.00     0.031 A 
ATOM     39  C   UNL A   1      42.740  27.428  28.294  1.00  0.00     0.074 A 
ATOM     40  C   UNL A   1      40.511  28.267  28.902  1.00  0.00     0.049 A 
ATOM     41  N   UNL A   1      43.474  28.475  28.572  1.00  0.00    -0.248 NA
ATOM     42  C   UNL A   1      43.482  26.311  27.689  1.00  0.00     0.031 C 
ATOM     43  C   UNL A   1      39.051  28.281  28.978  1.00  0.00     0.029 A 
ATOM     44  N   UNL A   1      40.881  29.521  29.325  1.00  0.00    -0.354 N 
ATOM     45  C   UNL A   1      44.761  28.155  28.159  1.00  0.00     0.074 A 
ATOM     46  C   UNL A   1      44.710  26.808  27.627  1.00  0.00     0.031 C 
ATOM     47  C   UNL A   1      38.651  29.488  29.417  1.00  0.00     0.029 A 
ATOM     48  C   UNL A   1      39.823  30.317  29.698  1.00  0.00     0.049 A 
ATOM     49  H   UNL A   1      41.818  29.823  29.359  1.00  0.00     0.167 HD
ATOM     50  C   UNL A   1      45.886  28.905  28.217  1.00  0.00     0.031 A 
ATOM     51  C   UNL A   1      39.797  31.556  30.233  1.00  0.00     0.031 A 
ATOM     52  C   UNL A   1      45.967  30.222  28.788  1.00  0.00     0.049 A 
ATOM     53  C   UNL A   1      41.092  32.291  30.480  1.00  0.00     0.074 A 
ATOM     54  C   UNL A   1      47.086  31.021  28.951  1.00  0.00     0.029 A 
ATOM     55  N   UNL A   1      44.894  30.929  29.307  1.00  0.00    -0.354 N 
ATOM     56  N   UNL A   1      42.310  31.952  30.135  1.00  0.00    -0.248 NA
ATOM     57  C   UNL A   1      41.007  33.570  31.205  1.00  0.00     0.031 C 
ATOM     58  C   UNL A   1      46.699  32.184  29.627  1.00  0.00     0.029 A 
ATOM     59  C   UNL A   1      45.331  32.133  29.835  1.00  0.00     0.049 A 
ATOM     60  H   UNL A   1      43.959  30.621  29.300  1.00  0.00     0.167 HD
ATOM     61  C   UNL A   1      43.134  32.981  30.586  1.00  0.00     0.074 A 
ATOM     62  C   UNL A   1      42.276  33.960  31.218  1.00  0.00     0.031 C 
ATOM     63  C   UNL A   1      44.480  33.100  30.480  1.00  0.00     0.031 A 
BRANCH  50  64
ATOM     64  C   UNL A   1      47.148  28.272  27.708  1.00  0.00    -0.014 A 
ATOM     65  C   UNL A   1      47.496  28.335  26.348  1.00  0.00     0.010 A 
ATOM     66  C   UNL A   1      48.000  27.610  28.610  1.00  0.00     0.010 A 
ATOM     67  C   UNL A   1      48.658  27.707  25.891  1.00  0.00     0.020 A 
ATOM     68  C   UNL A   1      49.170  26.996  28.160  1.00  0.00     0.020 A 
ATOM     69  C   UNL A   1      49.482  27.033  26.799  1.00  0.00     0.054 A 
BRANCH  69  70
ATOM     70  S   UNL A   1      50.976  26.211  26.181  1.00  0.00     0.124 S 
ATOM     71  O   UNL A   1      50.762  26.249  24.736  1.00  0.00    -0.237 OA
ATOM     72  O   UNL A   1      52.047  27.070  26.680  1.00  0.00    -0.237 OA
ATOM     73  O   UNL A   1      50.915  24.882  26.783  1.00  0.00    -0.744 OA
ENDBRANCH  69  70
ENDBRANCH  50  64
BRANCH  51  74
ATOM     74  C   UNL A   1      38.501  32.157  30.658  1.00  0.00    -0.014 A 
ATOM     75  C   UNL A   1      37.877  31.777  31.858  1.00  0.00     0.010 A 
ATOM     76  C   UNL A   1      37.868  33.103  29.830  1.00  0.00     0.010 A 
ATOM     77  C   UNL A   1      36.641  32.326  32.219  1.00  0.00     0.020 A 
ATOM     78  C   UNL A   1      36.648  33.675  30.200  1.00  0.00     0.020 A 
ATOM     79  C   UNL A   1      36.035  33.273  31.386  1.00  0.00     0.054 A 
BRANCH  79  80
ATOM     80  S   UNL A   1      34.457  34.016  31.889  1.00  0.00     0.124 S 
ATOM     81  O   UNL A   1      33.867  34.372  30.603  1.00  0.00    -0.237 OA
ATOM     82  O   UNL A   1      33.803  32.924  32.605  1.00  0.00    -0.237 OA
ATOM     83  O   UNL A   1      34.863  35.143  32.726  1.00  0.00    -0.744 OA
ENDBRANCH  79  80
ENDBRANCH  51  74
BRANCH  63  84
ATOM     84  C   UNL A   1      45.129  34.331  31.060  1.00  0.00    -0.014 A 
ATOM     85  C   UNL A   1      45.607  34.340  32.383  1.00  0.00     0.010 A 
ATOM     86  C   UNL A   1      45.335  35.463  30.251  1.00  0.00     0.010 A 
ATOM     87  C   UNL A   1      46.268  35.465  32.889  1.00  0.00     0.020 A 
ATOM     88  C   UNL A   1      46.015  36.580  30.746  1.00  0.00     0.020 A 
ATOM     89  C   UNL A   1      46.470  36.578  32.067  1.00  0.00     0.054 A 
BRANCH  89  90
ATOM     90  S   UNL A   1      47.389  37.998  32.726  1.00  0.00     0.124 S 
ATOM     91  O   UNL A   1      46.331  38.775  33.365  1.00  0.00    -0.237 OA
ATOM     92  O   UNL A   1      48.344  37.370  33.636  1.00  0.00    -0.237 OA
ATOM     93  O   UNL A   1      47.982  38.609  31.539  1.00  0.00    -0.744 OA
ENDBRANCH  89  90
ENDBRANCH  63  84
ENDBRANCH  37  38
ENDBRANCH  30  32
ENDBRANCH  29  30
ENDBRANCH   1  29
TORSDOF 18
ENDMDL
