MODEL 1
REMARK VINA RESULT:      -9.7      0.000      0.000
REMARK SMILES O=C(OCCOC(=O)c1cnc([C@H]2CSCCS2)[nH]c1=O)c1ccc(-c2c3nc(c(-c4ccc(S(=O)(=O)[O-])cc4)c4ccc([nH]4)c(-c4ccc(S(=O)(=O)[O-])cc4)c4nc(c(-c5ccc(S(=O)(=O)[O-])cc5)c5ccc2[nH]5)C=C4)C=C3)cc1
REMARK SMILES IDX 4 1 3 2 2 3 1 4 22 5 23 6 81 7 24 8 80 9 25 10 26 11 27 12
REMARK SMILES IDX 74 13 28 14 79 15 73 16 75 17 29 18 78 19 72 20 71 21 30 23
REMARK SMILES IDX 60 24 41 25 59 26 42 27 45 28 58 29 76 30 43 31 44 32 57 34
REMARK SMILES IDX 77 35 46 36 31 37 32 38 40 39 33 40 39 41 34 42 35 43 36 44
REMARK SMILES IDX 37 45 38 46 61 47 62 48 70 49 63 50 69 51 64 52 65 53 66 54
REMARK SMILES IDX 67 55 68 56 47 57 48 58 56 59 49 60 55 61 50 62 51 63 52 64
REMARK SMILES IDX 53 65 54 66 5 67 6 68 7 69 8 70 9 71 10 72 20 73 11 74 19 75
REMARK SMILES IDX 21 76 12 77 13 79 14 80 18 81 15 82 17 83 16 84
REMARK H PARENT 75 22 45 33 19 78
REMARK Flexibility Score: inf
ROOT
ATOM      1  C   UNL A   1      39.904  20.411  25.987  1.00  0.00     0.275 C 
ENDROOT
BRANCH   1   2
ATOM      2  O   UNL A   1      40.088  21.832  26.124  1.00  0.00    -0.458 OA
BRANCH   2   3
ATOM      3  C   UNL A   1      39.192  22.840  26.242  1.00  0.00     0.338 C 
ATOM      4  O   UNL A   1      38.066  22.678  25.772  1.00  0.00    -0.246 OA
BRANCH   3   5
ATOM      5  C   UNL A   1      39.509  24.189  26.813  1.00  0.00     0.060 A 
ATOM      6  C   UNL A   1      40.252  25.190  26.185  1.00  0.00     0.016 A 
ATOM      7  C   UNL A   1      39.037  24.444  28.116  1.00  0.00     0.016 A 
ATOM      8  C   UNL A   1      40.482  26.419  26.810  1.00  0.00     0.010 A 
ATOM      9  C   UNL A   1      39.262  25.672  28.747  1.00  0.00     0.010 A 
ATOM     10  C   UNL A   1      40.004  26.663  28.099  1.00  0.00    -0.014 A 
BRANCH  10  11
ATOM     11  C   UNL A   1      40.433  27.891  28.800  1.00  0.00     0.031 A 
ATOM     12  C   UNL A   1      41.836  27.959  29.331  1.00  0.00     0.074 A 
ATOM     13  C   UNL A   1      39.614  28.956  28.884  1.00  0.00     0.049 A 
ATOM     14  N   UNL A   1      42.469  28.976  29.852  1.00  0.00    -0.248 NA
ATOM     15  C   UNL A   1      42.641  26.731  29.228  1.00  0.00     0.031 C 
ATOM     16  C   UNL A   1      38.271  29.029  28.315  1.00  0.00     0.029 A 
ATOM     17  N   UNL A   1      39.796  30.184  29.464  1.00  0.00    -0.354 N 
ATOM     18  C   UNL A   1      43.758  28.523  30.103  1.00  0.00     0.074 A 
ATOM     19  C   UNL A   1      43.798  27.124  29.738  1.00  0.00     0.031 C 
ATOM     20  C   UNL A   1      37.729  30.224  28.608  1.00  0.00     0.029 A 
ATOM     21  C   UNL A   1      38.698  31.008  29.366  1.00  0.00     0.049 A 
ATOM     22  H   UNL A   1      40.632  30.452  29.909  1.00  0.00     0.167 HD
ATOM     23  C   UNL A   1      44.819  29.219  30.571  1.00  0.00     0.031 A 
ATOM     24  C   UNL A   1      38.508  32.261  29.818  1.00  0.00     0.031 A 
ATOM     25  C   UNL A   1      44.753  30.596  30.973  1.00  0.00     0.049 A 
ATOM     26  C   UNL A   1      39.666  32.974  30.462  1.00  0.00     0.074 A 
ATOM     27  C   UNL A   1      45.760  31.400  31.474  1.00  0.00     0.029 A 
ATOM     28  N   UNL A   1      43.600  31.370  30.937  1.00  0.00    -0.354 N 
ATOM     29  N   UNL A   1      40.893  32.546  30.647  1.00  0.00    -0.248 NA
ATOM     30  C   UNL A   1      39.428  34.348  30.923  1.00  0.00     0.031 C 
ATOM     31  C   UNL A   1      45.201  32.644  31.793  1.00  0.00     0.029 A 
ATOM     32  C   UNL A   1      43.861  32.632  31.439  1.00  0.00     0.049 A 
ATOM     33  H   UNL A   1      42.725  31.064  30.603  1.00  0.00     0.167 HD
ATOM     34  C   UNL A   1      41.588  33.615  31.198  1.00  0.00     0.074 A 
ATOM     35  C   UNL A   1      40.641  34.707  31.321  1.00  0.00     0.031 C 
ATOM     36  C   UNL A   1      42.896  33.696  31.552  1.00  0.00     0.031 A 
BRANCH  23  37
ATOM     37  C   UNL A   1      46.117  28.469  30.701  1.00  0.00    -0.014 A 
ATOM     38  C   UNL A   1      46.457  27.809  31.897  1.00  0.00     0.010 A 
ATOM     39  C   UNL A   1      47.026  28.457  29.630  1.00  0.00     0.010 A 
ATOM     40  C   UNL A   1      47.707  27.201  32.040  1.00  0.00     0.020 A 
ATOM     41  C   UNL A   1      48.269  27.829  29.760  1.00  0.00     0.020 A 
ATOM     42  C   UNL A   1      48.610  27.227  30.973  1.00  0.00     0.054 A 
BRANCH  42  43
ATOM     43  S   UNL A   1      50.237  26.458  31.191  1.00  0.00     0.124 S 
ATOM     44  O   UNL A   1      50.481  26.669  32.617  1.00  0.00    -0.237 OA
ATOM     45  O   UNL A   1      49.996  25.073  30.794  1.00  0.00    -0.237 OA
ATOM     46  O   UNL A   1      51.103  27.218  30.293  1.00  0.00    -0.744 OA
ENDBRANCH  42  43
ENDBRANCH  23  37
BRANCH  24  47
ATOM     47  C   UNL A   1      37.186  32.927  29.648  1.00  0.00    -0.014 A 
ATOM     48  C   UNL A   1      36.805  33.477  28.412  1.00  0.00     0.010 A 
ATOM     49  C   UNL A   1      36.296  33.012  30.735  1.00  0.00     0.010 A 
ATOM     50  C   UNL A   1      35.569  34.118  28.272  1.00  0.00     0.020 A 
ATOM     51  C   UNL A   1      35.052  33.633  30.594  1.00  0.00     0.020 A 
ATOM     52  C   UNL A   1      34.700  34.194  29.365  1.00  0.00     0.054 A 
BRANCH  52  53
ATOM     53  S   UNL A   1      33.091  35.006  29.153  1.00  0.00     0.124 S 
ATOM     54  O   UNL A   1      33.480  36.344  28.720  1.00  0.00    -0.237 OA
ATOM     55  O   UNL A   1      32.450  34.174  28.138  1.00  0.00    -0.237 OA
ATOM     56  O   UNL A   1      32.491  34.927  30.482  1.00  0.00    -0.744 OA
ENDBRANCH  52  53
ENDBRANCH  24  47
BRANCH  36  57
ATOM     57  C   UNL A   1      43.383  35.021  32.070  1.00  0.00    -0.014 A 
ATOM     58  C   UNL A   1      43.843  36.022  31.198  1.00  0.00     0.010 A 
ATOM     59  C   UNL A   1      43.330  35.281  33.452  1.00  0.00     0.010 A 
ATOM     60  C   UNL A   1      44.272  37.252  31.703  1.00  0.00     0.020 A 
ATOM     61  C   UNL A   1      43.731  36.518  33.957  1.00  0.00     0.020 A 
ATOM     62  C   UNL A   1      44.213  37.492  33.079  1.00  0.00     0.054 A 
BRANCH  62  63
ATOM     63  S   UNL A   1      44.733  39.111  33.707  1.00  0.00     0.124 S 
ATOM     64  O   UNL A   1      43.453  39.774  33.931  1.00  0.00    -0.237 OA
ATOM     65  O   UNL A   1      45.481  38.763  34.914  1.00  0.00    -0.237 OA
ATOM     66  O   UNL A   1      45.540  39.661  32.619  1.00  0.00    -0.744 OA
ENDBRANCH  62  63
ENDBRANCH  36  57
ENDBRANCH  10  11
ENDBRANCH   3   5
ENDBRANCH   2   3
ENDBRANCH   1   2
BRANCH   1  67
ATOM     67  C   UNL A   1      41.157  19.577  26.250  1.00  0.00     0.275 C 
BRANCH  67  68
ATOM     68  O   UNL A   1      42.292  20.369  26.614  1.00  0.00    -0.458 OA
BRANCH  68  69
ATOM     69  C   UNL A   1      43.249  20.506  25.660  1.00  0.00     0.345 C 
ATOM     70  O   UNL A   1      43.463  19.722  24.747  1.00  0.00    -0.246 OA
BRANCH  69  71
ATOM     71  C   UNL A   1      43.940  21.793  25.804  1.00  0.00     0.143 A 
ATOM     72  C   UNL A   1      43.219  22.903  26.016  1.00  0.00     0.134 A 
ATOM     73  C   UNL A   1      45.398  21.949  25.739  1.00  0.00     0.265 A 
ATOM     74  N   UNL A   1      43.729  24.172  26.172  1.00  0.00    -0.241 NA
ATOM     75  N   UNL A   1      45.845  23.230  25.914  1.00  0.00    -0.309 N 
ATOM     76  O   UNL A   1      46.162  21.018  25.513  1.00  0.00    -0.269 OA
ATOM     77  C   UNL A   1      45.019  24.304  26.115  1.00  0.00     0.122 A 
ATOM     78  H   UNL A   1      46.817  23.389  25.894  1.00  0.00     0.171 HD
BRANCH  77  79
ATOM     79  C   UNL A   1      45.661  25.694  26.131  1.00  0.00     0.123 C 
ATOM     80  C   UNL A   1      46.826  25.826  25.150  1.00  0.00     0.092 C 
ATOM     81  S   UNL A   1      44.417  27.016  25.854  1.00  0.00    -0.149 SA
ATOM     82  S   UNL A   1      47.899  27.263  25.549  1.00  0.00    -0.160 SA
ATOM     83  C   UNL A   1      45.447  28.444  26.309  1.00  0.00     0.081 C 
ATOM     84  C   UNL A   1      46.674  28.615  25.421  1.00  0.00     0.080 C 
ENDBRANCH  77  79
ENDBRANCH  69  71
ENDBRANCH  68  69
ENDBRANCH  67  68
ENDBRANCH   1  67
TORSDOF 15
ENDMDL
MODEL 2
REMARK VINA RESULT:      -9.4      4.706     12.053
REMARK SMILES O=C(OCCOC(=O)c1cnc([C@H]2CSCCS2)[nH]c1=O)c1ccc(-c2c3nc(c(-c4ccc(S(=O)(=O)[O-])cc4)c4ccc([nH]4)c(-c4ccc(S(=O)(=O)[O-])cc4)c4nc(c(-c5ccc(S(=O)(=O)[O-])cc5)c5ccc2[nH]5)C=C4)C=C3)cc1
REMARK SMILES IDX 4 1 3 2 2 3 1 4 22 5 23 6 81 7 24 8 80 9 25 10 26 11 27 12
REMARK SMILES IDX 74 13 28 14 79 15 73 16 75 17 29 18 78 19 72 20 71 21 30 23
REMARK SMILES IDX 60 24 41 25 59 26 42 27 45 28 58 29 76 30 43 31 44 32 57 34
REMARK SMILES IDX 77 35 46 36 31 37 32 38 40 39 33 40 39 41 34 42 35 43 36 44
REMARK SMILES IDX 37 45 38 46 61 47 62 48 70 49 63 50 69 51 64 52 65 53 66 54
REMARK SMILES IDX 67 55 68 56 47 57 48 58 56 59 49 60 55 61 50 62 51 63 52 64
REMARK SMILES IDX 53 65 54 66 5 67 6 68 7 69 8 70 9 71 10 72 20 73 11 74 19 75
REMARK SMILES IDX 21 76 12 77 13 79 14 80 18 81 15 82 17 83 16 84
REMARK H PARENT 75 22 45 33 19 78
REMARK Flexibility Score: inf
ROOT
ATOM      1  C   UNL A   1      35.541  31.083  28.502  1.00  0.00     0.275 C 
ENDROOT
BRANCH   1   2
ATOM      2  O   UNL A   1      36.003  29.741  28.744  1.00  0.00    -0.458 OA
BRANCH   2   3
ATOM      3  C   UNL A   1      36.953  29.262  29.582  1.00  0.00     0.338 C 
ATOM      4  O   UNL A   1      36.672  29.142  30.774  1.00  0.00    -0.246 OA
BRANCH   3   5
ATOM      5  C   UNL A   1      38.364  28.966  29.177  1.00  0.00     0.060 A 
ATOM      6  C   UNL A   1      39.383  28.523  30.022  1.00  0.00     0.016 A 
ATOM      7  C   UNL A   1      38.689  29.193  27.823  1.00  0.00     0.016 A 
ATOM      8  C   UNL A   1      40.668  28.270  29.534  1.00  0.00     0.010 A 
ATOM      9  C   UNL A   1      39.973  28.941  27.328  1.00  0.00     0.010 A 
ATOM     10  C   UNL A   1      40.976  28.492  28.190  1.00  0.00    -0.014 A 
BRANCH  10  11
ATOM     11  C   UNL A   1      42.387  28.404  27.755  1.00  0.00     0.031 A 
ATOM     12  C   UNL A   1      43.267  29.607  27.935  1.00  0.00     0.074 A 
ATOM     13  C   UNL A   1      42.891  27.246  27.292  1.00  0.00     0.049 A 
ATOM     14  N   UNL A   1      44.556  29.716  27.757  1.00  0.00    -0.248 NA
ATOM     15  C   UNL A   1      42.614  30.838  28.410  1.00  0.00     0.031 C 
ATOM     16  C   UNL A   1      42.149  25.994  27.173  1.00  0.00     0.029 A 
ATOM     17  N   UNL A   1      44.149  26.928  26.850  1.00  0.00    -0.354 N 
ATOM     18  C   UNL A   1      44.876  31.013  28.135  1.00  0.00     0.074 A 
ATOM     19  C   UNL A   1      43.639  31.673  28.491  1.00  0.00     0.031 C 
ATOM     20  C   UNL A   1      42.951  25.050  26.651  1.00  0.00     0.029 A 
ATOM     21  C   UNL A   1      44.270  25.627  26.421  1.00  0.00     0.049 A 
ATOM     22  H   UNL A   1      44.895  27.571  26.841  1.00  0.00     0.167 HD
ATOM     23  C   UNL A   1      46.096  31.594  28.206  1.00  0.00     0.031 A 
ATOM     24  C   UNL A   1      45.334  24.971  25.920  1.00  0.00     0.031 A 
ATOM     25  C   UNL A   1      47.312  30.941  27.806  1.00  0.00     0.049 A 
ATOM     26  C   UNL A   1      46.659  25.683  25.880  1.00  0.00     0.074 A 
ATOM     27  C   UNL A   1      48.603  31.435  27.821  1.00  0.00     0.029 A 
ATOM     28  N   UNL A   1      47.380  29.652  27.297  1.00  0.00    -0.354 N 
ATOM     29  N   UNL A   1      46.954  26.895  26.289  1.00  0.00    -0.248 NA
ATOM     30  C   UNL A   1      47.802  24.929  25.348  1.00  0.00     0.031 C 
ATOM     31  C   UNL A   1      49.444  30.462  27.268  1.00  0.00     0.029 A 
ATOM     32  C   UNL A   1      48.685  29.342  26.961  1.00  0.00     0.049 A 
ATOM     33  H   UNL A   1      46.611  29.045  27.190  1.00  0.00     0.167 HD
ATOM     34  C   UNL A   1      48.325  27.032  26.112  1.00  0.00     0.074 A 
ATOM     35  C   UNL A   1      48.799  25.780  25.554  1.00  0.00     0.031 C 
ATOM     36  C   UNL A   1      49.125  28.088  26.404  1.00  0.00     0.031 A 
BRANCH  23  37
ATOM     37  C   UNL A   1      46.143  33.015  28.699  1.00  0.00    -0.014 A 
ATOM     38  C   UNL A   1      46.054  34.097  27.803  1.00  0.00     0.010 A 
ATOM     39  C   UNL A   1      46.319  33.272  30.069  1.00  0.00     0.010 A 
ATOM     40  C   UNL A   1      46.199  35.409  28.261  1.00  0.00     0.020 A 
ATOM     41  C   UNL A   1      46.440  34.585  30.535  1.00  0.00     0.020 A 
ATOM     42  C   UNL A   1      46.404  35.643  29.624  1.00  0.00     0.054 A 
BRANCH  42  43
ATOM     43  S   UNL A   1      46.619  37.351  30.191  1.00  0.00     0.124 S 
ATOM     44  O   UNL A   1      48.075  37.472  30.235  1.00  0.00    -0.237 OA
ATOM     45  O   UNL A   1      45.957  38.125  29.145  1.00  0.00    -0.237 OA
ATOM     46  O   UNL A   1      45.954  37.371  31.492  1.00  0.00    -0.744 OA
ENDBRANCH  42  43
ENDBRANCH  23  37
BRANCH  24  47
ATOM     47  C   UNL A   1      45.196  23.564  25.453  1.00  0.00    -0.014 A 
ATOM     48  C   UNL A   1      45.572  22.487  26.273  1.00  0.00     0.010 A 
ATOM     49  C   UNL A   1      44.679  23.296  24.171  1.00  0.00     0.010 A 
ATOM     50  C   UNL A   1      45.456  21.170  25.813  1.00  0.00     0.020 A 
ATOM     51  C   UNL A   1      44.542  21.982  23.716  1.00  0.00     0.020 A 
ATOM     52  C   UNL A   1      44.943  20.926  24.535  1.00  0.00     0.054 A 
BRANCH  52  53
ATOM     53  S   UNL A   1      44.776  19.210  23.970  1.00  0.00     0.124 S 
ATOM     54  O   UNL A   1      43.616  18.752  24.728  1.00  0.00    -0.237 OA
ATOM     55  O   UNL A   1      44.570  19.370  22.533  1.00  0.00    -0.237 OA
ATOM     56  O   UNL A   1      46.049  18.601  24.346  1.00  0.00    -0.744 OA
ENDBRANCH  52  53
ENDBRANCH  24  47
BRANCH  36  57
ATOM     57  C   UNL A   1      50.599  27.919  26.158  1.00  0.00    -0.014 A 
ATOM     58  C   UNL A   1      51.436  27.326  27.118  1.00  0.00     0.010 A 
ATOM     59  C   UNL A   1      51.140  28.315  24.921  1.00  0.00     0.010 A 
ATOM     60  C   UNL A   1      52.799  27.162  26.858  1.00  0.00     0.020 A 
ATOM     61  C   UNL A   1      52.495  28.126  24.646  1.00  0.00     0.020 A 
ATOM     62  C   UNL A   1      53.319  27.563  25.623  1.00  0.00     0.054 A 
BRANCH  62  63
ATOM     63  S   UNL A   1      55.081  27.299  25.290  1.00  0.00     0.124 S 
ATOM     64  O   UNL A   1      55.602  27.013  26.623  1.00  0.00    -0.237 OA
ATOM     65  O   UNL A   1      55.068  26.168  24.365  1.00  0.00    -0.237 OA
ATOM     66  O   UNL A   1      55.517  28.567  24.708  1.00  0.00    -0.744 OA
ENDBRANCH  62  63
ENDBRANCH  36  57
ENDBRANCH  10  11
ENDBRANCH   3   5
ENDBRANCH   2   3
ENDBRANCH   1   2
BRANCH   1  67
ATOM     67  C   UNL A   1      34.101  31.180  27.998  1.00  0.00     0.275 C 
BRANCH  67  68
ATOM     68  O   UNL A   1      33.886  30.467  26.775  1.00  0.00    -0.458 OA
BRANCH  68  69
ATOM     69  C   UNL A   1      32.598  30.130  26.506  1.00  0.00     0.345 C 
ATOM     70  O   UNL A   1      31.664  30.912  26.399  1.00  0.00    -0.246 OA
BRANCH  69  71
ATOM     71  C   UNL A   1      32.484  28.690  26.251  1.00  0.00     0.143 A 
ATOM     72  C   UNL A   1      33.102  28.163  25.183  1.00  0.00     0.134 A 
ATOM     73  C   UNL A   1      31.731  27.765  27.106  1.00  0.00     0.265 A 
ATOM     74  N   UNL A   1      33.085  26.835  24.822  1.00  0.00    -0.241 NA
ATOM     75  N   UNL A   1      31.763  26.458  26.703  1.00  0.00    -0.309 N 
ATOM     76  O   UNL A   1      31.094  28.128  28.087  1.00  0.00    -0.269 OA
ATOM     77  C   UNL A   1      32.419  26.022  25.583  1.00  0.00     0.122 A 
ATOM     78  H   UNL A   1      31.285  25.792  27.250  1.00  0.00     0.171 HD
BRANCH  77  79
ATOM     79  C   UNL A   1      32.226  24.558  25.177  1.00  0.00     0.123 C 
ATOM     80  C   UNL A   1      33.377  24.018  24.327  1.00  0.00     0.092 C 
ATOM     81  S   UNL A   1      31.929  23.484  26.637  1.00  0.00    -0.149 SA
ATOM     82  S   UNL A   1      32.902  22.493  23.420  1.00  0.00    -0.160 SA
ATOM     83  C   UNL A   1      31.393  21.986  25.756  1.00  0.00     0.081 C 
ATOM     84  C   UNL A   1      32.460  21.414  24.829  1.00  0.00     0.080 C 
ENDBRANCH  77  79
ENDBRANCH  69  71
ENDBRANCH  68  69
ENDBRANCH  67  68
ENDBRANCH   1  67
TORSDOF 15
ENDMDL
MODEL 3
REMARK VINA RESULT:      -9.4      3.884      9.689
REMARK SMILES O=C(OCCOC(=O)c1cnc([C@H]2CSCCS2)[nH]c1=O)c1ccc(-c2c3nc(c(-c4ccc(S(=O)(=O)[O-])cc4)c4ccc([nH]4)c(-c4ccc(S(=O)(=O)[O-])cc4)c4nc(c(-c5ccc(S(=O)(=O)[O-])cc5)c5ccc2[nH]5)C=C4)C=C3)cc1
REMARK SMILES IDX 4 1 3 2 2 3 1 4 22 5 23 6 81 7 24 8 80 9 25 10 26 11 27 12
REMARK SMILES IDX 74 13 28 14 79 15 73 16 75 17 29 18 78 19 72 20 71 21 30 23
REMARK SMILES IDX 60 24 41 25 59 26 42 27 45 28 58 29 76 30 43 31 44 32 57 34
REMARK SMILES IDX 77 35 46 36 31 37 32 38 40 39 33 40 39 41 34 42 35 43 36 44
REMARK SMILES IDX 37 45 38 46 61 47 62 48 70 49 63 50 69 51 64 52 65 53 66 54
REMARK SMILES IDX 67 55 68 56 47 57 48 58 56 59 49 60 55 61 50 62 51 63 52 64
REMARK SMILES IDX 53 65 54 66 5 67 6 68 7 69 8 70 9 71 10 72 20 73 11 74 19 75
REMARK SMILES IDX 21 76 12 77 13 79 14 80 18 81 15 82 17 83 16 84
REMARK H PARENT 75 22 45 33 19 78
REMARK Flexibility Score: inf
ROOT
ATOM      1  C   UNL A   1      32.141  29.779  26.945  1.00  0.00     0.275 C 
ENDROOT
BRANCH   1   2
ATOM      2  O   UNL A   1      33.548  29.619  27.208  1.00  0.00    -0.458 OA
BRANCH   2   3
ATOM      3  C   UNL A   1      34.423  30.400  27.884  1.00  0.00     0.338 C 
ATOM      4  O   UNL A   1      34.121  31.576  28.085  1.00  0.00    -0.246 OA
BRANCH   3   5
ATOM      5  C   UNL A   1      35.788  29.959  28.315  1.00  0.00     0.060 A 
ATOM      6  C   UNL A   1      36.148  29.546  29.599  1.00  0.00     0.016 A 
ATOM      7  C   UNL A   1      36.800  30.002  27.334  1.00  0.00     0.016 A 
ATOM      8  C   UNL A   1      37.456  29.148  29.890  1.00  0.00     0.010 A 
ATOM      9  C   UNL A   1      38.111  29.604  27.618  1.00  0.00     0.010 A 
ATOM     10  C   UNL A   1      38.448  29.189  28.909  1.00  0.00    -0.014 A 
BRANCH  10  11
ATOM     11  C   UNL A   1      39.853  28.951  29.302  1.00  0.00     0.031 A 
ATOM     12  C   UNL A   1      40.464  27.613  28.998  1.00  0.00     0.074 A 
ATOM     13  C   UNL A   1      40.593  29.939  29.838  1.00  0.00     0.049 A 
ATOM     14  N   UNL A   1      41.706  27.229  29.124  1.00  0.00    -0.248 NA
ATOM     15  C   UNL A   1      39.564  26.585  28.449  1.00  0.00     0.031 C 
ATOM     16  C   UNL A   1      40.127  31.301  30.080  1.00  0.00     0.029 A 
ATOM     17  N   UNL A   1      41.897  29.955  30.261  1.00  0.00    -0.354 N 
ATOM     18  C   UNL A   1      41.746  25.930  28.634  1.00  0.00     0.074 A 
ATOM     19  C   UNL A   1      40.394  25.569  28.269  1.00  0.00     0.031 C 
ATOM     20  C   UNL A   1      41.114  32.014  30.647  1.00  0.00     0.029 A 
ATOM     21  C   UNL A   1      42.290  31.163  30.787  1.00  0.00     0.049 A 
ATOM     22  H   UNL A   1      42.495  29.175  30.194  1.00  0.00     0.167 HD
ATOM     23  C   UNL A   1      42.819  25.122  28.477  1.00  0.00     0.031 A 
ATOM     24  C   UNL A   1      43.475  31.544  31.302  1.00  0.00     0.031 A 
ATOM     25  C   UNL A   1      44.149  25.476  28.886  1.00  0.00     0.049 A 
ATOM     26  C   UNL A   1      44.625  30.577  31.242  1.00  0.00     0.074 A 
ATOM     27  C   UNL A   1      45.311  24.733  28.789  1.00  0.00     0.029 A 
ATOM     28  N   UNL A   1      44.490  26.678  29.493  1.00  0.00    -0.354 N 
ATOM     29  N   UNL A   1      44.657  29.369  30.729  1.00  0.00    -0.248 NA
ATOM     30  C   UNL A   1      45.908  31.035  31.793  1.00  0.00     0.031 C 
ATOM     31  C   UNL A   1      46.343  25.464  29.389  1.00  0.00     0.029 A 
ATOM     32  C   UNL A   1      45.836  26.685  29.808  1.00  0.00     0.049 A 
ATOM     33  H   UNL A   1      43.864  27.417  29.672  1.00  0.00     0.167 HD
ATOM     34  C   UNL A   1      45.973  28.941  30.848  1.00  0.00     0.074 A 
ATOM     35  C   UNL A   1      46.704  30.019  31.487  1.00  0.00     0.031 C 
ATOM     36  C   UNL A   1      46.534  27.772  30.447  1.00  0.00     0.031 A 
BRANCH  23  37
ATOM     37  C   UNL A   1      42.565  23.767  27.872  1.00  0.00    -0.014 A 
ATOM     38  C   UNL A   1      42.169  22.679  28.671  1.00  0.00     0.010 A 
ATOM     39  C   UNL A   1      42.761  23.571  26.495  1.00  0.00     0.010 A 
ATOM     40  C   UNL A   1      42.032  21.404  28.114  1.00  0.00     0.020 A 
ATOM     41  C   UNL A   1      42.602  22.302  25.929  1.00  0.00     0.020 A 
ATOM     42  C   UNL A   1      42.263  21.223  26.748  1.00  0.00     0.054 A 
BRANCH  42  43
ATOM     43  S   UNL A   1      42.109  19.555  26.053  1.00  0.00     0.124 S 
ATOM     44  O   UNL A   1      42.979  19.636  24.882  1.00  0.00    -0.237 OA
ATOM     45  O   UNL A   1      42.596  18.707  27.138  1.00  0.00    -0.237 OA
ATOM     46  O   UNL A   1      40.683  19.431  25.762  1.00  0.00    -0.744 OA
ENDBRANCH  42  43
ENDBRANCH  23  37
BRANCH  24  47
ATOM     47  C   UNL A   1      43.636  32.906  31.883  1.00  0.00    -0.014 A 
ATOM     48  C   UNL A   1      43.362  33.153  33.239  1.00  0.00     0.010 A 
ATOM     49  C   UNL A   1      44.072  33.970  31.071  1.00  0.00     0.010 A 
ATOM     50  C   UNL A   1      43.498  34.442  33.767  1.00  0.00     0.020 A 
ATOM     51  C   UNL A   1      44.230  35.254  31.600  1.00  0.00     0.020 A 
ATOM     52  C   UNL A   1      43.930  35.486  32.943  1.00  0.00     0.054 A 
BRANCH  52  53
ATOM     53  S   UNL A   1      44.126  37.143  33.655  1.00  0.00     0.124 S 
ATOM     54  O   UNL A   1      44.157  37.985  32.464  1.00  0.00    -0.237 OA
ATOM     55  O   UNL A   1      42.934  37.270  34.490  1.00  0.00    -0.237 OA
ATOM     56  O   UNL A   1      45.385  37.052  34.390  1.00  0.00    -0.744 OA
ENDBRANCH  52  53
ENDBRANCH  24  47
BRANCH  36  57
ATOM     57  C   UNL A   1      48.015  27.616  30.656  1.00  0.00    -0.014 A 
ATOM     58  C   UNL A   1      48.529  26.965  31.790  1.00  0.00     0.010 A 
ATOM     59  C   UNL A   1      48.902  28.087  29.670  1.00  0.00     0.010 A 
ATOM     60  C   UNL A   1      49.908  26.816  31.951  1.00  0.00     0.020 A 
ATOM     61  C   UNL A   1      50.279  27.914  29.813  1.00  0.00     0.020 A 
ATOM     62  C   UNL A   1      50.774  27.292  30.961  1.00  0.00     0.054 A 
BRANCH  62  63
ATOM     63  S   UNL A   1      52.558  27.046  31.170  1.00  0.00     0.124 S 
ATOM     64  O   UNL A   1      52.822  27.772  32.408  1.00  0.00    -0.237 OA
ATOM     65  O   UNL A   1      52.675  25.592  31.257  1.00  0.00    -0.237 OA
ATOM     66  O   UNL A   1      53.132  27.640  29.964  1.00  0.00    -0.744 OA
ENDBRANCH  62  63
ENDBRANCH  36  57
ENDBRANCH  10  11
ENDBRANCH   3   5
ENDBRANCH   2   3
ENDBRANCH   1   2
BRANCH   1  67
ATOM     67  C   UNL A   1      31.684  29.266  25.580  1.00  0.00     0.275 C 
BRANCH  67  68
ATOM     68  O   UNL A   1      31.070  27.974  25.643  1.00  0.00    -0.458 OA
BRANCH  68  69
ATOM     69  C   UNL A   1      31.232  27.188  24.548  1.00  0.00     0.345 C 
ATOM     70  O   UNL A   1      30.724  27.377  23.452  1.00  0.00    -0.246 OA
BRANCH  69  71
ATOM     71  C   UNL A   1      32.197  26.117  24.820  1.00  0.00     0.143 A 
ATOM     72  C   UNL A   1      33.275  25.991  24.032  1.00  0.00     0.134 A 
ATOM     73  C   UNL A   1      32.066  25.159  25.924  1.00  0.00     0.265 A 
ATOM     74  N   UNL A   1      34.261  25.040  24.168  1.00  0.00    -0.241 NA
ATOM     75  N   UNL A   1      33.083  24.248  26.016  1.00  0.00    -0.309 N 
ATOM     76  O   UNL A   1      31.110  25.146  26.689  1.00  0.00    -0.269 OA
ATOM     77  C   UNL A   1      34.140  24.197  25.147  1.00  0.00     0.122 A 
ATOM     78  H   UNL A   1      33.051  23.590  26.748  1.00  0.00     0.171 HD
BRANCH  77  79
ATOM     79  C   UNL A   1      35.110  23.019  25.284  1.00  0.00     0.123 C 
ATOM     80  C   UNL A   1      34.658  21.781  24.509  1.00  0.00     0.092 C 
ATOM     81  S   UNL A   1      36.821  23.496  24.819  1.00  0.00    -0.149 SA
ATOM     82  S   UNL A   1      35.506  20.260  25.094  1.00  0.00    -0.160 SA
ATOM     83  C   UNL A   1      37.684  22.026  25.453  1.00  0.00     0.081 C 
ATOM     84  C   UNL A   1      37.246  20.729  24.781  1.00  0.00     0.080 C 
ENDBRANCH  77  79
ENDBRANCH  69  71
ENDBRANCH  68  69
ENDBRANCH  67  68
ENDBRANCH   1  67
TORSDOF 15
ENDMDL
