MODEL 1
REMARK VINA RESULT:     -10.7      0.000      0.000
REMARK SMILES O=C(OCCOC(=O)[C@H]1CC(=O)N(CCC2=c3ccccc3=NC2)C1)c1ccc(-c2c3nc(c(-c4ccc(S(=O)(=O)[O-])cc4)c4ccc([nH]4)c(-c4ccc(S(=O)(=O)[O-])cc4)c4nc(c(-c5ccc(S(=O)(=O)[O-])cc5)c5ccc2[nH]5)C=C4)C=C3)cc1
REMARK SMILES IDX 4 1 3 2 2 3 1 4 26 5 27 6 85 7 28 8 84 9 29 10 30 11 31 12
REMARK SMILES IDX 78 13 32 14 83 15 77 16 79 17 33 18 82 19 76 20 75 21 34 23
REMARK SMILES IDX 64 24 45 25 63 26 46 27 49 28 62 29 80 30 47 31 48 32 61 34
REMARK SMILES IDX 81 35 50 36 35 37 36 38 44 39 37 40 43 41 38 42 39 43 40 44
REMARK SMILES IDX 41 45 42 46 65 47 66 48 74 49 67 50 73 51 68 52 69 53 70 54
REMARK SMILES IDX 71 55 72 56 51 57 52 58 60 59 53 60 59 61 54 62 55 63 56 64
REMARK SMILES IDX 57 65 58 66 5 67 6 68 7 69 8 70 9 71 10 72 25 73 11 74 13 75
REMARK SMILES IDX 12 76 14 77 15 78 16 79 17 80 24 81 18 82 22 83 23 84 19 85
REMARK SMILES IDX 21 86 20 87
REMARK H PARENT 79 22 49 33
REMARK Flexibility Score: inf
ROOT
ATOM      1  C   UNL A   1      32.672  30.677  26.732  1.00  0.00     0.275 C 
ENDROOT
BRANCH   1   2
ATOM      2  O   UNL A   1      33.771  30.136  27.479  1.00  0.00    -0.458 OA
BRANCH   2   3
ATOM      3  C   UNL A   1      34.675  30.990  28.003  1.00  0.00     0.338 C 
ATOM      4  O   UNL A   1      34.572  32.201  28.065  1.00  0.00    -0.246 OA
BRANCH   3   5
ATOM      5  C   UNL A   1      35.936  30.229  28.228  1.00  0.00     0.060 A 
ATOM      6  C   UNL A   1      36.221  29.737  29.505  1.00  0.00     0.016 A 
ATOM      7  C   UNL A   1      36.928  30.208  27.238  1.00  0.00     0.016 A 
ATOM      8  C   UNL A   1      37.526  29.355  29.826  1.00  0.00     0.010 A 
ATOM      9  C   UNL A   1      38.214  29.793  27.546  1.00  0.00     0.010 A 
ATOM     10  C   UNL A   1      38.532  29.411  28.853  1.00  0.00    -0.014 A 
BRANCH  10  11
ATOM     11  C   UNL A   1      39.923  28.993  29.118  1.00  0.00     0.031 A 
ATOM     12  C   UNL A   1      40.377  27.589  28.838  1.00  0.00     0.074 A 
ATOM     13  C   UNL A   1      40.711  29.864  29.768  1.00  0.00     0.049 A 
ATOM     14  N   UNL A   1      41.526  27.026  29.096  1.00  0.00    -0.248 NA
ATOM     15  C   UNL A   1      39.426  26.696  28.163  1.00  0.00     0.031 C 
ATOM     16  C   UNL A   1      40.346  31.244  30.096  1.00  0.00     0.029 A 
ATOM     17  N   UNL A   1      41.942  29.693  30.338  1.00  0.00    -0.354 N 
ATOM     18  C   UNL A   1      41.453  25.746  28.551  1.00  0.00     0.074 A 
ATOM     19  C   UNL A   1      40.142  25.599  27.970  1.00  0.00     0.031 C 
ATOM     20  C   UNL A   1      41.304  31.774  30.867  1.00  0.00     0.029 A 
ATOM     21  C   UNL A   1      42.315  30.754  31.126  1.00  0.00     0.049 A 
ATOM     22  H   UNL A   1      42.502  28.895  30.197  1.00  0.00     0.167 HD
ATOM     23  C   UNL A   1      42.391  24.775  28.571  1.00  0.00     0.031 A 
ATOM     24  C   UNL A   1      43.316  30.865  32.018  1.00  0.00     0.031 A 
ATOM     25  C   UNL A   1      43.613  24.891  29.318  1.00  0.00     0.049 A 
ATOM     26  C   UNL A   1      44.258  29.712  32.183  1.00  0.00     0.074 A 
ATOM     27  C   UNL A   1      44.628  23.961  29.450  1.00  0.00     0.029 A 
ATOM     28  N   UNL A   1      43.949  25.977  30.111  1.00  0.00    -0.354 N 
ATOM     29  N   UNL A   1      44.235  28.548  31.577  1.00  0.00    -0.248 NA
ATOM     30  C   UNL A   1      45.361  29.880  33.134  1.00  0.00     0.031 C 
ATOM     31  C   UNL A   1      45.523  24.444  30.407  1.00  0.00     0.029 A 
ATOM     32  C   UNL A   1      45.117  25.712  30.797  1.00  0.00     0.049 A 
ATOM     33  H   UNL A   1      43.431  26.812  30.176  1.00  0.00     0.167 HD
ATOM     34  C   UNL A   1      45.331  27.847  32.060  1.00  0.00     0.074 A 
ATOM     35  C   UNL A   1      45.998  28.721  33.005  1.00  0.00     0.031 C 
ATOM     36  C   UNL A   1      45.748  26.597  31.745  1.00  0.00     0.031 A 
BRANCH  23  37
ATOM     37  C   UNL A   1      42.139  23.492  27.824  1.00  0.00    -0.014 A 
ATOM     38  C   UNL A   1      41.479  22.425  28.460  1.00  0.00     0.010 A 
ATOM     39  C   UNL A   1      42.704  23.285  26.552  1.00  0.00     0.010 A 
ATOM     40  C   UNL A   1      41.440  21.159  27.868  1.00  0.00     0.020 A 
ATOM     41  C   UNL A   1      42.653  22.022  25.949  1.00  0.00     0.020 A 
ATOM     42  C   UNL A   1      42.047  20.961  26.625  1.00  0.00     0.054 A 
BRANCH  42  43
ATOM     43  S   UNL A   1      42.070  19.285  25.927  1.00  0.00     0.124 S 
ATOM     44  O   UNL A   1      42.899  19.456  24.738  1.00  0.00    -0.237 OA
ATOM     45  O   UNL A   1      42.670  18.503  27.006  1.00  0.00    -0.237 OA
ATOM     46  O   UNL A   1      40.661  18.997  25.669  1.00  0.00    -0.744 OA
ENDBRANCH  42  43
ENDBRANCH  23  37
BRANCH  24  47
ATOM     47  C   UNL A   1      43.404  32.114  32.817  1.00  0.00    -0.014 A 
ATOM     48  C   UNL A   1      42.642  32.247  33.995  1.00  0.00     0.010 A 
ATOM     49  C   UNL A   1      44.100  33.227  32.321  1.00  0.00     0.010 A 
ATOM     50  C   UNL A   1      42.510  33.490  34.618  1.00  0.00     0.020 A 
ATOM     51  C   UNL A   1      43.991  34.467  32.959  1.00  0.00     0.020 A 
ATOM     52  C   UNL A   1      43.168  34.597  34.081  1.00  0.00     0.054 A 
BRANCH  52  53
ATOM     53  S   UNL A   1      42.903  36.223  34.842  1.00  0.00     0.124 S 
ATOM     54  O   UNL A   1      43.487  37.116  33.846  1.00  0.00    -0.237 OA
ATOM     55  O   UNL A   1      41.450  36.286  34.967  1.00  0.00    -0.237 OA
ATOM     56  O   UNL A   1      43.632  36.129  36.105  1.00  0.00    -0.744 OA
ENDBRANCH  52  53
ENDBRANCH  24  47
BRANCH  36  57
ATOM     57  C   UNL A   1      46.977  26.070  32.426  1.00  0.00    -0.014 A 
ATOM     58  C   UNL A   1      48.233  26.244  31.815  1.00  0.00     0.010 A 
ATOM     59  C   UNL A   1      46.865  25.250  33.561  1.00  0.00     0.010 A 
ATOM     60  C   UNL A   1      49.349  25.560  32.295  1.00  0.00     0.020 A 
ATOM     61  C   UNL A   1      47.988  24.588  34.062  1.00  0.00     0.020 A 
ATOM     62  C   UNL A   1      49.215  24.722  33.406  1.00  0.00     0.054 A 
BRANCH  62  63
ATOM     63  S   UNL A   1      50.661  23.789  33.974  1.00  0.00     0.124 S 
ATOM     64  O   UNL A   1      51.687  24.207  33.024  1.00  0.00    -0.237 OA
ATOM     65  O   UNL A   1      50.836  24.270  35.343  1.00  0.00    -0.237 OA
ATOM     66  O   UNL A   1      50.232  22.396  33.862  1.00  0.00    -0.744 OA
ENDBRANCH  62  63
ENDBRANCH  36  57
ENDBRANCH  10  11
ENDBRANCH   3   5
ENDBRANCH   2   3
ENDBRANCH   1   2
BRANCH   1  67
ATOM     67  C   UNL A   1      31.722  29.674  26.049  1.00  0.00     0.274 C 
BRANCH  67  68
ATOM     68  O   UNL A   1      32.201  28.318  26.087  1.00  0.00    -0.462 OA
BRANCH  68  69
ATOM     69  C   UNL A   1      31.456  27.492  26.888  1.00  0.00     0.311 C 
ATOM     70  O   UNL A   1      31.114  27.757  28.031  1.00  0.00    -0.252 OA
BRANCH  69  71
ATOM     71  C   UNL A   1      30.999  26.284  26.114  1.00  0.00     0.128 C 
ATOM     72  C   UNL A   1      30.464  26.544  24.711  1.00  0.00     0.117 C 
ATOM     73  C   UNL A   1      32.191  25.386  25.890  1.00  0.00     0.135 C 
ATOM     74  C   UNL A   1      30.983  25.373  23.901  1.00  0.00     0.223 C 
ATOM     75  N   UNL A   1      31.964  24.734  24.639  1.00  0.00    -0.341 N 
ATOM     76  O   UNL A   1      30.614  25.071  22.778  1.00  0.00    -0.275 OA
BRANCH  75  77
ATOM     77  C   UNL A   1      32.745  23.581  24.199  1.00  0.00     0.124 C 
BRANCH  77  78
ATOM     78  C   UNL A   1      33.234  22.670  25.341  1.00  0.00     0.055 C 
BRANCH  78  79
ATOM     79  C   UNL A   1      34.639  22.101  25.342  1.00  0.00    -0.038 C 
ATOM     80  C   UNL A   1      35.860  22.593  25.558  1.00  0.00     0.001 A 
ATOM     81  C   UNL A   1      34.748  20.627  25.027  1.00  0.00     0.174 C 
ATOM     82  C   UNL A   1      36.444  23.862  25.831  1.00  0.00     0.010 A 
ATOM     83  C   UNL A   1      36.736  21.409  25.418  1.00  0.00     0.065 A 
ATOM     84  N   UNL A   1      36.182  20.277  25.114  1.00  0.00    -0.280 NA
ATOM     85  C   UNL A   1      37.770  23.986  25.992  1.00  0.00     0.001 A 
ATOM     86  C   UNL A   1      38.187  21.607  25.650  1.00  0.00     0.028 A 
ATOM     87  C   UNL A   1      38.645  22.838  25.930  1.00  0.00     0.002 A 
ENDBRANCH  78  79
ENDBRANCH  77  78
ENDBRANCH  75  77
ENDBRANCH  69  71
ENDBRANCH  68  69
ENDBRANCH  67  68
ENDBRANCH   1  67
TORSDOF 17
ENDMDL
MODEL 2
REMARK VINA RESULT:     -10.7      3.160      6.060
REMARK SMILES O=C(OCCOC(=O)[C@H]1CC(=O)N(CCC2=c3ccccc3=NC2)C1)c1ccc(-c2c3nc(c(-c4ccc(S(=O)(=O)[O-])cc4)c4ccc([nH]4)c(-c4ccc(S(=O)(=O)[O-])cc4)c4nc(c(-c5ccc(S(=O)(=O)[O-])cc5)c5ccc2[nH]5)C=C4)C=C3)cc1
REMARK SMILES IDX 4 1 3 2 2 3 1 4 26 5 27 6 85 7 28 8 84 9 29 10 30 11 31 12
REMARK SMILES IDX 78 13 32 14 83 15 77 16 79 17 33 18 82 19 76 20 75 21 34 23
REMARK SMILES IDX 64 24 45 25 63 26 46 27 49 28 62 29 80 30 47 31 48 32 61 34
REMARK SMILES IDX 81 35 50 36 35 37 36 38 44 39 37 40 43 41 38 42 39 43 40 44
REMARK SMILES IDX 41 45 42 46 65 47 66 48 74 49 67 50 73 51 68 52 69 53 70 54
REMARK SMILES IDX 71 55 72 56 51 57 52 58 60 59 53 60 59 61 54 62 55 63 56 64
REMARK SMILES IDX 57 65 58 66 5 67 6 68 7 69 8 70 9 71 10 72 25 73 11 74 13 75
REMARK SMILES IDX 12 76 14 77 15 78 16 79 17 80 24 81 18 82 22 83 23 84 19 85
REMARK SMILES IDX 21 86 20 87
REMARK H PARENT 79 22 49 33
REMARK Flexibility Score: inf
ROOT
ATOM      1  C   UNL A   1      33.720  33.043  28.086  1.00  0.00     0.275 C 
ENDROOT
BRANCH   1   2
ATOM      2  O   UNL A   1      34.773  32.119  27.781  1.00  0.00    -0.458 OA
BRANCH   2   3
ATOM      3  C   UNL A   1      34.493  30.799  27.785  1.00  0.00     0.338 C 
ATOM      4  O   UNL A   1      33.384  30.297  27.801  1.00  0.00    -0.246 OA
BRANCH   3   5
ATOM      5  C   UNL A   1      35.763  30.070  28.056  1.00  0.00     0.060 A 
ATOM      6  C   UNL A   1      36.082  29.713  29.370  1.00  0.00     0.016 A 
ATOM      7  C   UNL A   1      36.732  29.950  27.050  1.00  0.00     0.016 A 
ATOM      8  C   UNL A   1      37.397  29.370  29.697  1.00  0.00     0.010 A 
ATOM      9  C   UNL A   1      38.027  29.573  27.367  1.00  0.00     0.010 A 
ATOM     10  C   UNL A   1      38.379  29.329  28.698  1.00  0.00    -0.014 A 
BRANCH  10  11
ATOM     11  C   UNL A   1      39.778  28.945  28.971  1.00  0.00     0.031 A 
ATOM     12  C   UNL A   1      40.266  27.550  28.699  1.00  0.00     0.074 A 
ATOM     13  C   UNL A   1      40.543  29.837  29.620  1.00  0.00     0.049 A 
ATOM     14  N   UNL A   1      41.427  27.016  28.964  1.00  0.00    -0.248 NA
ATOM     15  C   UNL A   1      39.338  26.633  28.025  1.00  0.00     0.031 C 
ATOM     16  C   UNL A   1      40.144  31.209  29.939  1.00  0.00     0.029 A 
ATOM     17  N   UNL A   1      41.775  29.698  30.195  1.00  0.00    -0.354 N 
ATOM     18  C   UNL A   1      41.386  25.732  28.425  1.00  0.00     0.074 A 
ATOM     19  C   UNL A   1      40.081  25.551  27.840  1.00  0.00     0.031 C 
ATOM     20  C   UNL A   1      41.086  31.766  30.712  1.00  0.00     0.029 A 
ATOM     21  C   UNL A   1      42.120  30.770  30.980  1.00  0.00     0.049 A 
ATOM     22  H   UNL A   1      42.354  28.913  30.060  1.00  0.00     0.167 HD
ATOM     23  C   UNL A   1      42.346  24.783  28.454  1.00  0.00     0.031 A 
ATOM     24  C   UNL A   1      43.115  30.909  31.875  1.00  0.00     0.031 A 
ATOM     25  C   UNL A   1      43.563  24.931  29.204  1.00  0.00     0.049 A 
ATOM     26  C   UNL A   1      44.083  29.780  32.049  1.00  0.00     0.074 A 
ATOM     27  C   UNL A   1      44.598  24.026  29.345  1.00  0.00     0.029 A 
ATOM     28  N   UNL A   1      43.869  26.028  29.993  1.00  0.00    -0.354 N 
ATOM     29  N   UNL A   1      44.089  28.613  31.448  1.00  0.00    -0.248 NA
ATOM     30  C   UNL A   1      45.178  29.978  33.004  1.00  0.00     0.031 C 
ATOM     31  C   UNL A   1      45.478  24.534  30.303  1.00  0.00     0.029 A 
ATOM     32  C   UNL A   1      45.040  25.794  30.685  1.00  0.00     0.049 A 
ATOM     33  H   UNL A   1      43.332  26.852  30.052  1.00  0.00     0.167 HD
ATOM     34  C   UNL A   1      45.199  27.940  31.939  1.00  0.00     0.074 A 
ATOM     35  C   UNL A   1      45.842  28.834  32.883  1.00  0.00     0.031 C 
ATOM     36  C   UNL A   1      45.647  26.699  31.632  1.00  0.00     0.031 A 
BRANCH  23  37
ATOM     37  C   UNL A   1      42.127  23.492  27.711  1.00  0.00    -0.014 A 
ATOM     38  C   UNL A   1      41.393  22.451  28.310  1.00  0.00     0.010 A 
ATOM     39  C   UNL A   1      42.790  23.247  26.495  1.00  0.00     0.010 A 
ATOM     40  C   UNL A   1      41.373  21.175  27.740  1.00  0.00     0.020 A 
ATOM     41  C   UNL A   1      42.760  21.974  25.912  1.00  0.00     0.020 A 
ATOM     42  C   UNL A   1      42.077  20.939  26.556  1.00  0.00     0.054 A 
BRANCH  42  43
ATOM     43  S   UNL A   1      42.118  19.249  25.892  1.00  0.00     0.124 S 
ATOM     44  O   UNL A   1      42.663  18.490  27.014  1.00  0.00    -0.237 OA
ATOM     45  O   UNL A   1      40.712  18.997  25.585  1.00  0.00    -0.237 OA
ATOM     46  O   UNL A   1      42.994  19.355  24.727  1.00  0.00    -0.744 OA
ENDBRANCH  42  43
ENDBRANCH  23  37
BRANCH  24  47
ATOM     47  C   UNL A   1      43.170  32.164  32.668  1.00  0.00    -0.014 A 
ATOM     48  C   UNL A   1      43.999  33.223  32.246  1.00  0.00     0.010 A 
ATOM     49  C   UNL A   1      42.545  32.240  33.922  1.00  0.00     0.010 A 
ATOM     50  C   UNL A   1      44.264  34.298  33.096  1.00  0.00     0.020 A 
ATOM     51  C   UNL A   1      42.788  33.330  34.765  1.00  0.00     0.020 A 
ATOM     52  C   UNL A   1      43.674  34.332  34.360  1.00  0.00     0.054 A 
BRANCH  52  53
ATOM     53  S   UNL A   1      44.110  35.683  35.491  1.00  0.00     0.124 S 
ATOM     54  O   UNL A   1      45.549  35.488  35.645  1.00  0.00    -0.237 OA
ATOM     55  O   UNL A   1      43.714  36.871  34.739  1.00  0.00    -0.237 OA
ATOM     56  O   UNL A   1      43.308  35.403  36.679  1.00  0.00    -0.744 OA
ENDBRANCH  52  53
ENDBRANCH  24  47
BRANCH  36  57
ATOM     57  C   UNL A   1      46.886  26.203  32.320  1.00  0.00    -0.014 A 
ATOM     58  C   UNL A   1      48.137  26.381  31.701  1.00  0.00     0.010 A 
ATOM     59  C   UNL A   1      46.788  25.407  33.473  1.00  0.00     0.010 A 
ATOM     60  C   UNL A   1      49.263  25.723  32.192  1.00  0.00     0.020 A 
ATOM     61  C   UNL A   1      47.922  24.772  33.985  1.00  0.00     0.020 A 
ATOM     62  C   UNL A   1      49.145  24.909  33.322  1.00  0.00     0.054 A 
BRANCH  62  63
ATOM     63  S   UNL A   1      50.605  24.008  33.905  1.00  0.00     0.124 S 
ATOM     64  O   UNL A   1      50.423  24.034  35.353  1.00  0.00    -0.237 OA
ATOM     65  O   UNL A   1      50.449  22.700  33.273  1.00  0.00    -0.237 OA
ATOM     66  O   UNL A   1      51.721  24.806  33.400  1.00  0.00    -0.744 OA
ENDBRANCH  62  63
ENDBRANCH  36  57
ENDBRANCH  10  11
ENDBRANCH   3   5
ENDBRANCH   2   3
ENDBRANCH   1   2
BRANCH   1  67
ATOM     67  C   UNL A   1      34.058  34.208  29.037  1.00  0.00     0.274 C 
BRANCH  67  68
ATOM     68  O   UNL A   1      33.552  34.020  30.370  1.00  0.00    -0.462 OA
BRANCH  68  69
ATOM     69  C   UNL A   1      33.933  35.002  31.248  1.00  0.00     0.311 C 
ATOM     70  O   UNL A   1      33.290  36.015  31.478  1.00  0.00    -0.252 OA
BRANCH  69  71
ATOM     71  C   UNL A   1      35.175  34.587  31.992  1.00  0.00     0.128 C 
ATOM     72  C   UNL A   1      35.154  34.786  33.503  1.00  0.00     0.117 C 
ATOM     73  C   UNL A   1      35.355  33.099  31.822  1.00  0.00     0.135 C 
ATOM     74  C   UNL A   1      35.879  33.569  34.040  1.00  0.00     0.223 C 
ATOM     75  N   UNL A   1      35.979  32.637  33.020  1.00  0.00    -0.341 N 
ATOM     76  O   UNL A   1      36.276  33.430  35.185  1.00  0.00    -0.275 OA
BRANCH  75  77
ATOM     77  C   UNL A   1      36.575  31.309  33.137  1.00  0.00     0.124 C 
BRANCH  77  78
ATOM     78  C   UNL A   1      38.098  31.272  32.907  1.00  0.00     0.055 C 
BRANCH  78  79
ATOM     79  C   UNL A   1      39.041  30.771  33.982  1.00  0.00    -0.038 C 
ATOM     80  C   UNL A   1      39.942  29.790  34.069  1.00  0.00     0.001 A 
ATOM     81  C   UNL A   1      38.996  31.519  35.293  1.00  0.00     0.174 C 
ATOM     82  C   UNL A   1      40.413  28.725  33.250  1.00  0.00     0.010 A 
ATOM     83  C   UNL A   1      40.494  29.952  35.432  1.00  0.00     0.065 A 
ATOM     84  N   UNL A   1      40.006  30.896  36.175  1.00  0.00    -0.280 NA
ATOM     85  C   UNL A   1      41.370  27.895  33.689  1.00  0.00     0.001 A 
ATOM     86  C   UNL A   1      41.578  29.027  35.839  1.00  0.00     0.028 A 
ATOM     87  C   UNL A   1      41.978  28.069  34.988  1.00  0.00     0.002 A 
ENDBRANCH  78  79
ENDBRANCH  77  78
ENDBRANCH  75  77
ENDBRANCH  69  71
ENDBRANCH  68  69
ENDBRANCH  67  68
ENDBRANCH   1  67
TORSDOF 17
ENDMDL
MODEL 3
REMARK VINA RESULT:     -10.4      4.702      6.908
REMARK SMILES O=C(OCCOC(=O)[C@H]1CC(=O)N(CCC2=c3ccccc3=NC2)C1)c1ccc(-c2c3nc(c(-c4ccc(S(=O)(=O)[O-])cc4)c4ccc([nH]4)c(-c4ccc(S(=O)(=O)[O-])cc4)c4nc(c(-c5ccc(S(=O)(=O)[O-])cc5)c5ccc2[nH]5)C=C4)C=C3)cc1
REMARK SMILES IDX 4 1 3 2 2 3 1 4 26 5 27 6 85 7 28 8 84 9 29 10 30 11 31 12
REMARK SMILES IDX 78 13 32 14 83 15 77 16 79 17 33 18 82 19 76 20 75 21 34 23
REMARK SMILES IDX 64 24 45 25 63 26 46 27 49 28 62 29 80 30 47 31 48 32 61 34
REMARK SMILES IDX 81 35 50 36 35 37 36 38 44 39 37 40 43 41 38 42 39 43 40 44
REMARK SMILES IDX 41 45 42 46 65 47 66 48 74 49 67 50 73 51 68 52 69 53 70 54
REMARK SMILES IDX 71 55 72 56 51 57 52 58 60 59 53 60 59 61 54 62 55 63 56 64
REMARK SMILES IDX 57 65 58 66 5 67 6 68 7 69 8 70 9 71 10 72 25 73 11 74 13 75
REMARK SMILES IDX 12 76 14 77 15 78 16 79 17 80 24 81 18 82 22 83 23 84 19 85
REMARK SMILES IDX 21 86 20 87
REMARK H PARENT 79 22 49 33
REMARK Flexibility Score: inf
ROOT
ATOM      1  C   UNL A   1      37.136  32.473  33.013  1.00  0.00     0.275 C 
ENDROOT
BRANCH   1   2
ATOM      2  O   UNL A   1      37.495  31.086  32.988  1.00  0.00    -0.458 OA
BRANCH   2   3
ATOM      3  C   UNL A   1      37.295  30.389  31.850  1.00  0.00     0.338 C 
ATOM      4  O   UNL A   1      36.327  29.698  31.588  1.00  0.00    -0.246 OA
BRANCH   3   5
ATOM      5  C   UNL A   1      38.579  30.379  31.095  1.00  0.00     0.060 A 
ATOM      6  C   UNL A   1      38.559  30.521  29.705  1.00  0.00     0.016 A 
ATOM      7  C   UNL A   1      39.766  29.998  31.737  1.00  0.00     0.016 A 
ATOM      8  C   UNL A   1      39.678  30.153  28.952  1.00  0.00     0.010 A 
ATOM      9  C   UNL A   1      40.889  29.671  30.993  1.00  0.00     0.010 A 
ATOM     10  C   UNL A   1      40.836  29.699  29.596  1.00  0.00    -0.014 A 
BRANCH  10  11
ATOM     11  C   UNL A   1      42.061  29.325  28.863  1.00  0.00     0.031 A 
ATOM     12  C   UNL A   1      42.322  27.901  28.463  1.00  0.00     0.074 A 
ATOM     13  C   UNL A   1      43.001  30.273  28.716  1.00  0.00     0.049 A 
ATOM     14  N   UNL A   1      43.380  27.380  27.904  1.00  0.00    -0.248 NA
ATOM     15  C   UNL A   1      41.249  26.927  28.707  1.00  0.00     0.031 C 
ATOM     16  C   UNL A   1      42.839  31.680  29.090  1.00  0.00     0.029 A 
ATOM     17  N   UNL A   1      44.297  30.180  28.291  1.00  0.00    -0.354 N 
ATOM     18  C   UNL A   1      43.066  26.044  27.667  1.00  0.00     0.074 A 
ATOM     19  C   UNL A   1      41.732  25.819  28.165  1.00  0.00     0.031 C 
ATOM     20  C   UNL A   1      44.014  32.305  28.942  1.00  0.00     0.029 A 
ATOM     21  C   UNL A   1      45.013  31.330  28.515  1.00  0.00     0.049 A 
ATOM     22  H   UNL A   1      44.677  29.375  27.870  1.00  0.00     0.167 HD
ATOM     23  C   UNL A   1      43.845  25.088  27.115  1.00  0.00     0.031 A 
ATOM     24  C   UNL A   1      46.339  31.554  28.458  1.00  0.00     0.031 A 
ATOM     25  C   UNL A   1      45.231  25.301  26.801  1.00  0.00     0.049 A 
ATOM     26  C   UNL A   1      47.235  30.436  28.022  1.00  0.00     0.074 A 
ATOM     27  C   UNL A   1      46.138  24.401  26.273  1.00  0.00     0.029 A 
ATOM     28  N   UNL A   1      45.921  26.476  27.051  1.00  0.00    -0.354 N 
ATOM     29  N   UNL A   1      46.906  29.207  27.698  1.00  0.00    -0.248 NA
ATOM     30  C   UNL A   1      48.670  30.723  27.933  1.00  0.00     0.031 C 
ATOM     31  C   UNL A   1      47.398  25.001  26.306  1.00  0.00     0.029 A 
ATOM     32  C   UNL A   1      47.259  26.304  26.762  1.00  0.00     0.049 A 
ATOM     33  H   UNL A   1      45.517  27.310  27.386  1.00  0.00     0.167 HD
ATOM     34  C   UNL A   1      48.091  28.576  27.348  1.00  0.00     0.074 A 
ATOM     35  C   UNL A   1      49.144  29.562  27.497  1.00  0.00     0.031 C 
ATOM     36  C   UNL A   1      48.288  27.301  26.937  1.00  0.00     0.031 A 
BRANCH  23  37
ATOM     37  C   UNL A   1      43.263  23.724  26.857  1.00  0.00    -0.014 A 
ATOM     38  C   UNL A   1      43.114  22.809  27.916  1.00  0.00     0.010 A 
ATOM     39  C   UNL A   1      43.023  23.289  25.541  1.00  0.00     0.010 A 
ATOM     40  C   UNL A   1      42.795  21.473  27.661  1.00  0.00     0.020 A 
ATOM     41  C   UNL A   1      42.688  21.953  25.283  1.00  0.00     0.020 A 
ATOM     42  C   UNL A   1      42.607  21.048  26.343  1.00  0.00     0.054 A 
BRANCH  42  43
ATOM     43  S   UNL A   1      42.294  19.286  26.034  1.00  0.00     0.124 S 
ATOM     44  O   UNL A   1      42.654  18.680  27.312  1.00  0.00    -0.237 OA
ATOM     45  O   UNL A   1      40.870  19.271  25.709  1.00  0.00    -0.237 OA
ATOM     46  O   UNL A   1      43.183  18.966  24.920  1.00  0.00    -0.744 OA
ENDBRANCH  42  43
ENDBRANCH  23  37
BRANCH  24  47
ATOM     47  C   UNL A   1      46.840  32.890  28.870  1.00  0.00    -0.014 A 
ATOM     48  C   UNL A   1      47.007  33.904  27.904  1.00  0.00     0.010 A 
ATOM     49  C   UNL A   1      47.313  33.101  30.173  1.00  0.00     0.010 A 
ATOM     50  C   UNL A   1      47.707  35.071  28.214  1.00  0.00     0.020 A 
ATOM     51  C   UNL A   1      47.993  34.281  30.494  1.00  0.00     0.020 A 
ATOM     52  C   UNL A   1      48.216  35.240  29.502  1.00  0.00     0.054 A 
BRANCH  52  53
ATOM     53  S   UNL A   1      49.213  36.714  29.859  1.00  0.00     0.124 S 
ATOM     54  O   UNL A   1      49.403  37.275  28.524  1.00  0.00    -0.237 OA
ATOM     55  O   UNL A   1      48.343  37.483  30.745  1.00  0.00    -0.237 OA
ATOM     56  O   UNL A   1      50.413  36.169  30.488  1.00  0.00    -0.744 OA
ENDBRANCH  52  53
ENDBRANCH  24  47
BRANCH  36  57
ATOM     57  C   UNL A   1      49.690  26.866  26.624  1.00  0.00    -0.014 A 
ATOM     58  C   UNL A   1      50.155  26.940  25.297  1.00  0.00     0.010 A 
ATOM     59  C   UNL A   1      50.469  26.221  27.598  1.00  0.00     0.010 A 
ATOM     60  C   UNL A   1      51.352  26.323  24.937  1.00  0.00     0.020 A 
ATOM     61  C   UNL A   1      51.684  25.629  27.245  1.00  0.00     0.020 A 
ATOM     62  C   UNL A   1      52.100  25.656  25.911  1.00  0.00     0.054 A 
BRANCH  62  63
ATOM     63  S   UNL A   1      53.619  24.803  25.411  1.00  0.00     0.124 S 
ATOM     64  O   UNL A   1      54.435  24.897  26.618  1.00  0.00    -0.237 OA
ATOM     65  O   UNL A   1      53.139  23.464  25.077  1.00  0.00    -0.237 OA
ATOM     66  O   UNL A   1      54.091  25.588  24.272  1.00  0.00    -0.744 OA
ENDBRANCH  62  63
ENDBRANCH  36  57
ENDBRANCH  10  11
ENDBRANCH   3   5
ENDBRANCH   2   3
ENDBRANCH   1   2
BRANCH   1  67
ATOM     67  C   UNL A   1      36.317  32.968  34.222  1.00  0.00     0.274 C 
BRANCH  67  68
ATOM     68  O   UNL A   1      34.921  33.148  33.929  1.00  0.00    -0.462 OA
BRANCH  68  69
ATOM     69  C   UNL A   1      34.606  34.411  33.501  1.00  0.00     0.311 C 
ATOM     70  O   UNL A   1      35.074  35.440  33.968  1.00  0.00    -0.252 OA
BRANCH  69  71
ATOM     71  C   UNL A   1      33.719  34.348  32.285  1.00  0.00     0.128 C 
ATOM     72  C   UNL A   1      33.004  35.639  31.904  1.00  0.00     0.117 C 
ATOM     73  C   UNL A   1      34.581  34.040  31.085  1.00  0.00     0.135 C 
ATOM     74  C   UNL A   1      33.046  35.644  30.389  1.00  0.00     0.223 C 
ATOM     75  N   UNL A   1      33.960  34.690  29.976  1.00  0.00    -0.341 N 
ATOM     76  O   UNL A   1      32.402  36.386  29.666  1.00  0.00    -0.275 OA
BRANCH  75  77
ATOM     77  C   UNL A   1      34.326  34.406  28.590  1.00  0.00     0.124 C 
BRANCH  77  78
ATOM     78  C   UNL A   1      33.432  33.361  27.897  1.00  0.00     0.055 C 
BRANCH  78  79
ATOM     79  C   UNL A   1      33.900  31.932  27.708  1.00  0.00    -0.038 C 
ATOM     80  C   UNL A   1      33.326  30.791  27.319  1.00  0.00     0.001 A 
ATOM     81  C   UNL A   1      35.354  31.671  28.023  1.00  0.00     0.174 C 
ATOM     82  C   UNL A   1      32.024  30.346  26.952  1.00  0.00     0.010 A 
ATOM     83  C   UNL A   1      34.440  29.819  27.350  1.00  0.00     0.065 A 
ATOM     84  N   UNL A   1      35.602  30.241  27.742  1.00  0.00    -0.280 NA
ATOM     85  C   UNL A   1      31.810  29.068  26.607  1.00  0.00     0.001 A 
ATOM     86  C   UNL A   1      34.144  28.433  26.916  1.00  0.00     0.028 A 
ATOM     87  C   UNL A   1      32.891  28.110  26.561  1.00  0.00     0.002 A 
ENDBRANCH  78  79
ENDBRANCH  77  78
ENDBRANCH  75  77
ENDBRANCH  69  71
ENDBRANCH  68  69
ENDBRANCH  67  68
ENDBRANCH   1  67
TORSDOF 17
ENDMDL
