MODEL 1
REMARK VINA RESULT:     -11.1      0.000      0.000
REMARK SMILES O=C(CCC(=O)N1CCC[C@@]2(CCC(=O)N(Cc3ccncc3)C2)C1)OCCOC(=O)c1ccc(-c2c3nc(c(-c4ccc(S(=O)(=O)[O-])cc4)c4ccc([nH]4)c(-c4ccc(S(=O)(=O)[O-])cc4)c4nc(c(-c5ccc(S(=O)(=O)[O-])cc5)c5ccc2[nH]5)C=C4)C=C3)cc1
REMARK SMILES IDX 27 1 26 2 2 3 1 4 3 5 4 6 5 7 6 8 7 9 8 10 25 11 9 12 11 13
REMARK SMILES IDX 10 14 12 15 24 16 13 17 16 18 14 19 15 20 17 21 18 22 19 23
REMARK SMILES IDX 23 24 20 25 22 26 21 27 28 28 29 29 30 30 31 31 32 32 33 33
REMARK SMILES IDX 91 34 34 35 90 36 35 37 36 38 37 39 84 40 38 41 89 42 83 43
REMARK SMILES IDX 85 44 39 45 88 46 82 47 81 48 40 50 70 51 51 52 69 53 52 54
REMARK SMILES IDX 55 55 68 56 86 57 53 58 54 59 67 61 87 62 56 63 41 64 42 65
REMARK SMILES IDX 50 66 43 67 49 68 44 69 45 70 46 71 47 72 48 73 71 74 72 75
REMARK SMILES IDX 80 76 73 77 79 78 74 79 75 80 76 81 77 82 78 83 57 84 58 85
REMARK SMILES IDX 66 86 59 87 65 88 60 89 61 90 62 91 63 92 64 93
REMARK H PARENT 85 49 55 60
REMARK Flexibility Score: inf
ROOT
ATOM      1  C   UNL A   1      37.528  20.699  24.928  1.00  0.00     0.274 C 
ENDROOT
BRANCH   1   2
ATOM      2  O   UNL A   1      37.459  21.851  25.808  1.00  0.00    -0.462 OA
BRANCH   2   3
ATOM      3  C   UNL A   1      36.581  22.873  25.778  1.00  0.00     0.306 C 
ATOM      4  O   UNL A   1      36.952  24.014  26.045  1.00  0.00    -0.252 OA
BRANCH   3   5
ATOM      5  C   UNL A   1      35.172  22.609  25.331  1.00  0.00     0.132 C 
BRANCH   5   6
ATOM      6  C   UNL A   1      34.120  22.925  26.394  1.00  0.00     0.112 C 
BRANCH   6   7
ATOM      7  C   UNL A   1      32.701  22.782  25.864  1.00  0.00     0.223 C 
ATOM      8  O   UNL A   1      32.282  21.666  25.550  1.00  0.00    -0.275 OA
BRANCH   7   9
ATOM      9  N   UNL A   1      31.991  23.948  25.590  1.00  0.00    -0.342 N 
ATOM     10  C   UNL A   1      30.645  24.067  26.176  1.00  0.00     0.119 C 
ATOM     11  C   UNL A   1      32.445  24.911  24.584  1.00  0.00     0.128 C 
ATOM     12  C   UNL A   1      29.880  25.372  25.999  1.00  0.00     0.022 C 
ATOM     13  C   UNL A   1      31.885  26.313  24.820  1.00  0.00     0.006 C 
ATOM     14  C   UNL A   1      30.349  26.181  24.809  1.00  0.00     0.012 C 
ATOM     15  C   UNL A   1      32.472  26.881  26.129  1.00  0.00     0.020 C 
ATOM     16  C   UNL A   1      32.331  27.270  23.714  1.00  0.00     0.128 C 
ATOM     17  C   UNL A   1      31.946  28.269  26.419  1.00  0.00     0.101 C 
ATOM     18  N   UNL A   1      31.842  28.624  23.969  1.00  0.00    -0.338 N 
ATOM     19  C   UNL A   1      31.884  29.205  25.232  1.00  0.00     0.222 C 
ATOM     20  O   UNL A   1      31.702  30.404  25.443  1.00  0.00    -0.275 OA
BRANCH  18  21
ATOM     21  C   UNL A   1      31.145  29.320  22.894  1.00  0.00     0.155 C 
BRANCH  21  22
ATOM     22  C   UNL A   1      29.666  29.445  23.110  1.00  0.00    -0.026 A 
ATOM     23  C   UNL A   1      28.826  28.334  23.031  1.00  0.00     0.025 A 
ATOM     24  C   UNL A   1      29.096  30.703  23.327  1.00  0.00     0.025 A 
ATOM     25  C   UNL A   1      27.462  28.533  23.158  1.00  0.00     0.111 A 
ATOM     26  C   UNL A   1      27.721  30.799  23.432  1.00  0.00     0.111 A 
ATOM     27  N   UNL A   1      26.888  29.739  23.363  1.00  0.00    -0.265 NA
ENDBRANCH  21  22
ENDBRANCH  18  21
ENDBRANCH   7   9
ENDBRANCH   6   7
ENDBRANCH   5   6
ENDBRANCH   3   5
ENDBRANCH   2   3
ENDBRANCH   1   2
BRANCH   1  28
ATOM     28  C   UNL A   1      38.691  19.821  25.400  1.00  0.00     0.275 C 
BRANCH  28  29
ATOM     29  O   UNL A   1      39.652  20.658  26.052  1.00  0.00    -0.458 OA
BRANCH  29  30
ATOM     30  C   UNL A   1      40.892  20.100  26.123  1.00  0.00     0.338 C 
ATOM     31  O   UNL A   1      41.186  18.969  25.812  1.00  0.00    -0.246 OA
BRANCH  30  32
ATOM     32  C   UNL A   1      41.858  21.198  26.406  1.00  0.00     0.060 A 
ATOM     33  C   UNL A   1      42.217  21.454  27.736  1.00  0.00     0.016 A 
ATOM     34  C   UNL A   1      42.460  21.919  25.366  1.00  0.00     0.016 A 
ATOM     35  C   UNL A   1      43.105  22.489  28.034  1.00  0.00     0.010 A 
ATOM     36  C   UNL A   1      43.354  22.940  25.659  1.00  0.00     0.010 A 
ATOM     37  C   UNL A   1      43.627  23.269  26.995  1.00  0.00    -0.014 A 
BRANCH  37  38
ATOM     38  C   UNL A   1      44.209  24.600  27.262  1.00  0.00     0.031 A 
ATOM     39  C   UNL A   1      43.253  25.699  27.642  1.00  0.00     0.074 A 
ATOM     40  C   UNL A   1      45.520  24.844  27.103  1.00  0.00     0.049 A 
ATOM     41  N   UNL A   1      43.476  26.976  27.800  1.00  0.00    -0.248 NA
ATOM     42  C   UNL A   1      41.847  25.302  27.849  1.00  0.00     0.031 C 
ATOM     43  C   UNL A   1      46.535  23.851  26.756  1.00  0.00     0.029 A 
ATOM     44  N   UNL A   1      46.214  26.022  27.192  1.00  0.00    -0.354 N 
ATOM     45  C   UNL A   1      42.241  27.533  28.114  1.00  0.00     0.074 A 
ATOM     46  C   UNL A   1      41.267  26.467  28.082  1.00  0.00     0.031 C 
ATOM     47  C   UNL A   1      47.726  24.468  26.652  1.00  0.00     0.029 A 
ATOM     48  C   UNL A   1      47.548  25.899  26.889  1.00  0.00     0.049 A 
ATOM     49  H   UNL A   1      45.796  26.876  27.450  1.00  0.00     0.167 HD
ATOM     50  C   UNL A   1      41.946  28.818  28.414  1.00  0.00     0.031 A 
ATOM     51  C   UNL A   1      48.504  26.844  26.797  1.00  0.00     0.031 A 
ATOM     52  C   UNL A   1      42.919  29.874  28.421  1.00  0.00     0.049 A 
ATOM     53  C   UNL A   1      48.141  28.283  27.070  1.00  0.00     0.074 A 
ATOM     54  C   UNL A   1      42.737  31.211  28.723  1.00  0.00     0.029 A 
ATOM     55  N   UNL A   1      44.259  29.711  28.102  1.00  0.00    -0.354 N 
ATOM     56  N   UNL A   1      46.978  28.793  27.401  1.00  0.00    -0.248 NA
ATOM     57  C   UNL A   1      49.223  29.271  26.965  1.00  0.00     0.031 C 
ATOM     58  C   UNL A   1      43.956  31.867  28.533  1.00  0.00     0.029 A 
ATOM     59  C   UNL A   1      44.913  30.927  28.179  1.00  0.00     0.049 A 
ATOM     60  H   UNL A   1      44.682  28.856  27.859  1.00  0.00     0.167 HD
ATOM     61  C   UNL A   1      47.197  30.156  27.580  1.00  0.00     0.074 A 
ATOM     62  C   UNL A   1      48.605  30.387  27.328  1.00  0.00     0.031 C 
ATOM     63  C   UNL A   1      46.318  31.129  27.926  1.00  0.00     0.031 A 
BRANCH  50  64
ATOM     64  C   UNL A   1      40.512  29.144  28.733  1.00  0.00    -0.014 A 
ATOM     65  C   UNL A   1      40.068  29.236  30.065  1.00  0.00     0.010 A 
ATOM     66  C   UNL A   1      39.600  29.379  27.689  1.00  0.00     0.010 A 
ATOM     67  C   UNL A   1      38.729  29.519  30.347  1.00  0.00     0.020 A 
ATOM     68  C   UNL A   1      38.267  29.694  27.967  1.00  0.00     0.020 A 
ATOM     69  C   UNL A   1      37.837  29.746  29.294  1.00  0.00     0.054 A 
BRANCH  69  70
ATOM     70  S   UNL A   1      36.111  30.140  29.690  1.00  0.00     0.124 S 
ATOM     71  O   UNL A   1      35.388  29.388  28.667  1.00  0.00    -0.237 OA
ATOM     72  O   UNL A   1      35.974  29.637  31.055  1.00  0.00    -0.237 OA
ATOM     73  O   UNL A   1      36.049  31.594  29.555  1.00  0.00    -0.744 OA
ENDBRANCH  69  70
ENDBRANCH  50  64
BRANCH  51  74
ATOM     74  C   UNL A   1      49.898  26.464  26.439  1.00  0.00    -0.014 A 
ATOM     75  C   UNL A   1      50.351  26.588  25.113  1.00  0.00     0.010 A 
ATOM     76  C   UNL A   1      50.782  25.977  27.419  1.00  0.00     0.010 A 
ATOM     77  C   UNL A   1      51.654  26.215  24.771  1.00  0.00     0.020 A 
ATOM     78  C   UNL A   1      52.095  25.632  27.087  1.00  0.00     0.020 A 
ATOM     79  C   UNL A   1      52.520  25.743  25.761  1.00  0.00     0.054 A 
BRANCH  79  80
ATOM     80  S   UNL A   1      54.223  25.320  25.302  1.00  0.00     0.124 S 
ATOM     81  O   UNL A   1      54.259  23.883  25.556  1.00  0.00    -0.237 OA
ATOM     82  O   UNL A   1      54.278  25.717  23.898  1.00  0.00    -0.237 OA
ATOM     83  O   UNL A   1      55.033  26.136  26.204  1.00  0.00    -0.744 OA
ENDBRANCH  79  80
ENDBRANCH  51  74
BRANCH  63  84
ATOM     84  C   UNL A   1      46.855  32.526  28.098  1.00  0.00    -0.014 A 
ATOM     85  C   UNL A   1      47.390  32.961  29.322  1.00  0.00     0.010 A 
ATOM     86  C   UNL A   1      46.885  33.393  26.988  1.00  0.00     0.010 A 
ATOM     87  C   UNL A   1      47.919  34.249  29.442  1.00  0.00     0.020 A 
ATOM     88  C   UNL A   1      47.441  34.669  27.096  1.00  0.00     0.020 A 
ATOM     89  C   UNL A   1      47.942  35.094  28.328  1.00  0.00     0.054 A 
BRANCH  89  90
ATOM     90  S   UNL A   1      48.678  36.742  28.499  1.00  0.00     0.124 S 
ATOM     91  O   UNL A   1      48.194  37.156  29.813  1.00  0.00    -0.237 OA
ATOM     92  O   UNL A   1      50.109  36.464  28.415  1.00  0.00    -0.237 OA
ATOM     93  O   UNL A   1      48.126  37.488  27.370  1.00  0.00    -0.744 OA
ENDBRANCH  89  90
ENDBRANCH  63  84
ENDBRANCH  37  38
ENDBRANCH  30  32
ENDBRANCH  29  30
ENDBRANCH  28  29
ENDBRANCH   1  28
TORSDOF 19
ENDMDL
MODEL 2
REMARK VINA RESULT:     -10.9      6.509     11.989
REMARK SMILES O=C(CCC(=O)N1CCC[C@@]2(CCC(=O)N(Cc3ccncc3)C2)C1)OCCOC(=O)c1ccc(-c2c3nc(c(-c4ccc(S(=O)(=O)[O-])cc4)c4ccc([nH]4)c(-c4ccc(S(=O)(=O)[O-])cc4)c4nc(c(-c5ccc(S(=O)(=O)[O-])cc5)c5ccc2[nH]5)C=C4)C=C3)cc1
REMARK SMILES IDX 27 1 26 2 2 3 1 4 3 5 4 6 5 7 6 8 7 9 8 10 25 11 9 12 11 13
REMARK SMILES IDX 10 14 12 15 24 16 13 17 16 18 14 19 15 20 17 21 18 22 19 23
REMARK SMILES IDX 23 24 20 25 22 26 21 27 28 28 29 29 30 30 31 31 32 32 33 33
REMARK SMILES IDX 91 34 34 35 90 36 35 37 36 38 37 39 84 40 38 41 89 42 83 43
REMARK SMILES IDX 85 44 39 45 88 46 82 47 81 48 40 50 70 51 51 52 69 53 52 54
REMARK SMILES IDX 55 55 68 56 86 57 53 58 54 59 67 61 87 62 56 63 41 64 42 65
REMARK SMILES IDX 50 66 43 67 49 68 44 69 45 70 46 71 47 72 48 73 71 74 72 75
REMARK SMILES IDX 80 76 73 77 79 78 74 79 75 80 76 81 77 82 78 83 57 84 58 85
REMARK SMILES IDX 66 86 59 87 65 88 60 89 61 90 62 91 63 92 64 93
REMARK H PARENT 85 49 55 60
REMARK Flexibility Score: inf
ROOT
ATOM      1  C   UNL A   1      34.182  30.245  27.233  1.00  0.00     0.274 C 
ENDROOT
BRANCH   1   2
ATOM      2  O   UNL A   1      33.228  30.453  26.159  1.00  0.00    -0.462 OA
BRANCH   2   3
ATOM      3  C   UNL A   1      32.388  29.557  25.605  1.00  0.00     0.306 C 
ATOM      4  O   UNL A   1      31.408  29.941  24.969  1.00  0.00    -0.252 OA
BRANCH   3   5
ATOM      5  C   UNL A   1      32.713  28.095  25.703  1.00  0.00     0.132 C 
BRANCH   5   6
ATOM      6  C   UNL A   1      33.592  27.581  24.563  1.00  0.00     0.112 C 
BRANCH   6   7
ATOM      7  C   UNL A   1      32.794  26.814  23.519  1.00  0.00     0.223 C 
ATOM      8  O   UNL A   1      31.909  27.393  22.887  1.00  0.00    -0.275 OA
BRANCH   7   9
ATOM      9  N   UNL A   1      32.982  25.436  23.445  1.00  0.00    -0.342 N 
ATOM     10  C   UNL A   1      32.968  24.829  22.103  1.00  0.00     0.119 C 
ATOM     11  C   UNL A   1      32.960  24.587  24.638  1.00  0.00     0.128 C 
ATOM     12  C   UNL A   1      33.284  23.346  21.965  1.00  0.00     0.022 C 
ATOM     13  C   UNL A   1      33.712  23.272  24.435  1.00  0.00     0.006 C 
ATOM     14  C   UNL A   1      33.046  22.565  23.239  1.00  0.00     0.012 C 
ATOM     15  C   UNL A   1      35.214  23.569  24.252  1.00  0.00     0.020 C 
ATOM     16  C   UNL A   1      33.610  22.391  25.681  1.00  0.00     0.128 C 
ATOM     17  C   UNL A   1      36.011  22.301  24.041  1.00  0.00     0.101 C 
ATOM     18  N   UNL A   1      34.376  21.157  25.509  1.00  0.00    -0.338 N 
ATOM     19  C   UNL A   1      35.646  21.142  24.942  1.00  0.00     0.222 C 
ATOM     20  O   UNL A   1      36.408  20.176  24.989  1.00  0.00    -0.275 OA
BRANCH  18  21
ATOM     21  C   UNL A   1      33.715  19.890  25.798  1.00  0.00     0.155 C 
BRANCH  21  22
ATOM     22  C   UNL A   1      33.485  19.035  24.587  1.00  0.00    -0.026 A 
ATOM     23  C   UNL A   1      32.519  19.369  23.639  1.00  0.00     0.025 A 
ATOM     24  C   UNL A   1      34.197  17.841  24.430  1.00  0.00     0.025 A 
ATOM     25  C   UNL A   1      32.300  18.492  22.589  1.00  0.00     0.111 A 
ATOM     26  C   UNL A   1      33.899  17.029  23.351  1.00  0.00     0.111 A 
ATOM     27  N   UNL A   1      32.972  17.332  22.418  1.00  0.00    -0.265 NA
ENDBRANCH  21  22
ENDBRANCH  18  21
ENDBRANCH   7   9
ENDBRANCH   6   7
ENDBRANCH   5   6
ENDBRANCH   3   5
ENDBRANCH   2   3
ENDBRANCH   1   2
BRANCH   1  28
ATOM     28  C   UNL A   1      34.524  31.616  27.825  1.00  0.00     0.275 C 
BRANCH  28  29
ATOM     29  O   UNL A   1      33.336  32.415  27.825  1.00  0.00    -0.458 OA
BRANCH  29  30
ATOM     30  C   UNL A   1      33.511  33.640  28.395  1.00  0.00     0.338 C 
ATOM     31  O   UNL A   1      32.769  34.589  28.291  1.00  0.00    -0.246 OA
BRANCH  30  32
ATOM     32  C   UNL A   1      34.633  33.521  29.368  1.00  0.00     0.060 A 
ATOM     33  C   UNL A   1      35.861  34.119  29.055  1.00  0.00     0.016 A 
ATOM     34  C   UNL A   1      34.454  32.892  30.607  1.00  0.00     0.016 A 
ATOM     35  C   UNL A   1      36.937  34.009  29.939  1.00  0.00     0.010 A 
ATOM     36  C   UNL A   1      35.519  32.793  31.492  1.00  0.00     0.010 A 
ATOM     37  C   UNL A   1      36.778  33.294  31.131  1.00  0.00    -0.014 A 
BRANCH  37  38
ATOM     38  C   UNL A   1      37.949  32.791  31.877  1.00  0.00     0.031 A 
ATOM     39  C   UNL A   1      38.651  31.584  31.314  1.00  0.00     0.074 A 
ATOM     40  C   UNL A   1      38.331  33.334  33.045  1.00  0.00     0.049 A 
ATOM     41  N   UNL A   1      39.611  30.866  31.830  1.00  0.00    -0.248 NA
ATOM     42  C   UNL A   1      38.185  31.111  29.996  1.00  0.00     0.031 C 
ATOM     43  C   UNL A   1      37.736  34.513  33.670  1.00  0.00     0.029 A 
ATOM     44  N   UNL A   1      39.306  32.939  33.923  1.00  0.00    -0.354 N 
ATOM     45  C   UNL A   1      39.857  29.855  30.907  1.00  0.00     0.074 A 
ATOM     46  C   UNL A   1      38.918  30.024  29.822  1.00  0.00     0.031 C 
ATOM     47  C   UNL A   1      38.355  34.741  34.843  1.00  0.00     0.029 A 
ATOM     48  C   UNL A   1      39.362  33.704  35.063  1.00  0.00     0.049 A 
ATOM     49  H   UNL A   1      39.910  32.181  33.753  1.00  0.00     0.167 HD
ATOM     50  C   UNL A   1      40.790  28.877  30.953  1.00  0.00     0.031 A 
ATOM     51  C   UNL A   1      40.130  33.563  36.161  1.00  0.00     0.031 A 
ATOM     52  C   UNL A   1      41.703  28.704  32.048  1.00  0.00     0.049 A 
ATOM     53  C   UNL A   1      41.119  32.425  36.223  1.00  0.00     0.074 A 
ATOM     54  C   UNL A   1      42.700  27.757  32.195  1.00  0.00     0.029 A 
ATOM     55  N   UNL A   1      41.725  29.495  33.187  1.00  0.00    -0.354 N 
ATOM     56  N   UNL A   1      41.367  31.497  35.329  1.00  0.00    -0.248 NA
ATOM     57  C   UNL A   1      41.937  32.323  37.439  1.00  0.00     0.031 C 
ATOM     58  C   UNL A   1      43.287  27.941  33.450  1.00  0.00     0.029 A 
ATOM     59  C   UNL A   1      42.703  29.044  34.054  1.00  0.00     0.049 A 
ATOM     60  H   UNL A   1      41.132  30.263  33.352  1.00  0.00     0.167 HD
ATOM     61  C   UNL A   1      42.395  30.723  35.859  1.00  0.00     0.074 A 
ATOM     62  C   UNL A   1      42.727  31.298  37.147  1.00  0.00     0.031 C 
ATOM     63  C   UNL A   1      43.015  29.638  35.330  1.00  0.00     0.031 A 
BRANCH  50  64
ATOM     64  C   UNL A   1      40.842  27.915  29.798  1.00  0.00    -0.014 A 
ATOM     65  C   UNL A   1      41.964  27.862  28.948  1.00  0.00     0.010 A 
ATOM     66  C   UNL A   1      39.767  27.039  29.567  1.00  0.00     0.010 A 
ATOM     67  C   UNL A   1      41.992  26.978  27.867  1.00  0.00     0.020 A 
ATOM     68  C   UNL A   1      39.805  26.131  28.505  1.00  0.00     0.020 A 
ATOM     69  C   UNL A   1      40.910  26.117  27.653  1.00  0.00     0.054 A 
BRANCH  69  70
ATOM     70  S   UNL A   1      40.987  24.960  26.259  1.00  0.00     0.124 S 
ATOM     71  O   UNL A   1      42.039  24.042  26.687  1.00  0.00    -0.237 OA
ATOM     72  O   UNL A   1      39.637  24.401  26.233  1.00  0.00    -0.237 OA
ATOM     73  O   UNL A   1      41.327  25.811  25.121  1.00  0.00    -0.744 OA
ENDBRANCH  69  70
ENDBRANCH  50  64
BRANCH  51  74
ATOM     74  C   UNL A   1      40.003  34.525  37.289  1.00  0.00    -0.014 A 
ATOM     75  C   UNL A   1      39.141  34.251  38.366  1.00  0.00     0.010 A 
ATOM     76  C   UNL A   1      40.743  35.722  37.297  1.00  0.00     0.010 A 
ATOM     77  C   UNL A   1      39.007  35.160  39.419  1.00  0.00     0.020 A 
ATOM     78  C   UNL A   1      40.635  36.621  38.362  1.00  0.00     0.020 A 
ATOM     79  C   UNL A   1      39.758  36.339  39.412  1.00  0.00     0.054 A 
BRANCH  79  80
ATOM     80  S   UNL A   1      39.609  37.477  40.817  1.00  0.00     0.124 S 
ATOM     81  O   UNL A   1      40.916  38.127  40.822  1.00  0.00    -0.237 OA
ATOM     82  O   UNL A   1      38.484  38.319  40.421  1.00  0.00    -0.237 OA
ATOM     83  O   UNL A   1      39.346  36.591  41.948  1.00  0.00    -0.744 OA
ENDBRANCH  79  80
ENDBRANCH  51  74
BRANCH  63  84
ATOM     84  C   UNL A   1      44.143  29.026  36.117  1.00  0.00    -0.014 A 
ATOM     85  C   UNL A   1      45.458  29.511  36.013  1.00  0.00     0.010 A 
ATOM     86  C   UNL A   1      43.863  27.991  37.030  1.00  0.00     0.010 A 
ATOM     87  C   UNL A   1      46.479  28.951  36.786  1.00  0.00     0.020 A 
ATOM     88  C   UNL A   1      44.875  27.450  37.827  1.00  0.00     0.020 A 
ATOM     89  C   UNL A   1      46.180  27.925  37.688  1.00  0.00     0.054 A 
BRANCH  89  90
ATOM     90  S   UNL A   1      47.515  27.249  38.714  1.00  0.00     0.124 S 
ATOM     91  O   UNL A   1      47.935  26.087  37.937  1.00  0.00    -0.237 OA
ATOM     92  O   UNL A   1      48.471  28.352  38.762  1.00  0.00    -0.237 OA
ATOM     93  O   UNL A   1      46.857  26.946  39.983  1.00  0.00    -0.744 OA
ENDBRANCH  89  90
ENDBRANCH  63  84
ENDBRANCH  37  38
ENDBRANCH  30  32
ENDBRANCH  29  30
ENDBRANCH  28  29
ENDBRANCH   1  28
TORSDOF 19
ENDMDL
MODEL 3
REMARK VINA RESULT:     -10.8      2.550      8.649
REMARK SMILES O=C(CCC(=O)N1CCC[C@@]2(CCC(=O)N(Cc3ccncc3)C2)C1)OCCOC(=O)c1ccc(-c2c3nc(c(-c4ccc(S(=O)(=O)[O-])cc4)c4ccc([nH]4)c(-c4ccc(S(=O)(=O)[O-])cc4)c4nc(c(-c5ccc(S(=O)(=O)[O-])cc5)c5ccc2[nH]5)C=C4)C=C3)cc1
REMARK SMILES IDX 27 1 26 2 2 3 1 4 3 5 4 6 5 7 6 8 7 9 8 10 25 11 9 12 11 13
REMARK SMILES IDX 10 14 12 15 24 16 13 17 16 18 14 19 15 20 17 21 18 22 19 23
REMARK SMILES IDX 23 24 20 25 22 26 21 27 28 28 29 29 30 30 31 31 32 32 33 33
REMARK SMILES IDX 91 34 34 35 90 36 35 37 36 38 37 39 84 40 38 41 89 42 83 43
REMARK SMILES IDX 85 44 39 45 88 46 82 47 81 48 40 50 70 51 51 52 69 53 52 54
REMARK SMILES IDX 55 55 68 56 86 57 53 58 54 59 67 61 87 62 56 63 41 64 42 65
REMARK SMILES IDX 50 66 43 67 49 68 44 69 45 70 46 71 47 72 48 73 71 74 72 75
REMARK SMILES IDX 80 76 73 77 79 78 74 79 75 80 76 81 77 82 78 83 57 84 58 85
REMARK SMILES IDX 66 86 59 87 65 88 60 89 61 90 62 91 63 92 64 93
REMARK H PARENT 85 49 55 60
REMARK Flexibility Score: inf
ROOT
ATOM      1  C   UNL A   1      36.922  21.005  24.643  1.00  0.00     0.274 C 
ENDROOT
BRANCH   1   2
ATOM      2  O   UNL A   1      36.102  21.954  25.375  1.00  0.00    -0.462 OA
BRANCH   2   3
ATOM      3  C   UNL A   1      35.654  23.157  24.968  1.00  0.00     0.306 C 
ATOM      4  O   UNL A   1      35.567  24.086  25.768  1.00  0.00    -0.252 OA
BRANCH   3   5
ATOM      5  C   UNL A   1      35.348  23.366  23.513  1.00  0.00     0.132 C 
BRANCH   5   6
ATOM      6  C   UNL A   1      34.046  22.707  23.057  1.00  0.00     0.112 C 
BRANCH   6   7
ATOM      7  C   UNL A   1      33.183  23.646  22.227  1.00  0.00     0.223 C 
ATOM      8  O   UNL A   1      33.381  23.739  21.015  1.00  0.00    -0.275 OA
BRANCH   7   9
ATOM      9  N   UNL A   1      32.315  24.497  22.907  1.00  0.00    -0.342 N 
ATOM     10  C   UNL A   1      31.875  24.075  24.248  1.00  0.00     0.119 C 
ATOM     11  C   UNL A   1      31.674  25.637  22.246  1.00  0.00     0.128 C 
ATOM     12  C   UNL A   1      31.020  25.027  25.073  1.00  0.00     0.022 C 
ATOM     13  C   UNL A   1      31.242  26.720  23.235  1.00  0.00     0.006 C 
ATOM     14  C   UNL A   1      30.280  26.045  24.232  1.00  0.00     0.012 C 
ATOM     15  C   UNL A   1      32.494  27.351  23.876  1.00  0.00     0.020 C 
ATOM     16  C   UNL A   1      30.523  27.859  22.512  1.00  0.00     0.128 C 
ATOM     17  C   UNL A   1      32.126  28.429  24.872  1.00  0.00     0.101 C 
ATOM     18  N   UNL A   1      30.158  28.921  23.449  1.00  0.00    -0.338 N 
ATOM     19  C   UNL A   1      31.027  29.374  24.436  1.00  0.00     0.222 C 
ATOM     20  O   UNL A   1      30.852  30.405  25.085  1.00  0.00    -0.275 OA
BRANCH  18  21
ATOM     21  C   UNL A   1      28.783  29.404  23.442  1.00  0.00     0.155 C 
BRANCH  21  22
ATOM     22  C   UNL A   1      28.593  30.685  22.684  1.00  0.00    -0.026 A 
ATOM     23  C   UNL A   1      28.603  31.918  23.334  1.00  0.00     0.025 A 
ATOM     24  C   UNL A   1      28.333  30.651  21.310  1.00  0.00     0.025 A 
ATOM     25  C   UNL A   1      28.339  33.055  22.588  1.00  0.00     0.111 A 
ATOM     26  C   UNL A   1      28.073  31.841  20.656  1.00  0.00     0.111 A 
ATOM     27  N   UNL A   1      28.080  33.047  21.261  1.00  0.00    -0.265 NA
ENDBRANCH  21  22
ENDBRANCH  18  21
ENDBRANCH   7   9
ENDBRANCH   6   7
ENDBRANCH   5   6
ENDBRANCH   3   5
ENDBRANCH   2   3
ENDBRANCH   1   2
BRANCH   1  28
ATOM     28  C   UNL A   1      38.237  20.835  25.410  1.00  0.00     0.275 C 
BRANCH  28  29
ATOM     29  O   UNL A   1      38.617  22.109  25.940  1.00  0.00    -0.458 OA
BRANCH  29  30
ATOM     30  C   UNL A   1      39.863  22.113  26.491  1.00  0.00     0.338 C 
ATOM     31  O   UNL A   1      40.701  21.251  26.368  1.00  0.00    -0.246 OA
BRANCH  30  32
ATOM     32  C   UNL A   1      40.096  23.473  27.052  1.00  0.00     0.060 A 
ATOM     33  C   UNL A   1      39.376  24.552  26.523  1.00  0.00     0.016 A 
ATOM     34  C   UNL A   1      40.961  23.671  28.136  1.00  0.00     0.016 A 
ATOM     35  C   UNL A   1      39.587  25.842  27.015  1.00  0.00     0.010 A 
ATOM     36  C   UNL A   1      41.163  24.950  28.636  1.00  0.00     0.010 A 
ATOM     37  C   UNL A   1      40.526  26.045  28.033  1.00  0.00    -0.014 A 
BRANCH  37  38
ATOM     38  C   UNL A   1      41.090  27.386  28.290  1.00  0.00     0.031 A 
ATOM     39  C   UNL A   1      42.576  27.547  28.111  1.00  0.00     0.074 A 
ATOM     40  C   UNL A   1      40.330  28.400  28.736  1.00  0.00     0.049 A 
ATOM     41  N   UNL A   1      43.340  28.567  28.394  1.00  0.00    -0.248 NA
ATOM     42  C   UNL A   1      43.299  26.386  27.558  1.00  0.00     0.031 C 
ATOM     43  C   UNL A   1      38.882  28.358  28.927  1.00  0.00     0.029 A 
ATOM     44  N   UNL A   1      40.689  29.661  29.132  1.00  0.00    -0.354 N 
ATOM     45  C   UNL A   1      44.631  28.167  28.062  1.00  0.00     0.074 A 
ATOM     46  C   UNL A   1      44.554  26.801  27.601  1.00  0.00     0.031 C 
ATOM     47  C   UNL A   1      38.475  29.544  29.416  1.00  0.00     0.029 A 
ATOM     48  C   UNL A   1      39.638  30.410  29.604  1.00  0.00     0.049 A 
ATOM     49  H   UNL A   1      41.612  30.000  29.083  1.00  0.00     0.167 HD
ATOM     50  C   UNL A   1      45.778  28.880  28.127  1.00  0.00     0.031 A 
ATOM     51  C   UNL A   1      39.629  31.645  30.142  1.00  0.00     0.031 A 
ATOM     52  C   UNL A   1      45.847  30.230  28.610  1.00  0.00     0.049 A 
ATOM     53  C   UNL A   1      40.930  32.399  30.268  1.00  0.00     0.074 A 
ATOM     54  C   UNL A   1      46.953  31.055  28.707  1.00  0.00     0.029 A 
ATOM     55  N   UNL A   1      44.762  30.952  29.084  1.00  0.00    -0.354 N 
ATOM     56  N   UNL A   1      42.139  32.025  29.918  1.00  0.00    -0.248 NA
ATOM     57  C   UNL A   1      40.863  33.745  30.853  1.00  0.00     0.031 C 
ATOM     58  C   UNL A   1      46.546  32.257  29.293  1.00  0.00     0.029 A 
ATOM     59  C   UNL A   1      45.175  32.206  29.497  1.00  0.00     0.049 A 
ATOM     60  H   UNL A   1      43.836  30.621  29.121  1.00  0.00     0.167 HD
ATOM     61  C   UNL A   1      42.970  33.104  30.207  1.00  0.00     0.074 A 
ATOM     62  C   UNL A   1      42.123  34.146  30.751  1.00  0.00     0.031 C 
ATOM     63  C   UNL A   1      44.309  33.227  30.033  1.00  0.00     0.031 A 
BRANCH  50  64
ATOM     64  C   UNL A   1      47.044  28.196  27.687  1.00  0.00    -0.014 A 
ATOM     65  C   UNL A   1      47.531  28.345  26.375  1.00  0.00     0.010 A 
ATOM     66  C   UNL A   1      47.768  27.409  28.600  1.00  0.00     0.010 A 
ATOM     67  C   UNL A   1      48.697  27.689  25.973  1.00  0.00     0.020 A 
ATOM     68  C   UNL A   1      48.952  26.775  28.211  1.00  0.00     0.020 A 
ATOM     69  C   UNL A   1      49.399  26.907  26.896  1.00  0.00     0.054 A 
BRANCH  69  70
ATOM     70  S   UNL A   1      50.925  26.090  26.354  1.00  0.00     0.124 S 
ATOM     71  O   UNL A   1      50.712  25.977  24.913  1.00  0.00    -0.237 OA
ATOM     72  O   UNL A   1      51.958  27.038  26.764  1.00  0.00    -0.237 OA
ATOM     73  O   UNL A   1      50.919  24.824  27.085  1.00  0.00    -0.744 OA
ENDBRANCH  69  70
ENDBRANCH  50  64
BRANCH  51  74
ATOM     74  C   UNL A   1      38.349  32.253  30.596  1.00  0.00    -0.014 A 
ATOM     75  C   UNL A   1      37.645  33.139  29.760  1.00  0.00     0.010 A 
ATOM     76  C   UNL A   1      37.823  31.950  31.865  1.00  0.00     0.010 A 
ATOM     77  C   UNL A   1      36.451  33.724  30.191  1.00  0.00     0.020 A 
ATOM     78  C   UNL A   1      36.614  32.510  32.288  1.00  0.00     0.020 A 
ATOM     79  C   UNL A   1      35.941  33.402  31.452  1.00  0.00     0.054 A 
BRANCH  79  80
ATOM     80  S   UNL A   1      34.361  34.131  31.965  1.00  0.00     0.124 S 
ATOM     81  O   UNL A   1      33.664  34.276  30.691  1.00  0.00    -0.237 OA
ATOM     82  O   UNL A   1      33.825  33.117  32.869  1.00  0.00    -0.237 OA
ATOM     83  O   UNL A   1      34.754  35.382  32.610  1.00  0.00    -0.744 OA
ENDBRANCH  79  80
ENDBRANCH  51  74
BRANCH  63  84
ATOM     84  C   UNL A   1      44.941  34.546  30.393  1.00  0.00    -0.014 A 
ATOM     85  C   UNL A   1      45.618  34.728  31.610  1.00  0.00     0.010 A 
ATOM     86  C   UNL A   1      44.913  35.600  29.459  1.00  0.00     0.010 A 
ATOM     87  C   UNL A   1      46.230  35.950  31.901  1.00  0.00     0.020 A 
ATOM     88  C   UNL A   1      45.550  36.812  29.733  1.00  0.00     0.020 A 
ATOM     89  C   UNL A   1      46.193  36.983  30.960  1.00  0.00     0.054 A 
BRANCH  89  90
ATOM     90  S   UNL A   1      47.037  38.542  31.342  1.00  0.00     0.124 S 
ATOM     91  O   UNL A   1      45.929  39.387  31.778  1.00  0.00    -0.237 OA
ATOM     92  O   UNL A   1      47.977  38.149  32.388  1.00  0.00    -0.237 OA
ATOM     93  O   UNL A   1      47.650  38.926  30.073  1.00  0.00    -0.744 OA
ENDBRANCH  89  90
ENDBRANCH  63  84
ENDBRANCH  37  38
ENDBRANCH  30  32
ENDBRANCH  29  30
ENDBRANCH  28  29
ENDBRANCH   1  28
TORSDOF 19
ENDMDL
