MODEL 1
REMARK VINA RESULT:     -11.7      0.000      0.000
REMARK SMILES O=C(OCCOC(=O)[C@@H]1[C@@H](C(=O)N2CCN(c3cccc(Cl)c3)CC2)[C@H]2CC[C@@H]1O2)c1ccc(-c2c3nc(c(-c4ccc(S(=O)(=O)[O-])cc4)c4ccc([nH]4)c(-c4ccc(S(=O)(=O)[O-])cc4)c4nc(c(-c5ccc(S(=O)(=O)[O-])cc5)c5ccc2[nH]5)C=C4)C=C3)cc1
REMARK SMILES IDX 4 1 3 2 2 3 1 4 31 5 32 6 90 7 33 8 89 9 34 10 35 11 36 12
REMARK SMILES IDX 83 13 37 14 88 15 82 16 84 17 38 18 87 19 81 20 80 21 39 23
REMARK SMILES IDX 69 24 50 25 68 26 51 27 54 28 67 29 85 30 52 31 53 32 66 34
REMARK SMILES IDX 86 35 55 36 40 37 41 38 49 39 42 40 48 41 43 42 44 43 45 44
REMARK SMILES IDX 46 45 47 46 70 47 71 48 79 49 72 50 78 51 73 52 74 53 75 54
REMARK SMILES IDX 76 55 77 56 56 57 57 58 65 59 58 60 64 61 59 62 60 63 61 64
REMARK SMILES IDX 62 65 63 66 5 67 6 68 7 69 8 70 9 71 10 72 29 73 26 74 28 75
REMARK SMILES IDX 30 76 27 77 11 78 12 79 13 80 14 81 25 82 15 83 24 84 16 85
REMARK SMILES IDX 17 86 18 87 23 88 19 89 21 90 20 91 22 92
REMARK H PARENT 84 22 54 33
REMARK Flexibility Score: inf
ROOT
ATOM      1  C   UNL A   1      38.536  23.686  26.187  1.00  0.00     0.275 C 
ENDROOT
BRANCH   1   2
ATOM      2  O   UNL A   1      38.547  24.850  27.020  1.00  0.00    -0.458 OA
BRANCH   2   3
ATOM      3  C   UNL A   1      39.620  25.596  27.379  1.00  0.00     0.338 C 
ATOM      4  O   UNL A   1      40.708  25.342  26.860  1.00  0.00    -0.246 OA
BRANCH   3   5
ATOM      5  C   UNL A   1      39.597  26.546  28.537  1.00  0.00     0.060 A 
ATOM      6  C   UNL A   1      38.792  26.480  29.682  1.00  0.00     0.016 A 
ATOM      7  C   UNL A   1      40.526  27.595  28.454  1.00  0.00     0.016 A 
ATOM      8  C   UNL A   1      38.974  27.367  30.761  1.00  0.00     0.010 A 
ATOM      9  C   UNL A   1      40.751  28.435  29.545  1.00  0.00     0.010 A 
ATOM     10  C   UNL A   1      39.976  28.333  30.717  1.00  0.00    -0.014 A 
BRANCH  10  11
ATOM     11  C   UNL A   1      40.190  29.362  31.771  1.00  0.00     0.031 A 
ATOM     12  C   UNL A   1      41.153  29.005  32.861  1.00  0.00     0.074 A 
ATOM     13  C   UNL A   1      39.462  30.494  31.873  1.00  0.00     0.049 A 
ATOM     14  N   UNL A   1      41.327  29.555  34.029  1.00  0.00    -0.248 NA
ATOM     15  C   UNL A   1      42.016  27.836  32.599  1.00  0.00     0.031 C 
ATOM     16  C   UNL A   1      38.544  31.016  30.870  1.00  0.00     0.029 A 
ATOM     17  N   UNL A   1      39.308  31.364  32.930  1.00  0.00    -0.354 N 
ATOM     18  C   UNL A   1      42.336  28.815  34.624  1.00  0.00     0.074 A 
ATOM     19  C   UNL A   1      42.606  27.682  33.769  1.00  0.00     0.031 C 
ATOM     20  C   UNL A   1      37.794  31.994  31.414  1.00  0.00     0.029 A 
ATOM     21  C   UNL A   1      38.219  32.201  32.791  1.00  0.00     0.049 A 
ATOM     22  H   UNL A   1      39.914  31.387  33.706  1.00  0.00     0.167 HD
ATOM     23  C   UNL A   1      43.057  29.111  35.727  1.00  0.00     0.031 A 
ATOM     24  C   UNL A   1      37.616  33.017  33.679  1.00  0.00     0.031 A 
ATOM     25  C   UNL A   1      42.798  30.251  36.551  1.00  0.00     0.049 A 
ATOM     26  C   UNL A   1      38.295  33.241  35.003  1.00  0.00     0.074 A 
ATOM     27  C   UNL A   1      43.512  30.718  37.635  1.00  0.00     0.029 A 
ATOM     28  N   UNL A   1      41.718  31.104  36.371  1.00  0.00    -0.354 N 
ATOM     29  N   UNL A   1      39.344  32.625  35.497  1.00  0.00    -0.248 NA
ATOM     30  C   UNL A   1      37.779  34.326  35.850  1.00  0.00     0.031 C 
ATOM     31  C   UNL A   1      42.842  31.843  38.133  1.00  0.00     0.029 A 
ATOM     32  C   UNL A   1      41.733  32.091  37.334  1.00  0.00     0.049 A 
ATOM     33  H   UNL A   1      41.040  31.017  35.662  1.00  0.00     0.167 HD
ATOM     34  C   UNL A   1      39.684  33.322  36.650  1.00  0.00     0.074 A 
ATOM     35  C   UNL A   1      38.686  34.359  36.819  1.00  0.00     0.031 C 
ATOM     36  C   UNL A   1      40.757  33.145  37.457  1.00  0.00     0.031 A 
BRANCH  23  37
ATOM     37  C   UNL A   1      44.209  28.192  36.009  1.00  0.00    -0.014 A 
ATOM     38  C   UNL A   1      45.433  28.374  35.331  1.00  0.00     0.010 A 
ATOM     39  C   UNL A   1      44.032  27.061  36.820  1.00  0.00     0.010 A 
ATOM     40  C   UNL A   1      46.410  27.380  35.360  1.00  0.00     0.020 A 
ATOM     41  C   UNL A   1      45.026  26.081  36.881  1.00  0.00     0.020 A 
ATOM     42  C   UNL A   1      46.186  26.227  36.115  1.00  0.00     0.054 A 
BRANCH  42  43
ATOM     43  S   UNL A   1      47.422  24.902  36.052  1.00  0.00     0.124 S 
ATOM     44  O   UNL A   1      48.666  25.646  36.242  1.00  0.00    -0.237 OA
ATOM     45  O   UNL A   1      47.032  24.038  37.156  1.00  0.00    -0.237 OA
ATOM     46  O   UNL A   1      47.239  24.327  34.716  1.00  0.00    -0.744 OA
ENDBRANCH  42  43
ENDBRANCH  23  37
BRANCH  24  47
ATOM     47  C   UNL A   1      36.348  33.726  33.337  1.00  0.00    -0.014 A 
ATOM     48  C   UNL A   1      35.099  33.128  33.575  1.00  0.00     0.010 A 
ATOM     49  C   UNL A   1      36.385  35.009  32.760  1.00  0.00     0.010 A 
ATOM     50  C   UNL A   1      33.913  33.787  33.224  1.00  0.00     0.020 A 
ATOM     51  C   UNL A   1      35.200  35.679  32.419  1.00  0.00     0.020 A 
ATOM     52  C   UNL A   1      33.970  35.059  32.646  1.00  0.00     0.054 A 
BRANCH  52  53
ATOM     53  S   UNL A   1      32.411  35.892  32.221  1.00  0.00     0.124 S 
ATOM     54  O   UNL A   1      31.414  34.927  32.677  1.00  0.00    -0.237 OA
ATOM     55  O   UNL A   1      32.493  37.126  32.997  1.00  0.00    -0.237 OA
ATOM     56  O   UNL A   1      32.490  36.064  30.772  1.00  0.00    -0.744 OA
ENDBRANCH  52  53
ENDBRANCH  24  47
BRANCH  36  57
ATOM     57  C   UNL A   1      41.001  34.157  38.539  1.00  0.00    -0.014 A 
ATOM     58  C   UNL A   1      41.724  35.333  38.293  1.00  0.00     0.010 A 
ATOM     59  C   UNL A   1      40.343  33.988  39.773  1.00  0.00     0.010 A 
ATOM     60  C   UNL A   1      41.761  36.342  39.259  1.00  0.00     0.020 A 
ATOM     61  C   UNL A   1      40.360  35.002  40.728  1.00  0.00     0.020 A 
ATOM     62  C   UNL A   1      41.065  36.178  40.462  1.00  0.00     0.054 A 
BRANCH  62  63
ATOM     63  S   UNL A   1      40.998  37.563  41.631  1.00  0.00     0.124 S 
ATOM     64  O   UNL A   1      41.073  38.716  40.739  1.00  0.00    -0.237 OA
ATOM     65  O   UNL A   1      39.711  37.361  42.294  1.00  0.00    -0.237 OA
ATOM     66  O   UNL A   1      42.166  37.354  42.482  1.00  0.00    -0.744 OA
ENDBRANCH  62  63
ENDBRANCH  36  57
ENDBRANCH  10  11
ENDBRANCH   3   5
ENDBRANCH   2   3
ENDBRANCH   1   2
BRANCH   1  67
ATOM     67  C   UNL A   1      37.364  23.633  25.204  1.00  0.00     0.274 C 
BRANCH  67  68
ATOM     68  O   UNL A   1      36.126  23.170  25.768  1.00  0.00    -0.462 OA
BRANCH  68  69
ATOM     69  C   UNL A   1      35.696  21.944  25.361  1.00  0.00     0.312 C 
ATOM     70  O   UNL A   1      36.153  20.883  25.775  1.00  0.00    -0.252 OA
BRANCH  69  71
ATOM     71  C   UNL A   1      34.609  21.977  24.285  1.00  0.00     0.143 C 
ATOM     72  C   UNL A   1      34.027  23.370  24.028  1.00  0.00     0.124 C 
ATOM     73  C   UNL A   1      33.402  21.201  24.760  1.00  0.00     0.133 C 
ATOM     74  C   UNL A   1      32.576  23.171  24.491  1.00  0.00     0.132 C 
ATOM     75  C   UNL A   1      32.386  20.969  23.646  1.00  0.00     0.036 C 
ATOM     76  O   UNL A   1      32.752  22.210  25.548  1.00  0.00    -0.373 OA
ATOM     77  C   UNL A   1      31.727  22.340  23.531  1.00  0.00     0.035 C 
BRANCH  72  78
ATOM     78  C   UNL A   1      33.948  24.124  22.704  1.00  0.00     0.229 C 
ATOM     79  O   UNL A   1      33.937  23.456  21.663  1.00  0.00    -0.274 OA
ATOM     80  N   UNL A   1      33.649  25.459  22.639  1.00  0.00    -0.339 N 
ATOM     81  C   UNL A   1      32.595  25.840  21.689  1.00  0.00     0.141 C 
ATOM     82  C   UNL A   1      33.846  26.464  23.670  1.00  0.00     0.141 C 
ATOM     83  C   UNL A   1      31.259  25.933  22.469  1.00  0.00     0.138 C 
ATOM     84  C   UNL A   1      32.577  26.541  24.525  1.00  0.00     0.138 C 
ATOM     85  N   UNL A   1      31.414  26.802  23.663  1.00  0.00    -0.368 N 
BRANCH  85  86
ATOM     86  C   UNL A   1      30.840  28.056  23.661  1.00  0.00     0.038 A 
ATOM     87  C   UNL A   1      31.202  29.043  24.587  1.00  0.00     0.026 A 
ATOM     88  C   UNL A   1      29.836  28.352  22.734  1.00  0.00     0.046 A 
ATOM     89  C   UNL A   1      30.584  30.292  24.593  1.00  0.00     0.004 A 
ATOM     90  C   UNL A   1      29.203  29.592  22.751  1.00  0.00     0.043 A 
ATOM     91  C   UNL A   1      29.575  30.565  23.675  1.00  0.00     0.020 A 
ATOM     92  Cl  UNL A   1      27.934  29.915  21.635  1.00  0.00    -0.084 Cl
ENDBRANCH  85  86
ENDBRANCH  72  78
ENDBRANCH  69  71
ENDBRANCH  68  69
ENDBRANCH  67  68
ENDBRANCH   1  67
TORSDOF 16
ENDMDL
MODEL 2
REMARK VINA RESULT:     -11.7      7.343     12.812
REMARK SMILES O=C(OCCOC(=O)[C@@H]1[C@@H](C(=O)N2CCN(c3cccc(Cl)c3)CC2)[C@H]2CC[C@@H]1O2)c1ccc(-c2c3nc(c(-c4ccc(S(=O)(=O)[O-])cc4)c4ccc([nH]4)c(-c4ccc(S(=O)(=O)[O-])cc4)c4nc(c(-c5ccc(S(=O)(=O)[O-])cc5)c5ccc2[nH]5)C=C4)C=C3)cc1
REMARK SMILES IDX 4 1 3 2 2 3 1 4 31 5 32 6 90 7 33 8 89 9 34 10 35 11 36 12
REMARK SMILES IDX 83 13 37 14 88 15 82 16 84 17 38 18 87 19 81 20 80 21 39 23
REMARK SMILES IDX 69 24 50 25 68 26 51 27 54 28 67 29 85 30 52 31 53 32 66 34
REMARK SMILES IDX 86 35 55 36 40 37 41 38 49 39 42 40 48 41 43 42 44 43 45 44
REMARK SMILES IDX 46 45 47 46 70 47 71 48 79 49 72 50 78 51 73 52 74 53 75 54
REMARK SMILES IDX 76 55 77 56 56 57 57 58 65 59 58 60 64 61 59 62 60 63 61 64
REMARK SMILES IDX 62 65 63 66 5 67 6 68 7 69 8 70 9 71 10 72 29 73 26 74 28 75
REMARK SMILES IDX 30 76 27 77 11 78 12 79 13 80 14 81 25 82 15 83 24 84 16 85
REMARK SMILES IDX 17 86 18 87 23 88 19 89 21 90 20 91 22 92
REMARK H PARENT 84 22 54 33
REMARK Flexibility Score: inf
ROOT
ATOM      1  C   UNL A   1      35.039  30.363  27.363  1.00  0.00     0.275 C 
ENDROOT
BRANCH   1   2
ATOM      2  O   UNL A   1      36.297  29.690  27.474  1.00  0.00    -0.458 OA
BRANCH   2   3
ATOM      3  C   UNL A   1      36.937  29.321  28.610  1.00  0.00     0.338 C 
ATOM      4  O   UNL A   1      36.304  29.330  29.666  1.00  0.00    -0.246 OA
BRANCH   3   5
ATOM      5  C   UNL A   1      38.422  29.133  28.681  1.00  0.00     0.060 A 
ATOM      6  C   UNL A   1      39.187  28.779  29.802  1.00  0.00     0.016 A 
ATOM      7  C   UNL A   1      39.095  29.303  27.462  1.00  0.00     0.016 A 
ATOM      8  C   UNL A   1      40.563  28.501  29.693  1.00  0.00     0.010 A 
ATOM      9  C   UNL A   1      40.443  28.968  27.339  1.00  0.00     0.010 A 
ATOM     10  C   UNL A   1      41.199  28.560  28.455  1.00  0.00    -0.014 A 
BRANCH  10  11
ATOM     11  C   UNL A   1      42.661  28.362  28.258  1.00  0.00     0.031 A 
ATOM     12  C   UNL A   1      43.499  29.602  28.219  1.00  0.00     0.074 A 
ATOM     13  C   UNL A   1      43.222  27.171  27.964  1.00  0.00     0.049 A 
ATOM     14  N   UNL A   1      44.719  29.767  27.791  1.00  0.00    -0.248 NA
ATOM     15  C   UNL A   1      42.846  30.834  28.701  1.00  0.00     0.031 C 
ATOM     16  C   UNL A   1      42.565  25.873  28.028  1.00  0.00     0.029 A 
ATOM     17  N   UNL A   1      44.464  26.873  27.446  1.00  0.00    -0.354 N 
ATOM     18  C   UNL A   1      44.983  31.113  27.982  1.00  0.00     0.074 A 
ATOM     19  C   UNL A   1      43.751  31.745  28.390  1.00  0.00     0.031 C 
ATOM     20  C   UNL A   1      43.327  24.952  27.407  1.00  0.00     0.029 A 
ATOM     21  C   UNL A   1      44.552  25.589  26.946  1.00  0.00     0.049 A 
ATOM     22  H   UNL A   1      45.214  27.511  27.435  1.00  0.00     0.167 HD
ATOM     23  C   UNL A   1      46.173  31.752  27.933  1.00  0.00     0.031 A 
ATOM     24  C   UNL A   1      45.496  25.004  26.182  1.00  0.00     0.031 A 
ATOM     25  C   UNL A   1      47.393  31.109  27.552  1.00  0.00     0.049 A 
ATOM     26  C   UNL A   1      46.778  25.755  25.948  1.00  0.00     0.074 A 
ATOM     27  C   UNL A   1      48.677  31.613  27.557  1.00  0.00     0.029 A 
ATOM     28  N   UNL A   1      47.465  29.803  27.089  1.00  0.00    -0.354 N 
ATOM     29  N   UNL A   1      47.066  26.997  26.264  1.00  0.00    -0.248 NA
ATOM     30  C   UNL A   1      47.895  25.012  25.347  1.00  0.00     0.031 C 
ATOM     31  C   UNL A   1      49.527  30.616  27.063  1.00  0.00     0.029 A 
ATOM     32  C   UNL A   1      48.773  29.483  26.787  1.00  0.00     0.049 A 
ATOM     33  H   UNL A   1      46.698  29.195  26.989  1.00  0.00     0.167 HD
ATOM     34  C   UNL A   1      48.423  27.147  26.009  1.00  0.00     0.074 A 
ATOM     35  C   UNL A   1      48.883  25.893  25.446  1.00  0.00     0.031 C 
ATOM     36  C   UNL A   1      49.218  28.211  26.273  1.00  0.00     0.031 A 
BRANCH  23  37
ATOM     37  C   UNL A   1      46.152  33.186  28.370  1.00  0.00    -0.014 A 
ATOM     38  C   UNL A   1      46.014  34.210  27.408  1.00  0.00     0.010 A 
ATOM     39  C   UNL A   1      46.429  33.526  29.702  1.00  0.00     0.010 A 
ATOM     40  C   UNL A   1      46.275  35.536  27.747  1.00  0.00     0.020 A 
ATOM     41  C   UNL A   1      46.654  34.860  30.053  1.00  0.00     0.020 A 
ATOM     42  C   UNL A   1      46.620  35.848  29.064  1.00  0.00     0.054 A 
BRANCH  42  43
ATOM     43  S   UNL A   1      47.061  37.561  29.458  1.00  0.00     0.124 S 
ATOM     44  O   UNL A   1      48.150  37.376  30.416  1.00  0.00    -0.237 OA
ATOM     45  O   UNL A   1      47.448  38.105  28.165  1.00  0.00    -0.237 OA
ATOM     46  O   UNL A   1      45.825  38.112  30.020  1.00  0.00    -0.744 OA
ENDBRANCH  42  43
ENDBRANCH  23  37
BRANCH  24  47
ATOM     47  C   UNL A   1      45.302  23.628  25.637  1.00  0.00    -0.014 A 
ATOM     48  C   UNL A   1      44.791  23.428  24.343  1.00  0.00     0.010 A 
ATOM     49  C   UNL A   1      45.624  22.502  26.418  1.00  0.00     0.010 A 
ATOM     50  C   UNL A   1      44.584  22.133  23.849  1.00  0.00     0.020 A 
ATOM     51  C   UNL A   1      45.431  21.203  25.923  1.00  0.00     0.020 A 
ATOM     52  C   UNL A   1      44.904  21.028  24.643  1.00  0.00     0.054 A 
BRANCH  52  53
ATOM     53  S   UNL A   1      44.639  19.363  23.962  1.00  0.00     0.124 S 
ATOM     54  O   UNL A   1      44.544  19.629  22.529  1.00  0.00    -0.237 OA
ATOM     55  O   UNL A   1      45.841  18.654  24.391  1.00  0.00    -0.237 OA
ATOM     56  O   UNL A   1      43.398  18.919  24.594  1.00  0.00    -0.744 OA
ENDBRANCH  52  53
ENDBRANCH  24  47
BRANCH  36  57
ATOM     57  C   UNL A   1      50.698  28.054  26.077  1.00  0.00    -0.014 A 
ATOM     58  C   UNL A   1      51.499  27.407  27.030  1.00  0.00     0.010 A 
ATOM     59  C   UNL A   1      51.250  28.416  24.833  1.00  0.00     0.010 A 
ATOM     60  C   UNL A   1      52.828  27.100  26.728  1.00  0.00     0.020 A 
ATOM     61  C   UNL A   1      52.569  28.089  24.522  1.00  0.00     0.020 A 
ATOM     62  C   UNL A   1      53.349  27.426  25.471  1.00  0.00     0.054 A 
BRANCH  62  63
ATOM     63  S   UNL A   1      55.024  26.875  25.047  1.00  0.00     0.124 S 
ATOM     64  O   UNL A   1      55.819  28.062  25.348  1.00  0.00    -0.237 OA
ATOM     65  O   UNL A   1      55.224  25.738  25.944  1.00  0.00    -0.237 OA
ATOM     66  O   UNL A   1      54.927  26.531  23.631  1.00  0.00    -0.744 OA
ENDBRANCH  62  63
ENDBRANCH  36  57
ENDBRANCH  10  11
ENDBRANCH   3   5
ENDBRANCH   2   3
ENDBRANCH   1   2
BRANCH   1  67
ATOM     67  C   UNL A   1      33.859  29.436  27.062  1.00  0.00     0.274 C 
BRANCH  67  68
ATOM     68  O   UNL A   1      32.971  29.908  26.036  1.00  0.00    -0.462 OA
BRANCH  68  69
ATOM     69  C   UNL A   1      32.852  29.122  24.930  1.00  0.00     0.312 C 
ATOM     70  O   UNL A   1      33.626  29.155  23.979  1.00  0.00    -0.252 OA
BRANCH  69  71
ATOM     71  C   UNL A   1      31.629  28.204  24.931  1.00  0.00     0.143 C 
ATOM     72  C   UNL A   1      31.966  26.714  25.035  1.00  0.00     0.124 C 
ATOM     73  C   UNL A   1      30.929  28.290  23.594  1.00  0.00     0.133 C 
ATOM     74  C   UNL A   1      31.468  26.207  23.673  1.00  0.00     0.132 C 
ATOM     75  C   UNL A   1      29.564  27.609  23.610  1.00  0.00     0.036 C 
ATOM     76  O   UNL A   1      31.716  27.355  22.841  1.00  0.00    -0.373 OA
ATOM     77  C   UNL A   1      29.946  26.134  23.557  1.00  0.00     0.035 C 
BRANCH  72  78
ATOM     78  C   UNL A   1      31.466  25.709  26.068  1.00  0.00     0.229 C 
ATOM     79  O   UNL A   1      30.308  25.838  26.482  1.00  0.00    -0.274 OA
ATOM     80  N   UNL A   1      32.152  24.560  26.360  1.00  0.00    -0.339 N 
ATOM     81  C   UNL A   1      31.366  23.318  26.350  1.00  0.00     0.141 C 
ATOM     82  C   UNL A   1      33.574  24.308  26.199  1.00  0.00     0.141 C 
ATOM     83  C   UNL A   1      31.536  22.655  24.958  1.00  0.00     0.138 C 
ATOM     84  C   UNL A   1      33.811  23.723  24.803  1.00  0.00     0.138 C 
ATOM     85  N   UNL A   1      32.977  22.525  24.619  1.00  0.00    -0.368 N 
BRANCH  85  86
ATOM     86  C   UNL A   1      33.564  21.278  24.652  1.00  0.00     0.038 A 
ATOM     87  C   UNL A   1      34.923  21.102  24.947  1.00  0.00     0.026 A 
ATOM     88  C   UNL A   1      32.800  20.148  24.345  1.00  0.00     0.046 A 
ATOM     89  C   UNL A   1      35.508  19.837  24.938  1.00  0.00     0.004 A 
ATOM     90  C   UNL A   1      33.387  18.887  24.315  1.00  0.00     0.043 A 
ATOM     91  C   UNL A   1      34.738  18.726  24.614  1.00  0.00     0.020 A 
ATOM     92  Cl  UNL A   1      32.440  17.516  23.883  1.00  0.00    -0.084 Cl
ENDBRANCH  85  86
ENDBRANCH  72  78
ENDBRANCH  69  71
ENDBRANCH  68  69
ENDBRANCH  67  68
ENDBRANCH   1  67
TORSDOF 16
ENDMDL
MODEL 3
REMARK VINA RESULT:     -11.6      6.321     10.858
REMARK SMILES O=C(OCCOC(=O)[C@@H]1[C@@H](C(=O)N2CCN(c3cccc(Cl)c3)CC2)[C@H]2CC[C@@H]1O2)c1ccc(-c2c3nc(c(-c4ccc(S(=O)(=O)[O-])cc4)c4ccc([nH]4)c(-c4ccc(S(=O)(=O)[O-])cc4)c4nc(c(-c5ccc(S(=O)(=O)[O-])cc5)c5ccc2[nH]5)C=C4)C=C3)cc1
REMARK SMILES IDX 4 1 3 2 2 3 1 4 31 5 32 6 90 7 33 8 89 9 34 10 35 11 36 12
REMARK SMILES IDX 83 13 37 14 88 15 82 16 84 17 38 18 87 19 81 20 80 21 39 23
REMARK SMILES IDX 69 24 50 25 68 26 51 27 54 28 67 29 85 30 52 31 53 32 66 34
REMARK SMILES IDX 86 35 55 36 40 37 41 38 49 39 42 40 48 41 43 42 44 43 45 44
REMARK SMILES IDX 46 45 47 46 70 47 71 48 79 49 72 50 78 51 73 52 74 53 75 54
REMARK SMILES IDX 76 55 77 56 56 57 57 58 65 59 58 60 64 61 59 62 60 63 61 64
REMARK SMILES IDX 62 65 63 66 5 67 6 68 7 69 8 70 9 71 10 72 29 73 26 74 28 75
REMARK SMILES IDX 30 76 27 77 11 78 12 79 13 80 14 81 25 82 15 83 24 84 16 85
REMARK SMILES IDX 17 86 18 87 23 88 19 89 21 90 20 91 22 92
REMARK H PARENT 84 22 54 33
REMARK Flexibility Score: inf
ROOT
ATOM      1  C   UNL A   1      39.098  19.541  25.353  1.00  0.00     0.275 C 
ENDROOT
BRANCH   1   2
ATOM      2  O   UNL A   1      40.209  19.548  26.256  1.00  0.00    -0.458 OA
BRANCH   2   3
ATOM      3  C   UNL A   1      41.466  19.990  26.013  1.00  0.00     0.338 C 
ATOM      4  O   UNL A   1      42.240  19.245  25.410  1.00  0.00    -0.246 OA
BRANCH   3   5
ATOM      5  C   UNL A   1      42.027  21.229  26.641  1.00  0.00     0.060 A 
ATOM      6  C   UNL A   1      42.295  21.455  27.998  1.00  0.00     0.016 A 
ATOM      7  C   UNL A   1      42.346  22.253  25.736  1.00  0.00     0.016 A 
ATOM      8  C   UNL A   1      42.954  22.621  28.433  1.00  0.00     0.010 A 
ATOM      9  C   UNL A   1      43.054  23.380  26.155  1.00  0.00     0.010 A 
ATOM     10  C   UNL A   1      43.370  23.580  27.513  1.00  0.00    -0.014 A 
BRANCH  10  11
ATOM     11  C   UNL A   1      43.999  24.876  27.886  1.00  0.00     0.031 A 
ATOM     12  C   UNL A   1      43.064  26.010  28.172  1.00  0.00     0.074 A 
ATOM     13  C   UNL A   1      45.327  25.110  27.825  1.00  0.00     0.049 A 
ATOM     14  N   UNL A   1      43.305  27.289  28.242  1.00  0.00    -0.248 NA
ATOM     15  C   UNL A   1      41.649  25.641  28.373  1.00  0.00     0.031 C 
ATOM     16  C   UNL A   1      46.366  24.109  27.631  1.00  0.00     0.029 A 
ATOM     17  N   UNL A   1      46.024  26.299  27.818  1.00  0.00    -0.354 N 
ATOM     18  C   UNL A   1      42.077  27.867  28.522  1.00  0.00     0.074 A 
ATOM     19  C   UNL A   1      41.077  26.829  28.432  1.00  0.00     0.031 C 
ATOM     20  C   UNL A   1      47.531  24.720  27.344  1.00  0.00     0.029 A 
ATOM     21  C   UNL A   1      47.328  26.161  27.385  1.00  0.00     0.049 A 
ATOM     22  H   UNL A   1      45.633  27.159  28.094  1.00  0.00     0.167 HD
ATOM     23  C   UNL A   1      41.816  29.127  28.931  1.00  0.00     0.031 A 
ATOM     24  C   UNL A   1      48.243  27.089  27.036  1.00  0.00     0.031 A 
ATOM     25  C   UNL A   1      42.819  30.141  29.041  1.00  0.00     0.049 A 
ATOM     26  C   UNL A   1      47.921  28.533  27.310  1.00  0.00     0.074 A 
ATOM     27  C   UNL A   1      42.706  31.424  29.535  1.00  0.00     0.029 A 
ATOM     28  N   UNL A   1      44.136  29.970  28.637  1.00  0.00    -0.354 N 
ATOM     29  N   UNL A   1      46.786  29.054  27.714  1.00  0.00    -0.248 NA
ATOM     30  C   UNL A   1      49.016  29.504  27.177  1.00  0.00     0.031 C 
ATOM     31  C   UNL A   1      43.955  32.043  29.400  1.00  0.00     0.029 A 
ATOM     32  C   UNL A   1      44.849  31.131  28.855  1.00  0.00     0.049 A 
ATOM     33  H   UNL A   1      44.507  29.144  28.251  1.00  0.00     0.167 HD
ATOM     34  C   UNL A   1      47.060  30.386  27.996  1.00  0.00     0.074 A 
ATOM     35  C   UNL A   1      48.449  30.609  27.647  1.00  0.00     0.031 C 
ATOM     36  C   UNL A   1      46.245  31.318  28.545  1.00  0.00     0.031 A 
BRANCH  23  37
ATOM     37  C   UNL A   1      40.394  29.393  29.331  1.00  0.00    -0.014 A 
ATOM     38  C   UNL A   1      39.451  29.773  28.353  1.00  0.00     0.010 A 
ATOM     39  C   UNL A   1      40.033  29.422  30.686  1.00  0.00     0.010 A 
ATOM     40  C   UNL A   1      38.215  30.295  28.731  1.00  0.00     0.020 A 
ATOM     41  C   UNL A   1      38.780  29.910  31.066  1.00  0.00     0.020 A 
ATOM     42  C   UNL A   1      37.899  30.385  30.089  1.00  0.00     0.054 A 
BRANCH  42  43
ATOM     43  S   UNL A   1      36.333  31.166  30.560  1.00  0.00     0.124 S 
ATOM     44  O   UNL A   1      35.934  30.359  31.713  1.00  0.00    -0.237 OA
ATOM     45  O   UNL A   1      36.727  32.535  30.859  1.00  0.00    -0.237 OA
ATOM     46  O   UNL A   1      35.498  31.004  29.368  1.00  0.00    -0.744 OA
ENDBRANCH  42  43
ENDBRANCH  23  37
BRANCH  24  47
ATOM     47  C   UNL A   1      49.559  26.692  26.455  1.00  0.00    -0.014 A 
ATOM     48  C   UNL A   1      49.783  26.749  25.068  1.00  0.00     0.010 A 
ATOM     49  C   UNL A   1      50.600  26.245  27.291  1.00  0.00     0.010 A 
ATOM     50  C   UNL A   1      51.012  26.347  24.527  1.00  0.00     0.020 A 
ATOM     51  C   UNL A   1      51.836  25.853  26.755  1.00  0.00     0.020 A 
ATOM     52  C   UNL A   1      52.031  25.900  25.373  1.00  0.00     0.054 A 
BRANCH  52  53
ATOM     53  S   UNL A   1      53.617  25.404  24.637  1.00  0.00     0.124 S 
ATOM     54  O   UNL A   1      54.582  26.068  25.509  1.00  0.00    -0.237 OA
ATOM     55  O   UNL A   1      53.571  23.948  24.745  1.00  0.00    -0.237 OA
ATOM     56  O   UNL A   1      53.550  25.927  23.274  1.00  0.00    -0.744 OA
ENDBRANCH  52  53
ENDBRANCH  24  47
BRANCH  36  57
ATOM     57  C   UNL A   1      46.840  32.642  28.926  1.00  0.00    -0.014 A 
ATOM     58  C   UNL A   1      46.784  33.747  28.064  1.00  0.00     0.010 A 
ATOM     59  C   UNL A   1      47.312  32.808  30.243  1.00  0.00     0.010 A 
ATOM     60  C   UNL A   1      47.164  35.009  28.526  1.00  0.00     0.020 A 
ATOM     61  C   UNL A   1      47.670  34.071  30.712  1.00  0.00     0.020 A 
ATOM     62  C   UNL A   1      47.588  35.166  29.851  1.00  0.00     0.054 A 
BRANCH  62  63
ATOM     63  S   UNL A   1      47.924  36.838  30.470  1.00  0.00     0.124 S 
ATOM     64  O   UNL A   1      48.524  37.479  29.304  1.00  0.00    -0.237 OA
ATOM     65  O   UNL A   1      46.593  37.317  30.838  1.00  0.00    -0.237 OA
ATOM     66  O   UNL A   1      48.828  36.614  31.595  1.00  0.00    -0.744 OA
ENDBRANCH  62  63
ENDBRANCH  36  57
ENDBRANCH  10  11
ENDBRANCH   3   5
ENDBRANCH   2   3
ENDBRANCH   1   2
BRANCH   1  67
ATOM     67  C   UNL A   1      38.281  20.834  25.358  1.00  0.00     0.274 C 
BRANCH  67  68
ATOM     68  O   UNL A   1      37.203  20.868  24.408  1.00  0.00    -0.462 OA
BRANCH  68  69
ATOM     69  C   UNL A   1      36.445  21.999  24.393  1.00  0.00     0.312 C 
ATOM     70  O   UNL A   1      36.834  23.081  23.965  1.00  0.00    -0.252 OA
BRANCH  69  71
ATOM     71  C   UNL A   1      35.053  21.838  25.006  1.00  0.00     0.143 C 
ATOM     72  C   UNL A   1      34.034  22.874  24.523  1.00  0.00     0.124 C 
ATOM     73  C   UNL A   1      35.119  22.110  26.491  1.00  0.00     0.133 C 
ATOM     74  C   UNL A   1      33.750  23.634  25.828  1.00  0.00     0.132 C 
ATOM     75  C   UNL A   1      33.832  21.715  27.210  1.00  0.00     0.036 C 
ATOM     76  O   UNL A   1      35.027  23.542  26.486  1.00  0.00    -0.373 OA
ATOM     77  C   UNL A   1      32.894  22.855  26.826  1.00  0.00     0.035 C 
BRANCH  72  78
ATOM     78  C   UNL A   1      32.675  22.624  23.877  1.00  0.00     0.229 C 
ATOM     79  O   UNL A   1      32.047  21.620  24.232  1.00  0.00    -0.274 OA
ATOM     80  N   UNL A   1      32.040  23.573  23.121  1.00  0.00    -0.339 N 
ATOM     81  C   UNL A   1      30.632  23.831  23.458  1.00  0.00     0.141 C 
ATOM     82  C   UNL A   1      32.640  24.680  22.395  1.00  0.00     0.141 C 
ATOM     83  C   UNL A   1      30.584  25.054  24.410  1.00  0.00     0.138 C 
ATOM     84  C   UNL A   1      32.690  25.900  23.320  1.00  0.00     0.138 C 
ATOM     85  N   UNL A   1      31.341  26.193  23.829  1.00  0.00    -0.368 N 
BRANCH  85  86
ATOM     86  C   UNL A   1      30.648  27.275  23.329  1.00  0.00     0.038 A 
ATOM     87  C   UNL A   1      31.296  28.352  22.709  1.00  0.00     0.026 A 
ATOM     88  C   UNL A   1      29.259  27.329  23.473  1.00  0.00     0.046 A 
ATOM     89  C   UNL A   1      30.582  29.455  22.244  1.00  0.00     0.004 A 
ATOM     90  C   UNL A   1      28.546  28.438  23.028  1.00  0.00     0.043 A 
ATOM     91  C   UNL A   1      29.202  29.501  22.411  1.00  0.00     0.020 A 
ATOM     92  Cl  UNL A   1      26.843  28.507  23.263  1.00  0.00    -0.084 Cl
ENDBRANCH  85  86
ENDBRANCH  72  78
ENDBRANCH  69  71
ENDBRANCH  68  69
ENDBRANCH  67  68
ENDBRANCH   1  67
TORSDOF 16
ENDMDL
