MODEL 1
REMARK VINA RESULT:     -13.2      0.000      0.000
REMARK SMILES C[C@]1(C(=O)OCCOC(=O)c2ccc(-c3c4nc(c(-c5ccc(S(=O)(=O)[O-])cc5)c5ccc([nH]5)c(-c5ccc(S(=O)(=O)[O-])cc5)c5nc(c(-c6ccc(S(=O)(=O)[O-])cc6)c6ccc3[nH]6)C=C5)C=C4)cc2)[NH2+]C2(C(=O)c3ccccc3C2=O)[C@@H]2C(=O)N(c3ccccc3)C(=O)[C@H]21
REMARK SMILES IDX 7 1 6 2 5 3 3 4 4 5 2 6 1 7 71 8 95 9 72 10 83 13 93 14
REMARK SMILES IDX 73 15 81 16 84 17 86 18 94 19 74 20 75 21 80 22 82 23 85 24
REMARK SMILES IDX 76 25 79 26 77 27 78 28 87 29 88 30 92 31 89 32 91 33 90 34
REMARK SMILES IDX 8 35 9 36 10 37 11 38 12 39 70 40 13 41 69 42 14 43 15 44
REMARK SMILES IDX 16 45 63 46 17 47 68 48 62 49 64 50 18 51 67 52 61 53 60 54
REMARK SMILES IDX 19 56 49 57 30 58 48 59 31 60 34 61 47 62 65 63 32 64 33 65
REMARK SMILES IDX 46 67 66 68 35 69 20 70 21 71 29 72 22 73 28 74 23 75 24 76
REMARK SMILES IDX 25 77 26 78 27 79 50 80 51 81 59 82 52 83 58 84 53 85 54 86
REMARK SMILES IDX 55 87 56 88 57 89 36 90 37 91 45 92 38 93 44 94 39 95 40 96
REMARK SMILES IDX 41 97 42 98 43 99
REMARK H PARENT 71 11 71 12 64 55 34 66
REMARK Flexibility Score: inf
ROOT
ATOM      1  C   UNL A   1      39.295  21.188  26.031  1.00  0.00     0.275 C 
ENDROOT
BRANCH   1   2
ATOM      2  C   UNL A   1      38.182  21.296  24.989  1.00  0.00     0.274 C 
BRANCH   2   3
ATOM      3  O   UNL A   1      37.805  22.667  24.755  1.00  0.00    -0.457 OA
BRANCH   3   4
ATOM      4  C   UNL A   1      36.636  22.910  24.094  1.00  0.00     0.368 C 
ATOM      5  O   UNL A   1      36.485  22.728  22.893  1.00  0.00    -0.245 OA
BRANCH   4   6
ATOM      6  C   UNL A   1      35.553  23.543  25.032  1.00  0.00     0.205 C 
ATOM      7  C   UNL A   1      36.139  23.943  26.393  1.00  0.00     0.093 C 
ATOM      8  N   UNL A   1      34.859  24.725  24.392  1.00  0.00    -0.313 N 
ATOM      9  C   UNL A   1      34.407  22.592  25.229  1.00  0.00     0.172 C 
ATOM     10  C   UNL A   1      33.462  24.296  23.992  1.00  0.00     0.237 C 
ATOM     11  H   UNL A   1      35.378  25.024  23.566  1.00  0.00     0.348 HD
ATOM     12  H   UNL A   1      34.812  25.504  25.049  1.00  0.00     0.348 HD
ATOM     13  C   UNL A   1      33.581  22.808  23.978  1.00  0.00     0.177 C 
ATOM     14  C   UNL A   1      34.527  21.116  25.260  1.00  0.00     0.244 C 
ATOM     15  C   UNL A   1      32.435  24.918  24.936  1.00  0.00     0.232 C 
ATOM     16  C   UNL A   1      33.102  24.907  22.637  1.00  0.00     0.232 C 
ATOM     17  C   UNL A   1      32.592  21.706  24.142  1.00  0.00     0.245 C 
ATOM     18  N   UNL A   1      33.336  20.664  24.700  1.00  0.00    -0.250 N 
ATOM     19  O   UNL A   1      35.460  20.503  25.731  1.00  0.00    -0.273 OA
ATOM     20  O   UNL A   1      32.306  24.719  26.130  1.00  0.00    -0.286 OA
ATOM     21  C   UNL A   1      31.659  25.904  24.186  1.00  0.00     0.036 A 
ATOM     22  C   UNL A   1      32.054  25.908  22.855  1.00  0.00     0.036 A 
ATOM     23  O   UNL A   1      33.545  24.628  21.536  1.00  0.00    -0.286 OA
ATOM     24  O   UNL A   1      31.445  21.730  23.728  1.00  0.00    -0.273 OA
ATOM     25  C   UNL A   1      30.683  26.761  24.662  1.00  0.00     0.013 A 
ATOM     26  C   UNL A   1      31.481  26.767  21.935  1.00  0.00     0.013 A 
ATOM     27  C   UNL A   1      30.091  27.635  23.746  1.00  0.00     0.001 A 
ATOM     28  C   UNL A   1      30.486  27.637  22.394  1.00  0.00     0.001 A 
BRANCH  18  29
ATOM     29  C   UNL A   1      33.081  19.288  24.560  1.00  0.00     0.052 A 
ATOM     30  C   UNL A   1      32.806  18.505  25.691  1.00  0.00     0.027 A 
ATOM     31  C   UNL A   1      33.287  18.660  23.328  1.00  0.00     0.027 A 
ATOM     32  C   UNL A   1      32.766  17.116  25.602  1.00  0.00     0.002 A 
ATOM     33  C   UNL A   1      33.291  17.264  23.250  1.00  0.00     0.002 A 
ATOM     34  C   UNL A   1      33.031  16.495  24.385  1.00  0.00     0.000 A 
ENDBRANCH  18  29
ENDBRANCH   4   6
ENDBRANCH   3   4
ENDBRANCH   2   3
ENDBRANCH   1   2
BRANCH   1  35
ATOM     35  O   UNL A   1      39.844  19.861  26.067  1.00  0.00    -0.458 OA
BRANCH  35  36
ATOM     36  C   UNL A   1      41.196  19.808  26.086  1.00  0.00     0.338 C 
ATOM     37  O   UNL A   1      41.914  18.914  25.673  1.00  0.00    -0.246 OA
BRANCH  36  38
ATOM     38  C   UNL A   1      41.715  21.108  26.524  1.00  0.00     0.060 A 
ATOM     39  C   UNL A   1      41.995  21.387  27.856  1.00  0.00     0.016 A 
ATOM     40  C   UNL A   1      41.970  22.057  25.536  1.00  0.00     0.016 A 
ATOM     41  C   UNL A   1      42.517  22.641  28.183  1.00  0.00     0.010 A 
ATOM     42  C   UNL A   1      42.513  23.292  25.850  1.00  0.00     0.010 A 
ATOM     43  C   UNL A   1      42.781  23.600  27.182  1.00  0.00    -0.014 A 
BRANCH  43  44
ATOM     44  C   UNL A   1      43.395  24.904  27.517  1.00  0.00     0.031 A 
ATOM     45  C   UNL A   1      44.856  25.152  27.271  1.00  0.00     0.074 A 
ATOM     46  C   UNL A   1      42.618  25.848  28.082  1.00  0.00     0.049 A 
ATOM     47  N   UNL A   1      45.524  26.269  27.395  1.00  0.00    -0.248 NA
ATOM     48  C   UNL A   1      45.682  24.006  26.854  1.00  0.00     0.031 C 
ATOM     49  C   UNL A   1      41.213  25.660  28.450  1.00  0.00     0.029 A 
ATOM     50  N   UNL A   1      42.882  27.147  28.424  1.00  0.00    -0.354 N 
ATOM     51  C   UNL A   1      46.836  25.966  27.054  1.00  0.00     0.074 A 
ATOM     52  C   UNL A   1      46.892  24.546  26.795  1.00  0.00     0.031 C 
ATOM     53  C   UNL A   1      40.719  26.822  28.897  1.00  0.00     0.029 A 
ATOM     54  C   UNL A   1      41.778  27.828  28.882  1.00  0.00     0.049 A 
ATOM     55  H   UNL A   1      43.775  27.555  28.349  1.00  0.00     0.167 HD
ATOM     56  C   UNL A   1      47.886  26.811  26.931  1.00  0.00     0.031 A 
ATOM     57  C   UNL A   1      41.624  29.123  29.220  1.00  0.00     0.031 A 
ATOM     58  C   UNL A   1      47.795  28.226  27.188  1.00  0.00     0.049 A 
ATOM     59  C   UNL A   1      42.796  30.049  29.053  1.00  0.00     0.074 A 
ATOM     60  C   UNL A   1      48.774  29.189  27.031  1.00  0.00     0.029 A 
ATOM     61  N   UNL A   1      46.660  28.879  27.653  1.00  0.00    -0.354 N 
ATOM     62  N   UNL A   1      44.003  29.773  28.619  1.00  0.00    -0.248 NA
ATOM     63  C   UNL A   1      42.587  31.462  29.393  1.00  0.00     0.031 C 
ATOM     64  C   UNL A   1      48.257  30.408  27.474  1.00  0.00     0.029 A 
ATOM     65  C   UNL A   1      46.927  30.226  27.819  1.00  0.00     0.049 A 
ATOM     66  H   UNL A   1      45.795  28.447  27.837  1.00  0.00     0.167 HD
ATOM     67  C   UNL A   1      44.693  30.978  28.614  1.00  0.00     0.074 A 
ATOM     68  C   UNL A   1      43.760  31.991  29.066  1.00  0.00     0.031 C 
ATOM     69  C   UNL A   1      45.981  31.222  28.268  1.00  0.00     0.031 A 
BRANCH  56  70
ATOM     70  C   UNL A   1      49.210  26.263  26.455  1.00  0.00    -0.014 A 
ATOM     71  C   UNL A   1      50.093  25.653  27.366  1.00  0.00     0.010 A 
ATOM     72  C   UNL A   1      49.644  26.481  25.134  1.00  0.00     0.010 A 
ATOM     73  C   UNL A   1      51.394  25.315  26.979  1.00  0.00     0.020 A 
ATOM     74  C   UNL A   1      50.932  26.113  24.733  1.00  0.00     0.020 A 
ATOM     75  C   UNL A   1      51.809  25.560  25.668  1.00  0.00     0.054 A 
BRANCH  75  76
ATOM     76  S   UNL A   1      53.520  25.174  25.204  1.00  0.00     0.124 S 
ATOM     77  O   UNL A   1      53.572  23.726  25.390  1.00  0.00    -0.237 OA
ATOM     78  O   UNL A   1      53.586  25.634  23.819  1.00  0.00    -0.237 OA
ATOM     79  O   UNL A   1      54.318  25.953  26.148  1.00  0.00    -0.744 OA
ENDBRANCH  75  76
ENDBRANCH  56  70
BRANCH  57  80
ATOM     80  C   UNL A   1      40.279  29.603  29.648  1.00  0.00    -0.014 A 
ATOM     81  C   UNL A   1      39.341  30.040  28.693  1.00  0.00     0.010 A 
ATOM     82  C   UNL A   1      39.975  29.744  31.013  1.00  0.00     0.010 A 
ATOM     83  C   UNL A   1      38.159  30.671  29.093  1.00  0.00     0.020 A 
ATOM     84  C   UNL A   1      38.776  30.343  31.419  1.00  0.00     0.020 A 
ATOM     85  C   UNL A   1      37.893  30.834  30.454  1.00  0.00     0.054 A 
BRANCH  85  86
ATOM     86  S   UNL A   1      36.393  31.728  30.945  1.00  0.00     0.124 S 
ATOM     87  O   UNL A   1      36.002  31.014  32.158  1.00  0.00    -0.237 OA
ATOM     88  O   UNL A   1      36.885  33.088  31.146  1.00  0.00    -0.237 OA
ATOM     89  O   UNL A   1      35.499  31.553  29.803  1.00  0.00    -0.744 OA
ENDBRANCH  85  86
ENDBRANCH  57  80
BRANCH  69  90
ATOM     90  C   UNL A   1      46.489  32.638  28.363  1.00  0.00    -0.014 A 
ATOM     91  C   UNL A   1      46.444  33.471  27.228  1.00  0.00     0.010 A 
ATOM     92  C   UNL A   1      47.155  33.087  29.517  1.00  0.00     0.010 A 
ATOM     93  C   UNL A   1      47.103  34.703  27.227  1.00  0.00     0.020 A 
ATOM     94  C   UNL A   1      47.784  34.335  29.531  1.00  0.00     0.020 A 
ATOM     95  C   UNL A   1      47.779  35.120  28.375  1.00  0.00     0.054 A 
BRANCH  95  96
ATOM     96  S   UNL A   1      48.682  36.693  28.331  1.00  0.00     0.124 S 
ATOM     97  O   UNL A   1      49.797  36.381  27.442  1.00  0.00    -0.237 OA
ATOM     98  O   UNL A   1      47.687  37.617  27.795  1.00  0.00    -0.237 OA
ATOM     99  O   UNL A   1      49.043  36.920  29.729  1.00  0.00    -0.744 OA
ENDBRANCH  95  96
ENDBRANCH  69  90
ENDBRANCH  43  44
ENDBRANCH  36  38
ENDBRANCH  35  36
ENDBRANCH   1  35
TORSDOF 15
ENDMDL
MODEL 2
REMARK VINA RESULT:     -13.0      5.628     11.519
REMARK SMILES C[C@]1(C(=O)OCCOC(=O)c2ccc(-c3c4nc(c(-c5ccc(S(=O)(=O)[O-])cc5)c5ccc([nH]5)c(-c5ccc(S(=O)(=O)[O-])cc5)c5nc(c(-c6ccc(S(=O)(=O)[O-])cc6)c6ccc3[nH]6)C=C5)C=C4)cc2)[NH2+]C2(C(=O)c3ccccc3C2=O)[C@@H]2C(=O)N(c3ccccc3)C(=O)[C@H]21
REMARK SMILES IDX 7 1 6 2 5 3 3 4 4 5 2 6 1 7 71 8 95 9 72 10 83 13 93 14
REMARK SMILES IDX 73 15 81 16 84 17 86 18 94 19 74 20 75 21 80 22 82 23 85 24
REMARK SMILES IDX 76 25 79 26 77 27 78 28 87 29 88 30 92 31 89 32 91 33 90 34
REMARK SMILES IDX 8 35 9 36 10 37 11 38 12 39 70 40 13 41 69 42 14 43 15 44
REMARK SMILES IDX 16 45 63 46 17 47 68 48 62 49 64 50 18 51 67 52 61 53 60 54
REMARK SMILES IDX 19 56 49 57 30 58 48 59 31 60 34 61 47 62 65 63 32 64 33 65
REMARK SMILES IDX 46 67 66 68 35 69 20 70 21 71 29 72 22 73 28 74 23 75 24 76
REMARK SMILES IDX 25 77 26 78 27 79 50 80 51 81 59 82 52 83 58 84 53 85 54 86
REMARK SMILES IDX 55 87 56 88 57 89 36 90 37 91 45 92 38 93 44 94 39 95 40 96
REMARK SMILES IDX 41 97 42 98 43 99
REMARK H PARENT 71 11 71 12 64 55 34 66
REMARK Flexibility Score: inf
ROOT
ATOM      1  C   UNL A   1      33.619  31.621  27.502  1.00  0.00     0.275 C 
ENDROOT
BRANCH   1   2
ATOM      2  C   UNL A   1      32.493  30.613  27.270  1.00  0.00     0.274 C 
BRANCH   2   3
ATOM      3  O   UNL A   1      32.850  29.300  27.741  1.00  0.00    -0.457 OA
BRANCH   3   4
ATOM      4  C   UNL A   1      32.199  28.225  27.209  1.00  0.00     0.368 C 
ATOM      5  O   UNL A   1      31.097  27.846  27.582  1.00  0.00    -0.245 OA
BRANCH   4   6
ATOM      6  C   UNL A   1      33.073  27.481  26.143  1.00  0.00     0.205 C 
ATOM      7  C   UNL A   1      34.490  28.064  26.059  1.00  0.00     0.093 C 
ATOM      8  N   UNL A   1      33.132  25.990  26.389  1.00  0.00    -0.313 N 
ATOM      9  C   UNL A   1      32.417  27.537  24.793  1.00  0.00     0.172 C 
ATOM     10  C   UNL A   1      32.271  25.302  25.350  1.00  0.00     0.237 C 
ATOM     11  H   UNL A   1      32.781  25.780  27.323  1.00  0.00     0.348 HD
ATOM     12  H   UNL A   1      34.096  25.660  26.321  1.00  0.00     0.348 HD
ATOM     13  C   UNL A   1      31.400  26.417  24.874  1.00  0.00     0.177 C 
ATOM     14  C   UNL A   1      31.588  28.660  24.300  1.00  0.00     0.244 C 
ATOM     15  C   UNL A   1      33.155  24.601  24.320  1.00  0.00     0.232 C 
ATOM     16  C   UNL A   1      31.507  24.145  25.996  1.00  0.00     0.232 C 
ATOM     17  C   UNL A   1      30.662  26.661  23.603  1.00  0.00     0.245 C 
ATOM     18  N   UNL A   1      30.632  28.053  23.491  1.00  0.00    -0.250 N 
ATOM     19  O   UNL A   1      31.787  29.831  24.543  1.00  0.00    -0.273 OA
ATOM     20  O   UNL A   1      33.935  25.114  23.538  1.00  0.00    -0.286 OA
ATOM     21  C   UNL A   1      32.996  23.157  24.484  1.00  0.00     0.036 A 
ATOM     22  C   UNL A   1      32.050  22.891  25.465  1.00  0.00     0.036 A 
ATOM     23  O   UNL A   1      30.582  24.194  26.788  1.00  0.00    -0.286 OA
ATOM     24  O   UNL A   1      30.112  25.799  22.940  1.00  0.00    -0.273 OA
ATOM     25  C   UNL A   1      33.667  22.146  23.821  1.00  0.00     0.013 A 
ATOM     26  C   UNL A   1      31.727  21.595  25.822  1.00  0.00     0.013 A 
ATOM     27  C   UNL A   1      33.351  20.829  24.167  1.00  0.00     0.001 A 
ATOM     28  C   UNL A   1      32.389  20.556  25.158  1.00  0.00     0.001 A 
BRANCH  18  29
ATOM     29  C   UNL A   1      29.651  28.817  22.835  1.00  0.00     0.052 A 
ATOM     30  C   UNL A   1      30.030  29.824  21.934  1.00  0.00     0.027 A 
ATOM     31  C   UNL A   1      28.309  28.710  23.215  1.00  0.00     0.027 A 
ATOM     32  C   UNL A   1      29.092  30.728  21.443  1.00  0.00     0.002 A 
ATOM     33  C   UNL A   1      27.379  29.646  22.756  1.00  0.00     0.002 A 
ATOM     34  C   UNL A   1      27.770  30.652  21.872  1.00  0.00     0.000 A 
ENDBRANCH  18  29
ENDBRANCH   4   6
ENDBRANCH   3   4
ENDBRANCH   2   3
ENDBRANCH   1   2
BRANCH   1  35
ATOM     35  O   UNL A   1      33.191  32.957  27.193  1.00  0.00    -0.458 OA
BRANCH  35  36
ATOM     36  C   UNL A   1      33.347  33.848  28.201  1.00  0.00     0.338 C 
ATOM     37  O   UNL A   1      32.608  34.767  28.504  1.00  0.00    -0.246 OA
BRANCH  36  38
ATOM     38  C   UNL A   1      34.484  33.432  29.029  1.00  0.00     0.060 A 
ATOM     39  C   UNL A   1      34.336  32.607  30.137  1.00  0.00     0.016 A 
ATOM     40  C   UNL A   1      35.750  33.858  28.631  1.00  0.00     0.016 A 
ATOM     41  C   UNL A   1      35.476  32.232  30.851  1.00  0.00     0.010 A 
ATOM     42  C   UNL A   1      36.888  33.468  29.319  1.00  0.00     0.010 A 
ATOM     43  C   UNL A   1      36.758  32.659  30.446  1.00  0.00    -0.014 A 
BRANCH  43  44
ATOM     44  C   UNL A   1      37.974  32.210  31.161  1.00  0.00     0.031 A 
ATOM     45  C   UNL A   1      38.365  32.824  32.475  1.00  0.00     0.074 A 
ATOM     46  C   UNL A   1      38.738  31.262  30.585  1.00  0.00     0.049 A 
ATOM     47  N   UNL A   1      39.326  32.467  33.286  1.00  0.00    -0.248 NA
ATOM     48  C   UNL A   1      37.602  33.998  32.933  1.00  0.00     0.031 C 
ATOM     49  C   UNL A   1      38.490  30.681  29.264  1.00  0.00     0.029 A 
ATOM     50  N   UNL A   1      39.854  30.607  31.034  1.00  0.00    -0.354 N 
ATOM     51  C   UNL A   1      39.271  33.355  34.353  1.00  0.00     0.074 A 
ATOM     52  C   UNL A   1      38.235  34.317  34.053  1.00  0.00     0.031 C 
ATOM     53  C   UNL A   1      39.381  29.706  29.041  1.00  0.00     0.029 A 
ATOM     54  C   UNL A   1      40.285  29.615  30.184  1.00  0.00     0.049 A 
ATOM     55  H   UNL A   1      40.304  30.826  31.882  1.00  0.00     0.167 HD
ATOM     56  C   UNL A   1      39.995  33.337  35.496  1.00  0.00     0.031 A 
ATOM     57  C   UNL A   1      41.275  28.711  30.323  1.00  0.00     0.031 A 
ATOM     58  C   UNL A   1      41.015  32.356  35.769  1.00  0.00     0.049 A 
ATOM     59  C   UNL A   1      42.051  28.693  31.610  1.00  0.00     0.074 A 
ATOM     60  C   UNL A   1      41.765  32.199  36.919  1.00  0.00     0.029 A 
ATOM     61  N   UNL A   1      41.425  31.368  34.884  1.00  0.00    -0.354 N 
ATOM     62  N   UNL A   1      41.912  29.466  32.662  1.00  0.00    -0.248 NA
ATOM     63  C   UNL A   1      43.097  27.672  31.747  1.00  0.00     0.031 C 
ATOM     64  C   UNL A   1      42.681  31.168  36.702  1.00  0.00     0.029 A 
ATOM     65  C   UNL A   1      42.441  30.619  35.451  1.00  0.00     0.049 A 
ATOM     66  H   UNL A   1      41.050  31.222  33.985  1.00  0.00     0.167 HD
ATOM     67  C   UNL A   1      42.837  29.013  33.593  1.00  0.00     0.074 A 
ATOM     68  C   UNL A   1      43.515  27.883  32.990  1.00  0.00     0.031 C 
ATOM     69  C   UNL A   1      43.102  29.492  34.833  1.00  0.00     0.031 A 
BRANCH  56  70
ATOM     70  C   UNL A   1      39.694  34.361  36.565  1.00  0.00    -0.014 A 
ATOM     71  C   UNL A   1      40.354  35.604  36.561  1.00  0.00     0.010 A 
ATOM     72  C   UNL A   1      38.866  34.037  37.656  1.00  0.00     0.010 A 
ATOM     73  C   UNL A   1      40.230  36.480  37.644  1.00  0.00     0.020 A 
ATOM     74  C   UNL A   1      38.710  34.925  38.725  1.00  0.00     0.020 A 
ATOM     75  C   UNL A   1      39.418  36.128  38.725  1.00  0.00     0.054 A 
BRANCH  75  76
ATOM     76  S   UNL A   1      39.320  37.249  40.149  1.00  0.00     0.124 S 
ATOM     77  O   UNL A   1      40.728  37.507  40.437  1.00  0.00    -0.237 OA
ATOM     78  O   UNL A   1      38.568  38.381  39.612  1.00  0.00    -0.237 OA
ATOM     79  O   UNL A   1      38.611  36.464  41.158  1.00  0.00    -0.744 OA
ENDBRANCH  75  76
ENDBRANCH  56  70
BRANCH  57  80
ATOM     80  C   UNL A   1      41.492  27.708  29.243  1.00  0.00    -0.014 A 
ATOM     81  C   UNL A   1      40.618  26.613  29.100  1.00  0.00     0.010 A 
ATOM     82  C   UNL A   1      42.639  27.770  28.433  1.00  0.00     0.010 A 
ATOM     83  C   UNL A   1      40.922  25.568  28.223  1.00  0.00     0.020 A 
ATOM     84  C   UNL A   1      42.930  26.744  27.527  1.00  0.00     0.020 A 
ATOM     85  C   UNL A   1      42.087  25.633  27.454  1.00  0.00     0.054 A 
BRANCH  85  86
ATOM     86  S   UNL A   1      42.500  24.228  26.384  1.00  0.00     0.124 S 
ATOM     87  O   UNL A   1      42.759  24.889  25.108  1.00  0.00    -0.237 OA
ATOM     88  O   UNL A   1      43.671  23.658  27.045  1.00  0.00    -0.237 OA
ATOM     89  O   UNL A   1      41.299  23.398  26.425  1.00  0.00    -0.744 OA
ENDBRANCH  85  86
ENDBRANCH  57  80
BRANCH  69  90
ATOM     90  C   UNL A   1      44.176  28.814  35.646  1.00  0.00    -0.014 A 
ATOM     91  C   UNL A   1      43.828  27.774  36.529  1.00  0.00     0.010 A 
ATOM     92  C   UNL A   1      45.491  29.313  35.657  1.00  0.00     0.010 A 
ATOM     93  C   UNL A   1      44.760  27.282  37.446  1.00  0.00     0.020 A 
ATOM     94  C   UNL A   1      46.436  28.797  36.548  1.00  0.00     0.020 A 
ATOM     95  C   UNL A   1      46.054  27.807  37.458  1.00  0.00     0.054 A 
BRANCH  95  96
ATOM     96  S   UNL A   1      47.229  27.200  38.699  1.00  0.00     0.124 S 
ATOM     97  O   UNL A   1      46.434  26.208  39.415  1.00  0.00    -0.237 OA
ATOM     98  O   UNL A   1      48.313  26.667  37.878  1.00  0.00    -0.237 OA
ATOM     99  O   UNL A   1      47.569  28.398  39.464  1.00  0.00    -0.744 OA
ENDBRANCH  95  96
ENDBRANCH  69  90
ENDBRANCH  43  44
ENDBRANCH  36  38
ENDBRANCH  35  36
ENDBRANCH   1  35
TORSDOF 15
ENDMDL
MODEL 3
REMARK VINA RESULT:     -12.9      1.545      2.208
REMARK SMILES C[C@]1(C(=O)OCCOC(=O)c2ccc(-c3c4nc(c(-c5ccc(S(=O)(=O)[O-])cc5)c5ccc([nH]5)c(-c5ccc(S(=O)(=O)[O-])cc5)c5nc(c(-c6ccc(S(=O)(=O)[O-])cc6)c6ccc3[nH]6)C=C5)C=C4)cc2)[NH2+]C2(C(=O)c3ccccc3C2=O)[C@@H]2C(=O)N(c3ccccc3)C(=O)[C@H]21
REMARK SMILES IDX 7 1 6 2 5 3 3 4 4 5 2 6 1 7 71 8 95 9 72 10 83 13 93 14
REMARK SMILES IDX 73 15 81 16 84 17 86 18 94 19 74 20 75 21 80 22 82 23 85 24
REMARK SMILES IDX 76 25 79 26 77 27 78 28 87 29 88 30 92 31 89 32 91 33 90 34
REMARK SMILES IDX 8 35 9 36 10 37 11 38 12 39 70 40 13 41 69 42 14 43 15 44
REMARK SMILES IDX 16 45 63 46 17 47 68 48 62 49 64 50 18 51 67 52 61 53 60 54
REMARK SMILES IDX 19 56 49 57 30 58 48 59 31 60 34 61 47 62 65 63 32 64 33 65
REMARK SMILES IDX 46 67 66 68 35 69 20 70 21 71 29 72 22 73 28 74 23 75 24 76
REMARK SMILES IDX 25 77 26 78 27 79 50 80 51 81 59 82 52 83 58 84 53 85 54 86
REMARK SMILES IDX 55 87 56 88 57 89 36 90 37 91 45 92 38 93 44 94 39 95 40 96
REMARK SMILES IDX 41 97 42 98 43 99
REMARK H PARENT 71 11 71 12 64 55 34 66
REMARK Flexibility Score: inf
ROOT
ATOM      1  C   UNL A   1      39.074  20.555  25.564  1.00  0.00     0.275 C 
ENDROOT
BRANCH   1   2
ATOM      2  C   UNL A   1      37.971  20.944  24.579  1.00  0.00     0.274 C 
BRANCH   2   3
ATOM      3  O   UNL A   1      37.700  22.359  24.618  1.00  0.00    -0.457 OA
BRANCH   3   4
ATOM      4  C   UNL A   1      36.599  22.822  23.958  1.00  0.00     0.368 C 
ATOM      5  O   UNL A   1      36.482  22.807  22.740  1.00  0.00    -0.245 OA
BRANCH   4   6
ATOM      6  C   UNL A   1      35.558  23.465  24.936  1.00  0.00     0.205 C 
ATOM      7  C   UNL A   1      36.198  23.859  26.274  1.00  0.00     0.093 C 
ATOM      8  N   UNL A   1      34.853  24.655  24.321  1.00  0.00    -0.313 N 
ATOM      9  C   UNL A   1      34.410  22.526  25.174  1.00  0.00     0.172 C 
ATOM     10  C   UNL A   1      33.438  24.240  23.973  1.00  0.00     0.237 C 
ATOM     11  H   UNL A   1      35.344  24.949  23.477  1.00  0.00     0.348 HD
ATOM     12  H   UNL A   1      34.839  25.434  24.980  1.00  0.00     0.348 HD
ATOM     13  C   UNL A   1      33.541  22.751  23.955  1.00  0.00     0.177 C 
ATOM     14  C   UNL A   1      34.515  21.050  25.200  1.00  0.00     0.244 C 
ATOM     15  C   UNL A   1      32.452  24.873  24.953  1.00  0.00     0.232 C 
ATOM     16  C   UNL A   1      33.035  24.856  22.632  1.00  0.00     0.232 C 
ATOM     17  C   UNL A   1      32.547  21.660  24.154  1.00  0.00     0.245 C 
ATOM     18  N   UNL A   1      33.300  20.610  24.685  1.00  0.00    -0.250 N 
ATOM     19  O   UNL A   1      35.459  20.427  25.637  1.00  0.00    -0.273 OA
ATOM     20  O   UNL A   1      32.366  24.674  26.152  1.00  0.00    -0.286 OA
ATOM     21  C   UNL A   1      31.660  25.868  24.233  1.00  0.00     0.036 A 
ATOM     22  C   UNL A   1      32.006  25.868  22.888  1.00  0.00     0.036 A 
ATOM     23  O   UNL A   1      33.434  24.573  21.516  1.00  0.00    -0.286 OA
ATOM     24  O   UNL A   1      31.387  21.696  23.782  1.00  0.00    -0.273 OA
ATOM     25  C   UNL A   1      30.711  26.734  24.745  1.00  0.00     0.013 A 
ATOM     26  C   UNL A   1      31.409  26.733  21.990  1.00  0.00     0.013 A 
ATOM     27  C   UNL A   1      30.095  27.614  23.851  1.00  0.00     0.001 A 
ATOM     28  C   UNL A   1      30.440  27.614  22.486  1.00  0.00     0.001 A 
BRANCH  18  29
ATOM     29  C   UNL A   1      33.026  19.236  24.553  1.00  0.00     0.052 A 
ATOM     30  C   UNL A   1      32.736  18.466  25.689  1.00  0.00     0.027 A 
ATOM     31  C   UNL A   1      33.228  18.596  23.327  1.00  0.00     0.027 A 
ATOM     32  C   UNL A   1      32.676  17.077  25.610  1.00  0.00     0.002 A 
ATOM     33  C   UNL A   1      33.213  17.200  23.260  1.00  0.00     0.002 A 
ATOM     34  C   UNL A   1      32.937  16.443  24.399  1.00  0.00     0.000 A 
ENDBRANCH  18  29
ENDBRANCH   4   6
ENDBRANCH   3   4
ENDBRANCH   2   3
ENDBRANCH   1   2
BRANCH   1  35
ATOM     35  O   UNL A   1      39.408  21.652  26.429  1.00  0.00    -0.458 OA
BRANCH  35  36
ATOM     36  C   UNL A   1      40.506  21.454  27.195  1.00  0.00     0.338 C 
ATOM     37  O   UNL A   1      41.090  20.406  27.406  1.00  0.00    -0.246 OA
BRANCH  36  38
ATOM     38  C   UNL A   1      41.032  22.759  27.613  1.00  0.00     0.060 A 
ATOM     39  C   UNL A   1      41.952  22.895  28.645  1.00  0.00     0.016 A 
ATOM     40  C   UNL A   1      40.610  23.874  26.892  1.00  0.00     0.016 A 
ATOM     41  C   UNL A   1      42.427  24.171  28.956  1.00  0.00     0.010 A 
ATOM     42  C   UNL A   1      41.097  25.139  27.178  1.00  0.00     0.010 A 
ATOM     43  C   UNL A   1      42.003  25.300  28.224  1.00  0.00    -0.014 A 
BRANCH  43  44
ATOM     44  C   UNL A   1      42.554  26.644  28.508  1.00  0.00     0.031 A 
ATOM     45  C   UNL A   1      43.993  26.963  28.219  1.00  0.00     0.074 A 
ATOM     46  C   UNL A   1      41.740  27.561  29.066  1.00  0.00     0.049 A 
ATOM     47  N   UNL A   1      44.602  28.118  28.296  1.00  0.00    -0.248 NA
ATOM     48  C   UNL A   1      44.870  25.852  27.813  1.00  0.00     0.031 C 
ATOM     49  C   UNL A   1      40.356  27.309  29.473  1.00  0.00     0.029 A 
ATOM     50  N   UNL A   1      41.940  28.882  29.365  1.00  0.00    -0.354 N 
ATOM     51  C   UNL A   1      45.920  27.876  27.931  1.00  0.00     0.074 A 
ATOM     52  C   UNL A   1      46.047  26.454  27.710  1.00  0.00     0.031 C 
ATOM     53  C   UNL A   1      39.810  28.455  29.900  1.00  0.00     0.029 A 
ATOM     54  C   UNL A   1      40.812  29.516  29.831  1.00  0.00     0.049 A 
ATOM     55  H   UNL A   1      42.808  29.335  29.257  1.00  0.00     0.167 HD
ATOM     56  C   UNL A   1      46.920  28.772  27.759  1.00  0.00     0.031 A 
ATOM     57  C   UNL A   1      40.596  30.810  30.137  1.00  0.00     0.031 A 
ATOM     58  C   UNL A   1      46.757  30.187  27.979  1.00  0.00     0.049 A 
ATOM     59  C   UNL A   1      41.712  31.793  29.916  1.00  0.00     0.074 A 
ATOM     60  C   UNL A   1      47.679  31.196  27.772  1.00  0.00     0.029 A 
ATOM     61  N   UNL A   1      45.600  30.791  28.454  1.00  0.00    -0.354 N 
ATOM     62  N   UNL A   1      42.922  31.569  29.460  1.00  0.00    -0.248 NA
ATOM     63  C   UNL A   1      41.434  33.202  30.222  1.00  0.00     0.031 C 
ATOM     64  C   UNL A   1      47.108  32.398  28.194  1.00  0.00     0.029 A 
ATOM     65  C   UNL A   1      45.797  32.155  28.576  1.00  0.00     0.049 A 
ATOM     66  H   UNL A   1      44.765  30.319  28.671  1.00  0.00     0.167 HD
ATOM     67  C   UNL A   1      43.544  32.809  29.405  1.00  0.00     0.074 A 
ATOM     68  C   UNL A   1      42.569  33.783  29.852  1.00  0.00     0.031 C 
ATOM     69  C   UNL A   1      44.809  33.111  29.021  1.00  0.00     0.031 A 
BRANCH  56  70
ATOM     70  C   UNL A   1      48.260  28.282  27.266  1.00  0.00    -0.014 A 
ATOM     71  C   UNL A   1      48.465  28.040  25.895  1.00  0.00     0.010 A 
ATOM     72  C   UNL A   1      49.272  27.921  28.176  1.00  0.00     0.010 A 
ATOM     73  C   UNL A   1      49.630  27.407  25.449  1.00  0.00     0.020 A 
ATOM     74  C   UNL A   1      50.454  27.321  27.731  1.00  0.00     0.020 A 
ATOM     75  C   UNL A   1      50.611  27.040  26.373  1.00  0.00     0.054 A 
BRANCH  75  76
ATOM     76  S   UNL A   1      52.087  26.164  25.783  1.00  0.00     0.124 S 
ATOM     77  O   UNL A   1      53.163  26.878  26.463  1.00  0.00    -0.237 OA
ATOM     78  O   UNL A   1      51.849  24.797  26.240  1.00  0.00    -0.237 OA
ATOM     79  O   UNL A   1      52.038  26.344  24.333  1.00  0.00    -0.744 OA
ENDBRANCH  75  76
ENDBRANCH  56  70
BRANCH  57  80
ATOM     80  C   UNL A   1      39.238  31.229  30.585  1.00  0.00    -0.014 A 
ATOM     81  C   UNL A   1      38.287  31.682  29.650  1.00  0.00     0.010 A 
ATOM     82  C   UNL A   1      38.928  31.297  31.954  1.00  0.00     0.010 A 
ATOM     83  C   UNL A   1      37.087  32.259  30.076  1.00  0.00     0.020 A 
ATOM     84  C   UNL A   1      37.713  31.841  32.385  1.00  0.00     0.020 A 
ATOM     85  C   UNL A   1      36.816  32.350  31.443  1.00  0.00     0.054 A 
BRANCH  85  86
ATOM     86  S   UNL A   1      35.289  33.175  31.973  1.00  0.00     0.124 S 
ATOM     87  O   UNL A   1      34.314  32.635  31.029  1.00  0.00    -0.237 OA
ATOM     88  O   UNL A   1      35.146  32.723  33.354  1.00  0.00    -0.237 OA
ATOM     89  O   UNL A   1      35.592  34.595  31.813  1.00  0.00    -0.744 OA
ENDBRANCH  85  86
ENDBRANCH  57  80
BRANCH  69  90
ATOM     90  C   UNL A   1      45.242  34.555  29.065  1.00  0.00    -0.014 A 
ATOM     91  C   UNL A   1      45.705  35.106  30.275  1.00  0.00     0.010 A 
ATOM     92  C   UNL A   1      45.037  35.401  27.960  1.00  0.00     0.010 A 
ATOM     93  C   UNL A   1      45.901  36.484  30.397  1.00  0.00     0.020 A 
ATOM     94  C   UNL A   1      45.269  36.774  28.068  1.00  0.00     0.020 A 
ATOM     95  C   UNL A   1      45.669  37.310  29.295  1.00  0.00     0.054 A 
BRANCH  95  96
ATOM     96  S   UNL A   1      45.869  39.102  29.491  1.00  0.00     0.124 S 
ATOM     97  O   UNL A   1      44.567  39.604  29.061  1.00  0.00    -0.237 OA
ATOM     98  O   UNL A   1      46.157  39.236  30.917  1.00  0.00    -0.237 OA
ATOM     99  O   UNL A   1      46.985  39.422  28.604  1.00  0.00    -0.744 OA
ENDBRANCH  95  96
ENDBRANCH  69  90
ENDBRANCH  43  44
ENDBRANCH  36  38
ENDBRANCH  35  36
ENDBRANCH   1  35
TORSDOF 15
ENDMDL
