MODEL 1
REMARK VINA RESULT:      -9.9      0.000      0.000
REMARK SMILES O=C(C[C@@H]1CN(c2nc3ccccc3s2)CCO1)OCCOC(=O)c1ccc(-c2c3nc(c(-c4ccc(S(=O)(=O)[O-])cc4)c4ccc([nH]4)c(-c4ccc(S(=O)(=O)[O-])cc4)c4nc(c(-c5ccc(S(=O)(=O)[O-])cc5)c5ccc2[nH]5)C=C4)C=C3)cc1
REMARK SMILES IDX 21 1 20 2 19 3 2 4 1 5 3 6 4 7 5 8 18 9 6 10 17 11 16 12
REMARK SMILES IDX 7 13 8 14 15 15 9 16 14 17 10 18 13 19 11 20 12 21 22 22
REMARK SMILES IDX 23 23 24 24 25 25 26 26 84 27 27 28 83 29 28 30 29 31 30 32
REMARK SMILES IDX 77 33 31 34 82 35 76 36 78 37 32 38 81 39 75 40 74 41 33 43
REMARK SMILES IDX 63 44 44 45 62 46 45 47 48 48 61 49 79 50 46 51 47 52 60 54
REMARK SMILES IDX 80 55 49 56 34 57 35 58 43 59 36 60 42 61 37 62 38 63 39 64
REMARK SMILES IDX 40 65 41 66 64 67 65 68 73 69 66 70 72 71 67 72 68 73 69 74
REMARK SMILES IDX 70 75 71 76 50 77 51 78 59 79 52 80 58 81 53 82 54 83 55 84
REMARK SMILES IDX 56 85 57 86
REMARK H PARENT 78 42 48 53
REMARK Flexibility Score: inf
ROOT
ATOM      1  C   UNL A   1      33.541  28.950  25.450  1.00  0.00     0.275 C 
ENDROOT
BRANCH   1   2
ATOM      2  C   UNL A   1      32.109  28.483  25.171  1.00  0.00     0.274 C 
BRANCH   2   3
ATOM      3  O   UNL A   1      32.076  27.367  24.253  1.00  0.00    -0.462 OA
BRANCH   3   4
ATOM      4  C   UNL A   1      30.983  26.979  23.558  1.00  0.00     0.308 C 
ATOM      5  O   UNL A   1      30.366  27.784  22.864  1.00  0.00    -0.252 OA
BRANCH   4   6
ATOM      6  C   UNL A   1      30.550  25.544  23.634  1.00  0.00     0.156 C 
BRANCH   6   7
ATOM      7  C   UNL A   1      31.370  24.787  24.658  1.00  0.00     0.148 C 
ATOM      8  C   UNL A   1      31.921  23.497  24.037  1.00  0.00     0.151 C 
ATOM      9  O   UNL A   1      30.507  24.479  25.783  1.00  0.00    -0.374 OA
ATOM     10  N   UNL A   1      32.625  22.757  25.071  1.00  0.00    -0.343 N 
ATOM     11  C   UNL A   1      31.215  23.736  26.797  1.00  0.00     0.182 C 
ATOM     12  C   UNL A   1      31.836  22.433  26.250  1.00  0.00     0.147 C 
BRANCH  10  13
ATOM     13  C   UNL A   1      33.971  22.652  25.064  1.00  0.00     0.186 A 
ATOM     14  N   UNL A   1      34.776  23.641  25.365  1.00  0.00    -0.220 NA
ATOM     15  S   UNL A   1      34.771  21.171  24.670  1.00  0.00    -0.097 S 
ATOM     16  C   UNL A   1      36.062  23.166  25.547  1.00  0.00     0.084 A 
ATOM     17  C   UNL A   1      36.263  21.835  25.183  1.00  0.00     0.056 A 
ATOM     18  C   UNL A   1      37.147  23.892  26.075  1.00  0.00     0.030 A 
ATOM     19  C   UNL A   1      37.517  21.212  25.283  1.00  0.00     0.021 A 
ATOM     20  C   UNL A   1      38.391  23.270  26.222  1.00  0.00     0.002 A 
ATOM     21  C   UNL A   1      38.574  21.950  25.819  1.00  0.00     0.002 A 
ENDBRANCH  10  13
ENDBRANCH   6   7
ENDBRANCH   4   6
ENDBRANCH   3   4
ENDBRANCH   2   3
ENDBRANCH   1   2
BRANCH   1  22
ATOM     22  O   UNL A   1      33.873  28.772  26.839  1.00  0.00    -0.458 OA
BRANCH  22  23
ATOM     23  C   UNL A   1      34.308  29.878  27.494  1.00  0.00     0.338 C 
ATOM     24  O   UNL A   1      33.625  30.832  27.826  1.00  0.00    -0.246 OA
BRANCH  23  25
ATOM     25  C   UNL A   1      35.710  29.672  27.946  1.00  0.00     0.060 A 
ATOM     26  C   UNL A   1      36.735  29.894  27.017  1.00  0.00     0.016 A 
ATOM     27  C   UNL A   1      36.031  29.333  29.266  1.00  0.00     0.016 A 
ATOM     28  C   UNL A   1      38.073  29.744  27.392  1.00  0.00     0.010 A 
ATOM     29  C   UNL A   1      37.372  29.179  29.641  1.00  0.00     0.010 A 
ATOM     30  C   UNL A   1      38.398  29.355  28.698  1.00  0.00    -0.014 A 
BRANCH  30  31
ATOM     31  C   UNL A   1      39.792  28.958  29.021  1.00  0.00     0.031 A 
ATOM     32  C   UNL A   1      40.673  29.954  29.726  1.00  0.00     0.074 A 
ATOM     33  C   UNL A   1      40.268  27.734  28.725  1.00  0.00     0.049 A 
ATOM     34  N   UNL A   1      41.901  29.816  30.155  1.00  0.00    -0.248 NA
ATOM     35  C   UNL A   1      40.090  31.281  29.981  1.00  0.00     0.031 C 
ATOM     36  C   UNL A   1      39.519  26.667  28.062  1.00  0.00     0.029 A 
ATOM     37  N   UNL A   1      41.507  27.186  28.951  1.00  0.00    -0.354 N 
ATOM     38  C   UNL A   1      42.233  31.032  30.741  1.00  0.00     0.074 A 
ATOM     39  C   UNL A   1      41.093  31.908  30.575  1.00  0.00     0.031 C 
ATOM     40  C   UNL A   1      40.316  25.590  27.935  1.00  0.00     0.029 A 
ATOM     41  C   UNL A   1      41.635  25.896  28.493  1.00  0.00     0.049 A 
ATOM     42  H   UNL A   1      42.236  27.671  29.399  1.00  0.00     0.167 HD
ATOM     43  C   UNL A   1      43.374  31.388  31.375  1.00  0.00     0.031 A 
ATOM     44  C   UNL A   1      42.692  25.060  28.518  1.00  0.00     0.031 A 
ATOM     45  C   UNL A   1      44.524  30.537  31.518  1.00  0.00     0.049 A 
ATOM     46  C   UNL A   1      43.983  25.506  29.161  1.00  0.00     0.074 A 
ATOM     47  C   UNL A   1      45.722  30.810  32.155  1.00  0.00     0.029 A 
ATOM     48  N   UNL A   1      44.625  29.254  31.006  1.00  0.00    -0.354 N 
ATOM     49  N   UNL A   1      44.259  26.640  29.760  1.00  0.00    -0.248 NA
ATOM     50  C   UNL A   1      45.100  24.549  29.141  1.00  0.00     0.031 C 
ATOM     51  C   UNL A   1      46.567  29.708  31.984  1.00  0.00     0.029 A 
ATOM     52  C   UNL A   1      45.875  28.730  31.289  1.00  0.00     0.049 A 
ATOM     53  H   UNL A   1      43.913  28.783  30.515  1.00  0.00     0.167 HD
ATOM     54  C   UNL A   1      45.569  26.518  30.218  1.00  0.00     0.074 A 
ATOM     55  C   UNL A   1      46.027  25.200  29.832  1.00  0.00     0.031 C 
ATOM     56  C   UNL A   1      46.322  27.415  30.902  1.00  0.00     0.031 A 
BRANCH  43  57
ATOM     57  C   UNL A   1      43.436  32.781  31.939  1.00  0.00    -0.014 A 
ATOM     58  C   UNL A   1      43.963  33.843  31.181  1.00  0.00     0.010 A 
ATOM     59  C   UNL A   1      42.954  33.033  33.235  1.00  0.00     0.010 A 
ATOM     60  C   UNL A   1      44.048  35.125  31.728  1.00  0.00     0.020 A 
ATOM     61  C   UNL A   1      43.015  34.320  33.776  1.00  0.00     0.020 A 
ATOM     62  C   UNL A   1      43.580  35.353  33.026  1.00  0.00     0.054 A 
BRANCH  62  63
ATOM     63  S   UNL A   1      43.700  37.027  33.712  1.00  0.00     0.124 S 
ATOM     64  O   UNL A   1      43.677  37.849  32.505  1.00  0.00    -0.237 OA
ATOM     65  O   UNL A   1      42.511  37.117  34.555  1.00  0.00    -0.237 OA
ATOM     66  O   UNL A   1      44.971  37.016  34.433  1.00  0.00    -0.744 OA
ENDBRANCH  62  63
ENDBRANCH  43  57
BRANCH  44  67
ATOM     67  C   UNL A   1      42.587  23.701  27.918  1.00  0.00    -0.014 A 
ATOM     68  C   UNL A   1      42.916  23.487  26.568  1.00  0.00     0.010 A 
ATOM     69  C   UNL A   1      42.126  22.619  28.689  1.00  0.00     0.010 A 
ATOM     70  C   UNL A   1      42.765  22.221  25.993  1.00  0.00     0.020 A 
ATOM     71  C   UNL A   1      41.997  21.346  28.125  1.00  0.00     0.020 A 
ATOM     72  C   UNL A   1      42.303  21.159  26.776  1.00  0.00     0.054 A 
BRANCH  72  73
ATOM     73  S   UNL A   1      42.143  19.516  26.019  1.00  0.00     0.124 S 
ATOM     74  O   UNL A   1      42.993  19.642  24.839  1.00  0.00    -0.237 OA
ATOM     75  O   UNL A   1      42.645  18.634  27.069  1.00  0.00    -0.237 OA
ATOM     76  O   UNL A   1      40.712  19.403  25.751  1.00  0.00    -0.744 OA
ENDBRANCH  72  73
ENDBRANCH  44  67
BRANCH  56  77
ATOM     77  C   UNL A   1      47.708  26.996  31.318  1.00  0.00    -0.014 A 
ATOM     78  C   UNL A   1      48.833  27.311  30.536  1.00  0.00     0.010 A 
ATOM     79  C   UNL A   1      47.891  26.328  32.544  1.00  0.00     0.010 A 
ATOM     80  C   UNL A   1      50.113  26.940  30.959  1.00  0.00     0.020 A 
ATOM     81  C   UNL A   1      49.171  25.978  32.981  1.00  0.00     0.020 A 
ATOM     82  C   UNL A   1      50.274  26.273  32.178  1.00  0.00     0.054 A 
BRANCH  82  83
ATOM     83  S   UNL A   1      51.949  25.842  32.728  1.00  0.00     0.124 S 
ATOM     84  O   UNL A   1      52.358  27.053  33.433  1.00  0.00    -0.237 OA
ATOM     85  O   UNL A   1      51.721  24.671  33.570  1.00  0.00    -0.237 OA
ATOM     86  O   UNL A   1      52.664  25.575  31.482  1.00  0.00    -0.744 OA
ENDBRANCH  82  83
ENDBRANCH  56  77
ENDBRANCH  30  31
ENDBRANCH  23  25
ENDBRANCH  22  23
ENDBRANCH   1  22
TORSDOF 16
ENDMDL
MODEL 2
REMARK VINA RESULT:      -9.9      3.280      9.352
REMARK SMILES O=C(C[C@@H]1CN(c2nc3ccccc3s2)CCO1)OCCOC(=O)c1ccc(-c2c3nc(c(-c4ccc(S(=O)(=O)[O-])cc4)c4ccc([nH]4)c(-c4ccc(S(=O)(=O)[O-])cc4)c4nc(c(-c5ccc(S(=O)(=O)[O-])cc5)c5ccc2[nH]5)C=C4)C=C3)cc1
REMARK SMILES IDX 21 1 20 2 19 3 2 4 1 5 3 6 4 7 5 8 18 9 6 10 17 11 16 12
REMARK SMILES IDX 7 13 8 14 15 15 9 16 14 17 10 18 13 19 11 20 12 21 22 22
REMARK SMILES IDX 23 23 24 24 25 25 26 26 84 27 27 28 83 29 28 30 29 31 30 32
REMARK SMILES IDX 77 33 31 34 82 35 76 36 78 37 32 38 81 39 75 40 74 41 33 43
REMARK SMILES IDX 63 44 44 45 62 46 45 47 48 48 61 49 79 50 46 51 47 52 60 54
REMARK SMILES IDX 80 55 49 56 34 57 35 58 43 59 36 60 42 61 37 62 38 63 39 64
REMARK SMILES IDX 40 65 41 66 64 67 65 68 73 69 66 70 72 71 67 72 68 73 69 74
REMARK SMILES IDX 70 75 71 76 50 77 51 78 59 79 52 80 58 81 53 82 54 83 55 84
REMARK SMILES IDX 56 85 57 86
REMARK H PARENT 78 42 48 53
REMARK Flexibility Score: inf
ROOT
ATOM      1  C   UNL A   1      37.759  21.148  24.925  1.00  0.00     0.275 C 
ENDROOT
BRANCH   1   2
ATOM      2  C   UNL A   1      36.266  20.875  25.128  1.00  0.00     0.274 C 
BRANCH   2   3
ATOM      3  O   UNL A   1      35.445  21.892  24.509  1.00  0.00    -0.462 OA
BRANCH   3   4
ATOM      4  C   UNL A   1      34.105  21.991  24.661  1.00  0.00     0.308 C 
ATOM      5  O   UNL A   1      33.346  21.311  23.973  1.00  0.00    -0.252 OA
BRANCH   4   6
ATOM      6  C   UNL A   1      33.562  22.929  25.699  1.00  0.00     0.156 C 
BRANCH   6   7
ATOM      7  C   UNL A   1      33.598  24.360  25.202  1.00  0.00     0.148 C 
ATOM      8  C   UNL A   1      32.476  25.171  25.862  1.00  0.00     0.151 C 
ATOM      9  O   UNL A   1      33.426  24.337  23.761  1.00  0.00    -0.374 OA
ATOM     10  N   UNL A   1      32.486  26.509  25.296  1.00  0.00    -0.343 N 
ATOM     11  C   UNL A   1      33.427  25.672  23.213  1.00  0.00     0.182 C 
ATOM     12  C   UNL A   1      32.347  26.573  23.849  1.00  0.00     0.147 C 
BRANCH  10  13
ATOM     13  C   UNL A   1      32.896  27.573  26.020  1.00  0.00     0.186 A 
ATOM     14  N   UNL A   1      34.075  27.653  26.585  1.00  0.00    -0.220 NA
ATOM     15  S   UNL A   1      31.892  28.960  26.255  1.00  0.00    -0.097 S 
ATOM     16  C   UNL A   1      34.311  28.949  27.005  1.00  0.00     0.084 A 
ATOM     17  C   UNL A   1      33.216  29.808  26.934  1.00  0.00     0.056 A 
ATOM     18  C   UNL A   1      35.540  29.461  27.465  1.00  0.00     0.030 A 
ATOM     19  C   UNL A   1      33.285  31.148  27.347  1.00  0.00     0.021 A 
ATOM     20  C   UNL A   1      35.635  30.806  27.837  1.00  0.00     0.002 A 
ATOM     21  C   UNL A   1      34.517  31.634  27.789  1.00  0.00     0.002 A 
ENDBRANCH  10  13
ENDBRANCH   6   7
ENDBRANCH   4   6
ENDBRANCH   3   4
ENDBRANCH   2   3
ENDBRANCH   1   2
BRANCH   1  22
ATOM     22  O   UNL A   1      38.207  22.204  25.795  1.00  0.00    -0.458 OA
BRANCH  22  23
ATOM     23  C   UNL A   1      39.436  22.041  26.347  1.00  0.00     0.338 C 
ATOM     24  O   UNL A   1      40.145  21.055  26.244  1.00  0.00    -0.246 OA
BRANCH  23  25
ATOM     25  C   UNL A   1      39.898  23.331  26.927  1.00  0.00     0.060 A 
ATOM     26  C   UNL A   1      39.343  24.512  26.419  1.00  0.00     0.016 A 
ATOM     27  C   UNL A   1      40.806  23.392  27.992  1.00  0.00     0.016 A 
ATOM     28  C   UNL A   1      39.718  25.752  26.943  1.00  0.00     0.010 A 
ATOM     29  C   UNL A   1      41.184  24.635  28.515  1.00  0.00     0.010 A 
ATOM     30  C   UNL A   1      40.664  25.822  27.974  1.00  0.00    -0.014 A 
BRANCH  30  31
ATOM     31  C   UNL A   1      41.240  27.137  28.355  1.00  0.00     0.031 A 
ATOM     32  C   UNL A   1      42.725  27.335  28.212  1.00  0.00     0.074 A 
ATOM     33  C   UNL A   1      40.469  28.148  28.796  1.00  0.00     0.049 A 
ATOM     34  N   UNL A   1      43.443  28.407  28.430  1.00  0.00    -0.248 NA
ATOM     35  C   UNL A   1      43.502  26.170  27.758  1.00  0.00     0.031 C 
ATOM     36  C   UNL A   1      39.017  28.100  28.965  1.00  0.00     0.029 A 
ATOM     37  N   UNL A   1      40.811  29.421  29.181  1.00  0.00    -0.354 N 
ATOM     38  C   UNL A   1      44.752  28.049  28.131  1.00  0.00     0.074 A 
ATOM     39  C   UNL A   1      44.735  26.651  27.755  1.00  0.00     0.031 C 
ATOM     40  C   UNL A   1      38.592  29.293  29.421  1.00  0.00     0.029 A 
ATOM     41  C   UNL A   1      39.742  30.183  29.590  1.00  0.00     0.049 A 
ATOM     42  H   UNL A   1      41.736  29.758  29.166  1.00  0.00     0.167 HD
ATOM     43  C   UNL A   1      45.869  28.813  28.149  1.00  0.00     0.031 A 
ATOM     44  C   UNL A   1      39.696  31.450  30.050  1.00  0.00     0.031 A 
ATOM     45  C   UNL A   1      45.903  30.193  28.551  1.00  0.00     0.049 A 
ATOM     46  C   UNL A   1      40.967  32.260  30.137  1.00  0.00     0.074 A 
ATOM     47  C   UNL A   1      46.988  31.050  28.591  1.00  0.00     0.029 A 
ATOM     48  N   UNL A   1      44.806  30.913  28.994  1.00  0.00    -0.354 N 
ATOM     49  N   UNL A   1      42.188  31.922  29.796  1.00  0.00    -0.248 NA
ATOM     50  C   UNL A   1      40.846  33.629  30.661  1.00  0.00     0.031 C 
ATOM     51  C   UNL A   1      46.556  32.277  29.108  1.00  0.00     0.029 A 
ATOM     52  C   UNL A   1      45.192  32.198  29.336  1.00  0.00     0.049 A 
ATOM     53  H   UNL A   1      43.888  30.564  29.056  1.00  0.00     0.167 HD
ATOM     54  C   UNL A   1      42.972  33.049  30.030  1.00  0.00     0.074 A 
ATOM     55  C   UNL A   1      42.088  34.078  30.537  1.00  0.00     0.031 C 
ATOM     56  C   UNL A   1      44.304  33.217  29.838  1.00  0.00     0.031 A 
BRANCH  43  57
ATOM     57  C   UNL A   1      47.157  28.150  27.745  1.00  0.00    -0.014 A 
ATOM     58  C   UNL A   1      47.561  28.119  26.398  1.00  0.00     0.010 A 
ATOM     59  C   UNL A   1      47.977  27.560  28.724  1.00  0.00     0.010 A 
ATOM     60  C   UNL A   1      48.741  27.469  26.030  1.00  0.00     0.020 A 
ATOM     61  C   UNL A   1      49.170  26.930  28.362  1.00  0.00     0.020 A 
ATOM     62  C   UNL A   1      49.534  26.871  27.015  1.00  0.00     0.054 A 
BRANCH  62  63
ATOM     63  S   UNL A   1      51.063  26.035  26.512  1.00  0.00     0.124 S 
ATOM     64  O   UNL A   1      52.083  26.879  27.128  1.00  0.00    -0.237 OA
ATOM     65  O   UNL A   1      50.911  24.705  27.097  1.00  0.00    -0.237 OA
ATOM     66  O   UNL A   1      51.017  26.078  25.052  1.00  0.00    -0.744 OA
ENDBRANCH  62  63
ENDBRANCH  43  57
BRANCH  44  67
ATOM     67  C   UNL A   1      38.398  32.048  30.466  1.00  0.00    -0.014 A 
ATOM     68  C   UNL A   1      37.765  33.015  29.666  1.00  0.00     0.010 A 
ATOM     69  C   UNL A   1      37.802  31.673  31.684  1.00  0.00     0.010 A 
ATOM     70  C   UNL A   1      36.572  33.614  30.085  1.00  0.00     0.020 A 
ATOM     71  C   UNL A   1      36.597  32.251  32.096  1.00  0.00     0.020 A 
ATOM     72  C   UNL A   1      35.998  33.229  31.300  1.00  0.00     0.054 A 
BRANCH  72  73
ATOM     73  S   UNL A   1      34.434  33.996  31.813  1.00  0.00     0.124 S 
ATOM     74  O   UNL A   1      34.891  35.252  32.400  1.00  0.00    -0.237 OA
ATOM     75  O   UNL A   1      33.710  34.114  30.550  1.00  0.00    -0.237 OA
ATOM     76  O   UNL A   1      33.875  33.031  32.756  1.00  0.00    -0.744 OA
ENDBRANCH  72  73
ENDBRANCH  44  67
BRANCH  56  77
ATOM     77  C   UNL A   1      44.891  34.573  30.134  1.00  0.00    -0.014 A 
ATOM     78  C   UNL A   1      45.428  34.877  31.397  1.00  0.00     0.010 A 
ATOM     79  C   UNL A   1      44.960  35.537  29.110  1.00  0.00     0.010 A 
ATOM     80  C   UNL A   1      45.996  36.132  31.639  1.00  0.00     0.020 A 
ATOM     81  C   UNL A   1      45.549  36.782  29.341  1.00  0.00     0.020 A 
ATOM     82  C   UNL A   1      46.051  37.077  30.610  1.00  0.00     0.054 A 
BRANCH  82  83
ATOM     83  S   UNL A   1      46.835  38.682  30.934  1.00  0.00     0.124 S 
ATOM     84  O   UNL A   1      48.250  38.371  30.755  1.00  0.00    -0.237 OA
ATOM     85  O   UNL A   1      46.246  39.542  29.910  1.00  0.00    -0.237 OA
ATOM     86  O   UNL A   1      46.433  38.992  32.304  1.00  0.00    -0.744 OA
ENDBRANCH  82  83
ENDBRANCH  56  77
ENDBRANCH  30  31
ENDBRANCH  23  25
ENDBRANCH  22  23
ENDBRANCH   1  22
TORSDOF 16
ENDMDL
MODEL 3
REMARK VINA RESULT:      -9.9      1.527      2.250
REMARK SMILES O=C(C[C@@H]1CN(c2nc3ccccc3s2)CCO1)OCCOC(=O)c1ccc(-c2c3nc(c(-c4ccc(S(=O)(=O)[O-])cc4)c4ccc([nH]4)c(-c4ccc(S(=O)(=O)[O-])cc4)c4nc(c(-c5ccc(S(=O)(=O)[O-])cc5)c5ccc2[nH]5)C=C4)C=C3)cc1
REMARK SMILES IDX 21 1 20 2 19 3 2 4 1 5 3 6 4 7 5 8 18 9 6 10 17 11 16 12
REMARK SMILES IDX 7 13 8 14 15 15 9 16 14 17 10 18 13 19 11 20 12 21 22 22
REMARK SMILES IDX 23 23 24 24 25 25 26 26 84 27 27 28 83 29 28 30 29 31 30 32
REMARK SMILES IDX 77 33 31 34 82 35 76 36 78 37 32 38 81 39 75 40 74 41 33 43
REMARK SMILES IDX 63 44 44 45 62 46 45 47 48 48 61 49 79 50 46 51 47 52 60 54
REMARK SMILES IDX 80 55 49 56 34 57 35 58 43 59 36 60 42 61 37 62 38 63 39 64
REMARK SMILES IDX 40 65 41 66 64 67 65 68 73 69 66 70 72 71 67 72 68 73 69 74
REMARK SMILES IDX 70 75 71 76 50 77 51 78 59 79 52 80 58 81 53 82 54 83 55 84
REMARK SMILES IDX 56 85 57 86
REMARK H PARENT 78 42 48 53
REMARK Flexibility Score: inf
ROOT
ATOM      1  C   UNL A   1      32.345  28.897  27.295  1.00  0.00     0.275 C 
ENDROOT
BRANCH   1   2
ATOM      2  C   UNL A   1      31.975  28.731  25.819  1.00  0.00     0.274 C 
BRANCH   2   3
ATOM      3  O   UNL A   1      32.303  27.412  25.326  1.00  0.00    -0.462 OA
BRANCH   3   4
ATOM      4  C   UNL A   1      33.184  27.164  24.330  1.00  0.00     0.308 C 
ATOM      5  O   UNL A   1      34.129  27.924  24.128  1.00  0.00    -0.252 OA
BRANCH   4   6
ATOM      6  C   UNL A   1      32.997  25.936  23.490  1.00  0.00     0.156 C 
BRANCH   6   7
ATOM      7  C   UNL A   1      33.786  24.772  24.055  1.00  0.00     0.148 C 
ATOM      8  C   UNL A   1      32.842  23.800  24.774  1.00  0.00     0.151 C 
ATOM      9  O   UNL A   1      34.766  25.306  24.983  1.00  0.00    -0.374 OA
ATOM     10  N   UNL A   1      33.642  22.748  25.377  1.00  0.00    -0.343 N 
ATOM     11  C   UNL A   1      35.547  24.250  25.583  1.00  0.00     0.182 C 
ATOM     12  C   UNL A   1      34.671  23.202  26.301  1.00  0.00     0.147 C 
BRANCH  10  13
ATOM     13  C   UNL A   1      33.630  21.490  24.886  1.00  0.00     0.186 A 
ATOM     14  N   UNL A   1      34.694  20.727  24.824  1.00  0.00    -0.220 NA
ATOM     15  S   UNL A   1      32.181  20.750  24.304  1.00  0.00    -0.097 S 
ATOM     16  C   UNL A   1      34.324  19.423  24.550  1.00  0.00     0.084 A 
ATOM     17  C   UNL A   1      32.986  19.242  24.205  1.00  0.00     0.056 A 
ATOM     18  C   UNL A   1      35.164  18.294  24.611  1.00  0.00     0.030 A 
ATOM     19  C   UNL A   1      32.461  17.983  23.874  1.00  0.00     0.021 A 
ATOM     20  C   UNL A   1      34.643  17.027  24.327  1.00  0.00     0.002 A 
ATOM     21  C   UNL A   1      33.310  16.878  23.952  1.00  0.00     0.002 A 
ENDBRANCH  10  13
ENDBRANCH   6   7
ENDBRANCH   4   6
ENDBRANCH   3   4
ENDBRANCH   2   3
ENDBRANCH   1   2
BRANCH   1  22
ATOM     22  O   UNL A   1      33.772  28.833  27.474  1.00  0.00    -0.458 OA
BRANCH  22  23
ATOM     23  C   UNL A   1      34.393  30.011  27.732  1.00  0.00     0.338 C 
ATOM     24  O   UNL A   1      33.862  31.107  27.786  1.00  0.00    -0.246 OA
BRANCH  23  25
ATOM     25  C   UNL A   1      35.796  29.754  28.155  1.00  0.00     0.060 A 
ATOM     26  C   UNL A   1      36.812  29.974  27.216  1.00  0.00     0.016 A 
ATOM     27  C   UNL A   1      36.128  29.370  29.460  1.00  0.00     0.016 A 
ATOM     28  C   UNL A   1      38.151  29.777  27.565  1.00  0.00     0.010 A 
ATOM     29  C   UNL A   1      37.469  29.169  29.809  1.00  0.00     0.010 A 
ATOM     30  C   UNL A   1      38.485  29.343  28.854  1.00  0.00    -0.014 A 
BRANCH  30  31
ATOM     31  C   UNL A   1      39.872  28.899  29.144  1.00  0.00     0.031 A 
ATOM     32  C   UNL A   1      40.795  29.854  29.852  1.00  0.00     0.074 A 
ATOM     33  C   UNL A   1      40.307  27.668  28.814  1.00  0.00     0.049 A 
ATOM     34  N   UNL A   1      42.026  29.672  30.256  1.00  0.00    -0.248 NA
ATOM     35  C   UNL A   1      40.255  31.192  30.145  1.00  0.00     0.031 C 
ATOM     36  C   UNL A   1      39.516  26.637  28.144  1.00  0.00     0.029 A 
ATOM     37  N   UNL A   1      41.533  27.080  29.006  1.00  0.00    -0.354 N 
ATOM     38  C   UNL A   1      42.403  30.865  30.860  1.00  0.00     0.074 A 
ATOM     39  C   UNL A   1      41.287  31.777  30.732  1.00  0.00     0.031 C 
ATOM     40  C   UNL A   1      40.278  25.540  27.980  1.00  0.00     0.029 A 
ATOM     41  C   UNL A   1      41.615  25.796  28.520  1.00  0.00     0.049 A 
ATOM     42  H   UNL A   1      42.284  27.534  29.451  1.00  0.00     0.167 HD
ATOM     43  C   UNL A   1      43.566  31.175  31.480  1.00  0.00     0.031 A 
ATOM     44  C   UNL A   1      42.647  24.929  28.509  1.00  0.00     0.031 A 
ATOM     45  C   UNL A   1      44.693  30.288  31.585  1.00  0.00     0.049 A 
ATOM     46  C   UNL A   1      43.962  25.325  29.137  1.00  0.00     0.074 A 
ATOM     47  C   UNL A   1      45.909  30.513  32.204  1.00  0.00     0.029 A 
ATOM     48  N   UNL A   1      44.747  29.013  31.045  1.00  0.00    -0.354 N 
ATOM     49  N   UNL A   1      44.282  26.438  29.754  1.00  0.00    -0.248 NA
ATOM     50  C   UNL A   1      45.050  24.337  29.077  1.00  0.00     0.031 C 
ATOM     51  C   UNL A   1      46.719  29.390  31.996  1.00  0.00     0.029 A 
ATOM     52  C   UNL A   1      45.985  28.447  31.294  1.00  0.00     0.049 A 
ATOM     53  H   UNL A   1      44.013  28.574  30.557  1.00  0.00     0.167 HD
ATOM     54  C   UNL A   1      45.596  26.268  30.185  1.00  0.00     0.074 A 
ATOM     55  C   UNL A   1      46.008  24.945  29.764  1.00  0.00     0.031 C 
ATOM     56  C   UNL A   1      46.386  27.129  30.873  1.00  0.00     0.031 A 
BRANCH  43  57
ATOM     57  C   UNL A   1      43.679  32.554  32.070  1.00  0.00    -0.014 A 
ATOM     58  C   UNL A   1      43.366  32.788  33.421  1.00  0.00     0.010 A 
ATOM     59  C   UNL A   1      44.112  33.624  31.267  1.00  0.00     0.010 A 
ATOM     60  C   UNL A   1      43.440  34.079  33.948  1.00  0.00     0.020 A 
ATOM     61  C   UNL A   1      44.211  34.912  31.798  1.00  0.00     0.020 A 
ATOM     62  C   UNL A   1      43.855  35.135  33.130  1.00  0.00     0.054 A 
BRANCH  62  63
ATOM     63  S   UNL A   1      43.944  36.801  33.839  1.00  0.00     0.124 S 
ATOM     64  O   UNL A   1      44.565  37.556  32.754  1.00  0.00    -0.237 OA
ATOM     65  O   UNL A   1      42.542  37.117  34.101  1.00  0.00    -0.237 OA
ATOM     66  O   UNL A   1      44.773  36.627  35.030  1.00  0.00    -0.744 OA
ENDBRANCH  62  63
ENDBRANCH  43  57
BRANCH  44  67
ATOM     67  C   UNL A   1      42.491  23.587  27.884  1.00  0.00    -0.014 A 
ATOM     68  C   UNL A   1      42.098  22.479  28.655  1.00  0.00     0.010 A 
ATOM     69  C   UNL A   1      42.765  23.406  26.516  1.00  0.00     0.010 A 
ATOM     70  C   UNL A   1      42.003  21.209  28.076  1.00  0.00     0.020 A 
ATOM     71  C   UNL A   1      42.648  22.143  25.927  1.00  0.00     0.020 A 
ATOM     72  C   UNL A   1      42.282  21.050  26.715  1.00  0.00     0.054 A 
BRANCH  72  73
ATOM     73  S   UNL A   1      42.124  19.400  25.975  1.00  0.00     0.124 S 
ATOM     74  O   UNL A   1      42.956  19.523  24.781  1.00  0.00    -0.237 OA
ATOM     75  O   UNL A   1      42.649  18.530  27.024  1.00  0.00    -0.237 OA
ATOM     76  O   UNL A   1      40.690  19.272  25.729  1.00  0.00    -0.744 OA
ENDBRANCH  72  73
ENDBRANCH  44  67
BRANCH  56  77
ATOM     77  C   UNL A   1      47.767  26.661  31.255  1.00  0.00    -0.014 A 
ATOM     78  C   UNL A   1      48.000  25.975  32.460  1.00  0.00     0.010 A 
ATOM     79  C   UNL A   1      48.837  26.860  30.362  1.00  0.00     0.010 A 
ATOM     80  C   UNL A   1      49.284  25.523  32.778  1.00  0.00     0.020 A 
ATOM     81  C   UNL A   1      50.117  26.388  30.666  1.00  0.00     0.020 A 
ATOM     82  C   UNL A   1      50.335  25.733  31.880  1.00  0.00     0.054 A 
BRANCH  82  83
ATOM     83  S   UNL A   1      51.983  25.097  32.293  1.00  0.00     0.124 S 
ATOM     84  O   UNL A   1      52.801  25.649  31.216  1.00  0.00    -0.237 OA
ATOM     85  O   UNL A   1      52.226  25.662  33.618  1.00  0.00    -0.237 OA
ATOM     86  O   UNL A   1      51.811  23.646  32.264  1.00  0.00    -0.744 OA
ENDBRANCH  82  83
ENDBRANCH  56  77
ENDBRANCH  30  31
ENDBRANCH  23  25
ENDBRANCH  22  23
ENDBRANCH   1  22
TORSDOF 16
ENDMDL
