MODEL 1
REMARK VINA RESULT:     -11.9      0.000      0.000
REMARK SMILES Cc1ccc(C(C)C)c(OCC(=O)Nc2nc(CC(=O)OCCOC(=O)c3ccc(-c4c5nc(c(-c6ccc(S(=O)(=O)[O-])cc6)c6ccc([nH]6)c(-c6ccc(S(=O)(=O)[O-])cc6)c6nc(c(-c7ccc(S(=O)(=O)[O-])cc7)c7ccc4[nH]7)C=C6)C=C5)cc3)cs2)c1
REMARK SMILES IDX 21 1 19 2 20 3 18 4 17 5 15 6 16 7 88 8 87 9 14 10 12 11
REMARK SMILES IDX 13 12 11 14 10 15 9 16 1 17 2 18 3 19 89 20 4 21 5 22 6 23
REMARK SMILES IDX 7 24 8 25 22 26 23 27 24 28 25 29 26 30 27 31 28 32 86 33
REMARK SMILES IDX 29 34 85 35 30 36 31 37 32 38 79 39 33 40 84 41 78 42 80 43
REMARK SMILES IDX 34 44 83 45 77 46 76 47 35 49 65 50 46 51 64 52 47 53 50 54
REMARK SMILES IDX 63 55 81 56 48 57 49 58 62 60 82 61 51 62 36 63 37 64 45 65
REMARK SMILES IDX 38 66 44 67 39 68 40 69 41 70 42 71 43 72 66 73 67 74 75 75
REMARK SMILES IDX 68 76 74 77 69 78 70 79 71 80 72 81 73 82 52 83 53 84 61 85
REMARK SMILES IDX 54 86 60 87 55 88 56 89 57 90 58 91 59 92
REMARK H PARENT 14 13 80 48 50 59
REMARK Flexibility Score: inf
ROOT
ATOM      1  O   UNL A   1      34.524  30.820  27.199  1.00  0.00    -0.462 OA
ENDROOT
BRANCH   1   2
ATOM      2  C   UNL A   1      33.177  30.368  26.961  1.00  0.00     0.312 C 
ATOM      3  O   UNL A   1      32.458  31.395  27.105  1.00  0.00    -0.252 OA
BRANCH   2   4
ATOM      4  C   UNL A   1      32.629  28.320  26.458  1.00  0.00     0.179 C 
BRANCH   4   5
ATOM      5  C   UNL A   1      31.892  27.580  25.065  1.00  0.00     0.065 A 
ATOM      6  C   UNL A   1      31.943  26.895  22.956  1.00  0.00     0.189 A 
ATOM      7  N   UNL A   1      32.677  27.422  23.903  1.00  0.00    -0.224 NA
ATOM      8  S   UNL A   1      30.330  26.525  23.353  1.00  0.00    -0.105 S 
ATOM      9  C   UNL A   1      30.690  26.878  24.992  1.00  0.00     0.093 A 
BRANCH   6  10
ATOM     10  N   UNL A   1      32.243  26.685  21.645  1.00  0.00    -0.299 N 
ATOM     11  C   UNL A   1      32.865  25.596  21.118  1.00  0.00     0.264 C 
ATOM     12  O   UNL A   1      32.993  25.547  19.886  1.00  0.00    -0.271 OA
ATOM     13  H   UNL A   1      31.982  27.394  21.014  1.00  0.00     0.172 HD
BRANCH  11  14
ATOM     14  C   UNL A   1      33.210  24.364  21.971  1.00  0.00     0.329 C 
BRANCH  14  15
ATOM     15  O   UNL A   1      34.195  24.348  22.966  1.00  0.00    -0.483 OA
BRANCH  15  16
ATOM     16  C   UNL A   1      33.865  23.906  24.211  1.00  0.00     0.123 A 
ATOM     17  C   UNL A   1      31.009  22.824  26.476  1.00  0.00     0.044 C 
ATOM     18  C   UNL A   1      32.370  23.196  25.979  1.00  0.00    -0.047 A 
ATOM     19  C   UNL A   1      33.454  23.052  26.846  1.00  0.00     0.004 A 
ATOM     20  C   UNL A   1      32.574  23.678  24.676  1.00  0.00     0.050 A 
ATOM     21  C   UNL A   1      34.731  23.352  26.405  1.00  0.00     0.008 A 
ATOM     22  C   UNL A   1      34.952  23.710  25.067  1.00  0.00    -0.003 A 
BRANCH  22  23
ATOM     23  C   UNL A   1      36.345  23.706  24.492  1.00  0.00     0.017 C 
ATOM     24  C   UNL A   1      37.450  23.747  25.540  1.00  0.00     0.012 C 
ATOM     25  C   UNL A   1      36.425  22.556  23.508  1.00  0.00     0.012 C 
ENDBRANCH  22  23
ENDBRANCH  15  16
ENDBRANCH  14  15
ENDBRANCH  11  14
ENDBRANCH   6  10
ENDBRANCH   4   5
ENDBRANCH   2   4
ENDBRANCH   1   2
BRANCH   1  26
ATOM     26  C   UNL A   1      34.659  31.973  28.045  1.00  0.00     0.274 C 
BRANCH  26  27
ATOM     27  C   UNL A   1      35.012  31.471  29.448  1.00  0.00     0.275 C 
BRANCH  27  28
ATOM     28  O   UNL A   1      36.227  32.041  30.003  1.00  0.00    -0.458 OA
BRANCH  28  29
ATOM     29  C   UNL A   1      37.391  31.987  29.301  1.00  0.00     0.338 C 
ATOM     30  O   UNL A   1      37.920  32.922  28.727  1.00  0.00    -0.246 OA
BRANCH  29  31
ATOM     31  C   UNL A   1      37.968  30.631  29.293  1.00  0.00     0.060 A 
ATOM     32  C   UNL A   1      38.890  30.030  30.729  1.00  0.00     0.016 A 
ATOM     33  C   UNL A   1      38.311  29.956  27.654  1.00  0.00     0.016 A 
ATOM     34  C   UNL A   1      40.326  28.918  30.476  1.00  0.00     0.010 A 
ATOM     35  C   UNL A   1      39.736  28.883  27.416  1.00  0.00     0.010 A 
ATOM     36  C   UNL A   1      40.792  28.440  28.809  1.00  0.00    -0.014 A 
BRANCH  36  37
ATOM     37  C   UNL A   1      42.185  28.220  28.361  1.00  0.00     0.031 A 
ATOM     38  C   UNL A   1      42.669  26.834  28.215  1.00  0.00     0.074 A 
ATOM     39  C   UNL A   1      42.923  29.247  27.895  1.00  0.00     0.049 A 
ATOM     40  N   UNL A   1      42.888  26.188  27.113  1.00  0.00    -0.248 NA
ATOM     41  C   UNL A   1      42.826  26.043  29.438  1.00  0.00     0.031 C 
ATOM     42  C   UNL A   1      44.200  29.175  27.199  1.00  0.00     0.029 A 
ATOM     43  N   UNL A   1      42.804  30.598  28.199  1.00  0.00    -0.354 N 
ATOM     44  C   UNL A   1      43.282  24.900  27.471  1.00  0.00     0.074 A 
ATOM     45  C   UNL A   1      43.051  24.834  28.921  1.00  0.00     0.031 C 
ATOM     46  C   UNL A   1      44.893  30.293  27.485  1.00  0.00     0.029 A 
ATOM     47  C   UNL A   1      44.096  31.067  28.429  1.00  0.00     0.049 A 
ATOM     48  H   UNL A   1      41.972  31.121  28.244  1.00  0.00     0.167 HD
ATOM     49  C   UNL A   1      44.508  24.426  27.109  1.00  0.00     0.031 A 
ATOM     50  C   UNL A   1      44.488  31.434  29.684  1.00  0.00     0.031 A 
ATOM     51  C   UNL A   1      45.579  25.367  27.338  1.00  0.00     0.049 A 
ATOM     52  C   UNL A   1      45.498  30.428  30.203  1.00  0.00     0.074 A 
ATOM     53  C   UNL A   1      46.271  26.246  26.532  1.00  0.00     0.029 A 
ATOM     54  N   UNL A   1      45.910  25.685  28.649  1.00  0.00    -0.354 N 
ATOM     55  N   UNL A   1      45.540  29.164  29.856  1.00  0.00    -0.248 NA
ATOM     56  C   UNL A   1      46.608  30.815  31.064  1.00  0.00     0.031 C 
ATOM     57  C   UNL A   1      46.933  27.174  27.386  1.00  0.00     0.029 A 
ATOM     58  C   UNL A   1      46.666  26.834  28.704  1.00  0.00     0.049 A 
ATOM     59  H   UNL A   1      45.639  25.158  29.435  1.00  0.00     0.167 HD
ATOM     60  C   UNL A   1      46.710  28.611  30.321  1.00  0.00     0.074 A 
ATOM     61  C   UNL A   1      47.320  29.676  31.102  1.00  0.00     0.031 C 
ATOM     62  C   UNL A   1      47.152  27.359  29.979  1.00  0.00     0.031 A 
BRANCH  49  63
ATOM     63  C   UNL A   1      44.547  23.109  26.392  1.00  0.00    -0.014 A 
ATOM     64  C   UNL A   1      43.377  22.353  26.218  1.00  0.00     0.010 A 
ATOM     65  C   UNL A   1      45.753  22.561  25.889  1.00  0.00     0.010 A 
ATOM     66  C   UNL A   1      43.410  21.086  25.610  1.00  0.00     0.020 A 
ATOM     67  C   UNL A   1      45.795  21.300  25.274  1.00  0.00     0.020 A 
ATOM     68  C   UNL A   1      44.622  20.561  25.155  1.00  0.00     0.054 A 
BRANCH  68  69
ATOM     69  S   UNL A   1      44.644  18.892  24.439  1.00  0.00     0.124 S 
ATOM     70  O   UNL A   1      43.462  18.279  25.042  1.00  0.00    -0.237 OA
ATOM     71  O   UNL A   1      44.554  19.158  23.006  1.00  0.00    -0.237 OA
ATOM     72  O   UNL A   1      45.922  18.338  24.886  1.00  0.00    -0.744 OA
ENDBRANCH  68  69
ENDBRANCH  49  63
BRANCH  50  73
ATOM     73  C   UNL A   1      43.466  32.196  30.475  1.00  0.00    -0.014 A 
ATOM     74  C   UNL A   1      42.845  31.502  31.545  1.00  0.00     0.010 A 
ATOM     75  C   UNL A   1      43.308  33.589  30.427  1.00  0.00     0.010 A 
ATOM     76  C   UNL A   1      42.240  32.178  32.611  1.00  0.00     0.020 A 
ATOM     77  C   UNL A   1      42.675  34.275  31.491  1.00  0.00     0.020 A 
ATOM     78  C   UNL A   1      42.192  33.567  32.599  1.00  0.00     0.054 A 
BRANCH  78  79
ATOM     79  S   UNL A   1      41.636  34.421  34.112  1.00  0.00     0.124 S 
ATOM     80  O   UNL A   1      40.199  34.544  33.896  1.00  0.00    -0.237 OA
ATOM     81  O   UNL A   1      42.034  33.497  35.170  1.00  0.00    -0.237 OA
ATOM     82  O   UNL A   1      42.386  35.675  34.090  1.00  0.00    -0.744 OA
ENDBRANCH  78  79
ENDBRANCH  50  73
BRANCH  62  83
ATOM     83  C   UNL A   1      48.208  26.562  30.728  1.00  0.00    -0.014 A 
ATOM     84  C   UNL A   1      48.160  26.282  32.101  1.00  0.00     0.010 A 
ATOM     85  C   UNL A   1      49.270  25.957  30.007  1.00  0.00     0.010 A 
ATOM     86  C   UNL A   1      49.159  25.535  32.738  1.00  0.00     0.020 A 
ATOM     87  C   UNL A   1      50.238  25.154  30.619  1.00  0.00     0.020 A 
ATOM     88  C   UNL A   1      50.195  24.978  31.994  1.00  0.00     0.054 A 
BRANCH  88  89
ATOM     89  S   UNL A   1      51.447  23.991  32.843  1.00  0.00     0.124 S 
ATOM     90  O   UNL A   1      51.016  24.096  34.234  1.00  0.00    -0.237 OA
ATOM     91  O   UNL A   1      51.279  22.674  32.233  1.00  0.00    -0.237 OA
ATOM     92  O   UNL A   1      52.699  24.668  32.520  1.00  0.00    -0.744 OA
ENDBRANCH  88  89
ENDBRANCH  62  83
ENDBRANCH  36  37
ENDBRANCH  29  31
ENDBRANCH  28  29
ENDBRANCH  27  28
ENDBRANCH  26  27
ENDBRANCH   1  26
TORSDOF 20
ENDMDL
MODEL 2
REMARK VINA RESULT:     -11.8      4.627     10.877
REMARK SMILES Cc1ccc(C(C)C)c(OCC(=O)Nc2nc(CC(=O)OCCOC(=O)c3ccc(-c4c5nc(c(-c6ccc(S(=O)(=O)[O-])cc6)c6ccc([nH]6)c(-c6ccc(S(=O)(=O)[O-])cc6)c6nc(c(-c7ccc(S(=O)(=O)[O-])cc7)c7ccc4[nH]7)C=C6)C=C5)cc3)cs2)c1
REMARK SMILES IDX 21 1 19 2 20 3 18 4 17 5 15 6 16 7 88 8 87 9 14 10 12 11
REMARK SMILES IDX 13 12 11 14 10 15 9 16 1 17 2 18 3 19 89 20 4 21 5 22 6 23
REMARK SMILES IDX 7 24 8 25 22 26 23 27 24 28 25 29 26 30 27 31 28 32 86 33
REMARK SMILES IDX 29 34 85 35 30 36 31 37 32 38 79 39 33 40 84 41 78 42 80 43
REMARK SMILES IDX 34 44 83 45 77 46 76 47 35 49 65 50 46 51 64 52 47 53 50 54
REMARK SMILES IDX 63 55 81 56 48 57 49 58 62 60 82 61 51 62 36 63 37 64 45 65
REMARK SMILES IDX 38 66 44 67 39 68 40 69 41 70 42 71 43 72 66 73 67 74 75 75
REMARK SMILES IDX 68 76 74 77 69 78 70 79 71 80 72 81 73 82 52 83 53 84 61 85
REMARK SMILES IDX 54 86 60 87 55 88 56 89 57 90 58 91 59 92
REMARK H PARENT 14 13 80 48 50 59
REMARK Flexibility Score: inf
ROOT
ATOM      1  O   UNL A   1      37.951  23.140  26.064  1.00  0.00    -0.462 OA
ENDROOT
BRANCH   1   2
ATOM      2  C   UNL A   1      37.885  21.759  25.658  1.00  0.00     0.312 C 
ATOM      3  O   UNL A   1      39.070  21.335  25.754  1.00  0.00    -0.252 OA
BRANCH   2   4
ATOM      4  C   UNL A   1      36.063  20.736  25.041  1.00  0.00     0.179 C 
BRANCH   4   5
ATOM      5  C   UNL A   1      34.398  21.224  24.903  1.00  0.00     0.065 A 
ATOM      6  C   UNL A   1      32.467  21.862  25.786  1.00  0.00     0.189 A 
ATOM      7  N   UNL A   1      33.708  21.571  26.084  1.00  0.00    -0.224 NA
ATOM      8  S   UNL A   1      32.034  21.785  24.143  1.00  0.00    -0.105 S 
ATOM      9  C   UNL A   1      33.691  21.571  23.754  1.00  0.00     0.093 A 
BRANCH   6  10
ATOM     10  N   UNL A   1      31.418  22.124  26.614  1.00  0.00    -0.299 N 
ATOM     11  C   UNL A   1      30.826  23.332  26.818  1.00  0.00     0.264 C 
ATOM     12  O   UNL A   1      29.833  23.368  27.559  1.00  0.00    -0.271 OA
ATOM     13  H   UNL A   1      31.049  21.361  27.115  1.00  0.00     0.172 HD
BRANCH  11  14
ATOM     14  C   UNL A   1      31.218  24.578  26.006  1.00  0.00     0.329 C 
BRANCH  14  15
ATOM     15  O   UNL A   1      32.538  24.938  25.708  1.00  0.00    -0.483 OA
BRANCH  15  16
ATOM     16  C   UNL A   1      32.781  25.682  24.593  1.00  0.00     0.123 A 
ATOM     17  C   UNL A   1      32.724  25.705  20.791  1.00  0.00     0.044 C 
ATOM     18  C   UNL A   1      32.935  26.113  22.215  1.00  0.00    -0.047 A 
ATOM     19  C   UNL A   1      33.395  27.405  22.473  1.00  0.00     0.004 A 
ATOM     20  C   UNL A   1      32.682  25.233  23.280  1.00  0.00     0.050 A 
ATOM     21  C   UNL A   1      33.565  27.825  23.780  1.00  0.00     0.008 A 
ATOM     22  C   UNL A   1      33.191  26.993  24.846  1.00  0.00    -0.003 A 
BRANCH  22  23
ATOM     23  C   UNL A   1      33.048  27.549  26.240  1.00  0.00     0.017 C 
ATOM     24  C   UNL A   1      34.234  28.390  26.697  1.00  0.00     0.012 C 
ATOM     25  C   UNL A   1      31.698  28.233  26.317  1.00  0.00     0.012 C 
ENDBRANCH  22  23
ENDBRANCH  15  16
ENDBRANCH  14  15
ENDBRANCH  11  14
ENDBRANCH   6  10
ENDBRANCH   4   5
ENDBRANCH   2   4
ENDBRANCH   1   2
BRANCH   1  26
ATOM     26  C   UNL A   1      39.211  23.579  26.598  1.00  0.00     0.274 C 
BRANCH  26  27
ATOM     27  C   UNL A   1      39.007  24.993  27.147  1.00  0.00     0.275 C 
BRANCH  27  28
ATOM     28  O   UNL A   1      40.130  25.890  26.934  1.00  0.00    -0.458 OA
BRANCH  28  29
ATOM     29  C   UNL A   1      40.171  27.095  27.563  1.00  0.00     0.338 C 
ATOM     30  O   UNL A   1      40.139  28.184  27.017  1.00  0.00    -0.246 OA
BRANCH  29  31
ATOM     31  C   UNL A   1      40.274  26.951  29.026  1.00  0.00     0.060 A 
ATOM     32  C   UNL A   1      38.775  26.805  30.029  1.00  0.00     0.016 A 
ATOM     33  C   UNL A   1      41.787  27.615  29.755  1.00  0.00     0.016 A 
ATOM     34  C   UNL A   1      38.737  27.552  31.704  1.00  0.00     0.010 A 
ATOM     35  C   UNL A   1      41.730  28.364  31.391  1.00  0.00     0.010 A 
ATOM     36  C   UNL A   1      40.187  28.412  32.322  1.00  0.00    -0.014 A 
BRANCH  36  37
ATOM     37  C   UNL A   1      40.141  29.603  33.199  1.00  0.00     0.031 A 
ATOM     38  C   UNL A   1      39.377  30.782  32.750  1.00  0.00     0.074 A 
ATOM     39  C   UNL A   1      40.603  29.538  34.464  1.00  0.00     0.049 A 
ATOM     40  N   UNL A   1      38.235  31.198  33.197  1.00  0.00    -0.248 NA
ATOM     41  C   UNL A   1      39.896  31.521  31.596  1.00  0.00     0.031 C 
ATOM     42  C   UNL A   1      40.419  30.519  35.525  1.00  0.00     0.029 A 
ATOM     43  N   UNL A   1      41.577  28.692  34.980  1.00  0.00    -0.354 N 
ATOM     44  C   UNL A   1      37.882  32.311  32.435  1.00  0.00     0.074 A 
ATOM     45  C   UNL A   1      38.875  32.344  31.352  1.00  0.00     0.031 C 
ATOM     46  C   UNL A   1      41.490  30.458  36.337  1.00  0.00     0.029 A 
ATOM     47  C   UNL A   1      42.412  29.484  35.766  1.00  0.00     0.049 A 
ATOM     48  H   UNL A   1      41.662  27.725  34.823  1.00  0.00     0.167 HD
ATOM     49  C   UNL A   1      37.704  33.526  33.026  1.00  0.00     0.031 A 
ATOM     50  C   UNL A   1      43.695  29.740  35.375  1.00  0.00     0.031 A 
ATOM     51  C   UNL A   1      38.744  33.865  33.968  1.00  0.00     0.049 A 
ATOM     52  C   UNL A   1      43.814  31.202  34.988  1.00  0.00     0.074 A 
ATOM     53  C   UNL A   1      38.849  33.808  35.342  1.00  0.00     0.029 A 
ATOM     54  N   UNL A   1      40.023  34.108  33.482  1.00  0.00    -0.354 N 
ATOM     55  N   UNL A   1      42.834  31.930  34.509  1.00  0.00    -0.248 NA
ATOM     56  C   UNL A   1      45.026  31.974  35.230  1.00  0.00     0.031 C 
ATOM     57  C   UNL A   1      40.233  33.903  35.666  1.00  0.00     0.029 A 
ATOM     58  C   UNL A   1      40.956  34.051  34.493  1.00  0.00     0.049 A 
ATOM     59  H   UNL A   1      40.234  34.295  32.539  1.00  0.00     0.167 HD
ATOM     60  C   UNL A   1      43.222  33.250  34.497  1.00  0.00     0.074 A 
ATOM     61  C   UNL A   1      44.613  33.214  34.920  1.00  0.00     0.031 C 
ATOM     62  C   UNL A   1      42.374  34.292  34.228  1.00  0.00     0.031 A 
BRANCH  49  63
ATOM     63  C   UNL A   1      36.413  34.237  32.751  1.00  0.00    -0.014 A 
ATOM     64  C   UNL A   1      35.802  35.022  33.742  1.00  0.00     0.010 A 
ATOM     65  C   UNL A   1      35.744  34.132  31.506  1.00  0.00     0.010 A 
ATOM     66  C   UNL A   1      34.558  35.638  33.522  1.00  0.00     0.020 A 
ATOM     67  C   UNL A   1      34.505  34.749  31.275  1.00  0.00     0.020 A 
ATOM     68  C   UNL A   1      33.910  35.485  32.294  1.00  0.00     0.054 A 
BRANCH  68  69
ATOM     69  S   UNL A   1      32.272  36.234  32.063  1.00  0.00     0.124 S 
ATOM     70  O   UNL A   1      32.270  36.544  30.635  1.00  0.00    -0.237 OA
ATOM     71  O   UNL A   1      31.370  35.163  32.477  1.00  0.00    -0.237 OA
ATOM     72  O   UNL A   1      32.293  37.399  32.946  1.00  0.00    -0.744 OA
ENDBRANCH  68  69
ENDBRANCH  49  63
BRANCH  50  73
ATOM     73  C   UNL A   1      44.426  28.573  34.779  1.00  0.00    -0.014 A 
ATOM     74  C   UNL A   1      44.665  27.469  35.637  1.00  0.00     0.010 A 
ATOM     75  C   UNL A   1      44.615  28.378  33.403  1.00  0.00     0.010 A 
ATOM     76  C   UNL A   1      44.913  26.186  35.137  1.00  0.00     0.020 A 
ATOM     77  C   UNL A   1      44.891  27.086  32.894  1.00  0.00     0.020 A 
ATOM     78  C   UNL A   1      44.987  25.991  33.763  1.00  0.00     0.054 A 
BRANCH  78  79
ATOM     79  S   UNL A   1      45.049  24.278  33.139  1.00  0.00     0.124 S 
ATOM     80  O   UNL A   1      43.806  23.711  33.651  1.00  0.00    -0.237 OA
ATOM     81  O   UNL A   1      45.105  24.462  31.692  1.00  0.00    -0.237 OA
ATOM     82  O   UNL A   1      46.275  23.746  33.730  1.00  0.00    -0.744 OA
ENDBRANCH  78  79
ENDBRANCH  50  73
BRANCH  62  83
ATOM     83  C   UNL A   1      42.801  35.697  33.837  1.00  0.00    -0.014 A 
ATOM     84  C   UNL A   1      43.346  36.040  32.590  1.00  0.00     0.010 A 
ATOM     85  C   UNL A   1      42.552  36.777  34.723  1.00  0.00     0.010 A 
ATOM     86  C   UNL A   1      43.716  37.354  32.282  1.00  0.00     0.020 A 
ATOM     87  C   UNL A   1      42.855  38.104  34.402  1.00  0.00     0.020 A 
ATOM     88  C   UNL A   1      43.472  38.380  33.191  1.00  0.00     0.054 A 
BRANCH  88  89
ATOM     89  S   UNL A   1      43.930  40.069  32.745  1.00  0.00     0.124 S 
ATOM     90  O   UNL A   1      44.579  39.871  31.453  1.00  0.00    -0.237 OA
ATOM     91  O   UNL A   1      42.636  40.746  32.700  1.00  0.00    -0.237 OA
ATOM     92  O   UNL A   1      44.810  40.488  33.832  1.00  0.00    -0.744 OA
ENDBRANCH  88  89
ENDBRANCH  62  83
ENDBRANCH  36  37
ENDBRANCH  29  31
ENDBRANCH  28  29
ENDBRANCH  27  28
ENDBRANCH  26  27
ENDBRANCH   1  26
TORSDOF 20
ENDMDL
MODEL 3
REMARK VINA RESULT:     -11.8      1.429      2.270
REMARK SMILES Cc1ccc(C(C)C)c(OCC(=O)Nc2nc(CC(=O)OCCOC(=O)c3ccc(-c4c5nc(c(-c6ccc(S(=O)(=O)[O-])cc6)c6ccc([nH]6)c(-c6ccc(S(=O)(=O)[O-])cc6)c6nc(c(-c7ccc(S(=O)(=O)[O-])cc7)c7ccc4[nH]7)C=C6)C=C5)cc3)cs2)c1
REMARK SMILES IDX 21 1 19 2 20 3 18 4 17 5 15 6 16 7 88 8 87 9 14 10 12 11
REMARK SMILES IDX 13 12 11 14 10 15 9 16 1 17 2 18 3 19 89 20 4 21 5 22 6 23
REMARK SMILES IDX 7 24 8 25 22 26 23 27 24 28 25 29 26 30 27 31 28 32 86 33
REMARK SMILES IDX 29 34 85 35 30 36 31 37 32 38 79 39 33 40 84 41 78 42 80 43
REMARK SMILES IDX 34 44 83 45 77 46 76 47 35 49 65 50 46 51 64 52 47 53 50 54
REMARK SMILES IDX 63 55 81 56 48 57 49 58 62 60 82 61 51 62 36 63 37 64 45 65
REMARK SMILES IDX 38 66 44 67 39 68 40 69 41 70 42 71 43 72 66 73 67 74 75 75
REMARK SMILES IDX 68 76 74 77 69 78 70 79 71 80 72 81 73 82 52 83 53 84 61 85
REMARK SMILES IDX 54 86 60 87 55 88 56 89 57 90 58 91 59 92
REMARK H PARENT 14 13 80 48 50 59
REMARK Flexibility Score: inf
ROOT
ATOM      1  O   UNL A   1      34.283  30.987  28.473  1.00  0.00    -0.462 OA
ENDROOT
BRANCH   1   2
ATOM      2  C   UNL A   1      33.415  30.474  27.444  1.00  0.00     0.312 C 
ATOM      3  O   UNL A   1      32.886  31.495  26.924  1.00  0.00    -0.252 OA
BRANCH   2   4
ATOM      4  C   UNL A   1      33.163  28.360  26.978  1.00  0.00     0.179 C 
BRANCH   4   5
ATOM      5  C   UNL A   1      31.907  27.443  26.195  1.00  0.00     0.065 A 
ATOM      6  C   UNL A   1      30.528  25.710  26.086  1.00  0.00     0.189 A 
ATOM      7  N   UNL A   1      31.427  26.286  26.843  1.00  0.00    -0.224 NA
ATOM      8  S   UNL A   1      30.163  26.477  24.612  1.00  0.00    -0.105 S 
ATOM      9  C   UNL A   1      31.109  27.816  25.116  1.00  0.00     0.093 A 
BRANCH   6  10
ATOM     10  N   UNL A   1      29.899  24.513  26.248  1.00  0.00    -0.299 N 
ATOM     11  C   UNL A   1      30.470  23.340  26.634  1.00  0.00     0.264 C 
ATOM     12  O   UNL A   1      29.725  22.363  26.797  1.00  0.00    -0.271 OA
ATOM     13  H   UNL A   1      28.931  24.496  26.070  1.00  0.00     0.172 HD
BRANCH  11  14
ATOM     14  C   UNL A   1      31.944  23.257  27.067  1.00  0.00     0.329 C 
BRANCH  14  15
ATOM     15  O   UNL A   1      32.963  22.704  26.282  1.00  0.00    -0.483 OA
BRANCH  15  16
ATOM     16  C   UNL A   1      33.068  23.085  24.978  1.00  0.00     0.123 A 
ATOM     17  C   UNL A   1      33.581  26.027  22.624  1.00  0.00     0.044 C 
ATOM     18  C   UNL A   1      33.322  24.649  23.146  1.00  0.00    -0.047 A 
ATOM     19  C   UNL A   1      33.207  23.604  22.230  1.00  0.00     0.004 A 
ATOM     20  C   UNL A   1      33.195  24.393  24.521  1.00  0.00     0.050 A 
ATOM     21  C   UNL A   1      33.004  22.312  22.683  1.00  0.00     0.008 A 
ATOM     22  C   UNL A   1      33.006  22.035  24.058  1.00  0.00    -0.003 A 
BRANCH  22  23
ATOM     23  C   UNL A   1      33.130  20.618  24.555  1.00  0.00     0.017 C 
ATOM     24  C   UNL A   1      32.449  19.586  23.664  1.00  0.00     0.012 C 
ATOM     25  C   UNL A   1      34.597  20.365  24.839  1.00  0.00     0.012 C 
ENDBRANCH  22  23
ENDBRANCH  15  16
ENDBRANCH  14  15
ENDBRANCH  11  14
ENDBRANCH   6  10
ENDBRANCH   4   5
ENDBRANCH   2   4
ENDBRANCH   1   2
BRANCH   1  26
ATOM     26  C   UNL A   1      34.459  32.413  28.492  1.00  0.00     0.274 C 
BRANCH  26  27
ATOM     27  C   UNL A   1      35.181  32.767  29.795  1.00  0.00     0.275 C 
BRANCH  27  28
ATOM     28  O   UNL A   1      36.198  31.811  30.199  1.00  0.00    -0.458 OA
BRANCH  28  29
ATOM     29  C   UNL A   1      37.417  31.814  29.595  1.00  0.00     0.338 C 
ATOM     30  O   UNL A   1      37.996  32.797  29.166  1.00  0.00    -0.246 OA
BRANCH  29  31
ATOM     31  C   UNL A   1      37.987  30.459  29.495  1.00  0.00     0.060 A 
ATOM     32  C   UNL A   1      38.896  29.755  30.892  1.00  0.00     0.016 A 
ATOM     33  C   UNL A   1      38.338  29.899  27.816  1.00  0.00     0.016 A 
ATOM     34  C   UNL A   1      40.328  28.655  30.572  1.00  0.00     0.010 A 
ATOM     35  C   UNL A   1      39.760  28.837  27.512  1.00  0.00     0.010 A 
ATOM     36  C   UNL A   1      40.803  28.293  28.878  1.00  0.00    -0.014 A 
BRANCH  36  37
ATOM     37  C   UNL A   1      42.198  28.096  28.426  1.00  0.00     0.031 A 
ATOM     38  C   UNL A   1      42.687  26.720  28.218  1.00  0.00     0.074 A 
ATOM     39  C   UNL A   1      42.935  29.146  28.008  1.00  0.00     0.049 A 
ATOM     40  N   UNL A   1      42.911  26.125  27.089  1.00  0.00    -0.248 NA
ATOM     41  C   UNL A   1      42.842  25.875  29.405  1.00  0.00     0.031 C 
ATOM     42  C   UNL A   1      44.214  29.109  27.314  1.00  0.00     0.029 A 
ATOM     43  N   UNL A   1      42.811  30.481  28.373  1.00  0.00    -0.354 N 
ATOM     44  C   UNL A   1      43.308  24.823  27.389  1.00  0.00     0.074 A 
ATOM     45  C   UNL A   1      43.073  24.692  28.834  1.00  0.00     0.031 C 
ATOM     46  C   UNL A   1      44.904  30.214  27.652  1.00  0.00     0.029 A 
ATOM     47  C   UNL A   1      44.101  30.943  28.628  1.00  0.00     0.049 A 
ATOM     48  H   UNL A   1      41.978  31.000  28.439  1.00  0.00     0.167 HD
ATOM     49  C   UNL A   1      44.536  24.370  27.010  1.00  0.00     0.031 A 
ATOM     50  C   UNL A   1      44.488  31.253  29.900  1.00  0.00     0.031 A 
ATOM     51  C   UNL A   1      45.604  25.302  27.285  1.00  0.00     0.049 A 
ATOM     52  C   UNL A   1      45.500  30.228  30.375  1.00  0.00     0.074 A 
ATOM     53  C   UNL A   1      46.296  26.218  26.522  1.00  0.00     0.029 A 
ATOM     54  N   UNL A   1      45.930  25.561  28.610  1.00  0.00    -0.354 N 
ATOM     55  N   UNL A   1      45.546  28.981  29.972  1.00  0.00    -0.248 NA
ATOM     56  C   UNL A   1      46.606  30.578  31.257  1.00  0.00     0.031 C 
ATOM     57  C   UNL A   1      46.952  27.109  27.419  1.00  0.00     0.029 A 
ATOM     58  C   UNL A   1      46.682  26.709  28.719  1.00  0.00     0.049 A 
ATOM     59  H   UNL A   1      45.658  24.998  29.371  1.00  0.00     0.167 HD
ATOM     60  C   UNL A   1      46.716  28.410  30.415  1.00  0.00     0.074 A 
ATOM     61  C   UNL A   1      47.321  29.440  31.246  1.00  0.00     0.031 C 
ATOM     62  C   UNL A   1      47.163  27.177  30.018  1.00  0.00     0.031 A 
BRANCH  49  63
ATOM     63  C   UNL A   1      44.581  23.086  26.235  1.00  0.00    -0.014 A 
ATOM     64  C   UNL A   1      43.505  22.186  26.276  1.00  0.00     0.010 A 
ATOM     65  C   UNL A   1      45.706  22.715  25.457  1.00  0.00     0.010 A 
ATOM     66  C   UNL A   1      43.562  20.949  25.611  1.00  0.00     0.020 A 
ATOM     67  C   UNL A   1      45.769  21.485  24.784  1.00  0.00     0.020 A 
ATOM     68  C   UNL A   1      44.700  20.600  24.880  1.00  0.00     0.054 A 
BRANCH  68  69
ATOM     69  S   UNL A   1      44.773  18.966  24.091  1.00  0.00     0.124 S 
ATOM     70  O   UNL A   1      46.116  18.510  24.443  1.00  0.00    -0.237 OA
ATOM     71  O   UNL A   1      43.675  18.251  24.734  1.00  0.00    -0.237 OA
ATOM     72  O   UNL A   1      44.573  19.256  22.671  1.00  0.00    -0.744 OA
ENDBRANCH  68  69
ENDBRANCH  49  63
BRANCH  50  73
ATOM     73  C   UNL A   1      43.462  31.976  30.721  1.00  0.00    -0.014 A 
ATOM     74  C   UNL A   1      42.750  31.201  31.672  1.00  0.00     0.010 A 
ATOM     75  C   UNL A   1      43.374  33.372  30.825  1.00  0.00     0.010 A 
ATOM     76  C   UNL A   1      42.119  31.785  32.777  1.00  0.00     0.020 A 
ATOM     77  C   UNL A   1      42.716  33.968  31.928  1.00  0.00     0.020 A 
ATOM     78  C   UNL A   1      42.138  33.168  32.922  1.00  0.00     0.054 A 
BRANCH  78  79
ATOM     79  S   UNL A   1      41.542  33.875  34.494  1.00  0.00     0.124 S 
ATOM     80  O   UNL A   1      42.532  33.396  35.451  1.00  0.00    -0.237 OA
ATOM     81  O   UNL A   1      41.566  35.312  34.233  1.00  0.00    -0.237 OA
ATOM     82  O   UNL A   1      40.202  33.308  34.635  1.00  0.00    -0.744 OA
ENDBRANCH  78  79
ENDBRANCH  50  73
BRANCH  62  83
ATOM     83  C   UNL A   1      48.218  26.350  30.734  1.00  0.00    -0.014 A 
ATOM     84  C   UNL A   1      49.342  25.789  30.108  1.00  0.00     0.010 A 
ATOM     85  C   UNL A   1      48.154  26.200  32.143  1.00  0.00     0.010 A 
ATOM     86  C   UNL A   1      50.287  25.040  30.819  1.00  0.00     0.020 A 
ATOM     87  C   UNL A   1      49.127  25.512  32.876  1.00  0.00     0.020 A 
ATOM     88  C   UNL A   1      50.172  24.902  32.199  1.00  0.00     0.054 A 
BRANCH  88  89
ATOM     89  S   UNL A   1      51.430  23.959  33.090  1.00  0.00     0.124 S 
ATOM     90  O   UNL A   1      50.956  24.056  34.467  1.00  0.00    -0.237 OA
ATOM     91  O   UNL A   1      51.322  22.635  32.481  1.00  0.00    -0.237 OA
ATOM     92  O   UNL A   1      52.669  24.674  32.800  1.00  0.00    -0.744 OA
ENDBRANCH  88  89
ENDBRANCH  62  83
ENDBRANCH  36  37
ENDBRANCH  29  31
ENDBRANCH  28  29
ENDBRANCH  27  28
ENDBRANCH  26  27
ENDBRANCH   1  26
TORSDOF 20
ENDMDL
