MODEL 1
REMARK VINA RESULT:      -9.9      0.000      0.000
REMARK SMILES CCN1C(=O)/C(=C/N[C@H](CCSC)C(=O)OCCOC(=O)c2ccc(-c3c4nc(c(-c5ccc(S(=O)(=O)[O-])cc5)c5ccc([nH]5)c(-c5ccc(S(=O)(=O)[O-])cc5)c5nc(c(-c6ccc(S(=O)(=O)[O-])cc6)c6ccc3[nH]6)C=C5)C=C4)cc2)C(=O)NC1=S
REMARK SMILES IDX 17 1 16 2 14 3 15 4 9 5 8 6 7 8 3 9 4 10 85 11 5 12 6 13
REMARK SMILES IDX 84 14 86 15 82 16 83 18 2 19 1 20 10 21 11 22 12 23 13 24
REMARK SMILES IDX 18 25 19 26 20 27 21 28 22 29 23 30 81 31 24 32 80 33 25 34
REMARK SMILES IDX 26 35 27 36 74 37 28 38 79 39 73 40 75 41 29 42 78 43 72 44
REMARK SMILES IDX 71 45 30 47 60 48 41 49 59 50 42 51 45 52 58 53 76 54 43 55
REMARK SMILES IDX 44 56 57 58 77 59 46 60 31 61 32 62 40 63 33 64 39 65 34 66
REMARK SMILES IDX 35 67 36 68 37 69 38 70 61 71 62 72 70 73 63 74 69 75 64 76
REMARK SMILES IDX 65 77 66 78 67 79 68 80 47 81 48 82 56 83 49 84 55 85 50 86
REMARK SMILES IDX 51 87 52 88 53 89 54 90
REMARK H PARENT 8 7 84 17 75 46 45 57
REMARK Flexibility Score: inf
ROOT
ATOM      1  C   UNL A   1      36.693  23.710  25.691  1.00  0.00     0.274 C 
ENDROOT
BRANCH   1   2
ATOM      2  O   UNL A   1      36.021  22.583  25.090  1.00  0.00    -0.461 OA
BRANCH   2   3
ATOM      3  C   UNL A   1      35.465  22.789  23.873  1.00  0.00     0.328 C 
ATOM      4  O   UNL A   1      36.138  23.044  22.876  1.00  0.00    -0.250 OA
BRANCH   3   5
ATOM      5  C   UNL A   1      33.915  22.675  23.835  1.00  0.00     0.190 C 
BRANCH   5   6
ATOM      6  N   UNL A   1      33.219  23.905  24.267  1.00  0.00    -0.377 N 
ATOM      7  H   UNL A   1      32.330  23.776  24.670  1.00  0.00     0.160 HD
BRANCH   6   8
ATOM      8  C   UNL A   1      33.654  25.207  24.177  1.00  0.00     0.098 C 
ATOM      9  N   UNL A   1      32.295  28.305  23.728  1.00  0.00    -0.285 N 
ATOM     10  C   UNL A   1      33.463  27.535  23.755  1.00  0.00     0.267 C 
ATOM     11  C   UNL A   1      31.214  28.007  22.901  1.00  0.00     0.182 C 
ATOM     12  O   UNL A   1      34.539  27.917  24.202  1.00  0.00    -0.268 OA
ATOM     13  C   UNL A   1      33.243  26.148  23.312  1.00  0.00     0.121 C 
ATOM     14  N   UNL A   1      31.306  26.853  22.159  1.00  0.00    -0.298 N 
ATOM     15  S   UNL A   1      29.809  28.904  22.711  1.00  0.00    -0.040 S 
ATOM     16  C   UNL A   1      32.229  25.855  22.299  1.00  0.00     0.264 C 
ATOM     17  H   UNL A   1      30.633  26.733  21.450  1.00  0.00     0.172 HD
ATOM     18  O   UNL A   1      32.134  24.789  21.701  1.00  0.00    -0.269 OA
BRANCH   9  19
ATOM     19  C   UNL A   1      32.303  29.463  24.631  1.00  0.00     0.125 C 
ATOM     20  C   UNL A   1      31.622  29.180  25.958  1.00  0.00     0.028 C 
ENDBRANCH   9  19
ENDBRANCH   6   8
ENDBRANCH   5   6
BRANCH   5  21
ATOM     21  C   UNL A   1      33.197  21.425  24.394  1.00  0.00     0.048 C 
BRANCH  21  22
ATOM     22  C   UNL A   1      33.879  20.063  24.535  1.00  0.00     0.072 C 
BRANCH  22  23
ATOM     23  S   UNL A   1      33.051  18.536  23.963  1.00  0.00    -0.165 SA
ATOM     24  C   UNL A   1      32.703  17.677  25.503  1.00  0.00     0.085 C 
ENDBRANCH  22  23
ENDBRANCH  21  22
ENDBRANCH   5  21
ENDBRANCH   3   5
ENDBRANCH   2   3
ENDBRANCH   1   2
BRANCH   1  25
ATOM     25  C   UNL A   1      38.194  23.446  25.865  1.00  0.00     0.275 C 
BRANCH  25  26
ATOM     26  O   UNL A   1      38.713  23.990  27.095  1.00  0.00    -0.458 OA
BRANCH  26  27
ATOM     27  C   UNL A   1      39.945  24.543  27.016  1.00  0.00     0.338 C 
ATOM     28  O   UNL A   1      40.802  24.310  26.172  1.00  0.00    -0.246 OA
BRANCH  27  29
ATOM     29  C   UNL A   1      40.062  25.639  27.988  1.00  0.00     0.060 A 
ATOM     30  C   UNL A   1      39.075  25.746  28.968  1.00  0.00     0.016 A 
ATOM     31  C   UNL A   1      41.092  26.576  27.924  1.00  0.00     0.016 A 
ATOM     32  C   UNL A   1      39.097  26.776  29.892  1.00  0.00     0.010 A 
ATOM     33  C   UNL A   1      41.129  27.610  28.867  1.00  0.00     0.010 A 
ATOM     34  C   UNL A   1      40.135  27.707  29.858  1.00  0.00    -0.014 A 
BRANCH  34  35
ATOM     35  C   UNL A   1      40.166  28.772  30.880  1.00  0.00     0.031 A 
ATOM     36  C   UNL A   1      41.150  28.695  32.005  1.00  0.00     0.074 A 
ATOM     37  C   UNL A   1      39.334  29.822  30.756  1.00  0.00     0.049 A 
ATOM     38  N   UNL A   1      41.253  29.457  33.060  1.00  0.00    -0.248 NA
ATOM     39  C   UNL A   1      42.153  27.619  31.934  1.00  0.00     0.031 C 
ATOM     40  C   UNL A   1      38.401  30.037  29.645  1.00  0.00     0.029 A 
ATOM     41  N   UNL A   1      39.139  30.908  31.568  1.00  0.00    -0.354 N 
ATOM     42  C   UNL A   1      42.307  28.938  33.799  1.00  0.00     0.074 A 
ATOM     43  C   UNL A   1      42.814  27.795  33.070  1.00  0.00     0.031 C 
ATOM     44  C   UNL A   1      37.735  31.184  29.846  1.00  0.00     0.029 A 
ATOM     45  C   UNL A   1      38.142  31.746  31.129  1.00  0.00     0.049 A 
ATOM     46  H   UNL A   1      39.661  31.072  32.386  1.00  0.00     0.167 HD
ATOM     47  C   UNL A   1      42.794  29.375  34.983  1.00  0.00     0.031 A 
ATOM     48  C   UNL A   1      37.582  32.818  31.721  1.00  0.00     0.031 A 
ATOM     49  C   UNL A   1      42.271  30.515  35.690  1.00  0.00     0.049 A 
ATOM     50  C   UNL A   1      38.077  33.225  33.080  1.00  0.00     0.074 A 
ATOM     51  C   UNL A   1      42.679  31.040  36.901  1.00  0.00     0.029 A 
ATOM     52  N   UNL A   1      41.217  31.302  35.244  1.00  0.00    -0.354 N 
ATOM     53  N   UNL A   1      39.048  32.704  33.791  1.00  0.00    -0.248 NA
ATOM     54  C   UNL A   1      37.389  34.351  33.726  1.00  0.00     0.031 C 
ATOM     55  C   UNL A   1      41.840  32.116  37.213  1.00  0.00     0.029 A 
ATOM     56  C   UNL A   1      40.942  32.292  36.172  1.00  0.00     0.049 A 
ATOM     57  H   UNL A   1      40.738  31.175  34.395  1.00  0.00     0.167 HD
ATOM     58  C   UNL A   1      39.092  33.438  34.968  1.00  0.00     0.074 A 
ATOM     59  C   UNL A   1      38.065  34.456  34.863  1.00  0.00     0.031 C 
ATOM     60  C   UNL A   1      39.903  33.283  36.044  1.00  0.00     0.031 A 
BRANCH  47  61
ATOM     61  C   UNL A   1      43.904  28.580  35.613  1.00  0.00    -0.014 A 
ATOM     62  C   UNL A   1      45.256  28.894  35.381  1.00  0.00     0.010 A 
ATOM     63  C   UNL A   1      43.586  27.509  36.467  1.00  0.00     0.010 A 
ATOM     64  C   UNL A   1      46.268  28.127  35.966  1.00  0.00     0.020 A 
ATOM     65  C   UNL A   1      44.595  26.754  37.071  1.00  0.00     0.020 A 
ATOM     66  C   UNL A   1      45.930  27.057  36.802  1.00  0.00     0.054 A 
BRANCH  66  67
ATOM     67  S   UNL A   1      47.263  26.083  37.557  1.00  0.00     0.124 S 
ATOM     68  O   UNL A   1      46.516  25.189  38.439  1.00  0.00    -0.237 OA
ATOM     69  O   UNL A   1      47.889  25.446  36.402  1.00  0.00    -0.237 OA
ATOM     70  O   UNL A   1      48.083  27.084  38.234  1.00  0.00    -0.744 OA
ENDBRANCH  66  67
ENDBRANCH  47  61
BRANCH  48  71
ATOM     71  C   UNL A   1      36.449  33.523  31.064  1.00  0.00    -0.014 A 
ATOM     72  C   UNL A   1      35.250  33.760  31.754  1.00  0.00     0.010 A 
ATOM     73  C   UNL A   1      36.579  33.986  29.740  1.00  0.00     0.010 A 
ATOM     74  C   UNL A   1      34.197  34.439  31.131  1.00  0.00     0.020 A 
ATOM     75  C   UNL A   1      35.541  34.688  29.123  1.00  0.00     0.020 A 
ATOM     76  C   UNL A   1      34.350  34.901  29.820  1.00  0.00     0.054 A 
BRANCH  76  77
ATOM     77  S   UNL A   1      32.996  35.829  29.048  1.00  0.00     0.124 S 
ATOM     78  O   UNL A   1      33.716  36.889  28.349  1.00  0.00    -0.237 OA
ATOM     79  O   UNL A   1      32.365  34.824  28.197  1.00  0.00    -0.237 OA
ATOM     80  O   UNL A   1      32.189  36.265  30.186  1.00  0.00    -0.744 OA
ENDBRANCH  76  77
ENDBRANCH  48  71
BRANCH  60  81
ATOM     81  C   UNL A   1      39.713  34.242  37.184  1.00  0.00    -0.014 A 
ATOM     82  C   UNL A   1      39.006  33.859  38.338  1.00  0.00     0.010 A 
ATOM     83  C   UNL A   1      40.293  35.521  37.124  1.00  0.00     0.010 A 
ATOM     84  C   UNL A   1      38.865  34.748  39.405  1.00  0.00     0.020 A 
ATOM     85  C   UNL A   1      40.174  36.405  38.198  1.00  0.00     0.020 A 
ATOM     86  C   UNL A   1      39.450  36.017  39.328  1.00  0.00     0.054 A 
BRANCH  86  87
ATOM     87  S   UNL A   1      39.299  37.134  40.747  1.00  0.00     0.124 S 
ATOM     88  O   UNL A   1      38.643  36.282  41.735  1.00  0.00    -0.237 OA
ATOM     89  O   UNL A   1      40.689  37.478  41.037  1.00  0.00    -0.237 OA
ATOM     90  O   UNL A   1      38.486  38.235  40.236  1.00  0.00    -0.744 OA
ENDBRANCH  86  87
ENDBRANCH  60  81
ENDBRANCH  34  35
ENDBRANCH  27  29
ENDBRANCH  26  27
ENDBRANCH  25  26
ENDBRANCH   1  25
TORSDOF 20
ENDMDL
MODEL 2
REMARK VINA RESULT:      -9.8      6.694     10.942
REMARK SMILES CCN1C(=O)/C(=C/N[C@H](CCSC)C(=O)OCCOC(=O)c2ccc(-c3c4nc(c(-c5ccc(S(=O)(=O)[O-])cc5)c5ccc([nH]5)c(-c5ccc(S(=O)(=O)[O-])cc5)c5nc(c(-c6ccc(S(=O)(=O)[O-])cc6)c6ccc3[nH]6)C=C5)C=C4)cc2)C(=O)NC1=S
REMARK SMILES IDX 17 1 16 2 14 3 15 4 9 5 8 6 7 8 3 9 4 10 85 11 5 12 6 13
REMARK SMILES IDX 84 14 86 15 82 16 83 18 2 19 1 20 10 21 11 22 12 23 13 24
REMARK SMILES IDX 18 25 19 26 20 27 21 28 22 29 23 30 81 31 24 32 80 33 25 34
REMARK SMILES IDX 26 35 27 36 74 37 28 38 79 39 73 40 75 41 29 42 78 43 72 44
REMARK SMILES IDX 71 45 30 47 60 48 41 49 59 50 42 51 45 52 58 53 76 54 43 55
REMARK SMILES IDX 44 56 57 58 77 59 46 60 31 61 32 62 40 63 33 64 39 65 34 66
REMARK SMILES IDX 35 67 36 68 37 69 38 70 61 71 62 72 70 73 63 74 69 75 64 76
REMARK SMILES IDX 65 77 66 78 67 79 68 80 47 81 48 82 56 83 49 84 55 85 50 86
REMARK SMILES IDX 51 87 52 88 53 89 54 90
REMARK H PARENT 8 7 84 17 75 46 45 57
REMARK Flexibility Score: inf
ROOT
ATOM      1  C   UNL A   1      38.648  21.012  25.545  1.00  0.00     0.274 C 
ENDROOT
BRANCH   1   2
ATOM      2  O   UNL A   1      37.376  20.376  25.298  1.00  0.00    -0.461 OA
BRANCH   2   3
ATOM      3  C   UNL A   1      36.439  21.121  24.665  1.00  0.00     0.328 C 
ATOM      4  O   UNL A   1      36.733  22.002  23.860  1.00  0.00    -0.250 OA
BRANCH   3   5
ATOM      5  C   UNL A   1      34.969  20.773  25.034  1.00  0.00     0.190 C 
BRANCH   5   6
ATOM      6  N   UNL A   1      34.551  21.288  26.354  1.00  0.00    -0.377 N 
ATOM      7  H   UNL A   1      35.068  20.961  27.125  1.00  0.00     0.160 HD
BRANCH   6   8
ATOM      8  C   UNL A   1      33.531  22.166  26.643  1.00  0.00     0.098 C 
ATOM      9  N   UNL A   1      32.132  24.960  25.272  1.00  0.00    -0.285 N 
ATOM     10  C   UNL A   1      32.225  24.133  26.396  1.00  0.00     0.267 C 
ATOM     11  C   UNL A   1      33.243  25.553  24.678  1.00  0.00     0.182 C 
ATOM     12  O   UNL A   1      31.288  23.855  27.136  1.00  0.00    -0.268 OA
ATOM     13  C   UNL A   1      33.549  23.504  26.534  1.00  0.00     0.121 C 
ATOM     14  N   UNL A   1      34.471  25.219  25.196  1.00  0.00    -0.298 N 
ATOM     15  S   UNL A   1      33.247  26.634  23.394  1.00  0.00    -0.040 S 
ATOM     16  C   UNL A   1      34.747  24.211  26.078  1.00  0.00     0.264 C 
ATOM     17  H   UNL A   1      35.236  25.765  24.900  1.00  0.00     0.172 HD
ATOM     18  O   UNL A   1      35.894  23.884  26.358  1.00  0.00    -0.269 OA
BRANCH   9  19
ATOM     19  C   UNL A   1      30.766  25.166  24.775  1.00  0.00     0.125 C 
ATOM     20  C   UNL A   1      30.456  24.338  23.540  1.00  0.00     0.028 C 
ENDBRANCH   9  19
ENDBRANCH   6   8
ENDBRANCH   5   6
BRANCH   5  21
ATOM     21  C   UNL A   1      34.410  19.349  24.809  1.00  0.00     0.048 C 
BRANCH  21  22
ATOM     22  C   UNL A   1      33.079  19.075  24.105  1.00  0.00     0.072 C 
BRANCH  22  23
ATOM     23  S   UNL A   1      32.865  17.603  23.044  1.00  0.00    -0.165 SA
ATOM     24  C   UNL A   1      33.394  16.263  24.120  1.00  0.00     0.085 C 
ENDBRANCH  22  23
ENDBRANCH  21  22
ENDBRANCH   5  21
ENDBRANCH   3   5
ENDBRANCH   2   3
ENDBRANCH   1   2
BRANCH   1  25
ATOM     25  C   UNL A   1      39.767  19.981  25.741  1.00  0.00     0.275 C 
BRANCH  25  26
ATOM     26  O   UNL A   1      40.348  20.040  27.059  1.00  0.00    -0.458 OA
BRANCH  26  27
ATOM     27  C   UNL A   1      41.698  19.960  27.106  1.00  0.00     0.338 C 
ATOM     28  O   UNL A   1      42.382  18.960  26.923  1.00  0.00    -0.246 OA
BRANCH  27  29
ATOM     29  C   UNL A   1      42.273  21.308  27.215  1.00  0.00     0.060 A 
ATOM     30  C   UNL A   1      42.638  21.757  28.485  1.00  0.00     0.016 A 
ATOM     31  C   UNL A   1      42.419  22.141  26.107  1.00  0.00     0.016 A 
ATOM     32  C   UNL A   1      43.149  23.029  28.671  1.00  0.00     0.010 A 
ATOM     33  C   UNL A   1      42.952  23.423  26.288  1.00  0.00     0.010 A 
ATOM     34  C   UNL A   1      43.325  23.866  27.569  1.00  0.00    -0.014 A 
BRANCH  34  35
ATOM     35  C   UNL A   1      43.914  25.204  27.781  1.00  0.00     0.031 A 
ATOM     36  C   UNL A   1      43.055  26.325  28.279  1.00  0.00     0.074 A 
ATOM     37  C   UNL A   1      45.230  25.381  27.562  1.00  0.00     0.049 A 
ATOM     38  N   UNL A   1      43.351  27.589  28.410  1.00  0.00    -0.248 NA
ATOM     39  C   UNL A   1      41.684  25.976  28.686  1.00  0.00     0.031 C 
ATOM     40  C   UNL A   1      46.172  24.330  27.164  1.00  0.00     0.029 A 
ATOM     41  N   UNL A   1      46.005  26.508  27.647  1.00  0.00    -0.354 N 
ATOM     42  C   UNL A   1      42.196  28.199  28.881  1.00  0.00     0.074 A 
ATOM     43  C   UNL A   1      41.194  27.163  29.016  1.00  0.00     0.031 C 
ATOM     44  C   UNL A   1      47.397  24.862  27.042  1.00  0.00     0.029 A 
ATOM     45  C   UNL A   1      47.314  26.298  27.282  1.00  0.00     0.049 A 
ATOM     46  H   UNL A   1      45.660  27.381  27.940  1.00  0.00     0.167 HD
ATOM     47  C   UNL A   1      41.996  29.507  29.162  1.00  0.00     0.031 A 
ATOM     48  C   UNL A   1      48.320  27.175  27.109  1.00  0.00     0.031 A 
ATOM     49  C   UNL A   1      43.009  30.519  29.018  1.00  0.00     0.049 A 
ATOM     50  C   UNL A   1      48.045  28.635  27.336  1.00  0.00     0.074 A 
ATOM     51  C   UNL A   1      42.914  31.876  29.264  1.00  0.00     0.029 A 
ATOM     52  N   UNL A   1      44.306  30.279  28.585  1.00  0.00    -0.354 N 
ATOM     53  N   UNL A   1      46.938  29.208  27.743  1.00  0.00    -0.248 NA
ATOM     54  C   UNL A   1      49.147  29.567  27.062  1.00  0.00     0.031 C 
ATOM     55  C   UNL A   1      44.139  32.465  28.931  1.00  0.00     0.029 A 
ATOM     56  C   UNL A   1      45.012  31.467  28.527  1.00  0.00     0.049 A 
ATOM     57  H   UNL A   1      44.669  29.394  28.353  1.00  0.00     0.167 HD
ATOM     58  C   UNL A   1      47.208  30.570  27.777  1.00  0.00     0.074 A 
ATOM     59  C   UNL A   1      48.591  30.731  27.373  1.00  0.00     0.031 C 
ATOM     60  C   UNL A   1      46.385  31.597  28.107  1.00  0.00     0.031 A 
BRANCH  47  61
ATOM     61  C   UNL A   1      40.615  29.921  29.591  1.00  0.00    -0.014 A 
ATOM     62  C   UNL A   1      39.560  30.030  28.667  1.00  0.00     0.010 A 
ATOM     63  C   UNL A   1      40.367  30.187  30.950  1.00  0.00     0.010 A 
ATOM     64  C   UNL A   1      38.290  30.434  29.091  1.00  0.00     0.020 A 
ATOM     65  C   UNL A   1      39.094  30.570  31.381  1.00  0.00     0.020 A 
ATOM     66  C   UNL A   1      38.067  30.707  30.445  1.00  0.00     0.054 A 
BRANCH  66  67
ATOM     67  S   UNL A   1      36.408  31.219  30.972  1.00  0.00     0.124 S 
ATOM     68  O   UNL A   1      36.066  30.177  31.938  1.00  0.00    -0.237 OA
ATOM     69  O   UNL A   1      36.644  32.545  31.536  1.00  0.00    -0.237 OA
ATOM     70  O   UNL A   1      35.630  31.200  29.736  1.00  0.00    -0.744 OA
ENDBRANCH  66  67
ENDBRANCH  47  61
BRANCH  48  71
ATOM     71  C   UNL A   1      49.646  26.700  26.629  1.00  0.00    -0.014 A 
ATOM     72  C   UNL A   1      50.590  26.173  27.525  1.00  0.00     0.010 A 
ATOM     73  C   UNL A   1      49.959  26.749  25.257  1.00  0.00     0.010 A 
ATOM     74  C   UNL A   1      51.827  25.712  27.060  1.00  0.00     0.020 A 
ATOM     75  C   UNL A   1      51.181  26.266  24.785  1.00  0.00     0.020 A 
ATOM     76  C   UNL A   1      52.113  25.760  25.692  1.00  0.00     0.054 A 
BRANCH  76  77
ATOM     77  S   UNL A   1      53.700  25.107  25.101  1.00  0.00     0.124 S 
ATOM     78  O   UNL A   1      54.648  25.751  26.005  1.00  0.00    -0.237 OA
ATOM     79  O   UNL A   1      53.537  23.666  25.277  1.00  0.00    -0.237 OA
ATOM     80  O   UNL A   1      53.757  25.554  23.711  1.00  0.00    -0.744 OA
ENDBRANCH  76  77
ENDBRANCH  48  71
BRANCH  60  81
ATOM     81  C   UNL A   1      46.968  32.980  28.049  1.00  0.00    -0.014 A 
ATOM     82  C   UNL A   1      46.874  33.753  26.879  1.00  0.00     0.010 A 
ATOM     83  C   UNL A   1      47.567  33.533  29.195  1.00  0.00     0.010 A 
ATOM     84  C   UNL A   1      47.389  35.051  26.849  1.00  0.00     0.020 A 
ATOM     85  C   UNL A   1      48.063  34.838  29.176  1.00  0.00     0.020 A 
ATOM     86  C   UNL A   1      47.981  35.585  27.998  1.00  0.00     0.054 A 
BRANCH  86  87
ATOM     87  S   UNL A   1      48.595  37.290  27.951  1.00  0.00     0.124 S 
ATOM     88  O   UNL A   1      48.628  37.560  26.517  1.00  0.00    -0.237 OA
ATOM     89  O   UNL A   1      47.579  38.020  28.705  1.00  0.00    -0.237 OA
ATOM     90  O   UNL A   1      49.901  37.206  28.600  1.00  0.00    -0.744 OA
ENDBRANCH  86  87
ENDBRANCH  60  81
ENDBRANCH  34  35
ENDBRANCH  27  29
ENDBRANCH  26  27
ENDBRANCH  25  26
ENDBRANCH   1  25
TORSDOF 20
ENDMDL
MODEL 3
REMARK VINA RESULT:      -9.3      6.336      8.303
REMARK SMILES CCN1C(=O)/C(=C/N[C@H](CCSC)C(=O)OCCOC(=O)c2ccc(-c3c4nc(c(-c5ccc(S(=O)(=O)[O-])cc5)c5ccc([nH]5)c(-c5ccc(S(=O)(=O)[O-])cc5)c5nc(c(-c6ccc(S(=O)(=O)[O-])cc6)c6ccc3[nH]6)C=C5)C=C4)cc2)C(=O)NC1=S
REMARK SMILES IDX 17 1 16 2 14 3 15 4 9 5 8 6 7 8 3 9 4 10 85 11 5 12 6 13
REMARK SMILES IDX 84 14 86 15 82 16 83 18 2 19 1 20 10 21 11 22 12 23 13 24
REMARK SMILES IDX 18 25 19 26 20 27 21 28 22 29 23 30 81 31 24 32 80 33 25 34
REMARK SMILES IDX 26 35 27 36 74 37 28 38 79 39 73 40 75 41 29 42 78 43 72 44
REMARK SMILES IDX 71 45 30 47 60 48 41 49 59 50 42 51 45 52 58 53 76 54 43 55
REMARK SMILES IDX 44 56 57 58 77 59 46 60 31 61 32 62 40 63 33 64 39 65 34 66
REMARK SMILES IDX 35 67 36 68 37 69 38 70 61 71 62 72 70 73 63 74 69 75 64 76
REMARK SMILES IDX 65 77 66 78 67 79 68 80 47 81 48 82 56 83 49 84 55 85 50 86
REMARK SMILES IDX 51 87 52 88 53 89 54 90
REMARK H PARENT 8 7 84 17 75 46 45 57
REMARK Flexibility Score: inf
ROOT
ATOM      1  C   UNL A   1      38.753  20.763  25.522  1.00  0.00     0.274 C 
ENDROOT
BRANCH   1   2
ATOM      2  O   UNL A   1      37.367  20.368  25.578  1.00  0.00    -0.461 OA
BRANCH   2   3
ATOM      3  C   UNL A   1      36.517  21.022  24.751  1.00  0.00     0.328 C 
ATOM      4  O   UNL A   1      36.912  21.771  23.860  1.00  0.00    -0.250 OA
BRANCH   3   5
ATOM      5  C   UNL A   1      35.009  20.749  25.015  1.00  0.00     0.190 C 
BRANCH   5   6
ATOM      6  N   UNL A   1      34.557  21.169  26.358  1.00  0.00    -0.377 N 
ATOM      7  H   UNL A   1      35.026  20.753  27.117  1.00  0.00     0.160 HD
BRANCH   6   8
ATOM      8  C   UNL A   1      33.565  22.065  26.683  1.00  0.00     0.098 C 
ATOM      9  N   UNL A   1      32.217  24.925  25.400  1.00  0.00    -0.285 N 
ATOM     10  C   UNL A   1      32.305  24.069  26.503  1.00  0.00     0.267 C 
ATOM     11  C   UNL A   1      33.335  25.504  24.803  1.00  0.00     0.182 C 
ATOM     12  O   UNL A   1      31.372  23.797  27.250  1.00  0.00    -0.268 OA
ATOM     13  C   UNL A   1      33.615  23.404  26.606  1.00  0.00     0.121 C 
ATOM     14  N   UNL A   1      34.561  25.127  25.295  1.00  0.00    -0.298 N 
ATOM     15  S   UNL A   1      33.348  26.615  23.546  1.00  0.00    -0.040 S 
ATOM     16  C   UNL A   1      34.823  24.091  26.149  1.00  0.00     0.264 C 
ATOM     17  H   UNL A   1      35.335  25.660  25.001  1.00  0.00     0.172 HD
ATOM     18  O   UNL A   1      35.966  23.729  26.404  1.00  0.00    -0.269 OA
BRANCH   9  19
ATOM     19  C   UNL A   1      30.850  25.178  24.928  1.00  0.00     0.125 C 
ATOM     20  C   UNL A   1      30.475  24.330  23.725  1.00  0.00     0.028 C 
ENDBRANCH   9  19
ENDBRANCH   6   8
ENDBRANCH   5   6
BRANCH   5  21
ATOM     21  C   UNL A   1      34.367  19.398  24.627  1.00  0.00     0.048 C 
BRANCH  21  22
ATOM     22  C   UNL A   1      33.099  18.855  25.287  1.00  0.00     0.072 C 
BRANCH  22  23
ATOM     23  S   UNL A   1      32.715  17.068  25.253  1.00  0.00    -0.165 SA
ATOM     24  C   UNL A   1      33.616  16.500  23.804  1.00  0.00     0.085 C 
ENDBRANCH  22  23
ENDBRANCH  21  22
ENDBRANCH   5  21
ENDBRANCH   3   5
ENDBRANCH   2   3
ENDBRANCH   1   2
BRANCH   1  25
ATOM     25  C   UNL A   1      39.671  19.693  26.129  1.00  0.00     0.275 C 
BRANCH  25  26
ATOM     26  O   UNL A   1      40.940  19.605  25.452  1.00  0.00    -0.458 OA
BRANCH  26  27
ATOM     27  C   UNL A   1      42.031  19.611  26.252  1.00  0.00     0.338 C 
ATOM     28  O   UNL A   1      42.651  18.635  26.656  1.00  0.00    -0.246 OA
BRANCH  27  29
ATOM     29  C   UNL A   1      42.514  20.988  26.425  1.00  0.00     0.060 A 
ATOM     30  C   UNL A   1      42.709  21.449  27.727  1.00  0.00     0.016 A 
ATOM     31  C   UNL A   1      42.735  21.835  25.340  1.00  0.00     0.016 A 
ATOM     32  C   UNL A   1      43.124  22.746  27.968  1.00  0.00     0.010 A 
ATOM     33  C   UNL A   1      43.172  23.143  25.578  1.00  0.00     0.010 A 
ATOM     34  C   UNL A   1      43.375  23.599  26.894  1.00  0.00    -0.014 A 
BRANCH  34  35
ATOM     35  C   UNL A   1      43.860  24.966  27.170  1.00  0.00     0.031 A 
ATOM     36  C   UNL A   1      45.293  25.313  26.912  1.00  0.00     0.074 A 
ATOM     37  C   UNL A   1      42.989  25.893  27.610  1.00  0.00     0.049 A 
ATOM     38  N   UNL A   1      45.937  26.410  27.203  1.00  0.00    -0.248 NA
ATOM     39  C   UNL A   1      46.110  24.291  26.236  1.00  0.00     0.031 C 
ATOM     40  C   UNL A   1      41.552  25.679  27.806  1.00  0.00     0.029 A 
ATOM     41  N   UNL A   1      43.183  27.200  27.970  1.00  0.00    -0.354 N 
ATOM     42  C   UNL A   1      47.243  26.204  26.778  1.00  0.00     0.074 A 
ATOM     43  C   UNL A   1      47.299  24.876  26.207  1.00  0.00     0.031 C 
ATOM     44  C   UNL A   1      40.995  26.817  28.248  1.00  0.00     0.029 A 
ATOM     45  C   UNL A   1      42.044  27.813  28.434  1.00  0.00     0.049 A 
ATOM     46  H   UNL A   1      44.053  27.656  27.903  1.00  0.00     0.167 HD
ATOM     47  C   UNL A   1      48.296  27.049  26.872  1.00  0.00     0.031 A 
ATOM     48  C   UNL A   1      41.874  29.025  28.995  1.00  0.00     0.031 A 
ATOM     49  C   UNL A   1      48.215  28.366  27.446  1.00  0.00     0.049 A 
ATOM     50  C   UNL A   1      43.078  29.907  29.174  1.00  0.00     0.074 A 
ATOM     51  C   UNL A   1      49.219  29.302  27.601  1.00  0.00     0.029 A 
ATOM     52  N   UNL A   1      47.056  28.930  27.964  1.00  0.00    -0.354 N 
ATOM     53  N   UNL A   1      44.318  29.687  28.806  1.00  0.00    -0.248 NA
ATOM     54  C   UNL A   1      42.865  31.187  29.860  1.00  0.00     0.031 C 
ATOM     55  C   UNL A   1      48.680  30.414  28.259  1.00  0.00     0.029 A 
ATOM     56  C   UNL A   1      47.328  30.189  28.467  1.00  0.00     0.049 A 
ATOM     57  H   UNL A   1      46.173  28.496  27.972  1.00  0.00     0.167 HD
ATOM     58  C   UNL A   1      45.036  30.804  29.213  1.00  0.00     0.074 A 
ATOM     59  C   UNL A   1      44.086  31.707  29.833  1.00  0.00     0.031 C 
ATOM     60  C   UNL A   1      46.362  31.059  29.091  1.00  0.00     0.031 A 
BRANCH  47  61
ATOM     61  C   UNL A   1      49.632  26.547  26.398  1.00  0.00    -0.014 A 
ATOM     62  C   UNL A   1      50.104  26.823  25.102  1.00  0.00     0.010 A 
ATOM     63  C   UNL A   1      50.437  25.798  27.276  1.00  0.00     0.010 A 
ATOM     64  C   UNL A   1      51.343  26.328  24.683  1.00  0.00     0.020 A 
ATOM     65  C   UNL A   1      51.685  25.321  26.868  1.00  0.00     0.020 A 
ATOM     66  C   UNL A   1      52.123  25.574  25.567  1.00  0.00     0.054 A 
BRANCH  66  67
ATOM     67  S   UNL A   1      53.731  24.953  25.002  1.00  0.00     0.124 S 
ATOM     68  O   UNL A   1      53.849  25.578  23.686  1.00  0.00    -0.237 OA
ATOM     69  O   UNL A   1      54.647  25.458  26.020  1.00  0.00    -0.237 OA
ATOM     70  O   UNL A   1      53.557  23.502  24.988  1.00  0.00    -0.744 OA
ENDBRANCH  66  67
ENDBRANCH  47  61
BRANCH  48  71
ATOM     71  C   UNL A   1      40.532  29.433  29.490  1.00  0.00    -0.014 A 
ATOM     72  C   UNL A   1      40.228  29.394  30.861  1.00  0.00     0.010 A 
ATOM     73  C   UNL A   1      39.556  29.892  28.586  1.00  0.00     0.010 A 
ATOM     74  C   UNL A   1      38.967  29.796  31.317  1.00  0.00     0.020 A 
ATOM     75  C   UNL A   1      38.306  30.320  29.040  1.00  0.00     0.020 A 
ATOM     76  C   UNL A   1      38.016  30.259  30.404  1.00  0.00     0.054 A 
BRANCH  76  77
ATOM     77  S   UNL A   1      36.407  30.830  31.020  1.00  0.00     0.124 S 
ATOM     78  O   UNL A   1      35.528  29.729  30.635  1.00  0.00    -0.237 OA
ATOM     79  O   UNL A   1      36.648  30.976  32.453  1.00  0.00    -0.237 OA
ATOM     80  O   UNL A   1      36.191  32.084  30.301  1.00  0.00    -0.744 OA
ENDBRANCH  76  77
ENDBRANCH  48  71
BRANCH  60  81
ATOM     81  C   UNL A   1      46.856  32.370  29.635  1.00  0.00    -0.014 A 
ATOM     82  C   UNL A   1      46.787  33.542  28.863  1.00  0.00     0.010 A 
ATOM     83  C   UNL A   1      47.343  32.438  30.952  1.00  0.00     0.010 A 
ATOM     84  C   UNL A   1      47.217  34.761  29.392  1.00  0.00     0.020 A 
ATOM     85  C   UNL A   1      47.753  33.659  31.493  1.00  0.00     0.020 A 
ATOM     86  C   UNL A   1      47.698  34.811  30.705  1.00  0.00     0.054 A 
BRANCH  86  87
ATOM     87  S   UNL A   1      48.201  36.413  31.389  1.00  0.00     0.124 S 
ATOM     88  O   UNL A   1      48.048  37.296  30.236  1.00  0.00    -0.237 OA
ATOM     89  O   UNL A   1      47.241  36.618  32.471  1.00  0.00    -0.237 OA
ATOM     90  O   UNL A   1      49.578  36.187  31.822  1.00  0.00    -0.744 OA
ENDBRANCH  86  87
ENDBRANCH  60  81
ENDBRANCH  34  35
ENDBRANCH  27  29
ENDBRANCH  26  27
ENDBRANCH  25  26
ENDBRANCH   1  25
TORSDOF 20
ENDMDL
