MODEL 1
REMARK VINA RESULT:      -9.6      0.000      0.000
REMARK SMILES COc1ccc2cc([C@H](C)C(=O)OCCOC(=O)c3ccc(-c4c5nc(c(-c6ccc(S(=O)(=O)[O-])cc6)c6ccc([nH]6)c(-c6ccc(S(=O)(=O)[O-])cc6)c6nc(c(-c7ccc(S(=O)(=O)[O-])cc7)c7ccc4[nH]7)C=C6)C=C5)cc3)ccc2c1
REMARK SMILES IDX 15 1 14 2 13 3 11 4 12 5 9 6 10 7 8 8 3 9 4 10 82 11 5 12
REMARK SMILES IDX 81 13 6 14 80 15 7 16 79 17 2 18 1 19 16 20 17 21 18 22
REMARK SMILES IDX 19 23 20 24 78 25 21 26 77 27 22 28 23 29 24 30 71 31 25 32
REMARK SMILES IDX 76 33 70 34 72 35 26 36 75 37 69 38 68 39 27 41 57 42 38 43
REMARK SMILES IDX 56 44 39 45 42 46 55 47 73 48 40 49 41 50 54 52 74 53 43 54
REMARK SMILES IDX 28 55 29 56 37 57 30 58 36 59 31 60 32 61 33 62 34 63 35 64
REMARK SMILES IDX 58 65 59 66 67 67 60 68 66 69 61 70 62 71 63 72 64 73 65 74
REMARK SMILES IDX 44 75 45 76 53 77 46 78 52 79 47 80 48 81 49 82 50 83 51 84
REMARK H PARENT 72 40 42 51
REMARK Flexibility Score: inf
ROOT
ATOM      1  C   UNL A   1      34.770  32.998  28.275  1.00  0.00     0.275 C 
ENDROOT
BRANCH   1   2
ATOM      2  C   UNL A   1      33.855  34.133  28.746  1.00  0.00     0.274 C 
BRANCH   2   3
ATOM      3  O   UNL A   1      34.514  34.998  29.692  1.00  0.00    -0.462 OA
BRANCH   3   4
ATOM      4  C   UNL A   1      33.915  35.112  30.908  1.00  0.00     0.313 C 
ATOM      5  O   UNL A   1      32.701  35.114  31.083  1.00  0.00    -0.252 OA
BRANCH   4   6
ATOM      6  C   UNL A   1      34.911  35.264  32.055  1.00  0.00     0.126 C 
ATOM      7  C   UNL A   1      34.363  35.997  33.281  1.00  0.00     0.025 C 
BRANCH   6   8
ATOM      8  C   UNL A   1      35.569  33.934  32.368  1.00  0.00    -0.033 A 
ATOM      9  C   UNL A   1      38.859  30.308  33.712  1.00  0.00     0.119 A 
ATOM     10  C   UNL A   1      39.512  31.518  33.935  1.00  0.00     0.047 A 
ATOM     11  C   UNL A   1      37.571  30.300  33.177  1.00  0.00     0.055 A 
ATOM     12  C   UNL A   1      38.859  32.721  33.659  1.00  0.00     0.012 A 
ATOM     13  C   UNL A   1      36.898  31.501  32.903  1.00  0.00    -0.015 A 
ATOM     14  C   UNL A   1      37.551  32.727  33.151  1.00  0.00    -0.018 A 
ATOM     15  C   UNL A   1      35.594  31.510  32.385  1.00  0.00     0.009 A 
ATOM     16  C   UNL A   1      36.880  33.927  32.877  1.00  0.00     0.013 A 
ATOM     17  C   UNL A   1      34.938  32.713  32.115  1.00  0.00     0.005 A 
BRANCH   9  18
ATOM     18  O   UNL A   1      39.411  29.076  33.943  1.00  0.00    -0.497 OA
ATOM     19  C   UNL A   1      40.118  28.539  32.829  1.00  0.00     0.278 C 
ENDBRANCH   9  18
ENDBRANCH   6   8
ENDBRANCH   4   6
ENDBRANCH   3   4
ENDBRANCH   2   3
ENDBRANCH   1   2
BRANCH   1  20
ATOM     20  O   UNL A   1      34.345  31.716  28.775  1.00  0.00    -0.458 OA
BRANCH  20  21
ATOM     21  C   UNL A   1      34.532  30.682  27.922  1.00  0.00     0.338 C 
ATOM     22  O   UNL A   1      33.783  30.319  27.031  1.00  0.00    -0.246 OA
BRANCH  21  23
ATOM     23  C   UNL A   1      35.867  30.097  28.122  1.00  0.00     0.060 A 
ATOM     24  C   UNL A   1      36.186  29.615  29.394  1.00  0.00     0.016 A 
ATOM     25  C   UNL A   1      36.828  30.123  27.112  1.00  0.00     0.016 A 
ATOM     26  C   UNL A   1      37.473  29.171  29.673  1.00  0.00     0.010 A 
ATOM     27  C   UNL A   1      38.122  29.673  27.391  1.00  0.00     0.010 A 
ATOM     28  C   UNL A   1      38.456  29.213  28.678  1.00  0.00    -0.014 A 
BRANCH  28  29
ATOM     29  C   UNL A   1      39.849  28.841  29.018  1.00  0.00     0.031 A 
ATOM     30  C   UNL A   1      40.718  29.822  29.752  1.00  0.00     0.074 A 
ATOM     31  C   UNL A   1      40.314  27.616  28.711  1.00  0.00     0.049 A 
ATOM     32  N   UNL A   1      41.980  29.721  30.081  1.00  0.00    -0.248 NA
ATOM     33  C   UNL A   1      40.083  31.080  30.174  1.00  0.00     0.031 C 
ATOM     34  C   UNL A   1      39.540  26.555  28.067  1.00  0.00     0.029 A 
ATOM     35  N   UNL A   1      41.550  27.058  28.911  1.00  0.00    -0.354 N 
ATOM     36  C   UNL A   1      42.297  30.909  30.729  1.00  0.00     0.074 A 
ATOM     37  C   UNL A   1      41.098  31.721  30.735  1.00  0.00     0.031 C 
ATOM     38  C   UNL A   1      40.316  25.466  27.938  1.00  0.00     0.029 A 
ATOM     39  C   UNL A   1      41.653  25.771  28.441  1.00  0.00     0.049 A 
ATOM     40  H   UNL A   1      42.292  27.532  29.351  1.00  0.00     0.167 HD
ATOM     41  C   UNL A   1      43.480  31.289  31.267  1.00  0.00     0.031 A 
ATOM     42  C   UNL A   1      42.712  24.941  28.398  1.00  0.00     0.031 A 
ATOM     43  C   UNL A   1      44.670  30.480  31.254  1.00  0.00     0.049 A 
ATOM     44  C   UNL A   1      44.036  25.414  28.932  1.00  0.00     0.074 A 
ATOM     45  C   UNL A   1      45.925  30.783  31.752  1.00  0.00     0.029 A 
ATOM     46  N   UNL A   1      44.748  29.204  30.718  1.00  0.00    -0.354 N 
ATOM     47  N   UNL A   1      44.331  26.558  29.503  1.00  0.00    -0.248 NA
ATOM     48  C   UNL A   1      45.170  24.487  28.808  1.00  0.00     0.031 C 
ATOM     49  C   UNL A   1      46.773  29.702  31.484  1.00  0.00     0.029 A 
ATOM     50  C   UNL A   1      46.034  28.709  30.859  1.00  0.00     0.049 A 
ATOM     51  H   UNL A   1      44.001  28.721  30.298  1.00  0.00     0.167 HD
ATOM     52  C   UNL A   1      45.682  26.481  29.824  1.00  0.00     0.074 A 
ATOM     53  C   UNL A   1      46.141  25.176  29.395  1.00  0.00     0.031 C 
ATOM     54  C   UNL A   1      46.471  27.408  30.423  1.00  0.00     0.031 A 
BRANCH  41  55
ATOM     55  C   UNL A   1      43.548  32.667  31.869  1.00  0.00    -0.014 A 
ATOM     56  C   UNL A   1      43.135  32.905  33.192  1.00  0.00     0.010 A 
ATOM     57  C   UNL A   1      44.036  33.738  31.099  1.00  0.00     0.010 A 
ATOM     58  C   UNL A   1      43.161  34.200  33.718  1.00  0.00     0.020 A 
ATOM     59  C   UNL A   1      44.085  35.030  31.629  1.00  0.00     0.020 A 
ATOM     60  C   UNL A   1      43.627  35.256  32.928  1.00  0.00     0.054 A 
BRANCH  60  61
ATOM     61  S   UNL A   1      43.644  36.932  33.625  1.00  0.00     0.124 S 
ATOM     62  O   UNL A   1      43.637  37.758  32.421  1.00  0.00    -0.237 OA
ATOM     63  O   UNL A   1      42.417  36.965  34.417  1.00  0.00    -0.237 OA
ATOM     64  O   UNL A   1      44.882  36.971  34.400  1.00  0.00    -0.744 OA
ENDBRANCH  60  61
ENDBRANCH  41  55
BRANCH  42  65
ATOM     65  C   UNL A   1      42.567  23.584  27.804  1.00  0.00    -0.014 A 
ATOM     66  C   UNL A   1      42.867  23.363  26.450  1.00  0.00     0.010 A 
ATOM     67  C   UNL A   1      42.143  22.503  28.598  1.00  0.00     0.010 A 
ATOM     68  C   UNL A   1      42.740  22.085  25.897  1.00  0.00     0.020 A 
ATOM     69  C   UNL A   1      42.037  21.220  28.055  1.00  0.00     0.020 A 
ATOM     70  C   UNL A   1      42.327  21.022  26.704  1.00  0.00     0.054 A 
BRANCH  70  71
ATOM     71  S   UNL A   1      42.229  19.358  25.984  1.00  0.00     0.124 S 
ATOM     72  O   UNL A   1      42.793  18.535  27.048  1.00  0.00    -0.237 OA
ATOM     73  O   UNL A   1      40.795  19.196  25.752  1.00  0.00    -0.237 OA
ATOM     74  O   UNL A   1      43.040  19.463  24.773  1.00  0.00    -0.744 OA
ENDBRANCH  70  71
ENDBRANCH  42  65
BRANCH  54  75
ATOM     75  C   UNL A   1      47.903  27.028  30.676  1.00  0.00    -0.014 A 
ATOM     76  C   UNL A   1      48.898  27.264  29.712  1.00  0.00     0.010 A 
ATOM     77  C   UNL A   1      48.264  26.470  31.916  1.00  0.00     0.010 A 
ATOM     78  C   UNL A   1      50.227  26.922  29.973  1.00  0.00     0.020 A 
ATOM     79  C   UNL A   1      49.594  26.146  32.188  1.00  0.00     0.020 A 
ATOM     80  C   UNL A   1      50.566  26.362  31.209  1.00  0.00     0.054 A 
BRANCH  80  81
ATOM     81  S   UNL A   1      52.304  25.963  31.545  1.00  0.00     0.124 S 
ATOM     82  O   UNL A   1      52.219  24.571  31.975  1.00  0.00    -0.237 OA
ATOM     83  O   UNL A   1      52.944  26.184  30.250  1.00  0.00    -0.237 OA
ATOM     84  O   UNL A   1      52.681  26.917  32.587  1.00  0.00    -0.744 OA
ENDBRANCH  80  81
ENDBRANCH  54  75
ENDBRANCH  28  29
ENDBRANCH  21  23
ENDBRANCH  20  21
ENDBRANCH   1  20
TORSDOF 16
ENDMDL
MODEL 2
REMARK VINA RESULT:      -9.2      4.488     11.503
REMARK SMILES COc1ccc2cc([C@H](C)C(=O)OCCOC(=O)c3ccc(-c4c5nc(c(-c6ccc(S(=O)(=O)[O-])cc6)c6ccc([nH]6)c(-c6ccc(S(=O)(=O)[O-])cc6)c6nc(c(-c7ccc(S(=O)(=O)[O-])cc7)c7ccc4[nH]7)C=C6)C=C5)cc3)ccc2c1
REMARK SMILES IDX 15 1 14 2 13 3 11 4 12 5 9 6 10 7 8 8 3 9 4 10 82 11 5 12
REMARK SMILES IDX 81 13 6 14 80 15 7 16 79 17 2 18 1 19 16 20 17 21 18 22
REMARK SMILES IDX 19 23 20 24 78 25 21 26 77 27 22 28 23 29 24 30 71 31 25 32
REMARK SMILES IDX 76 33 70 34 72 35 26 36 75 37 69 38 68 39 27 41 57 42 38 43
REMARK SMILES IDX 56 44 39 45 42 46 55 47 73 48 40 49 41 50 54 52 74 53 43 54
REMARK SMILES IDX 28 55 29 56 37 57 30 58 36 59 31 60 32 61 33 62 34 63 35 64
REMARK SMILES IDX 58 65 59 66 67 67 60 68 66 69 61 70 62 71 63 72 64 73 65 74
REMARK SMILES IDX 44 75 45 76 53 77 46 78 52 79 47 80 48 81 49 82 50 83 51 84
REMARK H PARENT 72 40 42 51
REMARK Flexibility Score: inf
ROOT
ATOM      1  C   UNL A   1      44.043  24.197  25.426  1.00  0.00     0.275 C 
ENDROOT
BRANCH   1   2
ATOM      2  C   UNL A   1      43.684  22.871  24.749  1.00  0.00     0.274 C 
BRANCH   2   3
ATOM      3  O   UNL A   1      42.333  22.465  25.043  1.00  0.00    -0.462 OA
BRANCH   3   4
ATOM      4  C   UNL A   1      42.202  21.341  25.799  1.00  0.00     0.313 C 
ATOM      5  O   UNL A   1      42.720  20.263  25.528  1.00  0.00    -0.252 OA
BRANCH   4   6
ATOM      6  C   UNL A   1      41.315  21.542  27.025  1.00  0.00     0.126 C 
ATOM      7  C   UNL A   1      42.012  22.211  28.211  1.00  0.00     0.025 C 
BRANCH   6   8
ATOM      8  C   UNL A   1      40.001  22.188  26.630  1.00  0.00    -0.033 A 
ATOM      9  C   UNL A   1      35.437  23.142  24.619  1.00  0.00     0.119 A 
ATOM     10  C   UNL A   1      35.750  21.835  24.253  1.00  0.00     0.047 A 
ATOM     11  C   UNL A   1      36.350  23.896  25.358  1.00  0.00     0.055 A 
ATOM     12  C   UNL A   1      36.960  21.270  24.661  1.00  0.00     0.012 A 
ATOM     13  C   UNL A   1      37.566  23.339  25.784  1.00  0.00    -0.015 A 
ATOM     14  C   UNL A   1      37.872  22.007  25.433  1.00  0.00    -0.018 A 
ATOM     15  C   UNL A   1      38.484  24.076  26.546  1.00  0.00     0.009 A 
ATOM     16  C   UNL A   1      39.087  21.450  25.857  1.00  0.00     0.013 A 
ATOM     17  C   UNL A   1      39.691  23.510  26.961  1.00  0.00     0.005 A 
BRANCH   9  18
ATOM     18  O   UNL A   1      34.284  23.789  24.265  1.00  0.00    -0.497 OA
ATOM     19  C   UNL A   1      33.566  23.160  23.208  1.00  0.00     0.278 C 
ENDBRANCH   9  18
ENDBRANCH   6   8
ENDBRANCH   4   6
ENDBRANCH   3   4
ENDBRANCH   2   3
ENDBRANCH   1   2
BRANCH   1  20
ATOM     20  O   UNL A   1      42.930  24.760  26.144  1.00  0.00    -0.458 OA
BRANCH  20  21
ATOM     21  C   UNL A   1      42.581  26.011  25.764  1.00  0.00     0.338 C 
ATOM     22  O   UNL A   1      42.541  26.451  24.627  1.00  0.00    -0.246 OA
BRANCH  21  23
ATOM     23  C   UNL A   1      42.112  26.780  26.926  1.00  0.00     0.060 A 
ATOM     24  C   UNL A   1      42.612  28.072  27.102  1.00  0.00     0.016 A 
ATOM     25  C   UNL A   1      41.283  26.204  27.888  1.00  0.00     0.016 A 
ATOM     26  C   UNL A   1      42.303  28.794  28.249  1.00  0.00     0.010 A 
ATOM     27  C   UNL A   1      40.969  26.931  29.040  1.00  0.00     0.010 A 
ATOM     28  C   UNL A   1      41.492  28.222  29.235  1.00  0.00    -0.014 A 
BRANCH  28  29
ATOM     29  C   UNL A   1      41.261  28.957  30.501  1.00  0.00     0.031 A 
ATOM     30  C   UNL A   1      40.120  29.928  30.595  1.00  0.00     0.074 A 
ATOM     31  C   UNL A   1      42.041  28.717  31.571  1.00  0.00     0.049 A 
ATOM     32  N   UNL A   1      39.789  30.719  31.583  1.00  0.00    -0.248 NA
ATOM     33  C   UNL A   1      39.233  30.019  29.425  1.00  0.00     0.031 C 
ATOM     34  C   UNL A   1      43.131  27.742  31.621  1.00  0.00     0.029 A 
ATOM     35  N   UNL A   1      42.028  29.272  32.824  1.00  0.00    -0.354 N 
ATOM     36  C   UNL A   1      38.669  31.419  31.147  1.00  0.00     0.074 A 
ATOM     37  C   UNL A   1      38.385  30.967  29.801  1.00  0.00     0.031 C 
ATOM     38  C   UNL A   1      43.674  27.758  32.851  1.00  0.00     0.029 A 
ATOM     39  C   UNL A   1      43.005  28.778  33.654  1.00  0.00     0.049 A 
ATOM     40  H   UNL A   1      41.380  29.958  33.104  1.00  0.00     0.167 HD
ATOM     41  C   UNL A   1      37.946  32.353  31.808  1.00  0.00     0.031 A 
ATOM     42  C   UNL A   1      43.339  29.125  34.912  1.00  0.00     0.031 A 
ATOM     43  C   UNL A   1      38.236  32.802  33.144  1.00  0.00     0.049 A 
ATOM     44  C   UNL A   1      42.570  30.221  35.597  1.00  0.00     0.074 A 
ATOM     45  C   UNL A   1      37.578  33.760  33.895  1.00  0.00     0.029 A 
ATOM     46  N   UNL A   1      39.269  32.316  33.932  1.00  0.00    -0.354 N 
ATOM     47  N   UNL A   1      41.540  30.903  35.156  1.00  0.00    -0.248 NA
ATOM     48  C   UNL A   1      43.013  30.596  36.947  1.00  0.00     0.031 C 
ATOM     49  C   UNL A   1      38.237  33.880  35.124  1.00  0.00     0.029 A 
ATOM     50  C   UNL A   1      39.277  32.964  35.155  1.00  0.00     0.049 A 
ATOM     51  H   UNL A   1      39.904  31.614  33.661  1.00  0.00     0.167 HD
ATOM     52  C   UNL A   1      41.200  31.778  36.183  1.00  0.00     0.074 A 
ATOM     53  C   UNL A   1      42.126  31.529  37.269  1.00  0.00     0.031 C 
ATOM     54  C   UNL A   1      40.209  32.703  36.222  1.00  0.00     0.031 A 
BRANCH  41  55
ATOM     55  C   UNL A   1      36.801  32.986  31.065  1.00  0.00    -0.014 A 
ATOM     56  C   UNL A   1      37.025  33.895  30.016  1.00  0.00     0.010 A 
ATOM     57  C   UNL A   1      35.479  32.663  31.422  1.00  0.00     0.010 A 
ATOM     58  C   UNL A   1      35.948  34.508  29.371  1.00  0.00     0.020 A 
ATOM     59  C   UNL A   1      34.399  33.257  30.764  1.00  0.00     0.020 A 
ATOM     60  C   UNL A   1      34.641  34.192  29.756  1.00  0.00     0.054 A 
BRANCH  60  61
ATOM     61  S   UNL A   1      33.256  35.006  28.912  1.00  0.00     0.124 S 
ATOM     62  O   UNL A   1      32.364  35.314  30.027  1.00  0.00    -0.237 OA
ATOM     63  O   UNL A   1      33.894  36.160  28.283  1.00  0.00    -0.237 OA
ATOM     64  O   UNL A   1      32.768  33.987  27.987  1.00  0.00    -0.744 OA
ENDBRANCH  60  61
ENDBRANCH  41  55
BRANCH  42  65
ATOM     65  C   UNL A   1      44.472  28.444  35.592  1.00  0.00    -0.014 A 
ATOM     66  C   UNL A   1      45.778  28.953  35.486  1.00  0.00     0.010 A 
ATOM     67  C   UNL A   1      44.247  27.289  36.365  1.00  0.00     0.010 A 
ATOM     68  C   UNL A   1      46.840  28.316  36.136  1.00  0.00     0.020 A 
ATOM     69  C   UNL A   1      45.301  26.664  37.034  1.00  0.00     0.020 A 
ATOM     70  C   UNL A   1      46.594  27.176  36.907  1.00  0.00     0.054 A 
BRANCH  70  71
ATOM     71  S   UNL A   1      47.975  26.400  37.794  1.00  0.00     0.124 S 
ATOM     72  O   UNL A   1      49.117  26.790  36.973  1.00  0.00    -0.237 OA
ATOM     73  O   UNL A   1      47.899  27.027  39.111  1.00  0.00    -0.237 OA
ATOM     74  O   UNL A   1      47.639  24.978  37.768  1.00  0.00    -0.744 OA
ENDBRANCH  70  71
ENDBRANCH  42  65
BRANCH  54  75
ATOM     75  C   UNL A   1      40.057  33.491  37.493  1.00  0.00    -0.014 A 
ATOM     76  C   UNL A   1      40.837  34.634  37.737  1.00  0.00     0.010 A 
ATOM     77  C   UNL A   1      39.087  33.105  38.436  1.00  0.00     0.010 A 
ATOM     78  C   UNL A   1      40.668  35.365  38.916  1.00  0.00     0.020 A 
ATOM     79  C   UNL A   1      38.901  33.844  39.606  1.00  0.00     0.020 A 
ATOM     80  C   UNL A   1      39.703  34.962  39.845  1.00  0.00     0.054 A 
BRANCH  80  81
ATOM     81  S   UNL A   1      39.469  35.948  41.350  1.00  0.00     0.124 S 
ATOM     82  O   UNL A   1      40.827  36.411  41.623  1.00  0.00    -0.237 OA
ATOM     83  O   UNL A   1      38.528  36.980  40.920  1.00  0.00    -0.237 OA
ATOM     84  O   UNL A   1      38.932  34.987  42.312  1.00  0.00    -0.744 OA
ENDBRANCH  80  81
ENDBRANCH  54  75
ENDBRANCH  28  29
ENDBRANCH  21  23
ENDBRANCH  20  21
ENDBRANCH   1  20
TORSDOF 16
ENDMDL
MODEL 3
REMARK VINA RESULT:      -9.1      2.719      5.359
REMARK SMILES COc1ccc2cc([C@H](C)C(=O)OCCOC(=O)c3ccc(-c4c5nc(c(-c6ccc(S(=O)(=O)[O-])cc6)c6ccc([nH]6)c(-c6ccc(S(=O)(=O)[O-])cc6)c6nc(c(-c7ccc(S(=O)(=O)[O-])cc7)c7ccc4[nH]7)C=C6)C=C5)cc3)ccc2c1
REMARK SMILES IDX 15 1 14 2 13 3 11 4 12 5 9 6 10 7 8 8 3 9 4 10 82 11 5 12
REMARK SMILES IDX 81 13 6 14 80 15 7 16 79 17 2 18 1 19 16 20 17 21 18 22
REMARK SMILES IDX 19 23 20 24 78 25 21 26 77 27 22 28 23 29 24 30 71 31 25 32
REMARK SMILES IDX 76 33 70 34 72 35 26 36 75 37 69 38 68 39 27 41 57 42 38 43
REMARK SMILES IDX 56 44 39 45 42 46 55 47 73 48 40 49 41 50 54 52 74 53 43 54
REMARK SMILES IDX 28 55 29 56 37 57 30 58 36 59 31 60 32 61 33 62 34 63 35 64
REMARK SMILES IDX 58 65 59 66 67 67 60 68 66 69 61 70 62 71 63 72 64 73 65 74
REMARK SMILES IDX 44 75 45 76 53 77 46 78 52 79 47 80 48 81 49 82 50 83 51 84
REMARK H PARENT 72 40 42 51
REMARK Flexibility Score: inf
ROOT
ATOM      1  C   UNL A   1      32.556  30.627  26.882  1.00  0.00     0.275 C 
ENDROOT
BRANCH   1   2
ATOM      2  C   UNL A   1      31.821  29.757  25.857  1.00  0.00     0.274 C 
BRANCH   2   3
ATOM      3  O   UNL A   1      32.311  28.402  25.852  1.00  0.00    -0.462 OA
BRANCH   3   4
ATOM      4  C   UNL A   1      31.502  27.477  26.437  1.00  0.00     0.313 C 
ATOM      5  O   UNL A   1      31.154  27.509  27.613  1.00  0.00    -0.252 OA
BRANCH   4   6
ATOM      6  C   UNL A   1      31.078  26.362  25.484  1.00  0.00     0.126 C 
ATOM      7  C   UNL A   1      30.173  26.815  24.337  1.00  0.00     0.025 C 
BRANCH   6   8
ATOM      8  C   UNL A   1      32.283  25.553  25.044  1.00  0.00    -0.033 A 
ATOM      9  C   UNL A   1      36.354  22.521  24.932  1.00  0.00     0.119 A 
ATOM     10  C   UNL A   1      35.881  22.477  26.241  1.00  0.00     0.047 A 
ATOM     11  C   UNL A   1      35.723  23.335  23.991  1.00  0.00     0.055 A 
ATOM     12  C   UNL A   1      34.751  23.217  26.597  1.00  0.00     0.012 A 
ATOM     13  C   UNL A   1      34.581  24.076  24.330  1.00  0.00    -0.015 A 
ATOM     14  C   UNL A   1      34.088  24.013  25.651  1.00  0.00    -0.018 A 
ATOM     15  C   UNL A   1      33.922  24.882  23.390  1.00  0.00     0.009 A 
ATOM     16  C   UNL A   1      32.948  24.755  25.992  1.00  0.00     0.013 A 
ATOM     17  C   UNL A   1      32.789  25.616  23.743  1.00  0.00     0.005 A 
BRANCH   9  18
ATOM     18  O   UNL A   1      37.454  21.840  24.483  1.00  0.00    -0.497 OA
ATOM     19  C   UNL A   1      37.416  20.440  24.742  1.00  0.00     0.278 C 
ENDBRANCH   9  18
ENDBRANCH   6   8
ENDBRANCH   4   6
ENDBRANCH   3   4
ENDBRANCH   2   3
ENDBRANCH   1   2
BRANCH   1  20
ATOM     20  O   UNL A   1      33.802  30.039  27.299  1.00  0.00    -0.458 OA
BRANCH  20  21
ATOM     21  C   UNL A   1      34.529  30.794  28.155  1.00  0.00     0.338 C 
ATOM     22  O   UNL A   1      34.142  31.752  28.802  1.00  0.00    -0.246 OA
BRANCH  21  23
ATOM     23  C   UNL A   1      35.873  30.219  28.319  1.00  0.00     0.060 A 
ATOM     24  C   UNL A   1      36.255  29.802  29.596  1.00  0.00     0.016 A 
ATOM     25  C   UNL A   1      36.783  30.192  27.263  1.00  0.00     0.016 A 
ATOM     26  C   UNL A   1      37.555  29.372  29.834  1.00  0.00     0.010 A 
ATOM     27  C   UNL A   1      38.090  29.756  27.501  1.00  0.00     0.010 A 
ATOM     28  C   UNL A   1      38.487  29.361  28.791  1.00  0.00    -0.014 A 
BRANCH  28  29
ATOM     29  C   UNL A   1      39.897  29.007  29.080  1.00  0.00     0.031 A 
ATOM     30  C   UNL A   1      40.787  30.007  29.760  1.00  0.00     0.074 A 
ATOM     31  C   UNL A   1      40.358  27.780  28.778  1.00  0.00     0.049 A 
ATOM     32  N   UNL A   1      42.062  29.922  30.040  1.00  0.00    -0.248 NA
ATOM     33  C   UNL A   1      40.159  31.268  30.185  1.00  0.00     0.031 C 
ATOM     34  C   UNL A   1      39.567  26.701  28.185  1.00  0.00     0.029 A 
ATOM     35  N   UNL A   1      41.606  27.234  28.937  1.00  0.00    -0.354 N 
ATOM     36  C   UNL A   1      42.395  31.124  30.653  1.00  0.00     0.074 A 
ATOM     37  C   UNL A   1      41.191  31.927  30.693  1.00  0.00     0.031 C 
ATOM     38  C   UNL A   1      40.347  25.616  28.044  1.00  0.00     0.029 A 
ATOM     39  C   UNL A   1      41.700  25.940  28.486  1.00  0.00     0.049 A 
ATOM     40  H   UNL A   1      42.361  27.722  29.338  1.00  0.00     0.167 HD
ATOM     41  C   UNL A   1      43.596  31.523  31.135  1.00  0.00     0.031 A 
ATOM     42  C   UNL A   1      42.764  25.116  28.416  1.00  0.00     0.031 A 
ATOM     43  C   UNL A   1      44.791  30.722  31.088  1.00  0.00     0.049 A 
ATOM     44  C   UNL A   1      44.104  25.610  28.886  1.00  0.00     0.074 A 
ATOM     45  C   UNL A   1      46.063  31.043  31.529  1.00  0.00     0.029 A 
ATOM     46  N   UNL A   1      44.858  29.437  30.572  1.00  0.00    -0.354 N 
ATOM     47  N   UNL A   1      44.413  26.766  29.424  1.00  0.00    -0.248 NA
ATOM     48  C   UNL A   1      45.240  24.689  28.733  1.00  0.00     0.031 C 
ATOM     49  C   UNL A   1      46.908  29.964  31.246  1.00  0.00     0.029 A 
ATOM     50  C   UNL A   1      46.152  28.955  30.670  1.00  0.00     0.049 A 
ATOM     51  H   UNL A   1      44.098  28.940  30.192  1.00  0.00     0.167 HD
ATOM     52  C   UNL A   1      45.776  26.705  29.691  1.00  0.00     0.074 A 
ATOM     53  C   UNL A   1      46.228  25.395  29.267  1.00  0.00     0.031 C 
ATOM     54  C   UNL A   1      46.581  27.648  30.240  1.00  0.00     0.031 A 
BRANCH  41  55
ATOM     55  C   UNL A   1      43.678  32.912  31.709  1.00  0.00    -0.014 A 
ATOM     56  C   UNL A   1      43.986  34.018  30.898  1.00  0.00     0.010 A 
ATOM     57  C   UNL A   1      43.439  33.111  33.081  1.00  0.00     0.010 A 
ATOM     58  C   UNL A   1      44.105  35.293  31.459  1.00  0.00     0.020 A 
ATOM     59  C   UNL A   1      43.534  34.388  33.641  1.00  0.00     0.020 A 
ATOM     60  C   UNL A   1      43.888  35.467  32.829  1.00  0.00     0.054 A 
BRANCH  60  61
ATOM     61  S   UNL A   1      44.055  37.129  33.540  1.00  0.00     0.124 S 
ATOM     62  O   UNL A   1      43.018  37.121  34.568  1.00  0.00    -0.237 OA
ATOM     63  O   UNL A   1      45.430  37.131  34.036  1.00  0.00    -0.237 OA
ATOM     64  O   UNL A   1      43.804  38.016  32.408  1.00  0.00    -0.744 OA
ENDBRANCH  60  61
ENDBRANCH  41  55
BRANCH  42  65
ATOM     65  C   UNL A   1      42.605  23.749  27.853  1.00  0.00    -0.014 A 
ATOM     66  C   UNL A   1      42.299  22.663  28.691  1.00  0.00     0.010 A 
ATOM     67  C   UNL A   1      42.744  23.529  26.470  1.00  0.00     0.010 A 
ATOM     68  C   UNL A   1      42.141  21.381  28.158  1.00  0.00     0.020 A 
ATOM     69  C   UNL A   1      42.563  22.253  25.930  1.00  0.00     0.020 A 
ATOM     70  C   UNL A   1      42.272  21.185  26.780  1.00  0.00     0.054 A 
BRANCH  70  71
ATOM     71  S   UNL A   1      42.000  19.524  26.099  1.00  0.00     0.124 S 
ATOM     72  O   UNL A   1      42.491  18.671  27.177  1.00  0.00    -0.237 OA
ATOM     73  O   UNL A   1      40.555  19.501  25.882  1.00  0.00    -0.237 OA
ATOM     74  O   UNL A   1      42.805  19.521  24.880  1.00  0.00    -0.744 OA
ENDBRANCH  70  71
ENDBRANCH  42  65
BRANCH  54  75
ATOM     75  C   UNL A   1      48.026  27.284  30.441  1.00  0.00    -0.014 A 
ATOM     76  C   UNL A   1      48.993  27.583  29.466  1.00  0.00     0.010 A 
ATOM     77  C   UNL A   1      48.426  26.675  31.645  1.00  0.00     0.010 A 
ATOM     78  C   UNL A   1      50.334  27.254  29.680  1.00  0.00     0.020 A 
ATOM     79  C   UNL A   1      49.769  26.364  31.870  1.00  0.00     0.020 A 
ATOM     80  C   UNL A   1      50.713  26.643  30.880  1.00  0.00     0.054 A 
BRANCH  80  81
ATOM     81  S   UNL A   1      52.465  26.262  31.156  1.00  0.00     0.124 S 
ATOM     82  O   UNL A   1      52.390  24.992  31.872  1.00  0.00    -0.237 OA
ATOM     83  O   UNL A   1      52.999  26.187  29.797  1.00  0.00    -0.237 OA
ATOM     84  O   UNL A   1      52.944  27.396  31.944  1.00  0.00    -0.744 OA
ENDBRANCH  80  81
ENDBRANCH  54  75
ENDBRANCH  28  29
ENDBRANCH  21  23
ENDBRANCH  20  21
ENDBRANCH   1  20
TORSDOF 16
ENDMDL
