MODEL 1
REMARK VINA RESULT:     -13.1      0.000      0.000
REMARK SMILES Cc1cccc(-c2cccc(O)c2)c1C(=O)OCCOC(=O)c1ccc(-c2c3nc(c(-c4ccc(S(=O)(=O)[O-])cc4)c4ccc([nH]4)c(-c4ccc(S(=O)(=O)[O-])cc4)c4nc(c(-c5ccc(S(=O)(=O)[O-])cc5)c5ccc2[nH]5)C=C4)C=C3)cc1
REMARK SMILES IDX 19 1 18 2 17 3 15 4 16 5 14 6 1 7 2 8 3 9 4 10 6 11 5 12
REMARK SMILES IDX 7 13 8 14 13 15 9 16 11 17 10 18 12 19 20 21 21 22 22 23
REMARK SMILES IDX 23 24 24 25 82 26 25 27 81 28 26 29 27 30 28 31 75 32 29 33
REMARK SMILES IDX 80 34 74 35 76 36 30 37 79 38 73 39 72 40 31 42 61 43 42 44
REMARK SMILES IDX 60 45 43 46 46 47 59 48 77 49 44 50 45 51 58 53 78 54 47 55
REMARK SMILES IDX 32 56 33 57 41 58 34 59 40 60 35 61 36 62 37 63 38 64 39 65
REMARK SMILES IDX 62 66 63 67 71 68 64 69 70 70 65 71 66 72 67 73 68 74 69 75
REMARK SMILES IDX 48 76 49 77 57 78 50 79 56 80 51 81 52 82 53 83 54 84 55 85
REMARK H PARENT 12 20 76 41 46 52
REMARK Flexibility Score: inf
ROOT
ATOM      1  C   UNL A   1      33.985  31.215  27.517  1.00  0.00     0.275 C 
ENDROOT
BRANCH   1   2
ATOM      2  C   UNL A   1      32.681  30.688  26.873  1.00  0.00     0.275 C 
BRANCH   2   3
ATOM      3  O   UNL A   1      32.867  29.860  25.697  1.00  0.00    -0.458 OA
BRANCH   3   4
ATOM      4  C   UNL A   1      31.977  28.826  25.596  1.00  0.00     0.339 C 
ATOM      5  O   UNL A   1      31.334  28.348  26.520  1.00  0.00    -0.246 OA
BRANCH   4   6
ATOM      6  C   UNL A   1      32.160  28.008  24.384  1.00  0.00     0.070 A 
ATOM      7  C   UNL A   1      34.012  26.824  25.751  1.00  0.00     0.045 C 
ATOM      8  C   UNL A   1      33.135  26.979  24.532  1.00  0.00    -0.036 A 
ATOM      9  C   UNL A   1      33.267  25.994  23.542  1.00  0.00     0.004 A 
ATOM     10  C   UNL A   1      32.447  26.000  22.427  1.00  0.00     0.001 A 
ATOM     11  C   UNL A   1      31.287  28.000  23.268  1.00  0.00    -0.003 A 
ATOM     12  C   UNL A   1      31.484  26.989  22.295  1.00  0.00     0.009 A 
BRANCH  11  13
ATOM     13  C   UNL A   1      30.127  28.866  22.968  1.00  0.00    -0.014 A 
ATOM     14  C   UNL A   1      30.239  29.937  22.071  1.00  0.00     0.009 A 
ATOM     15  C   UNL A   1      28.826  28.436  23.313  1.00  0.00     0.055 A 
ATOM     16  C   UNL A   1      29.098  30.517  21.495  1.00  0.00     0.004 A 
ATOM     17  C   UNL A   1      27.698  29.024  22.738  1.00  0.00     0.116 A 
ATOM     18  C   UNL A   1      27.824  30.047  21.809  1.00  0.00     0.046 A 
BRANCH  17  19
ATOM     19  O   UNL A   1      26.466  28.576  23.120  1.00  0.00    -0.508 OA
ATOM     20  H   UNL A   1      25.701  29.079  22.918  1.00  0.00     0.293 HD
ENDBRANCH  17  19
ENDBRANCH  11  13
ENDBRANCH   4   6
ENDBRANCH   3   4
ENDBRANCH   2   3
ENDBRANCH   1   2
BRANCH   1  21
ATOM     21  O   UNL A   1      34.864  30.298  28.200  1.00  0.00    -0.458 OA
BRANCH  21  22
ATOM     22  C   UNL A   1      36.066  30.788  28.583  1.00  0.00     0.338 C 
ATOM     23  O   UNL A   1      36.188  31.846  29.205  1.00  0.00    -0.246 OA
BRANCH  22  24
ATOM     24  C   UNL A   1      37.061  29.696  28.451  1.00  0.00     0.060 A 
ATOM     25  C   UNL A   1      37.911  29.718  27.343  1.00  0.00     0.016 A 
ATOM     26  C   UNL A   1      37.393  28.937  29.580  1.00  0.00     0.016 A 
ATOM     27  C   UNL A   1      39.174  29.136  27.421  1.00  0.00     0.010 A 
ATOM     28  C   UNL A   1      38.665  28.413  29.684  1.00  0.00     0.010 A 
ATOM     29  C   UNL A   1      39.571  28.545  28.622  1.00  0.00    -0.014 A 
BRANCH  29  30
ATOM     30  C   UNL A   1      40.795  27.771  28.754  1.00  0.00     0.031 A 
ATOM     31  C   UNL A   1      40.932  26.342  28.383  1.00  0.00     0.074 A 
ATOM     32  C   UNL A   1      41.818  28.526  29.209  1.00  0.00     0.049 A 
ATOM     33  N   UNL A   1      41.858  25.569  28.849  1.00  0.00    -0.248 NA
ATOM     34  C   UNL A   1      40.030  25.634  27.476  1.00  0.00     0.031 C 
ATOM     35  C   UNL A   1      43.227  28.207  29.307  1.00  0.00     0.029 A 
ATOM     36  N   UNL A   1      41.694  29.739  29.904  1.00  0.00    -0.354 N 
ATOM     37  C   UNL A   1      41.858  24.400  28.107  1.00  0.00     0.074 A 
ATOM     38  C   UNL A   1      40.631  24.442  27.352  1.00  0.00     0.031 C 
ATOM     39  C   UNL A   1      43.757  28.978  30.276  1.00  0.00     0.029 A 
ATOM     40  C   UNL A   1      42.660  29.710  30.903  1.00  0.00     0.049 A 
ATOM     41  H   UNL A   1      41.053  30.464  29.720  1.00  0.00     0.167 HD
ATOM     42  C   UNL A   1      42.981  23.621  28.098  1.00  0.00     0.031 A 
ATOM     43  C   UNL A   1      42.310  29.666  32.221  1.00  0.00     0.031 A 
ATOM     44  C   UNL A   1      43.952  24.135  29.059  1.00  0.00     0.049 A 
ATOM     45  C   UNL A   1      42.811  28.383  32.844  1.00  0.00     0.074 A 
ATOM     46  C   UNL A   1      45.032  24.988  28.909  1.00  0.00     0.029 A 
ATOM     47  N   UNL A   1      43.651  24.099  30.414  1.00  0.00    -0.354 N 
ATOM     48  N   UNL A   1      42.999  27.270  32.183  1.00  0.00    -0.248 NA
ATOM     49  C   UNL A   1      43.225  28.290  34.238  1.00  0.00     0.031 C 
ATOM     50  C   UNL A   1      45.275  25.591  30.172  1.00  0.00     0.029 A 
ATOM     51  C   UNL A   1      44.380  25.062  31.087  1.00  0.00     0.049 A 
ATOM     52  H   UNL A   1      43.012  23.479  30.834  1.00  0.00     0.167 HD
ATOM     53  C   UNL A   1      43.687  26.392  32.978  1.00  0.00     0.074 A 
ATOM     54  C   UNL A   1      43.759  27.056  34.271  1.00  0.00     0.031 C 
ATOM     55  C   UNL A   1      44.235  25.225  32.524  1.00  0.00     0.031 A 
BRANCH  42  56
ATOM     56  C   UNL A   1      43.346  22.612  27.020  1.00  0.00    -0.014 A 
ATOM     57  C   UNL A   1      42.667  21.371  26.989  1.00  0.00     0.010 A 
ATOM     58  C   UNL A   1      44.374  22.768  26.072  1.00  0.00     0.010 A 
ATOM     59  C   UNL A   1      43.049  20.318  26.139  1.00  0.00     0.020 A 
ATOM     60  C   UNL A   1      44.776  21.718  25.219  1.00  0.00     0.020 A 
ATOM     61  C   UNL A   1      44.122  20.490  25.273  1.00  0.00     0.054 A 
BRANCH  61  62
ATOM     62  S   UNL A   1      44.650  19.095  24.240  1.00  0.00     0.124 S 
ATOM     63  O   UNL A   1      43.710  18.044  24.623  1.00  0.00    -0.237 OA
ATOM     64  O   UNL A   1      44.487  19.620  22.887  1.00  0.00    -0.237 OA
ATOM     65  O   UNL A   1      46.034  18.861  24.650  1.00  0.00    -0.744 OA
ENDBRANCH  61  62
ENDBRANCH  42  56
BRANCH  43  66
ATOM     66  C   UNL A   1      41.060  30.414  32.576  1.00  0.00    -0.014 A 
ATOM     67  C   UNL A   1      39.963  29.651  33.043  1.00  0.00     0.010 A 
ATOM     68  C   UNL A   1      41.061  31.791  32.844  1.00  0.00     0.010 A 
ATOM     69  C   UNL A   1      38.975  30.208  33.867  1.00  0.00     0.020 A 
ATOM     70  C   UNL A   1      40.068  32.347  33.676  1.00  0.00     0.020 A 
ATOM     71  C   UNL A   1      39.061  31.549  34.221  1.00  0.00     0.054 A 
BRANCH  71  72
ATOM     72  S   UNL A   1      37.957  32.162  35.537  1.00  0.00     0.124 S 
ATOM     73  O   UNL A   1      37.797  30.981  36.380  1.00  0.00    -0.237 OA
ATOM     74  O   UNL A   1      38.742  33.251  36.113  1.00  0.00    -0.237 OA
ATOM     75  O   UNL A   1      36.758  32.573  34.821  1.00  0.00    -0.744 OA
ENDBRANCH  71  72
ENDBRANCH  43  66
BRANCH  55  76
ATOM     76  C   UNL A   1      44.839  24.158  33.398  1.00  0.00    -0.014 A 
ATOM     77  C   UNL A   1      46.132  24.238  33.934  1.00  0.00     0.010 A 
ATOM     78  C   UNL A   1      44.026  23.079  33.822  1.00  0.00     0.010 A 
ATOM     79  C   UNL A   1      46.620  23.242  34.788  1.00  0.00     0.020 A 
ATOM     80  C   UNL A   1      44.483  22.110  34.713  1.00  0.00     0.020 A 
ATOM     81  C   UNL A   1      45.795  22.181  35.165  1.00  0.00     0.054 A 
BRANCH  81  82
ATOM     82  S   UNL A   1      46.417  20.921  36.300  1.00  0.00     0.124 S 
ATOM     83  O   UNL A   1      47.860  21.119  36.204  1.00  0.00    -0.237 OA
ATOM     84  O   UNL A   1      45.816  21.303  37.577  1.00  0.00    -0.237 OA
ATOM     85  O   UNL A   1      45.914  19.672  35.734  1.00  0.00    -0.744 OA
ENDBRANCH  81  82
ENDBRANCH  55  76
ENDBRANCH  29  30
ENDBRANCH  22  24
ENDBRANCH  21  22
ENDBRANCH   1  21
TORSDOF 16
ENDMDL
MODEL 2
REMARK VINA RESULT:     -12.9      1.429      2.564
REMARK SMILES Cc1cccc(-c2cccc(O)c2)c1C(=O)OCCOC(=O)c1ccc(-c2c3nc(c(-c4ccc(S(=O)(=O)[O-])cc4)c4ccc([nH]4)c(-c4ccc(S(=O)(=O)[O-])cc4)c4nc(c(-c5ccc(S(=O)(=O)[O-])cc5)c5ccc2[nH]5)C=C4)C=C3)cc1
REMARK SMILES IDX 19 1 18 2 17 3 15 4 16 5 14 6 1 7 2 8 3 9 4 10 6 11 5 12
REMARK SMILES IDX 7 13 8 14 13 15 9 16 11 17 10 18 12 19 20 21 21 22 22 23
REMARK SMILES IDX 23 24 24 25 82 26 25 27 81 28 26 29 27 30 28 31 75 32 29 33
REMARK SMILES IDX 80 34 74 35 76 36 30 37 79 38 73 39 72 40 31 42 61 43 42 44
REMARK SMILES IDX 60 45 43 46 46 47 59 48 77 49 44 50 45 51 58 53 78 54 47 55
REMARK SMILES IDX 32 56 33 57 41 58 34 59 40 60 35 61 36 62 37 63 38 64 39 65
REMARK SMILES IDX 62 66 63 67 71 68 64 69 70 70 65 71 66 72 67 73 68 74 69 75
REMARK SMILES IDX 48 76 49 77 57 78 50 79 56 80 51 81 52 82 53 83 54 84 55 85
REMARK H PARENT 12 20 76 41 46 52
REMARK Flexibility Score: inf
ROOT
ATOM      1  C   UNL A   1      35.105  29.480  27.254  1.00  0.00     0.275 C 
ENDROOT
BRANCH   1   2
ATOM      2  C   UNL A   1      33.656  29.051  27.583  1.00  0.00     0.275 C 
BRANCH   2   3
ATOM      3  O   UNL A   1      33.167  27.911  26.832  1.00  0.00    -0.458 OA
BRANCH   3   4
ATOM      4  C   UNL A   1      31.805  27.854  26.726  1.00  0.00     0.339 C 
ATOM      5  O   UNL A   1      31.025  27.709  27.657  1.00  0.00    -0.246 OA
BRANCH   4   6
ATOM      6  C   UNL A   1      31.332  27.526  25.369  1.00  0.00     0.070 A 
ATOM      7  C   UNL A   1      31.196  30.091  25.053  1.00  0.00     0.045 C 
ATOM      8  C   UNL A   1      31.108  28.670  24.550  1.00  0.00    -0.036 A 
ATOM      9  C   UNL A   1      30.862  28.510  23.178  1.00  0.00     0.004 A 
ATOM     10  C   UNL A   1      30.850  27.249  22.606  1.00  0.00     0.001 A 
ATOM     11  C   UNL A   1      31.364  26.234  24.788  1.00  0.00    -0.003 A 
ATOM     12  C   UNL A   1      31.089  26.138  23.401  1.00  0.00     0.009 A 
BRANCH  11  13
ATOM     13  C   UNL A   1      31.705  24.931  25.396  1.00  0.00    -0.014 A 
ATOM     14  C   UNL A   1      33.042  24.536  25.553  1.00  0.00     0.009 A 
ATOM     15  C   UNL A   1      30.725  24.220  26.123  1.00  0.00     0.055 A 
ATOM     16  C   UNL A   1      33.389  23.511  26.446  1.00  0.00     0.004 A 
ATOM     17  C   UNL A   1      31.082  23.198  27.004  1.00  0.00     0.116 A 
ATOM     18  C   UNL A   1      32.413  22.853  27.192  1.00  0.00     0.046 A 
BRANCH  17  19
ATOM     19  O   UNL A   1      30.089  22.537  27.669  1.00  0.00    -0.508 OA
ATOM     20  H   UNL A   1      30.285  21.752  28.142  1.00  0.00     0.293 HD
ENDBRANCH  17  19
ENDBRANCH  11  13
ENDBRANCH   4   6
ENDBRANCH   3   4
ENDBRANCH   2   3
ENDBRANCH   1   2
BRANCH   1  21
ATOM     21  O   UNL A   1      35.599  30.750  27.729  1.00  0.00    -0.458 OA
BRANCH  21  22
ATOM     22  C   UNL A   1      36.350  30.720  28.854  1.00  0.00     0.338 C 
ATOM     23  O   UNL A   1      36.007  31.274  29.902  1.00  0.00    -0.246 OA
BRANCH  22  24
ATOM     24  C   UNL A   1      37.372  29.658  28.687  1.00  0.00     0.060 A 
ATOM     25  C   UNL A   1      38.247  29.760  27.603  1.00  0.00     0.016 A 
ATOM     26  C   UNL A   1      37.693  28.843  29.778  1.00  0.00     0.016 A 
ATOM     27  C   UNL A   1      39.521  29.201  27.680  1.00  0.00     0.010 A 
ATOM     28  C   UNL A   1      38.973  28.339  29.884  1.00  0.00     0.010 A 
ATOM     29  C   UNL A   1      39.901  28.550  28.855  1.00  0.00    -0.014 A 
BRANCH  29  30
ATOM     30  C   UNL A   1      41.139  27.795  28.973  1.00  0.00     0.031 A 
ATOM     31  C   UNL A   1      41.310  26.386  28.545  1.00  0.00     0.074 A 
ATOM     32  C   UNL A   1      42.140  28.550  29.476  1.00  0.00     0.049 A 
ATOM     33  N   UNL A   1      42.244  25.612  28.992  1.00  0.00    -0.248 NA
ATOM     34  C   UNL A   1      40.436  25.700  27.594  1.00  0.00     0.031 C 
ATOM     35  C   UNL A   1      43.553  28.255  29.583  1.00  0.00     0.029 A 
ATOM     36  N   UNL A   1      41.981  29.730  30.219  1.00  0.00    -0.354 N 
ATOM     37  C   UNL A   1      42.279  24.476  28.202  1.00  0.00     0.074 A 
ATOM     38  C   UNL A   1      41.063  24.526  27.430  1.00  0.00     0.031 C 
ATOM     39  C   UNL A   1      44.053  28.993  30.591  1.00  0.00     0.029 A 
ATOM     40  C   UNL A   1      42.933  29.677  31.231  1.00  0.00     0.049 A 
ATOM     41  H   UNL A   1      41.328  30.449  30.056  1.00  0.00     0.167 HD
ATOM     42  C   UNL A   1      43.416  23.719  28.178  1.00  0.00     0.031 A 
ATOM     43  C   UNL A   1      42.564  29.570  32.540  1.00  0.00     0.031 A 
ATOM     44  C   UNL A   1      44.363  24.212  29.174  1.00  0.00     0.049 A 
ATOM     45  C   UNL A   1      43.080  28.272  33.116  1.00  0.00     0.074 A 
ATOM     46  C   UNL A   1      45.427  25.091  29.078  1.00  0.00     0.029 A 
ATOM     47  N   UNL A   1      44.043  24.112  30.523  1.00  0.00    -0.354 N 
ATOM     48  N   UNL A   1      43.301  27.193  32.412  1.00  0.00    -0.248 NA
ATOM     49  C   UNL A   1      43.476  28.128  34.512  1.00  0.00     0.031 C 
ATOM     50  C   UNL A   1      45.640  25.644  30.369  1.00  0.00     0.029 A 
ATOM     51  C   UNL A   1      44.742  25.059  31.247  1.00  0.00     0.049 A 
ATOM     52  H   UNL A   1      43.410  23.462  30.906  1.00  0.00     0.167 HD
ATOM     53  C   UNL A   1      43.995  26.295  33.181  1.00  0.00     0.074 A 
ATOM     54  C   UNL A   1      44.033  26.904  34.502  1.00  0.00     0.031 C 
ATOM     55  C   UNL A   1      44.572  25.159  32.687  1.00  0.00     0.031 A 
BRANCH  42  56
ATOM     56  C   UNL A   1      43.818  22.765  27.064  1.00  0.00    -0.014 A 
ATOM     57  C   UNL A   1      42.922  21.734  26.693  1.00  0.00     0.010 A 
ATOM     58  C   UNL A   1      45.059  22.760  26.402  1.00  0.00     0.010 A 
ATOM     59  C   UNL A   1      43.272  20.710  25.796  1.00  0.00     0.020 A 
ATOM     60  C   UNL A   1      45.430  21.734  25.507  1.00  0.00     0.020 A 
ATOM     61  C   UNL A   1      44.539  20.702  25.225  1.00  0.00     0.054 A 
BRANCH  61  62
ATOM     62  S   UNL A   1      45.002  19.330  24.131  1.00  0.00     0.124 S 
ATOM     63  O   UNL A   1      44.432  19.743  22.850  1.00  0.00    -0.237 OA
ATOM     64  O   UNL A   1      46.461  19.343  24.201  1.00  0.00    -0.237 OA
ATOM     65  O   UNL A   1      44.363  18.166  24.742  1.00  0.00    -0.744 OA
ENDBRANCH  61  62
ENDBRANCH  42  56
BRANCH  43  66
ATOM     66  C   UNL A   1      41.294  30.278  32.907  1.00  0.00    -0.014 A 
ATOM     67  C   UNL A   1      40.218  29.479  33.363  1.00  0.00     0.010 A 
ATOM     68  C   UNL A   1      41.257  31.651  33.196  1.00  0.00     0.010 A 
ATOM     69  C   UNL A   1      39.216  29.996  34.195  1.00  0.00     0.020 A 
ATOM     70  C   UNL A   1      40.249  32.167  34.035  1.00  0.00     0.020 A 
ATOM     71  C   UNL A   1      39.265  31.333  34.569  1.00  0.00     0.054 A 
BRANCH  71  72
ATOM     72  S   UNL A   1      38.146  31.896  35.894  1.00  0.00     0.124 S 
ATOM     73  O   UNL A   1      37.799  30.643  36.557  1.00  0.00    -0.237 OA
ATOM     74  O   UNL A   1      39.003  32.802  36.656  1.00  0.00    -0.237 OA
ATOM     75  O   UNL A   1      37.052  32.535  35.177  1.00  0.00    -0.744 OA
ENDBRANCH  71  72
ENDBRANCH  43  66
BRANCH  55  76
ATOM     76  C   UNL A   1      45.185  24.067  33.524  1.00  0.00    -0.014 A 
ATOM     77  C   UNL A   1      46.498  24.111  34.011  1.00  0.00     0.010 A 
ATOM     78  C   UNL A   1      44.363  23.002  33.967  1.00  0.00     0.010 A 
ATOM     79  C   UNL A   1      46.995  23.094  34.834  1.00  0.00     0.020 A 
ATOM     80  C   UNL A   1      44.832  22.012  34.828  1.00  0.00     0.020 A 
ATOM     81  C   UNL A   1      46.161  22.048  35.230  1.00  0.00     0.054 A 
BRANCH  81  82
ATOM     82  S   UNL A   1      46.797  20.760  36.326  1.00  0.00     0.124 S 
ATOM     83  O   UNL A   1      47.137  19.703  35.379  1.00  0.00    -0.237 OA
ATOM     84  O   UNL A   1      47.935  21.410  36.974  1.00  0.00    -0.237 OA
ATOM     85  O   UNL A   1      45.668  20.474  37.209  1.00  0.00    -0.744 OA
ENDBRANCH  81  82
ENDBRANCH  55  76
ENDBRANCH  29  30
ENDBRANCH  22  24
ENDBRANCH  21  22
ENDBRANCH   1  21
TORSDOF 16
ENDMDL
MODEL 3
REMARK VINA RESULT:     -12.6      5.566     11.853
REMARK SMILES Cc1cccc(-c2cccc(O)c2)c1C(=O)OCCOC(=O)c1ccc(-c2c3nc(c(-c4ccc(S(=O)(=O)[O-])cc4)c4ccc([nH]4)c(-c4ccc(S(=O)(=O)[O-])cc4)c4nc(c(-c5ccc(S(=O)(=O)[O-])cc5)c5ccc2[nH]5)C=C4)C=C3)cc1
REMARK SMILES IDX 19 1 18 2 17 3 15 4 16 5 14 6 1 7 2 8 3 9 4 10 6 11 5 12
REMARK SMILES IDX 7 13 8 14 13 15 9 16 11 17 10 18 12 19 20 21 21 22 22 23
REMARK SMILES IDX 23 24 24 25 82 26 25 27 81 28 26 29 27 30 28 31 75 32 29 33
REMARK SMILES IDX 80 34 74 35 76 36 30 37 79 38 73 39 72 40 31 42 61 43 42 44
REMARK SMILES IDX 60 45 43 46 46 47 59 48 77 49 44 50 45 51 58 53 78 54 47 55
REMARK SMILES IDX 32 56 33 57 41 58 34 59 40 60 35 61 36 62 37 63 38 64 39 65
REMARK SMILES IDX 62 66 63 67 71 68 64 69 70 70 65 71 66 72 67 73 68 74 69 75
REMARK SMILES IDX 48 76 49 77 57 78 50 79 56 80 51 81 52 82 53 83 54 84 55 85
REMARK H PARENT 12 20 76 41 46 52
REMARK Flexibility Score: inf
ROOT
ATOM      1  C   UNL A   1      38.934  22.172  26.129  1.00  0.00     0.275 C 
ENDROOT
BRANCH   1   2
ATOM      2  C   UNL A   1      37.486  21.853  25.685  1.00  0.00     0.275 C 
BRANCH   2   3
ATOM      3  O   UNL A   1      36.775  22.957  25.069  1.00  0.00    -0.458 OA
BRANCH   3   4
ATOM      4  C   UNL A   1      35.730  22.572  24.275  1.00  0.00     0.339 C 
ATOM      5  O   UNL A   1      35.687  22.676  23.057  1.00  0.00    -0.246 OA
BRANCH   4   6
ATOM      6  C   UNL A   1      34.456  22.435  25.003  1.00  0.00     0.070 A 
ATOM      7  C   UNL A   1      34.786  24.938  25.573  1.00  0.00     0.045 C 
ATOM      8  C   UNL A   1      33.990  23.655  25.574  1.00  0.00    -0.036 A 
ATOM      9  C   UNL A   1      32.697  23.725  26.113  1.00  0.00     0.004 A 
ATOM     10  C   UNL A   1      31.859  22.625  26.080  1.00  0.00     0.001 A 
ATOM     11  C   UNL A   1      33.592  21.315  24.926  1.00  0.00    -0.003 A 
ATOM     12  C   UNL A   1      32.305  21.444  25.504  1.00  0.00     0.009 A 
BRANCH  11  13
ATOM     13  C   UNL A   1      33.796  20.007  24.269  1.00  0.00    -0.014 A 
ATOM     14  C   UNL A   1      34.795  19.126  24.708  1.00  0.00     0.009 A 
ATOM     15  C   UNL A   1      32.791  19.485  23.423  1.00  0.00     0.055 A 
ATOM     16  C   UNL A   1      34.758  17.766  24.364  1.00  0.00     0.004 A 
ATOM     17  C   UNL A   1      32.768  18.131  23.083  1.00  0.00     0.116 A 
ATOM     18  C   UNL A   1      33.732  17.259  23.569  1.00  0.00     0.046 A 
BRANCH  17  19
ATOM     19  O   UNL A   1      31.781  17.687  22.251  1.00  0.00    -0.508 OA
ATOM     20  H   UNL A   1      31.982  17.073  21.572  1.00  0.00     0.293 HD
ENDBRANCH  17  19
ENDBRANCH  11  13
ENDBRANCH   4   6
ENDBRANCH   3   4
ENDBRANCH   2   3
ENDBRANCH   1   2
BRANCH   1  21
ATOM     21  O   UNL A   1      39.163  23.161  27.155  1.00  0.00    -0.458 OA
BRANCH  21  22
ATOM     22  C   UNL A   1      40.163  24.044  26.926  1.00  0.00     0.338 C 
ATOM     23  O   UNL A   1      41.107  23.802  26.169  1.00  0.00    -0.246 OA
BRANCH  22  24
ATOM     24  C   UNL A   1      39.716  25.370  27.420  1.00  0.00     0.060 A 
ATOM     25  C   UNL A   1      39.134  25.430  28.688  1.00  0.00     0.016 A 
ATOM     26  C   UNL A   1      40.227  26.527  26.821  1.00  0.00     0.016 A 
ATOM     27  C   UNL A   1      39.221  26.600  29.439  1.00  0.00     0.010 A 
ATOM     28  C   UNL A   1      40.370  27.668  27.584  1.00  0.00     0.010 A 
ATOM     29  C   UNL A   1      39.903  27.695  28.906  1.00  0.00    -0.014 A 
BRANCH  29  30
ATOM     30  C   UNL A   1      39.908  29.006  29.537  1.00  0.00     0.031 A 
ATOM     31  C   UNL A   1      38.839  30.020  29.378  1.00  0.00     0.074 A 
ATOM     32  C   UNL A   1      40.985  29.174  30.334  1.00  0.00     0.049 A 
ATOM     33  N   UNL A   1      39.014  31.282  29.597  1.00  0.00    -0.248 NA
ATOM     34  C   UNL A   1      37.478  29.723  28.933  1.00  0.00     0.031 C 
ATOM     35  C   UNL A   1      41.280  30.235  31.274  1.00  0.00     0.029 A 
ATOM     36  N   UNL A   1      42.182  28.444  30.258  1.00  0.00    -0.354 N 
ATOM     37  C   UNL A   1      37.772  31.894  29.616  1.00  0.00     0.074 A 
ATOM     38  C   UNL A   1      36.867  30.908  29.080  1.00  0.00     0.031 C 
ATOM     39  C   UNL A   1      42.617  30.299  31.416  1.00  0.00     0.029 A 
ATOM     40  C   UNL A   1      43.205  29.361  30.464  1.00  0.00     0.049 A 
ATOM     41  H   UNL A   1      42.276  27.477  30.093  1.00  0.00     0.167 HD
ATOM     42  C   UNL A   1      37.636  33.101  30.241  1.00  0.00     0.031 A 
ATOM     43  C   UNL A   1      44.087  29.668  29.469  1.00  0.00     0.031 A 
ATOM     44  C   UNL A   1      38.946  33.601  30.648  1.00  0.00     0.049 A 
ATOM     45  C   UNL A   1      43.966  31.131  29.107  1.00  0.00     0.074 A 
ATOM     46  C   UNL A   1      39.634  33.512  31.846  1.00  0.00     0.029 A 
ATOM     47  N   UNL A   1      39.876  33.943  29.674  1.00  0.00    -0.354 N 
ATOM     48  N   UNL A   1      42.872  31.834  29.247  1.00  0.00    -0.248 NA
ATOM     49  C   UNL A   1      45.096  31.929  28.651  1.00  0.00     0.031 C 
ATOM     50  C   UNL A   1      41.017  33.647  31.553  1.00  0.00     0.029 A 
ATOM     51  C   UNL A   1      41.155  33.869  30.193  1.00  0.00     0.049 A 
ATOM     52  H   UNL A   1      39.655  34.200  28.750  1.00  0.00     0.167 HD
ATOM     53  C   UNL A   1      43.170  33.160  29.070  1.00  0.00     0.074 A 
ATOM     54  C   UNL A   1      44.562  33.163  28.647  1.00  0.00     0.031 C 
ATOM     55  C   UNL A   1      42.306  34.177  29.361  1.00  0.00     0.031 A 
BRANCH  42  56
ATOM     56  C   UNL A   1      36.334  33.677  30.777  1.00  0.00    -0.014 A 
ATOM     57  C   UNL A   1      35.352  34.115  29.857  1.00  0.00     0.010 A 
ATOM     58  C   UNL A   1      36.035  33.891  32.135  1.00  0.00     0.010 A 
ATOM     59  C   UNL A   1      34.196  34.808  30.253  1.00  0.00     0.020 A 
ATOM     60  C   UNL A   1      34.884  34.594  32.549  1.00  0.00     0.020 A 
ATOM     61  C   UNL A   1      33.980  35.068  31.601  1.00  0.00     0.054 A 
BRANCH  61  62
ATOM     62  S   UNL A   1      32.522  36.032  32.089  1.00  0.00     0.124 S 
ATOM     63  O   UNL A   1      32.151  36.696  30.841  1.00  0.00    -0.237 OA
ATOM     64  O   UNL A   1      31.597  35.000  32.550  1.00  0.00    -0.237 OA
ATOM     65  O   UNL A   1      33.026  36.922  33.134  1.00  0.00    -0.744 OA
ENDBRANCH  61  62
ENDBRANCH  42  56
BRANCH  43  66
ATOM     66  C   UNL A   1      44.432  28.537  28.549  1.00  0.00    -0.014 A 
ATOM     67  C   UNL A   1      43.907  28.590  27.235  1.00  0.00     0.010 A 
ATOM     68  C   UNL A   1      45.523  27.685  28.782  1.00  0.00     0.010 A 
ATOM     69  C   UNL A   1      44.529  27.933  26.165  1.00  0.00     0.020 A 
ATOM     70  C   UNL A   1      46.148  27.029  27.703  1.00  0.00     0.020 A 
ATOM     71  C   UNL A   1      45.681  27.193  26.398  1.00  0.00     0.054 A 
BRANCH  71  72
ATOM     72  S   UNL A   1      46.641  26.621  24.957  1.00  0.00     0.124 S 
ATOM     73  O   UNL A   1      46.417  27.693  23.992  1.00  0.00    -0.237 OA
ATOM     74  O   UNL A   1      47.993  26.531  25.504  1.00  0.00    -0.237 OA
ATOM     75  O   UNL A   1      46.026  25.347  24.613  1.00  0.00    -0.744 OA
ENDBRANCH  71  72
ENDBRANCH  43  66
BRANCH  55  76
ATOM     76  C   UNL A   1      42.531  35.626  29.016  1.00  0.00    -0.014 A 
ATOM     77  C   UNL A   1      43.355  36.480  29.761  1.00  0.00     0.010 A 
ATOM     78  C   UNL A   1      42.002  36.130  27.803  1.00  0.00     0.010 A 
ATOM     79  C   UNL A   1      43.573  37.803  29.358  1.00  0.00     0.020 A 
ATOM     80  C   UNL A   1      42.254  37.429  27.365  1.00  0.00     0.020 A 
ATOM     81  C   UNL A   1      43.014  38.270  28.168  1.00  0.00     0.054 A 
BRANCH  81  82
ATOM     82  S   UNL A   1      43.333  39.966  27.632  1.00  0.00     0.124 S 
ATOM     83  O   UNL A   1      42.318  40.148  26.599  1.00  0.00    -0.237 OA
ATOM     84  O   UNL A   1      43.129  40.741  28.854  1.00  0.00    -0.237 OA
ATOM     85  O   UNL A   1      44.714  39.921  27.157  1.00  0.00    -0.744 OA
ENDBRANCH  81  82
ENDBRANCH  55  76
ENDBRANCH  29  30
ENDBRANCH  22  24
ENDBRANCH  21  22
ENDBRANCH   1  21
TORSDOF 16
ENDMDL
