MODEL 1
REMARK VINA RESULT:      -9.5      0.000      0.000
REMARK SMILES Cc1cnn(-c2ccccc2OCC(=O)OCCOC(=O)c2ccc(-c3c4nc(c(-c5ccc(S(=O)(=O)[O-])cc5)c5ccc([nH]5)c(-c5ccc(S(=O)(=O)[O-])cc5)c5nc(c(-c6ccc(S(=O)(=O)[O-])cc6)c6ccc3[nH]6)C=C5)C=C4)cc2)c1
REMARK SMILES IDX 17 1 16 2 14 3 15 4 13 5 12 6 11 7 6 8 7 9 8 10 10 11 9 12
REMARK SMILES IDX 5 13 1 14 2 15 3 16 82 17 4 18 18 19 19 20 20 21 21 22 22 23
REMARK SMILES IDX 23 24 81 25 24 26 80 27 25 28 26 29 27 30 74 31 28 32 79 33
REMARK SMILES IDX 73 34 75 35 29 36 78 37 72 38 71 39 30 41 60 42 41 43 59 44
REMARK SMILES IDX 42 45 45 46 58 47 76 48 43 49 44 50 57 52 77 53 46 54 31 55
REMARK SMILES IDX 32 56 40 57 33 58 39 59 34 60 35 61 36 62 37 63 38 64 61 65
REMARK SMILES IDX 62 66 70 67 63 68 69 69 64 70 65 71 66 72 67 73 68 74 47 75
REMARK SMILES IDX 48 76 56 77 49 78 55 79 50 80 51 81 52 82 53 83 54 84
REMARK H PARENT 75 40 45 51
REMARK Flexibility Score: inf
ROOT
ATOM      1  C   UNL A   1      33.208  36.923  29.743  1.00  0.00     0.274 C 
ENDROOT
BRANCH   1   2
ATOM      2  O   UNL A   1      32.980  35.571  29.309  1.00  0.00    -0.460 OA
BRANCH   2   3
ATOM      3  C   UNL A   1      33.939  35.023  28.509  1.00  0.00     0.344 C 
ATOM      4  O   UNL A   1      34.742  35.676  27.850  1.00  0.00    -0.248 OA
BRANCH   3   5
ATOM      5  C   UNL A   1      33.949  33.489  28.571  1.00  0.00     0.352 C 
BRANCH   5   6
ATOM      6  O   UNL A   1      34.911  32.885  27.738  1.00  0.00    -0.480 OA
BRANCH   6   7
ATOM      7  C   UNL A   1      35.672  31.797  28.043  1.00  0.00     0.145 A 
ATOM      8  C   UNL A   1      35.471  30.411  27.931  1.00  0.00     0.107 A 
ATOM      9  C   UNL A   1      36.464  29.525  28.426  1.00  0.00     0.032 A 
ATOM     10  C   UNL A   1      37.671  29.996  28.946  1.00  0.00     0.003 A 
ATOM     11  C   UNL A   1      36.883  32.238  28.623  1.00  0.00     0.049 A 
ATOM     12  C   UNL A   1      37.879  31.360  29.047  1.00  0.00     0.004 A 
BRANCH   8  13
ATOM     13  N   UNL A   1      34.425  29.778  27.207  1.00  0.00    -0.237 N 
ATOM     14  C   UNL A   1      31.358  29.740  25.177  1.00  0.00     0.048 C 
ATOM     15  C   UNL A   1      32.621  29.500  25.908  1.00  0.00    -0.013 A 
ATOM     16  C   UNL A   1      33.499  28.403  25.853  1.00  0.00     0.139 A 
ATOM     17  C   UNL A   1      33.260  30.364  26.761  1.00  0.00     0.118 A 
ATOM     18  N   UNL A   1      34.594  28.571  26.599  1.00  0.00    -0.176 NA
ENDBRANCH   8  13
ENDBRANCH   6   7
ENDBRANCH   5   6
ENDBRANCH   3   5
ENDBRANCH   2   3
ENDBRANCH   1   2
BRANCH   1  19
ATOM     19  C   UNL A   1      32.992  37.063  31.255  1.00  0.00     0.275 C 
BRANCH  19  20
ATOM     20  O   UNL A   1      33.895  36.247  32.026  1.00  0.00    -0.458 OA
BRANCH  20  21
ATOM     21  C   UNL A   1      33.329  35.122  32.491  1.00  0.00     0.338 C 
ATOM     22  O   UNL A   1      32.117  34.877  32.514  1.00  0.00    -0.246 OA
BRANCH  21  23
ATOM     23  C   UNL A   1      34.289  34.191  33.084  1.00  0.00     0.060 A 
ATOM     24  C   UNL A   1      35.064  34.675  34.140  1.00  0.00     0.016 A 
ATOM     25  C   UNL A   1      34.682  33.062  32.366  1.00  0.00     0.016 A 
ATOM     26  C   UNL A   1      36.338  34.199  34.338  1.00  0.00     0.010 A 
ATOM     27  C   UNL A   1      35.956  32.558  32.583  1.00  0.00     0.010 A 
ATOM     28  C   UNL A   1      36.814  33.217  33.478  1.00  0.00    -0.014 A 
BRANCH  28  29
ATOM     29  C   UNL A   1      38.257  32.986  33.493  1.00  0.00     0.031 A 
ATOM     30  C   UNL A   1      39.001  33.336  32.250  1.00  0.00     0.074 A 
ATOM     31  C   UNL A   1      38.855  32.557  34.623  1.00  0.00     0.049 A 
ATOM     32  N   UNL A   1      39.965  32.697  31.662  1.00  0.00    -0.248 NA
ATOM     33  C   UNL A   1      38.547  34.538  31.529  1.00  0.00     0.031 C 
ATOM     34  C   UNL A   1      38.216  32.364  35.932  1.00  0.00     0.029 A 
ATOM     35  N   UNL A   1      40.181  32.380  34.895  1.00  0.00    -0.354 N 
ATOM     36  C   UNL A   1      40.354  33.507  30.598  1.00  0.00     0.074 A 
ATOM     37  C   UNL A   1      39.369  34.552  30.485  1.00  0.00     0.031 C 
ATOM     38  C   UNL A   1      39.163  32.414  36.889  1.00  0.00     0.029 A 
ATOM     39  C   UNL A   1      40.461  32.526  36.248  1.00  0.00     0.049 A 
ATOM     40  H   UNL A   1      40.859  32.174  34.212  1.00  0.00     0.167 HD
ATOM     41  C   UNL A   1      41.572  33.424  29.999  1.00  0.00     0.031 A 
ATOM     42  C   UNL A   1      41.646  32.877  36.803  1.00  0.00     0.031 A 
ATOM     43  C   UNL A   1      42.204  32.150  30.169  1.00  0.00     0.049 A 
ATOM     44  C   UNL A   1      42.713  32.626  35.809  1.00  0.00     0.074 A 
ATOM     45  C   UNL A   1      41.925  30.863  29.760  1.00  0.00     0.029 A 
ATOM     46  N   UNL A   1      43.192  32.047  31.117  1.00  0.00    -0.354 N 
ATOM     47  N   UNL A   1      43.058  31.439  35.396  1.00  0.00    -0.248 NA
ATOM     48  C   UNL A   1      43.182  33.729  34.984  1.00  0.00     0.031 C 
ATOM     49  C   UNL A   1      42.468  30.016  30.767  1.00  0.00     0.029 A 
ATOM     50  C   UNL A   1      43.046  30.834  31.741  1.00  0.00     0.049 A 
ATOM     51  H   UNL A   1      43.881  32.723  31.313  1.00  0.00     0.167 HD
ATOM     52  C   UNL A   1      43.429  31.613  34.072  1.00  0.00     0.074 A 
ATOM     53  C   UNL A   1      43.627  33.050  33.923  1.00  0.00     0.031 C 
ATOM     54  C   UNL A   1      43.266  30.613  33.158  1.00  0.00     0.031 A 
BRANCH  41  55
ATOM     55  C   UNL A   1      42.317  34.662  29.557  1.00  0.00    -0.014 A 
ATOM     56  C   UNL A   1      43.031  35.431  30.494  1.00  0.00     0.010 A 
ATOM     57  C   UNL A   1      42.113  35.234  28.281  1.00  0.00     0.010 A 
ATOM     58  C   UNL A   1      43.476  36.725  30.178  1.00  0.00     0.020 A 
ATOM     59  C   UNL A   1      42.593  36.497  27.941  1.00  0.00     0.020 A 
ATOM     60  C   UNL A   1      43.237  37.253  28.907  1.00  0.00     0.054 A 
BRANCH  60  61
ATOM     61  S   UNL A   1      43.691  38.966  28.540  1.00  0.00     0.124 S 
ATOM     62  O   UNL A   1      44.012  38.889  27.118  1.00  0.00    -0.237 OA
ATOM     63  O   UNL A   1      42.471  39.694  28.878  1.00  0.00    -0.237 OA
ATOM     64  O   UNL A   1      44.825  39.216  29.427  1.00  0.00    -0.744 OA
ENDBRANCH  60  61
ENDBRANCH  41  55
BRANCH  42  65
ATOM     65  C   UNL A   1      41.818  33.741  37.998  1.00  0.00    -0.014 A 
ATOM     66  C   UNL A   1      42.607  33.336  39.086  1.00  0.00     0.010 A 
ATOM     67  C   UNL A   1      41.372  35.081  37.975  1.00  0.00     0.010 A 
ATOM     68  C   UNL A   1      42.951  34.245  40.102  1.00  0.00     0.020 A 
ATOM     69  C   UNL A   1      41.692  35.985  38.989  1.00  0.00     0.020 A 
ATOM     70  C   UNL A   1      42.496  35.566  40.042  1.00  0.00     0.054 A 
BRANCH  70  71
ATOM     71  S   UNL A   1      43.044  36.765  41.291  1.00  0.00     0.124 S 
ATOM     72  O   UNL A   1      44.280  36.162  41.778  1.00  0.00    -0.237 OA
ATOM     73  O   UNL A   1      43.202  37.987  40.508  1.00  0.00    -0.237 OA
ATOM     74  O   UNL A   1      41.944  36.788  42.254  1.00  0.00    -0.744 OA
ENDBRANCH  70  71
ENDBRANCH  42  65
BRANCH  54  75
ATOM     75  C   UNL A   1      42.964  29.224  33.676  1.00  0.00    -0.014 A 
ATOM     76  C   UNL A   1      43.979  28.297  33.985  1.00  0.00     0.010 A 
ATOM     77  C   UNL A   1      41.638  28.900  34.014  1.00  0.00     0.010 A 
ATOM     78  C   UNL A   1      43.678  27.073  34.596  1.00  0.00     0.020 A 
ATOM     79  C   UNL A   1      41.332  27.686  34.640  1.00  0.00     0.020 A 
ATOM     80  C   UNL A   1      42.353  26.776  34.923  1.00  0.00     0.054 A 
BRANCH  80  81
ATOM     81  S   UNL A   1      41.984  25.226  35.792  1.00  0.00     0.124 S 
ATOM     82  O   UNL A   1      42.643  25.420  37.081  1.00  0.00    -0.237 OA
ATOM     83  O   UNL A   1      40.523  25.212  35.830  1.00  0.00    -0.237 OA
ATOM     84  O   UNL A   1      42.580  24.199  34.940  1.00  0.00    -0.744 OA
ENDBRANCH  80  81
ENDBRANCH  54  75
ENDBRANCH  28  29
ENDBRANCH  21  23
ENDBRANCH  20  21
ENDBRANCH  19  20
ENDBRANCH   1  19
TORSDOF 17
ENDMDL
MODEL 2
REMARK VINA RESULT:      -9.5      4.110     10.605
REMARK SMILES Cc1cnn(-c2ccccc2OCC(=O)OCCOC(=O)c2ccc(-c3c4nc(c(-c5ccc(S(=O)(=O)[O-])cc5)c5ccc([nH]5)c(-c5ccc(S(=O)(=O)[O-])cc5)c5nc(c(-c6ccc(S(=O)(=O)[O-])cc6)c6ccc3[nH]6)C=C5)C=C4)cc2)c1
REMARK SMILES IDX 17 1 16 2 14 3 15 4 13 5 12 6 11 7 6 8 7 9 8 10 10 11 9 12
REMARK SMILES IDX 5 13 1 14 2 15 3 16 82 17 4 18 18 19 19 20 20 21 21 22 22 23
REMARK SMILES IDX 23 24 81 25 24 26 80 27 25 28 26 29 27 30 74 31 28 32 79 33
REMARK SMILES IDX 73 34 75 35 29 36 78 37 72 38 71 39 30 41 60 42 41 43 59 44
REMARK SMILES IDX 42 45 45 46 58 47 76 48 43 49 44 50 57 52 77 53 46 54 31 55
REMARK SMILES IDX 32 56 40 57 33 58 39 59 34 60 35 61 36 62 37 63 38 64 61 65
REMARK SMILES IDX 62 66 70 67 63 68 69 69 64 70 65 71 66 72 67 73 68 74 47 75
REMARK SMILES IDX 48 76 56 77 49 78 55 79 50 80 51 81 52 82 53 83 54 84
REMARK H PARENT 75 40 45 51
REMARK Flexibility Score: inf
ROOT
ATOM      1  C   UNL A   1      34.200  34.407  30.181  1.00  0.00     0.274 C 
ENDROOT
BRANCH   1   2
ATOM      2  O   UNL A   1      35.041  34.158  31.322  1.00  0.00    -0.460 OA
BRANCH   2   3
ATOM      3  C   UNL A   1      34.409  34.048  32.526  1.00  0.00     0.344 C 
ATOM      4  O   UNL A   1      33.323  34.559  32.782  1.00  0.00    -0.248 OA
BRANCH   3   5
ATOM      5  C   UNL A   1      35.176  33.158  33.512  1.00  0.00     0.352 C 
BRANCH   5   6
ATOM      6  O   UNL A   1      36.208  33.821  34.205  1.00  0.00    -0.480 OA
BRANCH   6   7
ATOM      7  C   UNL A   1      37.349  33.254  34.687  1.00  0.00     0.145 A 
ATOM      8  C   UNL A   1      38.504  32.732  34.080  1.00  0.00     0.107 A 
ATOM      9  C   UNL A   1      39.501  32.131  34.893  1.00  0.00     0.032 A 
ATOM     10  C   UNL A   1      39.401  32.118  36.285  1.00  0.00     0.003 A 
ATOM     11  C   UNL A   1      37.257  33.177  36.095  1.00  0.00     0.049 A 
ATOM     12  C   UNL A   1      38.272  32.641  36.888  1.00  0.00     0.004 A 
BRANCH   8  13
ATOM     13  N   UNL A   1      38.872  32.892  32.716  1.00  0.00    -0.237 N 
ATOM     14  C   UNL A   1      38.217  32.953  29.098  1.00  0.00     0.048 C 
ATOM     15  C   UNL A   1      38.707  33.062  30.489  1.00  0.00    -0.013 A 
ATOM     16  C   UNL A   1      39.807  33.772  31.003  1.00  0.00     0.139 A 
ATOM     17  C   UNL A   1      38.124  32.537  31.615  1.00  0.00     0.118 A 
ATOM     18  N   UNL A   1      39.896  33.704  32.335  1.00  0.00    -0.176 NA
ENDBRANCH   8  13
ENDBRANCH   6   7
ENDBRANCH   5   6
ENDBRANCH   3   5
ENDBRANCH   2   3
ENDBRANCH   1   2
BRANCH   1  19
ATOM     19  C   UNL A   1      34.553  33.474  29.018  1.00  0.00     0.275 C 
BRANCH  19  20
ATOM     20  O   UNL A   1      34.830  32.127  29.448  1.00  0.00    -0.458 OA
BRANCH  20  21
ATOM     21  C   UNL A   1      34.695  31.218  28.469  1.00  0.00     0.338 C 
ATOM     22  O   UNL A   1      33.751  31.147  27.672  1.00  0.00    -0.246 OA
BRANCH  21  23
ATOM     23  C   UNL A   1      35.752  30.206  28.464  1.00  0.00     0.060 A 
ATOM     24  C   UNL A   1      36.183  29.742  29.709  1.00  0.00     0.016 A 
ATOM     25  C   UNL A   1      36.543  30.048  27.328  1.00  0.00     0.016 A 
ATOM     26  C   UNL A   1      37.484  29.339  29.884  1.00  0.00     0.010 A 
ATOM     27  C   UNL A   1      37.850  29.612  27.494  1.00  0.00     0.010 A 
ATOM     28  C   UNL A   1      38.340  29.387  28.790  1.00  0.00    -0.014 A 
BRANCH  28  29
ATOM     29  C   UNL A   1      39.770  29.288  29.080  1.00  0.00     0.031 A 
ATOM     30  C   UNL A   1      40.176  29.479  30.501  1.00  0.00     0.074 A 
ATOM     31  C   UNL A   1      40.631  28.955  28.097  1.00  0.00     0.049 A 
ATOM     32  N   UNL A   1      41.193  30.123  30.984  1.00  0.00    -0.248 NA
ATOM     33  C   UNL A   1      39.270  28.927  31.523  1.00  0.00     0.031 C 
ATOM     34  C   UNL A   1      40.283  28.579  26.719  1.00  0.00     0.029 A 
ATOM     35  N   UNL A   1      41.971  28.704  28.160  1.00  0.00    -0.354 N 
ATOM     36  C   UNL A   1      41.150  29.907  32.360  1.00  0.00     0.074 A 
ATOM     37  C   UNL A   1      39.884  29.283  32.647  1.00  0.00     0.031 C 
ATOM     38  C   UNL A   1      41.298  27.865  26.196  1.00  0.00     0.029 A 
ATOM     39  C   UNL A   1      42.388  27.840  27.155  1.00  0.00     0.049 A 
ATOM     40  H   UNL A   1      42.571  29.091  28.838  1.00  0.00     0.167 HD
ATOM     41  C   UNL A   1      42.231  30.041  33.174  1.00  0.00     0.031 A 
ATOM     42  C   UNL A   1      43.474  27.030  27.175  1.00  0.00     0.031 A 
ATOM     43  C   UNL A   1      43.246  30.898  32.637  1.00  0.00     0.049 A 
ATOM     44  C   UNL A   1      44.407  27.534  28.205  1.00  0.00     0.074 A 
ATOM     45  C   UNL A   1      43.323  32.240  32.329  1.00  0.00     0.029 A 
ATOM     46  N   UNL A   1      44.345  30.308  32.064  1.00  0.00    -0.354 N 
ATOM     47  N   UNL A   1      45.038  28.671  28.122  1.00  0.00    -0.248 NA
ATOM     48  C   UNL A   1      44.384  26.936  29.532  1.00  0.00     0.031 C 
ATOM     49  C   UNL A   1      44.244  32.331  31.248  1.00  0.00     0.029 A 
ATOM     50  C   UNL A   1      44.677  31.037  30.950  1.00  0.00     0.049 A 
ATOM     51  H   UNL A   1      44.812  29.506  32.394  1.00  0.00     0.167 HD
ATOM     52  C   UNL A   1      45.138  29.124  29.428  1.00  0.00     0.074 A 
ATOM     53  C   UNL A   1      44.857  27.956  30.254  1.00  0.00     0.031 C 
ATOM     54  C   UNL A   1      45.161  30.460  29.711  1.00  0.00     0.031 A 
BRANCH  41  55
ATOM     55  C   UNL A   1      42.482  29.080  34.313  1.00  0.00    -0.014 A 
ATOM     56  C   UNL A   1      42.540  29.552  35.638  1.00  0.00     0.010 A 
ATOM     57  C   UNL A   1      42.926  27.759  34.083  1.00  0.00     0.010 A 
ATOM     58  C   UNL A   1      43.059  28.750  36.667  1.00  0.00     0.020 A 
ATOM     59  C   UNL A   1      43.397  26.938  35.106  1.00  0.00     0.020 A 
ATOM     60  C   UNL A   1      43.499  27.454  36.388  1.00  0.00     0.054 A 
BRANCH  60  61
ATOM     61  S   UNL A   1      44.290  26.469  37.684  1.00  0.00     0.124 S 
ATOM     62  O   UNL A   1      43.197  26.300  38.635  1.00  0.00    -0.237 OA
ATOM     63  O   UNL A   1      44.696  25.266  36.961  1.00  0.00    -0.237 OA
ATOM     64  O   UNL A   1      45.389  27.318  38.135  1.00  0.00    -0.744 OA
ENDBRANCH  60  61
ENDBRANCH  41  55
BRANCH  42  65
ATOM     65  C   UNL A   1      43.544  25.665  26.596  1.00  0.00    -0.014 A 
ATOM     66  C   UNL A   1      44.060  25.441  25.310  1.00  0.00     0.010 A 
ATOM     67  C   UNL A   1      43.296  24.536  27.408  1.00  0.00     0.010 A 
ATOM     68  C   UNL A   1      44.336  24.136  24.864  1.00  0.00     0.020 A 
ATOM     69  C   UNL A   1      43.548  23.237  26.966  1.00  0.00     0.020 A 
ATOM     70  C   UNL A   1      44.084  23.043  25.698  1.00  0.00     0.054 A 
BRANCH  70  71
ATOM     71  S   UNL A   1      44.556  21.373  25.164  1.00  0.00     0.124 S 
ATOM     72  O   UNL A   1      43.519  20.548  25.776  1.00  0.00    -0.237 OA
ATOM     73  O   UNL A   1      44.503  21.480  23.709  1.00  0.00    -0.237 OA
ATOM     74  O   UNL A   1      45.897  21.198  25.721  1.00  0.00    -0.744 OA
ENDBRANCH  70  71
ENDBRANCH  42  65
BRANCH  54  75
ATOM     75  C   UNL A   1      45.384  31.421  28.563  1.00  0.00    -0.014 A 
ATOM     76  C   UNL A   1      44.355  31.781  27.671  1.00  0.00     0.010 A 
ATOM     77  C   UNL A   1      46.611  32.102  28.479  1.00  0.00     0.010 A 
ATOM     78  C   UNL A   1      44.551  32.778  26.707  1.00  0.00     0.020 A 
ATOM     79  C   UNL A   1      46.809  33.112  27.529  1.00  0.00     0.020 A 
ATOM     80  C   UNL A   1      45.779  33.441  26.644  1.00  0.00     0.054 A 
BRANCH  80  81
ATOM     81  S   UNL A   1      45.994  34.792  25.450  1.00  0.00     0.124 S 
ATOM     82  O   UNL A   1      47.400  34.662  25.076  1.00  0.00    -0.237 OA
ATOM     83  O   UNL A   1      45.032  34.457  24.402  1.00  0.00    -0.237 OA
ATOM     84  O   UNL A   1      45.666  35.991  26.219  1.00  0.00    -0.744 OA
ENDBRANCH  80  81
ENDBRANCH  54  75
ENDBRANCH  28  29
ENDBRANCH  21  23
ENDBRANCH  20  21
ENDBRANCH  19  20
ENDBRANCH   1  19
TORSDOF 17
ENDMDL
MODEL 3
REMARK VINA RESULT:      -9.5      2.122      3.257
REMARK SMILES Cc1cnn(-c2ccccc2OCC(=O)OCCOC(=O)c2ccc(-c3c4nc(c(-c5ccc(S(=O)(=O)[O-])cc5)c5ccc([nH]5)c(-c5ccc(S(=O)(=O)[O-])cc5)c5nc(c(-c6ccc(S(=O)(=O)[O-])cc6)c6ccc3[nH]6)C=C5)C=C4)cc2)c1
REMARK SMILES IDX 17 1 16 2 14 3 15 4 13 5 12 6 11 7 6 8 7 9 8 10 10 11 9 12
REMARK SMILES IDX 5 13 1 14 2 15 3 16 82 17 4 18 18 19 19 20 20 21 21 22 22 23
REMARK SMILES IDX 23 24 81 25 24 26 80 27 25 28 26 29 27 30 74 31 28 32 79 33
REMARK SMILES IDX 73 34 75 35 29 36 78 37 72 38 71 39 30 41 60 42 41 43 59 44
REMARK SMILES IDX 42 45 45 46 58 47 76 48 43 49 44 50 57 52 77 53 46 54 31 55
REMARK SMILES IDX 32 56 40 57 33 58 39 59 34 60 35 61 36 62 37 63 38 64 61 65
REMARK SMILES IDX 62 66 70 67 63 68 69 69 64 70 65 71 66 72 67 73 68 74 47 75
REMARK SMILES IDX 48 76 56 77 49 78 55 79 50 80 51 81 52 82 53 83 54 84
REMARK H PARENT 75 40 45 51
REMARK Flexibility Score: inf
ROOT
ATOM      1  C   UNL A   1      34.649  34.970  28.080  1.00  0.00     0.274 C 
ENDROOT
BRANCH   1   2
ATOM      2  O   UNL A   1      35.600  34.168  28.802  1.00  0.00    -0.460 OA
BRANCH   2   3
ATOM      3  C   UNL A   1      35.820  32.911  28.319  1.00  0.00     0.344 C 
ATOM      4  O   UNL A   1      35.082  32.341  27.522  1.00  0.00    -0.248 OA
BRANCH   3   5
ATOM      5  C   UNL A   1      37.134  32.307  28.834  1.00  0.00     0.352 C 
BRANCH   5   6
ATOM      6  O   UNL A   1      37.103  30.907  28.987  1.00  0.00    -0.480 OA
BRANCH   6   7
ATOM      7  C   UNL A   1      38.152  30.054  28.816  1.00  0.00     0.145 A 
ATOM      8  C   UNL A   1      38.994  29.363  29.702  1.00  0.00     0.107 A 
ATOM      9  C   UNL A   1      40.068  28.594  29.180  1.00  0.00     0.032 A 
ATOM     10  C   UNL A   1      40.257  28.441  27.806  1.00  0.00     0.003 A 
ATOM     11  C   UNL A   1      38.405  29.919  27.432  1.00  0.00     0.049 A 
ATOM     12  C   UNL A   1      39.422  29.110  26.928  1.00  0.00     0.004 A 
BRANCH   8  13
ATOM     13  N   UNL A   1      38.785  29.211  31.100  1.00  0.00    -0.237 N 
ATOM     14  C   UNL A   1      38.021  30.431  34.484  1.00  0.00     0.048 C 
ATOM     15  C   UNL A   1      38.272  29.696  33.225  1.00  0.00    -0.013 A 
ATOM     16  C   UNL A   1      38.049  28.343  32.913  1.00  0.00     0.139 A 
ATOM     17  C   UNL A   1      38.716  30.218  32.037  1.00  0.00     0.118 A 
ATOM     18  N   UNL A   1      38.322  28.048  31.639  1.00  0.00    -0.176 NA
ENDBRANCH   8  13
ENDBRANCH   6   7
ENDBRANCH   5   6
ENDBRANCH   3   5
ENDBRANCH   2   3
ENDBRANCH   1   2
BRANCH   1  19
ATOM     19  C   UNL A   1      33.580  35.541  29.019  1.00  0.00     0.275 C 
BRANCH  19  20
ATOM     20  O   UNL A   1      33.183  34.610  30.044  1.00  0.00    -0.458 OA
BRANCH  20  21
ATOM     21  C   UNL A   1      33.159  35.151  31.273  1.00  0.00     0.338 C 
ATOM     22  O   UNL A   1      32.491  36.134  31.618  1.00  0.00    -0.246 OA
BRANCH  21  23
ATOM     23  C   UNL A   1      34.094  34.522  32.205  1.00  0.00     0.060 A 
ATOM     24  C   UNL A   1      34.704  35.357  33.144  1.00  0.00     0.016 A 
ATOM     25  C   UNL A   1      34.640  33.278  31.891  1.00  0.00     0.016 A 
ATOM     26  C   UNL A   1      35.971  35.078  33.597  1.00  0.00     0.010 A 
ATOM     27  C   UNL A   1      35.907  32.978  32.371  1.00  0.00     0.010 A 
ATOM     28  C   UNL A   1      36.607  33.942  33.114  1.00  0.00    -0.014 A 
BRANCH  28  29
ATOM     29  C   UNL A   1      38.050  33.861  33.338  1.00  0.00     0.031 A 
ATOM     30  C   UNL A   1      38.919  33.974  32.133  1.00  0.00     0.074 A 
ATOM     31  C   UNL A   1      38.528  33.774  34.596  1.00  0.00     0.049 A 
ATOM     32  N   UNL A   1      39.990  33.309  31.828  1.00  0.00    -0.248 NA
ATOM     33  C   UNL A   1      38.479  34.920  31.092  1.00  0.00     0.031 C 
ATOM     34  C   UNL A   1      37.743  33.839  35.837  1.00  0.00     0.029 A 
ATOM     35  N   UNL A   1      39.818  33.796  35.042  1.00  0.00    -0.354 N 
ATOM     36  C   UNL A   1      40.454  33.875  30.643  1.00  0.00     0.074 A 
ATOM     37  C   UNL A   1      39.423  34.763  30.171  1.00  0.00     0.031 C 
ATOM     38  C   UNL A   1      38.556  34.206  36.846  1.00  0.00     0.029 A 
ATOM     39  C   UNL A   1      39.914  34.286  36.339  1.00  0.00     0.049 A 
ATOM     40  H   UNL A   1      40.589  33.498  34.507  1.00  0.00     0.167 HD
ATOM     41  C   UNL A   1      41.741  33.769  30.215  1.00  0.00     0.031 A 
ATOM     42  C   UNL A   1      40.993  34.872  36.910  1.00  0.00     0.031 A 
ATOM     43  C   UNL A   1      42.431  32.640  30.763  1.00  0.00     0.049 A 
ATOM     44  C   UNL A   1      42.191  34.495  36.129  1.00  0.00     0.074 A 
ATOM     45  C   UNL A   1      42.293  31.271  30.659  1.00  0.00     0.029 A 
ATOM     46  N   UNL A   1      43.296  32.861  31.805  1.00  0.00    -0.354 N 
ATOM     47  N   UNL A   1      42.665  33.283  36.062  1.00  0.00    -0.248 NA
ATOM     48  C   UNL A   1      42.686  35.409  35.110  1.00  0.00     0.031 C 
ATOM     49  C   UNL A   1      42.761  30.746  31.897  1.00  0.00     0.029 A 
ATOM     50  C   UNL A   1      43.155  31.824  32.692  1.00  0.00     0.049 A 
ATOM     51  H   UNL A   1      43.908  33.627  31.899  1.00  0.00     0.167 HD
ATOM     52  C   UNL A   1      43.187  33.171  34.784  1.00  0.00     0.074 A 
ATOM     53  C   UNL A   1      43.306  34.542  34.304  1.00  0.00     0.031 C 
ATOM     54  C   UNL A   1      43.209  31.970  34.134  1.00  0.00     0.031 A 
BRANCH  41  55
ATOM     55  C   UNL A   1      42.451  34.931  29.561  1.00  0.00    -0.014 A 
ATOM     56  C   UNL A   1      42.539  35.009  28.159  1.00  0.00     0.010 A 
ATOM     57  C   UNL A   1      43.264  35.816  30.304  1.00  0.00     0.010 A 
ATOM     58  C   UNL A   1      43.433  35.898  27.540  1.00  0.00     0.020 A 
ATOM     59  C   UNL A   1      44.118  36.736  29.700  1.00  0.00     0.020 A 
ATOM     60  C   UNL A   1      44.227  36.743  28.318  1.00  0.00     0.054 A 
BRANCH  60  61
ATOM     61  S   UNL A   1      45.472  37.794  27.530  1.00  0.00     0.124 S 
ATOM     62  O   UNL A   1      44.672  38.509  26.541  1.00  0.00    -0.237 OA
ATOM     63  O   UNL A   1      45.964  38.593  28.648  1.00  0.00    -0.237 OA
ATOM     64  O   UNL A   1      46.432  36.836  26.986  1.00  0.00    -0.744 OA
ENDBRANCH  60  61
ENDBRANCH  41  55
BRANCH  42  65
ATOM     65  C   UNL A   1      40.955  36.009  37.865  1.00  0.00    -0.014 A 
ATOM     66  C   UNL A   1      39.739  36.567  38.289  1.00  0.00     0.010 A 
ATOM     67  C   UNL A   1      42.131  36.412  38.536  1.00  0.00     0.010 A 
ATOM     68  C   UNL A   1      39.702  37.480  39.358  1.00  0.00     0.020 A 
ATOM     69  C   UNL A   1      42.105  37.332  39.585  1.00  0.00     0.020 A 
ATOM     70  C   UNL A   1      40.886  37.851  40.003  1.00  0.00     0.054 A 
BRANCH  70  71
ATOM     71  S   UNL A   1      40.817  38.933  41.459  1.00  0.00     0.124 S 
ATOM     72  O   UNL A   1      41.193  40.228  40.901  1.00  0.00    -0.237 OA
ATOM     73  O   UNL A   1      39.426  38.806  41.883  1.00  0.00    -0.237 OA
ATOM     74  O   UNL A   1      41.796  38.345  42.373  1.00  0.00    -0.744 OA
ENDBRANCH  70  71
ENDBRANCH  42  65
BRANCH  54  75
ATOM     75  C   UNL A   1      42.938  30.722  34.947  1.00  0.00    -0.014 A 
ATOM     76  C   UNL A   1      41.635  30.330  35.313  1.00  0.00     0.010 A 
ATOM     77  C   UNL A   1      44.001  29.839  35.208  1.00  0.00     0.010 A 
ATOM     78  C   UNL A   1      41.401  29.100  35.941  1.00  0.00     0.020 A 
ATOM     79  C   UNL A   1      43.772  28.601  35.820  1.00  0.00     0.020 A 
ATOM     80  C   UNL A   1      42.473  28.240  36.188  1.00  0.00     0.054 A 
BRANCH  80  81
ATOM     81  S   UNL A   1      42.149  26.612  36.923  1.00  0.00     0.124 S 
ATOM     82  O   UNL A   1      40.761  26.732  37.359  1.00  0.00    -0.237 OA
ATOM     83  O   UNL A   1      42.380  25.697  35.806  1.00  0.00    -0.237 OA
ATOM     84  O   UNL A   1      43.131  26.516  38.001  1.00  0.00    -0.744 OA
ENDBRANCH  80  81
ENDBRANCH  54  75
ENDBRANCH  28  29
ENDBRANCH  21  23
ENDBRANCH  20  21
ENDBRANCH  19  20
ENDBRANCH   1  19
TORSDOF 17
ENDMDL
