MODEL 1
REMARK VINA RESULT:     -10.5      0.000      0.000
REMARK SMILES CSc1ncccc1C(=O)N1CSC[C@H]1C(=O)OCCOC(=O)c1ccc(-c2c3nc(c(-c4ccc(S(=O)(=O)[O-])cc4)c4ccc([nH]4)c(-c4ccc(S(=O)(=O)[O-])cc4)c4nc(c(-c5ccc(S(=O)(=O)[O-])cc5)c5ccc2[nH]5)C=C4)C=C3)cc1
REMARK SMILES IDX 19 1 18 2 16 3 17 4 15 5 11 6 12 7 13 8 14 9 9 10 10 11 8 12
REMARK SMILES IDX 3 13 4 14 5 15 7 16 6 17 2 18 1 19 20 20 21 21 22 22 23 23
REMARK SMILES IDX 24 24 25 25 83 26 26 27 82 28 27 29 28 30 29 31 76 32 30 33
REMARK SMILES IDX 81 34 75 35 77 36 31 37 80 38 74 39 73 40 32 42 62 43 43 44
REMARK SMILES IDX 61 45 44 46 47 47 60 48 78 49 45 50 46 51 59 53 79 54 48 55
REMARK SMILES IDX 33 56 34 57 42 58 35 59 41 60 36 61 37 62 38 63 39 64 40 65
REMARK SMILES IDX 63 66 64 67 72 68 65 69 71 70 66 71 67 72 68 73 69 74 70 75
REMARK SMILES IDX 49 76 50 77 58 78 51 79 57 80 52 81 53 82 54 83 55 84 56 85
REMARK H PARENT 77 41 47 52
REMARK Flexibility Score: inf
ROOT
ATOM      1  C   UNL A   1      37.795  22.396  25.411  1.00  0.00     0.274 C 
ENDROOT
BRANCH   1   2
ATOM      2  O   UNL A   1      37.071  23.636  25.262  1.00  0.00    -0.461 OA
BRANCH   2   3
ATOM      3  C   UNL A   1      36.196  23.668  24.222  1.00  0.00     0.329 C 
ATOM      4  O   UNL A   1      36.465  23.307  23.079  1.00  0.00    -0.250 OA
BRANCH   3   5
ATOM      5  C   UNL A   1      34.847  24.315  24.556  1.00  0.00     0.206 C 
ATOM      6  N   UNL A   1      33.752  24.290  23.581  1.00  0.00    -0.315 N 
ATOM      7  C   UNL A   1      33.010  23.050  23.579  1.00  0.00     0.191 C 
ATOM      8  S   UNL A   1      33.099  22.419  25.276  1.00  0.00    -0.138 SA
ATOM      9  C   UNL A   1      34.306  23.669  25.829  1.00  0.00     0.108 C 
BRANCH   6  10
ATOM     10  C   UNL A   1      33.476  25.438  22.850  1.00  0.00     0.258 C 
ATOM     11  O   UNL A   1      33.782  25.539  21.667  1.00  0.00    -0.269 OA
BRANCH  10  12
ATOM     12  C   UNL A   1      33.010  26.652  23.547  1.00  0.00     0.072 A 
ATOM     13  C   UNL A   1      31.712  26.819  24.033  1.00  0.00     0.108 A 
ATOM     14  N   UNL A   1      31.300  28.002  24.566  1.00  0.00    -0.249 NA
ATOM     15  C   UNL A   1      32.147  29.054  24.527  1.00  0.00     0.112 A 
ATOM     16  C   UNL A   1      33.863  27.767  23.516  1.00  0.00     0.018 A 
ATOM     17  C   UNL A   1      33.426  28.990  24.010  1.00  0.00     0.021 A 
BRANCH  13  18
ATOM     18  S   UNL A   1      30.419  25.600  23.922  1.00  0.00    -0.109 SA
ATOM     19  C   UNL A   1      28.968  26.668  23.839  1.00  0.00     0.092 C 
ENDBRANCH  13  18
ENDBRANCH  10  12
ENDBRANCH   6  10
ENDBRANCH   3   5
ENDBRANCH   2   3
ENDBRANCH   1   2
BRANCH   1  20
ATOM     20  C   UNL A   1      39.031  22.567  26.290  1.00  0.00     0.275 C 
BRANCH  20  21
ATOM     21  O   UNL A   1      39.100  23.896  26.829  1.00  0.00    -0.458 OA
BRANCH  21  22
ATOM     22  C   UNL A   1      40.354  24.413  26.868  1.00  0.00     0.338 C 
ATOM     23  O   UNL A   1      41.291  24.107  26.152  1.00  0.00    -0.246 OA
BRANCH  22  24
ATOM     24  C   UNL A   1      40.440  25.410  27.942  1.00  0.00     0.060 A 
ATOM     25  C   UNL A   1      39.333  25.641  28.755  1.00  0.00     0.016 A 
ATOM     26  C   UNL A   1      41.582  26.199  28.059  1.00  0.00     0.016 A 
ATOM     27  C   UNL A   1      39.333  26.718  29.639  1.00  0.00     0.010 A 
ATOM     28  C   UNL A   1      41.611  27.228  29.006  1.00  0.00     0.010 A 
ATOM     29  C   UNL A   1      40.478  27.512  29.788  1.00  0.00    -0.014 A 
BRANCH  29  30
ATOM     30  C   UNL A   1      40.498  28.629  30.768  1.00  0.00     0.031 A 
ATOM     31  C   UNL A   1      41.476  28.627  31.911  1.00  0.00     0.074 A 
ATOM     32  C   UNL A   1      39.618  29.640  30.638  1.00  0.00     0.049 A 
ATOM     33  N   UNL A   1      41.525  29.419  32.952  1.00  0.00    -0.248 NA
ATOM     34  C   UNL A   1      42.529  27.598  31.886  1.00  0.00     0.031 C 
ATOM     35  C   UNL A   1      38.646  29.784  29.552  1.00  0.00     0.029 A 
ATOM     36  N   UNL A   1      39.392  30.737  31.431  1.00  0.00    -0.354 N 
ATOM     37  C   UNL A   1      42.585  28.961  33.727  1.00  0.00     0.074 A 
ATOM     38  C   UNL A   1      43.150  27.821  33.037  1.00  0.00     0.031 C 
ATOM     39  C   UNL A   1      37.942  30.911  29.736  1.00  0.00     0.029 A 
ATOM     40  C   UNL A   1      38.360  31.529  30.990  1.00  0.00     0.049 A 
ATOM     41  H   UNL A   1      39.919  30.937  32.239  1.00  0.00     0.167 HD
ATOM     42  C   UNL A   1      43.038  29.448  34.908  1.00  0.00     0.031 A 
ATOM     43  C   UNL A   1      37.779  32.608  31.548  1.00  0.00     0.031 A 
ATOM     44  C   UNL A   1      42.488  30.598  35.578  1.00  0.00     0.049 A 
ATOM     45  C   UNL A   1      38.269  33.099  32.878  1.00  0.00     0.074 A 
ATOM     46  C   UNL A   1      42.887  31.172  36.774  1.00  0.00     0.029 A 
ATOM     47  N   UNL A   1      41.427  31.355  35.107  1.00  0.00    -0.354 N 
ATOM     48  N   UNL A   1      39.244  32.631  33.618  1.00  0.00    -0.248 NA
ATOM     49  C   UNL A   1      37.570  34.255  33.455  1.00  0.00     0.031 C 
ATOM     50  C   UNL A   1      42.042  32.255  37.043  1.00  0.00     0.029 A 
ATOM     51  C   UNL A   1      41.145  32.381  35.994  1.00  0.00     0.049 A 
ATOM     52  H   UNL A   1      40.943  31.189  34.266  1.00  0.00     0.167 HD
ATOM     53  C   UNL A   1      39.283  33.440  34.746  1.00  0.00     0.074 A 
ATOM     54  C   UNL A   1      38.245  34.438  34.583  1.00  0.00     0.031 C 
ATOM     55  C   UNL A   1      40.105  33.363  35.821  1.00  0.00     0.031 A 
BRANCH  42  56
ATOM     56  C   UNL A   1      44.167  28.709  35.579  1.00  0.00    -0.014 A 
ATOM     57  C   UNL A   1      45.509  29.059  35.351  1.00  0.00     0.010 A 
ATOM     58  C   UNL A   1      43.873  27.677  36.489  1.00  0.00     0.010 A 
ATOM     59  C   UNL A   1      46.539  28.367  35.998  1.00  0.00     0.020 A 
ATOM     60  C   UNL A   1      44.898  26.997  37.152  1.00  0.00     0.020 A 
ATOM     61  C   UNL A   1      46.227  27.336  36.890  1.00  0.00     0.054 A 
BRANCH  61  62
ATOM     62  S   UNL A   1      47.577  26.469  37.739  1.00  0.00     0.124 S 
ATOM     63  O   UNL A   1      48.510  26.217  36.644  1.00  0.00    -0.237 OA
ATOM     64  O   UNL A   1      48.021  27.447  38.729  1.00  0.00    -0.237 OA
ATOM     65  O   UNL A   1      46.931  25.281  38.292  1.00  0.00    -0.744 OA
ENDBRANCH  61  62
ENDBRANCH  42  56
BRANCH  43  66
ATOM     66  C   UNL A   1      36.636  33.263  30.860  1.00  0.00    -0.014 A 
ATOM     67  C   UNL A   1      35.367  33.300  31.462  1.00  0.00     0.010 A 
ATOM     68  C   UNL A   1      36.824  33.889  29.614  1.00  0.00     0.010 A 
ATOM     69  C   UNL A   1      34.303  33.948  30.827  1.00  0.00     0.020 A 
ATOM     70  C   UNL A   1      35.769  34.559  28.988  1.00  0.00     0.020 A 
ATOM     71  C   UNL A   1      34.512  34.576  29.596  1.00  0.00     0.054 A 
BRANCH  71  72
ATOM     72  S   UNL A   1      33.140  35.475  28.822  1.00  0.00     0.124 S 
ATOM     73  O   UNL A   1      32.547  34.449  27.970  1.00  0.00    -0.237 OA
ATOM     74  O   UNL A   1      32.336  35.885  29.971  1.00  0.00    -0.237 OA
ATOM     75  O   UNL A   1      33.806  36.569  28.117  1.00  0.00    -0.744 OA
ENDBRANCH  71  72
ENDBRANCH  43  66
BRANCH  55  76
ATOM     76  C   UNL A   1      39.929  34.399  36.894  1.00  0.00    -0.014 A 
ATOM     77  C   UNL A   1      40.609  35.628  36.828  1.00  0.00     0.010 A 
ATOM     78  C   UNL A   1      39.041  34.158  37.957  1.00  0.00     0.010 A 
ATOM     79  C   UNL A   1      40.421  36.591  37.824  1.00  0.00     0.020 A 
ATOM     80  C   UNL A   1      38.837  35.126  38.943  1.00  0.00     0.020 A 
ATOM     81  C   UNL A   1      39.538  36.332  38.877  1.00  0.00     0.054 A 
BRANCH  81  82
ATOM     82  S   UNL A   1      39.274  37.613  40.136  1.00  0.00     0.124 S 
ATOM     83  O   UNL A   1      38.916  36.817  41.307  1.00  0.00    -0.237 OA
ATOM     84  O   UNL A   1      40.573  38.278  40.200  1.00  0.00    -0.237 OA
ATOM     85  O   UNL A   1      38.193  38.425  39.580  1.00  0.00    -0.744 OA
ENDBRANCH  81  82
ENDBRANCH  55  76
ENDBRANCH  29  30
ENDBRANCH  22  24
ENDBRANCH  21  22
ENDBRANCH  20  21
ENDBRANCH   1  20
TORSDOF 17
ENDMDL
MODEL 2
REMARK VINA RESULT:     -10.5      4.585     10.387
REMARK SMILES CSc1ncccc1C(=O)N1CSC[C@H]1C(=O)OCCOC(=O)c1ccc(-c2c3nc(c(-c4ccc(S(=O)(=O)[O-])cc4)c4ccc([nH]4)c(-c4ccc(S(=O)(=O)[O-])cc4)c4nc(c(-c5ccc(S(=O)(=O)[O-])cc5)c5ccc2[nH]5)C=C4)C=C3)cc1
REMARK SMILES IDX 19 1 18 2 16 3 17 4 15 5 11 6 12 7 13 8 14 9 9 10 10 11 8 12
REMARK SMILES IDX 3 13 4 14 5 15 7 16 6 17 2 18 1 19 20 20 21 21 22 22 23 23
REMARK SMILES IDX 24 24 25 25 83 26 26 27 82 28 27 29 28 30 29 31 76 32 30 33
REMARK SMILES IDX 81 34 75 35 77 36 31 37 80 38 74 39 73 40 32 42 62 43 43 44
REMARK SMILES IDX 61 45 44 46 47 47 60 48 78 49 45 50 46 51 59 53 79 54 48 55
REMARK SMILES IDX 33 56 34 57 42 58 35 59 41 60 36 61 37 62 38 63 39 64 40 65
REMARK SMILES IDX 63 66 64 67 72 68 65 69 71 70 66 71 67 72 68 73 69 74 70 75
REMARK SMILES IDX 49 76 50 77 58 78 51 79 57 80 52 81 53 82 54 83 55 84 56 85
REMARK H PARENT 77 41 47 52
REMARK Flexibility Score: inf
ROOT
ATOM      1  C   UNL A   1      31.810  29.074  25.890  1.00  0.00     0.274 C 
ENDROOT
BRANCH   1   2
ATOM      2  O   UNL A   1      31.691  27.725  25.389  1.00  0.00    -0.461 OA
BRANCH   2   3
ATOM      3  C   UNL A   1      31.933  27.583  24.059  1.00  0.00     0.329 C 
ATOM      4  O   UNL A   1      31.285  28.136  23.174  1.00  0.00    -0.250 OA
BRANCH   3   5
ATOM      5  C   UNL A   1      33.028  26.564  23.725  1.00  0.00     0.206 C 
ATOM      6  N   UNL A   1      32.751  25.126  23.804  1.00  0.00    -0.315 N 
ATOM      7  C   UNL A   1      32.087  24.602  22.633  1.00  0.00     0.191 C 
ATOM      8  S   UNL A   1      32.652  25.624  21.247  1.00  0.00    -0.138 SA
ATOM      9  C   UNL A   1      33.518  26.831  22.304  1.00  0.00     0.108 C 
BRANCH   6  10
ATOM     10  C   UNL A   1      33.214  24.412  24.901  1.00  0.00     0.258 C 
ATOM     11  O   UNL A   1      32.908  24.719  26.048  1.00  0.00    -0.269 OA
BRANCH  10  12
ATOM     12  C   UNL A   1      34.272  23.400  24.719  1.00  0.00     0.072 A 
ATOM     13  C   UNL A   1      34.032  22.026  24.663  1.00  0.00     0.108 A 
ATOM     14  N   UNL A   1      35.054  21.128  24.609  1.00  0.00    -0.249 NA
ATOM     15  C   UNL A   1      36.320  21.588  24.710  1.00  0.00     0.112 A 
ATOM     16  C   UNL A   1      35.600  23.844  24.828  1.00  0.00     0.018 A 
ATOM     17  C   UNL A   1      36.642  22.926  24.829  1.00  0.00     0.021 A 
BRANCH  13  18
ATOM     18  S   UNL A   1      32.424  21.268  24.773  1.00  0.00    -0.109 SA
ATOM     19  C   UNL A   1      32.857  19.540  24.495  1.00  0.00     0.092 C 
ENDBRANCH  13  18
ENDBRANCH  10  12
ENDBRANCH   6  10
ENDBRANCH   3   5
ENDBRANCH   2   3
ENDBRANCH   1   2
BRANCH   1  20
ATOM     20  C   UNL A   1      33.243  29.590  25.785  1.00  0.00     0.275 C 
BRANCH  20  21
ATOM     21  O   UNL A   1      34.016  29.199  26.928  1.00  0.00    -0.458 OA
BRANCH  21  22
ATOM     22  C   UNL A   1      34.415  30.235  27.708  1.00  0.00     0.338 C 
ATOM     23  O   UNL A   1      33.750  31.206  28.024  1.00  0.00    -0.246 OA
BRANCH  22  24
ATOM     24  C   UNL A   1      35.810  30.032  28.119  1.00  0.00     0.060 A 
ATOM     25  C   UNL A   1      36.829  30.164  27.178  1.00  0.00     0.016 A 
ATOM     26  C   UNL A   1      36.090  29.593  29.411  1.00  0.00     0.016 A 
ATOM     27  C   UNL A   1      38.127  29.780  27.504  1.00  0.00     0.010 A 
ATOM     28  C   UNL A   1      37.409  29.287  29.760  1.00  0.00     0.010 A 
ATOM     29  C   UNL A   1      38.436  29.355  28.802  1.00  0.00    -0.014 A 
BRANCH  29  30
ATOM     30  C   UNL A   1      39.831  28.994  29.166  1.00  0.00     0.031 A 
ATOM     31  C   UNL A   1      40.730  29.994  29.840  1.00  0.00     0.074 A 
ATOM     32  C   UNL A   1      40.297  27.765  28.869  1.00  0.00     0.049 A 
ATOM     33  N   UNL A   1      42.016  29.918  30.072  1.00  0.00    -0.248 NA
ATOM     34  C   UNL A   1      40.106  31.244  30.305  1.00  0.00     0.031 C 
ATOM     35  C   UNL A   1      39.516  26.688  28.255  1.00  0.00     0.029 A 
ATOM     36  N   UNL A   1      41.543  27.216  29.037  1.00  0.00    -0.354 N 
ATOM     37  C   UNL A   1      42.365  31.123  30.672  1.00  0.00     0.074 A 
ATOM     38  C   UNL A   1      41.156  31.913  30.766  1.00  0.00     0.031 C 
ATOM     39  C   UNL A   1      40.294  25.605  28.115  1.00  0.00     0.029 A 
ATOM     40  C   UNL A   1      41.644  25.932  28.558  1.00  0.00     0.049 A 
ATOM     41  H   UNL A   1      42.292  27.695  29.460  1.00  0.00     0.167 HD
ATOM     42  C   UNL A   1      43.585  31.532  31.099  1.00  0.00     0.031 A 
ATOM     43  C   UNL A   1      42.711  25.118  28.445  1.00  0.00     0.031 A 
ATOM     44  C   UNL A   1      44.781  30.732  31.026  1.00  0.00     0.049 A 
ATOM     45  C   UNL A   1      44.059  25.610  28.882  1.00  0.00     0.074 A 
ATOM     46  C   UNL A   1      46.061  31.055  31.443  1.00  0.00     0.029 A 
ATOM     47  N   UNL A   1      44.842  29.446  30.511  1.00  0.00    -0.354 N 
ATOM     48  N   UNL A   1      44.381  26.767  29.408  1.00  0.00    -0.248 NA
ATOM     49  C   UNL A   1      45.191  24.693  28.696  1.00  0.00     0.031 C 
ATOM     50  C   UNL A   1      46.904  29.978  31.146  1.00  0.00     0.029 A 
ATOM     51  C   UNL A   1      46.140  28.968  30.583  1.00  0.00     0.049 A 
ATOM     52  H   UNL A   1      44.077  28.945  30.147  1.00  0.00     0.167 HD
ATOM     53  C   UNL A   1      45.751  26.714  29.626  1.00  0.00     0.074 A 
ATOM     54  C   UNL A   1      46.195  25.406  29.190  1.00  0.00     0.031 C 
ATOM     55  C   UNL A   1      46.568  27.666  30.139  1.00  0.00     0.031 A 
BRANCH  42  56
ATOM     56  C   UNL A   1      43.699  32.929  31.650  1.00  0.00    -0.014 A 
ATOM     57  C   UNL A   1      43.866  34.038  30.803  1.00  0.00     0.010 A 
ATOM     58  C   UNL A   1      43.589  33.136  33.037  1.00  0.00     0.010 A 
ATOM     59  C   UNL A   1      43.954  35.328  31.338  1.00  0.00     0.020 A 
ATOM     60  C   UNL A   1      43.657  34.425  33.574  1.00  0.00     0.020 A 
ATOM     61  C   UNL A   1      43.855  35.513  32.721  1.00  0.00     0.054 A 
BRANCH  61  62
ATOM     62  S   UNL A   1      43.946  37.197  33.392  1.00  0.00     0.124 S 
ATOM     63  O   UNL A   1      43.960  38.007  32.177  1.00  0.00    -0.237 OA
ATOM     64  O   UNL A   1      42.730  37.293  34.196  1.00  0.00    -0.237 OA
ATOM     65  O   UNL A   1      45.192  37.198  34.155  1.00  0.00    -0.744 OA
ENDBRANCH  61  62
ENDBRANCH  42  56
BRANCH  43  66
ATOM     66  C   UNL A   1      42.543  23.768  27.846  1.00  0.00    -0.014 A 
ATOM     67  C   UNL A   1      42.930  23.523  26.519  1.00  0.00     0.010 A 
ATOM     68  C   UNL A   1      42.029  22.710  28.619  1.00  0.00     0.010 A 
ATOM     69  C   UNL A   1      42.802  22.243  25.971  1.00  0.00     0.020 A 
ATOM     70  C   UNL A   1      41.923  21.424  28.083  1.00  0.00     0.020 A 
ATOM     71  C   UNL A   1      42.302  21.201  26.759  1.00  0.00     0.054 A 
BRANCH  71  72
ATOM     72  S   UNL A   1      42.212  19.531  26.056  1.00  0.00     0.124 S 
ATOM     73  O   UNL A   1      42.739  18.715  27.144  1.00  0.00    -0.237 OA
ATOM     74  O   UNL A   1      40.786  19.375  25.780  1.00  0.00    -0.237 OA
ATOM     75  O   UNL A   1      43.061  19.617  24.868  1.00  0.00    -0.744 OA
ENDBRANCH  71  72
ENDBRANCH  43  66
BRANCH  55  76
ATOM     76  C   UNL A   1      48.023  27.316  30.280  1.00  0.00    -0.014 A 
ATOM     77  C   UNL A   1      48.953  27.690  29.294  1.00  0.00     0.010 A 
ATOM     78  C   UNL A   1      48.470  26.645  31.431  1.00  0.00     0.010 A 
ATOM     79  C   UNL A   1      50.306  27.374  29.447  1.00  0.00     0.020 A 
ATOM     80  C   UNL A   1      49.825  26.346  31.596  1.00  0.00     0.020 A 
ATOM     81  C   UNL A   1      50.732  26.701  30.596  1.00  0.00     0.054 A 
BRANCH  81  82
ATOM     82  S   UNL A   1      52.500  26.341  30.797  1.00  0.00     0.124 S 
ATOM     83  O   UNL A   1      52.474  25.172  31.671  1.00  0.00    -0.237 OA
ATOM     84  O   UNL A   1      52.938  26.092  29.425  1.00  0.00    -0.237 OA
ATOM     85  O   UNL A   1      53.034  27.560  31.402  1.00  0.00    -0.744 OA
ENDBRANCH  81  82
ENDBRANCH  55  76
ENDBRANCH  29  30
ENDBRANCH  22  24
ENDBRANCH  21  22
ENDBRANCH  20  21
ENDBRANCH   1  20
TORSDOF 17
ENDMDL
MODEL 3
REMARK VINA RESULT:     -10.3      3.298      3.995
REMARK SMILES CSc1ncccc1C(=O)N1CSC[C@H]1C(=O)OCCOC(=O)c1ccc(-c2c3nc(c(-c4ccc(S(=O)(=O)[O-])cc4)c4ccc([nH]4)c(-c4ccc(S(=O)(=O)[O-])cc4)c4nc(c(-c5ccc(S(=O)(=O)[O-])cc5)c5ccc2[nH]5)C=C4)C=C3)cc1
REMARK SMILES IDX 19 1 18 2 16 3 17 4 15 5 11 6 12 7 13 8 14 9 9 10 10 11 8 12
REMARK SMILES IDX 3 13 4 14 5 15 7 16 6 17 2 18 1 19 20 20 21 21 22 22 23 23
REMARK SMILES IDX 24 24 25 25 83 26 26 27 82 28 27 29 28 30 29 31 76 32 30 33
REMARK SMILES IDX 81 34 75 35 77 36 31 37 80 38 74 39 73 40 32 42 62 43 43 44
REMARK SMILES IDX 61 45 44 46 47 47 60 48 78 49 45 50 46 51 59 53 79 54 48 55
REMARK SMILES IDX 33 56 34 57 42 58 35 59 41 60 36 61 37 62 38 63 39 64 40 65
REMARK SMILES IDX 63 66 64 67 72 68 65 69 71 70 66 71 67 72 68 73 69 74 70 75
REMARK SMILES IDX 49 76 50 77 58 78 51 79 57 80 52 81 53 82 54 83 55 84 56 85
REMARK H PARENT 77 41 47 52
REMARK Flexibility Score: inf
ROOT
ATOM      1  C   UNL A   1      36.205  21.337  24.649  1.00  0.00     0.274 C 
ENDROOT
BRANCH   1   2
ATOM      2  O   UNL A   1      35.037  21.746  25.393  1.00  0.00    -0.461 OA
BRANCH   2   3
ATOM      3  C   UNL A   1      34.131  22.473  24.686  1.00  0.00     0.329 C 
ATOM      4  O   UNL A   1      33.764  22.202  23.545  1.00  0.00    -0.250 OA
BRANCH   3   5
ATOM      5  C   UNL A   1      33.674  23.758  25.385  1.00  0.00     0.206 C 
ATOM      6  N   UNL A   1      32.685  24.636  24.751  1.00  0.00    -0.315 N 
ATOM      7  C   UNL A   1      31.321  24.201  24.943  1.00  0.00     0.191 C 
ATOM      8  S   UNL A   1      31.295  23.350  26.543  1.00  0.00    -0.138 SA
ATOM      9  C   UNL A   1      33.106  23.386  26.752  1.00  0.00     0.108 C 
BRANCH   6  10
ATOM     10  C   UNL A   1      33.119  25.802  24.135  1.00  0.00     0.258 C 
ATOM     11  O   UNL A   1      33.896  25.781  23.187  1.00  0.00    -0.269 OA
BRANCH  10  12
ATOM     12  C   UNL A   1      32.829  27.108  24.757  1.00  0.00     0.072 A 
ATOM     13  C   UNL A   1      31.803  27.957  24.339  1.00  0.00     0.108 A 
ATOM     14  N   UNL A   1      31.650  29.201  24.871  1.00  0.00    -0.249 NA
ATOM     15  C   UNL A   1      32.575  29.642  25.752  1.00  0.00     0.112 A 
ATOM     16  C   UNL A   1      33.776  27.599  25.670  1.00  0.00     0.018 A 
ATOM     17  C   UNL A   1      33.652  28.888  26.174  1.00  0.00     0.021 A 
BRANCH  13  18
ATOM     18  S   UNL A   1      30.666  27.604  23.015  1.00  0.00    -0.109 SA
ATOM     19  C   UNL A   1      30.438  29.257  22.329  1.00  0.00     0.092 C 
ENDBRANCH  13  18
ENDBRANCH  10  12
ENDBRANCH   6  10
ENDBRANCH   3   5
ENDBRANCH   2   3
ENDBRANCH   1   2
BRANCH   1  20
ATOM     20  C   UNL A   1      37.261  22.438  24.610  1.00  0.00     0.275 C 
BRANCH  20  21
ATOM     21  O   UNL A   1      37.562  22.911  25.931  1.00  0.00    -0.458 OA
BRANCH  21  22
ATOM     22  C   UNL A   1      38.886  22.925  26.226  1.00  0.00     0.338 C 
ATOM     23  O   UNL A   1      39.679  22.014  26.063  1.00  0.00    -0.246 OA
BRANCH  22  24
ATOM     24  C   UNL A   1      39.246  24.224  26.807  1.00  0.00     0.060 A 
ATOM     25  C   UNL A   1      39.976  25.137  26.050  1.00  0.00     0.016 A 
ATOM     26  C   UNL A   1      38.959  24.483  28.146  1.00  0.00     0.016 A 
ATOM     27  C   UNL A   1      40.493  26.282  26.652  1.00  0.00     0.010 A 
ATOM     28  C   UNL A   1      39.409  25.673  28.727  1.00  0.00     0.010 A 
ATOM     29  C   UNL A   1      40.201  26.572  27.991  1.00  0.00    -0.014 A 
BRANCH  29  30
ATOM     30  C   UNL A   1      40.709  27.818  28.621  1.00  0.00     0.031 A 
ATOM     31  C   UNL A   1      42.129  27.907  29.109  1.00  0.00     0.074 A 
ATOM     32  C   UNL A   1      39.880  28.870  28.771  1.00  0.00     0.049 A 
ATOM     33  N   UNL A   1      42.693  28.840  29.833  1.00  0.00    -0.248 NA
ATOM     34  C   UNL A   1      43.028  26.800  28.746  1.00  0.00     0.031 C 
ATOM     35  C   UNL A   1      38.493  28.930  28.303  1.00  0.00     0.029 A 
ATOM     36  N   UNL A   1      40.081  30.090  29.367  1.00  0.00    -0.354 N 
ATOM     37  C   UNL A   1      43.999  28.416  30.048  1.00  0.00     0.074 A 
ATOM     38  C   UNL A   1      44.144  27.141  29.379  1.00  0.00     0.031 C 
ATOM     39  C   UNL A   1      37.975  30.128  28.612  1.00  0.00     0.029 A 
ATOM     40  C   UNL A   1      38.965  30.891  29.365  1.00  0.00     0.049 A 
ATOM     41  H   UNL A   1      40.942  30.364  29.758  1.00  0.00     0.167 HD
ATOM     42  C   UNL A   1      44.984  29.036  30.744  1.00  0.00     0.031 A 
ATOM     43  C   UNL A   1      38.741  32.088  29.939  1.00  0.00     0.031 A 
ATOM     44  C   UNL A   1      44.843  30.317  31.386  1.00  0.00     0.049 A 
ATOM     45  C   UNL A   1      39.831  32.731  30.744  1.00  0.00     0.074 A 
ATOM     46  C   UNL A   1      45.787  31.030  32.106  1.00  0.00     0.029 A 
ATOM     47  N   UNL A   1      43.686  31.082  31.379  1.00  0.00    -0.354 N 
ATOM     48  N   UNL A   1      41.048  32.299  30.972  1.00  0.00    -0.248 NA
ATOM     49  C   UNL A   1      39.515  34.016  31.380  1.00  0.00     0.031 C 
ATOM     50  C   UNL A   1      45.189  32.209  32.566  1.00  0.00     0.029 A 
ATOM     51  C   UNL A   1      43.886  32.251  32.095  1.00  0.00     0.049 A 
ATOM     52  H   UNL A   1      42.845  30.832  30.932  1.00  0.00     0.167 HD
ATOM     53  C   UNL A   1      41.646  33.264  31.771  1.00  0.00     0.074 A 
ATOM     54  C   UNL A   1      40.665  34.310  31.973  1.00  0.00     0.031 C 
ATOM     55  C   UNL A   1      42.898  33.280  32.293  1.00  0.00     0.031 A 
BRANCH  42  56
ATOM     56  C   UNL A   1      46.298  28.314  30.884  1.00  0.00    -0.014 A 
ATOM     57  C   UNL A   1      46.544  27.442  31.958  1.00  0.00     0.010 A 
ATOM     58  C   UNL A   1      47.286  28.477  29.894  1.00  0.00     0.010 A 
ATOM     59  C   UNL A   1      47.768  26.771  32.058  1.00  0.00     0.020 A 
ATOM     60  C   UNL A   1      48.502  27.793  29.980  1.00  0.00     0.020 A 
ATOM     61  C   UNL A   1      48.742  26.956  31.071  1.00  0.00     0.054 A 
BRANCH  61  62
ATOM     62  S   UNL A   1      50.312  26.056  31.205  1.00  0.00     0.124 S 
ATOM     63  O   UNL A   1      49.867  24.730  31.626  1.00  0.00    -0.237 OA
ATOM     64  O   UNL A   1      50.850  26.136  29.849  1.00  0.00    -0.237 OA
ATOM     65  O   UNL A   1      51.058  26.810  32.210  1.00  0.00    -0.744 OA
ENDBRANCH  61  62
ENDBRANCH  42  56
BRANCH  43  66
ATOM     66  C   UNL A   1      37.405  32.726  29.807  1.00  0.00    -0.014 A 
ATOM     67  C   UNL A   1      36.396  32.470  30.749  1.00  0.00     0.010 A 
ATOM     68  C   UNL A   1      37.152  33.626  28.755  1.00  0.00     0.010 A 
ATOM     69  C   UNL A   1      35.152  33.101  30.640  1.00  0.00     0.020 A 
ATOM     70  C   UNL A   1      35.919  34.276  28.657  1.00  0.00     0.020 A 
ATOM     71  C   UNL A   1      34.923  34.002  29.596  1.00  0.00     0.054 A 
BRANCH  71  72
ATOM     72  S   UNL A   1      33.330  34.866  29.512  1.00  0.00     0.124 S 
ATOM     73  O   UNL A   1      33.708  36.140  28.910  1.00  0.00    -0.237 OA
ATOM     74  O   UNL A   1      32.529  33.981  28.670  1.00  0.00    -0.237 OA
ATOM     75  O   UNL A   1      32.907  34.933  30.910  1.00  0.00    -0.744 OA
ENDBRANCH  71  72
ENDBRANCH  43  66
BRANCH  55  76
ATOM     76  C   UNL A   1      43.283  34.478  33.113  1.00  0.00    -0.014 A 
ATOM     77  C   UNL A   1      43.683  35.677  32.495  1.00  0.00     0.010 A 
ATOM     78  C   UNL A   1      43.202  34.418  34.515  1.00  0.00     0.010 A 
ATOM     79  C   UNL A   1      44.020  36.790  33.271  1.00  0.00     0.020 A 
ATOM     80  C   UNL A   1      43.520  35.535  35.291  1.00  0.00     0.020 A 
ATOM     81  C   UNL A   1      43.939  36.710  34.664  1.00  0.00     0.054 A 
BRANCH  81  82
ATOM     82  S   UNL A   1      44.338  38.180  35.652  1.00  0.00     0.124 S 
ATOM     83  O   UNL A   1      45.787  38.065  35.796  1.00  0.00    -0.237 OA
ATOM     84  O   UNL A   1      43.875  39.276  34.804  1.00  0.00    -0.237 OA
ATOM     85  O   UNL A   1      43.572  37.988  36.882  1.00  0.00    -0.744 OA
ENDBRANCH  81  82
ENDBRANCH  55  76
ENDBRANCH  29  30
ENDBRANCH  22  24
ENDBRANCH  21  22
ENDBRANCH  20  21
ENDBRANCH   1  20
TORSDOF 17
ENDMDL
