MODEL 1
REMARK VINA RESULT:     -11.7      0.000      0.000
REMARK SMILES CC(C)[C@H](NC(=O)[C@H](Cc1ccccc1)n1c(=O)[nH]c2ccccc2c1=O)C(=O)OCCOC(=O)c1ccc(-c2c3nc(c(-c4ccc(S(=O)(=O)[O-])cc4)c4ccc([nH]4)c(-c4ccc(S(=O)(=O)[O-])cc4)c4nc(c(-c5ccc(S(=O)(=O)[O-])cc5)c5ccc2[nH]5)C=C4)C=C3)cc1
REMARK SMILES IDX 31 1 30 2 28 3 29 4 4 5 2 6 1 7 3 8 5 9 6 10 7 12 8 13 16 14
REMARK SMILES IDX 17 15 26 16 18 17 19 18 25 19 27 20 20 21 24 23 21 24 23 25
REMARK SMILES IDX 22 26 9 27 10 28 11 29 15 30 12 31 14 32 13 33 32 34 33 35
REMARK SMILES IDX 34 36 35 37 36 38 37 39 95 40 38 41 94 42 39 43 40 44 41 45
REMARK SMILES IDX 88 46 42 47 93 48 87 49 89 50 43 51 92 52 86 53 85 54 44 56
REMARK SMILES IDX 74 57 55 58 73 59 56 60 59 61 72 62 90 63 57 64 58 65 71 67
REMARK SMILES IDX 91 68 60 69 45 70 46 71 54 72 47 73 53 74 48 75 49 76 50 77
REMARK SMILES IDX 51 78 52 79 75 80 76 81 84 82 77 83 83 84 78 85 79 86 80 87
REMARK SMILES IDX 81 88 82 89 61 90 62 91 70 92 63 93 69 94 64 95 65 96 66 97
REMARK SMILES IDX 67 98 68 99
REMARK H PARENT 5 11 19 22 89 55 59 66
REMARK Flexibility Score: inf
ROOT
ATOM      1  C   UNL A   1      36.363  21.444  24.577  1.00  0.00     0.274 C 
ENDROOT
BRANCH   1   2
ATOM      2  O   UNL A   1      35.248  21.958  25.327  1.00  0.00    -0.461 OA
BRANCH   2   3
ATOM      3  C   UNL A   1      34.985  23.290  25.179  1.00  0.00     0.329 C 
ATOM      4  O   UNL A   1      35.775  24.172  25.491  1.00  0.00    -0.250 OA
BRANCH   3   5
ATOM      5  C   UNL A   1      33.680  23.529  24.370  1.00  0.00     0.194 C 
BRANCH   5   6
ATOM      6  C   UNL A   1      32.576  22.447  24.423  1.00  0.00     0.017 C 
ATOM      7  C   UNL A   1      31.422  22.712  25.397  1.00  0.00     0.010 C 
ATOM      8  C   UNL A   1      31.984  22.195  23.029  1.00  0.00     0.010 C 
ENDBRANCH   5   6
BRANCH   5   9
ATOM      9  N   UNL A   1      33.893  24.211  23.084  1.00  0.00    -0.341 N 
ATOM     10  C   UNL A   1      33.687  25.455  22.593  1.00  0.00     0.244 C 
ATOM     11  H   UNL A   1      34.285  23.610  22.411  1.00  0.00     0.164 HD
ATOM     12  O   UNL A   1      33.472  25.462  21.373  1.00  0.00    -0.273 OA
BRANCH  10  13
ATOM     13  C   UNL A   1      33.446  26.722  23.444  1.00  0.00     0.189 C 
BRANCH  13  14
ATOM     14  N   UNL A   1      32.339  27.603  23.040  1.00  0.00    -0.247 N 
ATOM     15  C   UNL A   1      32.641  28.854  22.527  1.00  0.00     0.329 A 
ATOM     16  C   UNL A   1      31.034  27.115  23.157  1.00  0.00     0.264 A 
ATOM     17  O   UNL A   1      33.761  29.357  22.524  1.00  0.00    -0.248 OA
ATOM     18  N   UNL A   1      31.599  29.599  22.054  1.00  0.00    -0.307 N 
ATOM     19  C   UNL A   1      29.939  28.055  22.840  1.00  0.00     0.064 A 
ATOM     20  O   UNL A   1      30.754  25.980  23.536  1.00  0.00    -0.268 OA
ATOM     21  C   UNL A   1      30.263  29.264  22.238  1.00  0.00     0.055 A 
ATOM     22  H   UNL A   1      31.807  30.420  21.552  1.00  0.00     0.171 HD
ATOM     23  C   UNL A   1      28.615  27.783  23.197  1.00  0.00     0.016 A 
ATOM     24  C   UNL A   1      29.264  30.183  21.913  1.00  0.00     0.027 A 
ATOM     25  C   UNL A   1      27.619  28.720  22.920  1.00  0.00     0.001 A 
ATOM     26  C   UNL A   1      27.939  29.909  22.260  1.00  0.00     0.002 A 
ENDBRANCH  13  14
BRANCH  13  27
ATOM     27  C   UNL A   1      33.486  26.461  24.982  1.00  0.00     0.071 C 
BRANCH  27  28
ATOM     28  C   UNL A   1      33.207  27.619  25.922  1.00  0.00    -0.045 A 
ATOM     29  C   UNL A   1      34.101  28.688  26.048  1.00  0.00     0.004 A 
ATOM     30  C   UNL A   1      32.015  27.657  26.662  1.00  0.00     0.004 A 
ATOM     31  C   UNL A   1      33.766  29.806  26.820  1.00  0.00     0.000 A 
ATOM     32  C   UNL A   1      31.680  28.770  27.433  1.00  0.00     0.000 A 
ATOM     33  C   UNL A   1      32.551  29.852  27.501  1.00  0.00     0.000 A 
ENDBRANCH  27  28
ENDBRANCH  13  27
ENDBRANCH  10  13
ENDBRANCH   5   9
ENDBRANCH   3   5
ENDBRANCH   2   3
ENDBRANCH   1   2
BRANCH   1  34
ATOM     34  C   UNL A   1      37.542  21.100  25.496  1.00  0.00     0.275 C 
BRANCH  34  35
ATOM     35  O   UNL A   1      38.563  22.119  25.487  1.00  0.00    -0.458 OA
BRANCH  35  36
ATOM     36  C   UNL A   1      39.559  21.935  26.384  1.00  0.00     0.338 C 
ATOM     37  O   UNL A   1      40.144  20.894  26.632  1.00  0.00    -0.246 OA
BRANCH  36  38
ATOM     38  C   UNL A   1      39.979  23.217  26.967  1.00  0.00     0.060 A 
ATOM     39  C   UNL A   1      39.594  24.380  26.305  1.00  0.00     0.016 A 
ATOM     40  C   UNL A   1      40.880  23.284  28.028  1.00  0.00     0.016 A 
ATOM     41  C   UNL A   1      40.170  25.600  26.620  1.00  0.00     0.010 A 
ATOM     42  C   UNL A   1      41.395  24.531  28.407  1.00  0.00     0.010 A 
ATOM     43  C   UNL A   1      41.066  25.696  27.687  1.00  0.00    -0.014 A 
BRANCH  43  44
ATOM     44  C   UNL A   1      41.656  27.016  28.019  1.00  0.00     0.031 A 
ATOM     45  C   UNL A   1      43.125  27.257  27.815  1.00  0.00     0.074 A 
ATOM     46  C   UNL A   1      40.862  28.012  28.458  1.00  0.00     0.049 A 
ATOM     47  N   UNL A   1      43.848  28.283  28.185  1.00  0.00    -0.248 NA
ATOM     48  C   UNL A   1      43.880  26.212  27.106  1.00  0.00     0.031 C 
ATOM     49  C   UNL A   1      39.407  27.931  28.620  1.00  0.00     0.029 A 
ATOM     50  N   UNL A   1      41.165  29.295  28.838  1.00  0.00    -0.354 N 
ATOM     51  C   UNL A   1      45.150  27.985  27.803  1.00  0.00     0.074 A 
ATOM     52  C   UNL A   1      45.117  26.688  27.163  1.00  0.00     0.031 C 
ATOM     53  C   UNL A   1      38.943  29.118  29.039  1.00  0.00     0.029 A 
ATOM     54  C   UNL A   1      40.072  30.014  29.260  1.00  0.00     0.049 A 
ATOM     55  H   UNL A   1      42.076  29.666  28.812  1.00  0.00     0.167 HD
ATOM     56  C   UNL A   1      46.272  28.723  27.984  1.00  0.00     0.031 A 
ATOM     57  C   UNL A   1      39.987  31.239  29.813  1.00  0.00     0.031 A 
ATOM     58  C   UNL A   1      46.288  30.023  28.598  1.00  0.00     0.049 A 
ATOM     59  C   UNL A   1      41.248  32.012  30.060  1.00  0.00     0.074 A 
ATOM     60  C   UNL A   1      47.373  30.849  28.840  1.00  0.00     0.029 A 
ATOM     61  N   UNL A   1      45.165  30.693  29.059  1.00  0.00    -0.354 N 
ATOM     62  N   UNL A   1      42.483  31.687  29.759  1.00  0.00    -0.248 NA
ATOM     63  C   UNL A   1      41.110  33.306  30.741  1.00  0.00     0.031 C 
ATOM     64  C   UNL A   1      46.908  32.004  29.479  1.00  0.00     0.029 A 
ATOM     65  C   UNL A   1      45.531  31.915  29.598  1.00  0.00     0.049 A 
ATOM     66  H   UNL A   1      44.244  30.351  29.009  1.00  0.00     0.167 HD
ATOM     67  C   UNL A   1      43.271  32.735  30.216  1.00  0.00     0.074 A 
ATOM     68  C   UNL A   1      42.371  33.716  30.792  1.00  0.00     0.031 C 
ATOM     69  C   UNL A   1      44.618  32.870  30.171  1.00  0.00     0.031 A 
BRANCH  56  70
ATOM     70  C   UNL A   1      47.579  28.111  27.565  1.00  0.00    -0.014 A 
ATOM     71  C   UNL A   1      48.099  28.299  26.273  1.00  0.00     0.010 A 
ATOM     72  C   UNL A   1      48.311  27.350  28.496  1.00  0.00     0.010 A 
ATOM     73  C   UNL A   1      49.313  27.707  25.909  1.00  0.00     0.020 A 
ATOM     74  C   UNL A   1      49.533  26.773  28.141  1.00  0.00     0.020 A 
ATOM     75  C   UNL A   1      50.018  26.941  26.844  1.00  0.00     0.054 A 
BRANCH  75  76
ATOM     76  S   UNL A   1      51.596  26.192  26.354  1.00  0.00     0.124 S 
ATOM     77  O   UNL A   1      51.612  26.441  24.915  1.00  0.00    -0.237 OA
ATOM     78  O   UNL A   1      52.571  26.949  27.134  1.00  0.00    -0.237 OA
ATOM     79  O   UNL A   1      51.448  24.791  26.742  1.00  0.00    -0.744 OA
ENDBRANCH  75  76
ENDBRANCH  56  70
BRANCH  57  80
ATOM     80  C   UNL A   1      38.662  31.766  30.238  1.00  0.00    -0.014 A 
ATOM     81  C   UNL A   1      38.163  31.498  31.523  1.00  0.00     0.010 A 
ATOM     82  C   UNL A   1      37.909  32.571  29.363  1.00  0.00     0.010 A 
ATOM     83  C   UNL A   1      36.933  32.026  31.926  1.00  0.00     0.020 A 
ATOM     84  C   UNL A   1      36.692  33.121  29.770  1.00  0.00     0.020 A 
ATOM     85  C   UNL A   1      36.207  32.837  31.048  1.00  0.00     0.054 A 
BRANCH  85  86
ATOM     86  S   UNL A   1      34.649  33.578  31.612  1.00  0.00     0.124 S 
ATOM     87  O   UNL A   1      33.960  33.831  30.351  1.00  0.00    -0.237 OA
ATOM     88  O   UNL A   1      34.077  32.523  32.446  1.00  0.00    -0.237 OA
ATOM     89  O   UNL A   1      35.085  34.767  32.341  1.00  0.00    -0.744 OA
ENDBRANCH  85  86
ENDBRANCH  57  80
BRANCH  69  90
ATOM     90  C   UNL A   1      45.198  34.131  30.748  1.00  0.00    -0.014 A 
ATOM     91  C   UNL A   1      45.618  34.180  32.088  1.00  0.00     0.010 A 
ATOM     92  C   UNL A   1      45.373  35.257  29.924  1.00  0.00     0.010 A 
ATOM     93  C   UNL A   1      46.188  35.347  32.602  1.00  0.00     0.020 A 
ATOM     94  C   UNL A   1      45.959  36.418  30.431  1.00  0.00     0.020 A 
ATOM     95  C   UNL A   1      46.353  36.459  31.770  1.00  0.00     0.054 A 
BRANCH  95  96
ATOM     96  S   UNL A   1      47.143  37.947  32.443  1.00  0.00     0.124 S 
ATOM     97  O   UNL A   1      48.557  37.586  32.397  1.00  0.00    -0.237 OA
ATOM     98  O   UNL A   1      46.730  38.988  31.504  1.00  0.00    -0.237 OA
ATOM     99  O   UNL A   1      46.572  38.064  33.783  1.00  0.00    -0.744 OA
ENDBRANCH  95  96
ENDBRANCH  69  90
ENDBRANCH  43  44
ENDBRANCH  36  38
ENDBRANCH  35  36
ENDBRANCH  34  35
ENDBRANCH   1  34
TORSDOF 20
ENDMDL
MODEL 2
REMARK VINA RESULT:     -11.7      2.794      9.124
REMARK SMILES CC(C)[C@H](NC(=O)[C@H](Cc1ccccc1)n1c(=O)[nH]c2ccccc2c1=O)C(=O)OCCOC(=O)c1ccc(-c2c3nc(c(-c4ccc(S(=O)(=O)[O-])cc4)c4ccc([nH]4)c(-c4ccc(S(=O)(=O)[O-])cc4)c4nc(c(-c5ccc(S(=O)(=O)[O-])cc5)c5ccc2[nH]5)C=C4)C=C3)cc1
REMARK SMILES IDX 31 1 30 2 28 3 29 4 4 5 2 6 1 7 3 8 5 9 6 10 7 12 8 13 16 14
REMARK SMILES IDX 17 15 26 16 18 17 19 18 25 19 27 20 20 21 24 23 21 24 23 25
REMARK SMILES IDX 22 26 9 27 10 28 11 29 15 30 12 31 14 32 13 33 32 34 33 35
REMARK SMILES IDX 34 36 35 37 36 38 37 39 95 40 38 41 94 42 39 43 40 44 41 45
REMARK SMILES IDX 88 46 42 47 93 48 87 49 89 50 43 51 92 52 86 53 85 54 44 56
REMARK SMILES IDX 74 57 55 58 73 59 56 60 59 61 72 62 90 63 57 64 58 65 71 67
REMARK SMILES IDX 91 68 60 69 45 70 46 71 54 72 47 73 53 74 48 75 49 76 50 77
REMARK SMILES IDX 51 78 52 79 75 80 76 81 84 82 77 83 83 84 78 85 79 86 80 87
REMARK SMILES IDX 81 88 82 89 61 90 62 91 70 92 63 93 69 94 64 95 65 96 66 97
REMARK SMILES IDX 67 98 68 99
REMARK H PARENT 5 11 19 22 89 55 59 66
REMARK Flexibility Score: inf
ROOT
ATOM      1  C   UNL A   1      31.772  29.657  25.779  1.00  0.00     0.274 C 
ENDROOT
BRANCH   1   2
ATOM      2  O   UNL A   1      31.778  28.224  25.914  1.00  0.00    -0.461 OA
BRANCH   2   3
ATOM      3  C   UNL A   1      32.411  27.527  24.926  1.00  0.00     0.329 C 
ATOM      4  O   UNL A   1      33.509  27.838  24.480  1.00  0.00    -0.250 OA
BRANCH   3   5
ATOM      5  C   UNL A   1      31.683  26.192  24.609  1.00  0.00     0.194 C 
BRANCH   5   6
ATOM      6  C   UNL A   1      30.872  26.093  23.297  1.00  0.00     0.017 C 
ATOM      7  C   UNL A   1      30.199  27.387  22.822  1.00  0.00     0.010 C 
ATOM      8  C   UNL A   1      31.738  25.550  22.152  1.00  0.00     0.010 C 
ENDBRANCH   5   6
BRANCH   5   9
ATOM      9  N   UNL A   1      31.131  25.519  25.794  1.00  0.00    -0.341 N 
ATOM     10  C   UNL A   1      31.453  24.438  26.543  1.00  0.00     0.244 C 
ATOM     11  H   UNL A   1      30.322  25.969  26.128  1.00  0.00     0.164 HD
ATOM     12  O   UNL A   1      30.466  23.904  27.068  1.00  0.00    -0.273 OA
BRANCH  10  13
ATOM     13  C   UNL A   1      32.827  23.732  26.544  1.00  0.00     0.189 C 
BRANCH  13  14
ATOM     14  N   UNL A   1      32.857  22.318  26.140  1.00  0.00    -0.247 N 
ATOM     15  C   UNL A   1      33.430  21.394  26.998  1.00  0.00     0.329 A 
ATOM     16  C   UNL A   1      32.267  21.971  24.920  1.00  0.00     0.264 A 
ATOM     17  O   UNL A   1      34.061  21.679  28.012  1.00  0.00    -0.248 OA
ATOM     18  N   UNL A   1      33.337  20.078  26.647  1.00  0.00    -0.307 N 
ATOM     19  C   UNL A   1      32.399  20.563  24.491  1.00  0.00     0.064 A 
ATOM     20  O   UNL A   1      31.686  22.765  24.185  1.00  0.00    -0.268 OA
ATOM     21  C   UNL A   1      32.888  19.639  25.407  1.00  0.00     0.055 A 
ATOM     22  H   UNL A   1      33.602  19.401  27.310  1.00  0.00     0.171 HD
ATOM     23  C   UNL A   1      32.115  20.167  23.181  1.00  0.00     0.016 A 
ATOM     24  C   UNL A   1      33.026  18.297  25.052  1.00  0.00     0.027 A 
ATOM     25  C   UNL A   1      32.299  18.835  22.807  1.00  0.00     0.001 A 
ATOM     26  C   UNL A   1      32.734  17.898  23.746  1.00  0.00     0.002 A 
ENDBRANCH  13  14
BRANCH  13  27
ATOM     27  C   UNL A   1      33.967  24.576  25.893  1.00  0.00     0.071 C 
BRANCH  27  28
ATOM     28  C   UNL A   1      35.002  23.863  25.043  1.00  0.00    -0.045 A 
ATOM     29  C   UNL A   1      34.846  23.734  23.658  1.00  0.00     0.004 A 
ATOM     30  C   UNL A   1      36.167  23.347  25.632  1.00  0.00     0.004 A 
ATOM     31  C   UNL A   1      35.871  23.190  22.876  1.00  0.00     0.000 A 
ATOM     32  C   UNL A   1      37.188  22.803  24.854  1.00  0.00     0.000 A 
ATOM     33  C   UNL A   1      37.046  22.737  23.472  1.00  0.00     0.000 A 
ENDBRANCH  27  28
ENDBRANCH  13  27
ENDBRANCH  10  13
ENDBRANCH   5   9
ENDBRANCH   3   5
ENDBRANCH   2   3
ENDBRANCH   1   2
BRANCH   1  34
ATOM     34  C   UNL A   1      32.468  30.332  26.967  1.00  0.00     0.275 C 
BRANCH  34  35
ATOM     35  O   UNL A   1      33.870  30.002  27.044  1.00  0.00    -0.458 OA
BRANCH  35  36
ATOM     36  C   UNL A   1      34.575  30.722  27.947  1.00  0.00     0.338 C 
ATOM     37  O   UNL A   1      34.176  31.662  28.613  1.00  0.00    -0.246 OA
BRANCH  36  38
ATOM     38  C   UNL A   1      35.908  30.137  28.152  1.00  0.00     0.060 A 
ATOM     39  C   UNL A   1      36.238  29.728  29.441  1.00  0.00     0.016 A 
ATOM     40  C   UNL A   1      36.882  30.157  27.156  1.00  0.00     0.016 A 
ATOM     41  C   UNL A   1      37.549  29.431  29.778  1.00  0.00     0.010 A 
ATOM     42  C   UNL A   1      38.191  29.769  27.474  1.00  0.00     0.010 A 
ATOM     43  C   UNL A   1      38.540  29.430  28.795  1.00  0.00    -0.014 A 
BRANCH  43  44
ATOM     44  C   UNL A   1      39.934  29.091  29.175  1.00  0.00     0.031 A 
ATOM     45  C   UNL A   1      40.788  30.099  29.889  1.00  0.00     0.074 A 
ATOM     46  C   UNL A   1      40.415  27.858  28.919  1.00  0.00     0.049 A 
ATOM     47  N   UNL A   1      42.065  30.046  30.166  1.00  0.00    -0.248 NA
ATOM     48  C   UNL A   1      40.123  31.328  30.352  1.00  0.00     0.031 C 
ATOM     49  C   UNL A   1      39.660  26.761  28.305  1.00  0.00     0.029 A 
ATOM     50  N   UNL A   1      41.653  27.314  29.155  1.00  0.00    -0.354 N 
ATOM     51  C   UNL A   1      42.369  31.252  30.785  1.00  0.00     0.074 A 
ATOM     52  C   UNL A   1      41.141  32.013  30.854  1.00  0.00     0.031 C 
ATOM     53  C   UNL A   1      40.441  25.671  28.238  1.00  0.00     0.029 A 
ATOM     54  C   UNL A   1      41.773  26.016  28.721  1.00  0.00     0.049 A 
ATOM     55  H   UNL A   1      42.384  27.806  29.593  1.00  0.00     0.167 HD
ATOM     56  C   UNL A   1      43.568  31.687  31.241  1.00  0.00     0.031 A 
ATOM     57  C   UNL A   1      42.846  25.204  28.665  1.00  0.00     0.031 A 
ATOM     58  C   UNL A   1      44.778  30.910  31.192  1.00  0.00     0.049 A 
ATOM     59  C   UNL A   1      44.176  25.729  29.120  1.00  0.00     0.074 A 
ATOM     60  C   UNL A   1      46.047  31.263  31.616  1.00  0.00     0.029 A 
ATOM     61  N   UNL A   1      44.867  29.618  30.696  1.00  0.00    -0.354 N 
ATOM     62  N   UNL A   1      44.464  26.899  29.637  1.00  0.00    -0.248 NA
ATOM     63  C   UNL A   1      45.330  24.835  28.962  1.00  0.00     0.031 C 
ATOM     64  C   UNL A   1      46.911  30.195  31.344  1.00  0.00     0.029 A 
ATOM     65  C   UNL A   1      46.171  29.164  30.788  1.00  0.00     0.049 A 
ATOM     66  H   UNL A   1      44.113  29.100  30.333  1.00  0.00     0.167 HD
ATOM     67  C   UNL A   1      45.833  26.884  29.866  1.00  0.00     0.074 A 
ATOM     68  C   UNL A   1      46.313  25.580  29.452  1.00  0.00     0.031 C 
ATOM     69  C   UNL A   1      46.624  27.865  30.364  1.00  0.00     0.031 A 
BRANCH  56  70
ATOM     70  C   UNL A   1      43.638  33.089  31.779  1.00  0.00    -0.014 A 
ATOM     71  C   UNL A   1      43.954  34.179  30.952  1.00  0.00     0.010 A 
ATOM     72  C   UNL A   1      43.357  33.318  33.139  1.00  0.00     0.010 A 
ATOM     73  C   UNL A   1      44.022  35.471  31.484  1.00  0.00     0.020 A 
ATOM     74  C   UNL A   1      43.405  34.609  33.670  1.00  0.00     0.020 A 
ATOM     75  C   UNL A   1      43.755  35.676  32.841  1.00  0.00     0.054 A 
BRANCH  75  76
ATOM     76  S   UNL A   1      43.838  37.361  33.509  1.00  0.00     0.124 S 
ATOM     77  O   UNL A   1      45.130  37.350  34.190  1.00  0.00    -0.237 OA
ATOM     78  O   UNL A   1      43.768  38.190  32.308  1.00  0.00    -0.237 OA
ATOM     79  O   UNL A   1      42.673  37.444  34.385  1.00  0.00    -0.744 OA
ENDBRANCH  75  76
ENDBRANCH  56  70
BRANCH  57  80
ATOM     80  C   UNL A   1      42.711  23.841  28.087  1.00  0.00    -0.014 A 
ATOM     81  C   UNL A   1      41.943  22.861  28.735  1.00  0.00     0.010 A 
ATOM     82  C   UNL A   1      43.326  23.531  26.859  1.00  0.00     0.010 A 
ATOM     83  C   UNL A   1      41.792  21.592  28.166  1.00  0.00     0.020 A 
ATOM     84  C   UNL A   1      43.158  22.274  26.275  1.00  0.00     0.020 A 
ATOM     85  C   UNL A   1      42.398  21.308  26.937  1.00  0.00     0.054 A 
BRANCH  85  86
ATOM     86  S   UNL A   1      42.131  19.684  26.174  1.00  0.00     0.124 S 
ATOM     87  O   UNL A   1      42.637  18.780  27.202  1.00  0.00    -0.237 OA
ATOM     88  O   UNL A   1      40.684  19.661  25.968  1.00  0.00    -0.237 OA
ATOM     89  O   UNL A   1      42.924  19.751  24.949  1.00  0.00    -0.744 OA
ENDBRANCH  85  86
ENDBRANCH  57  80
BRANCH  69  90
ATOM     90  C   UNL A   1      48.088  27.557  30.504  1.00  0.00    -0.014 A 
ATOM     91  C   UNL A   1      48.588  26.959  31.673  1.00  0.00     0.010 A 
ATOM     92  C   UNL A   1      48.960  27.819  29.432  1.00  0.00     0.010 A 
ATOM     93  C   UNL A   1      49.945  26.645  31.776  1.00  0.00     0.020 A 
ATOM     94  C   UNL A   1      50.314  27.490  29.526  1.00  0.00     0.020 A 
ATOM     95  C   UNL A   1      50.800  26.915  30.702  1.00  0.00     0.054 A 
BRANCH  95  96
ATOM     96  S   UNL A   1      52.548  26.452  30.836  1.00  0.00     0.124 S 
ATOM     97  O   UNL A   1      53.118  27.614  31.512  1.00  0.00    -0.237 OA
ATOM     98  O   UNL A   1      52.500  25.225  31.629  1.00  0.00    -0.237 OA
ATOM     99  O   UNL A   1      52.965  26.272  29.447  1.00  0.00    -0.744 OA
ENDBRANCH  95  96
ENDBRANCH  69  90
ENDBRANCH  43  44
ENDBRANCH  36  38
ENDBRANCH  35  36
ENDBRANCH  34  35
ENDBRANCH   1  34
TORSDOF 20
ENDMDL
MODEL 3
REMARK VINA RESULT:     -11.5      4.859      8.051
REMARK SMILES CC(C)[C@H](NC(=O)[C@H](Cc1ccccc1)n1c(=O)[nH]c2ccccc2c1=O)C(=O)OCCOC(=O)c1ccc(-c2c3nc(c(-c4ccc(S(=O)(=O)[O-])cc4)c4ccc([nH]4)c(-c4ccc(S(=O)(=O)[O-])cc4)c4nc(c(-c5ccc(S(=O)(=O)[O-])cc5)c5ccc2[nH]5)C=C4)C=C3)cc1
REMARK SMILES IDX 31 1 30 2 28 3 29 4 4 5 2 6 1 7 3 8 5 9 6 10 7 12 8 13 16 14
REMARK SMILES IDX 17 15 26 16 18 17 19 18 25 19 27 20 20 21 24 23 21 24 23 25
REMARK SMILES IDX 22 26 9 27 10 28 11 29 15 30 12 31 14 32 13 33 32 34 33 35
REMARK SMILES IDX 34 36 35 37 36 38 37 39 95 40 38 41 94 42 39 43 40 44 41 45
REMARK SMILES IDX 88 46 42 47 93 48 87 49 89 50 43 51 92 52 86 53 85 54 44 56
REMARK SMILES IDX 74 57 55 58 73 59 56 60 59 61 72 62 90 63 57 64 58 65 71 67
REMARK SMILES IDX 91 68 60 69 45 70 46 71 54 72 47 73 53 74 48 75 49 76 50 77
REMARK SMILES IDX 51 78 52 79 75 80 76 81 84 82 77 83 83 84 78 85 79 86 80 87
REMARK SMILES IDX 81 88 82 89 61 90 62 91 70 92 63 93 69 94 64 95 65 96 66 97
REMARK SMILES IDX 67 98 68 99
REMARK H PARENT 5 11 19 22 89 55 59 66
REMARK Flexibility Score: inf
ROOT
ATOM      1  C   UNL A   1      33.504  28.961  26.502  1.00  0.00     0.274 C 
ENDROOT
BRANCH   1   2
ATOM      2  O   UNL A   1      32.444  28.304  25.782  1.00  0.00    -0.461 OA
BRANCH   2   3
ATOM      3  C   UNL A   1      31.683  27.427  26.499  1.00  0.00     0.329 C 
ATOM      4  O   UNL A   1      31.367  27.608  27.668  1.00  0.00    -0.250 OA
BRANCH   3   5
ATOM      5  C   UNL A   1      31.091  26.311  25.594  1.00  0.00     0.194 C 
BRANCH   5   6
ATOM      6  C   UNL A   1      30.268  26.732  24.355  1.00  0.00     0.017 C 
ATOM      7  C   UNL A   1      30.902  26.428  22.991  1.00  0.00     0.010 C 
ATOM      8  C   UNL A   1      28.866  26.108  24.385  1.00  0.00     0.010 C 
ENDBRANCH   5   6
BRANCH   5   9
ATOM      9  N   UNL A   1      30.636  25.123  26.333  1.00  0.00    -0.341 N 
ATOM     10  C   UNL A   1      31.076  23.856  26.512  1.00  0.00     0.244 C 
ATOM     11  H   UNL A   1      29.799  25.295  26.822  1.00  0.00     0.164 HD
ATOM     12  O   UNL A   1      30.157  23.052  26.720  1.00  0.00    -0.273 OA
BRANCH  10  13
ATOM     13  C   UNL A   1      32.508  23.359  26.214  1.00  0.00     0.189 C 
BRANCH  13  14
ATOM     14  N   UNL A   1      32.669  21.936  25.875  1.00  0.00    -0.247 N 
ATOM     15  C   UNL A   1      33.290  21.103  26.790  1.00  0.00     0.329 A 
ATOM     16  C   UNL A   1      32.148  21.488  24.656  1.00  0.00     0.264 A 
ATOM     17  O   UNL A   1      33.862  21.484  27.807  1.00  0.00    -0.248 OA
ATOM     18  N   UNL A   1      33.319  19.769  26.497  1.00  0.00    -0.307 N 
ATOM     19  C   UNL A   1      32.412  20.079  24.296  1.00  0.00     0.064 A 
ATOM     20  O   UNL A   1      31.526  22.197  23.870  1.00  0.00    -0.268 OA
ATOM     21  C   UNL A   1      32.948  19.240  25.266  1.00  0.00     0.055 A 
ATOM     22  H   UNL A   1      33.618  19.147  27.197  1.00  0.00     0.171 HD
ATOM     23  C   UNL A   1      32.204  19.605  22.998  1.00  0.00     0.016 A 
ATOM     24  C   UNL A   1      33.209  17.901  24.976  1.00  0.00     0.027 A 
ATOM     25  C   UNL A   1      32.510  18.278  22.690  1.00  0.00     0.001 A 
ATOM     26  C   UNL A   1      32.992  17.423  23.682  1.00  0.00     0.002 A 
ENDBRANCH  13  14
BRANCH  13  27
ATOM     27  C   UNL A   1      33.317  24.304  25.272  1.00  0.00     0.071 C 
BRANCH  27  28
ATOM     28  C   UNL A   1      34.733  23.913  24.894  1.00  0.00    -0.045 A 
ATOM     29  C   UNL A   1      35.770  23.925  25.834  1.00  0.00     0.004 A 
ATOM     30  C   UNL A   1      35.025  23.491  23.588  1.00  0.00     0.004 A 
ATOM     31  C   UNL A   1      37.038  23.438  25.499  1.00  0.00     0.000 A 
ATOM     32  C   UNL A   1      36.289  23.006  23.252  1.00  0.00     0.000 A 
ATOM     33  C   UNL A   1      37.293  22.967  24.213  1.00  0.00     0.000 A 
ENDBRANCH  27  28
ENDBRANCH  13  27
ENDBRANCH  10  13
ENDBRANCH   5   9
ENDBRANCH   3   5
ENDBRANCH   2   3
ENDBRANCH   1   2
BRANCH   1  34
ATOM     34  C   UNL A   1      33.176  30.439  26.749  1.00  0.00     0.275 C 
BRANCH  34  35
ATOM     35  O   UNL A   1      33.694  30.914  28.009  1.00  0.00    -0.458 OA
BRANCH  35  36
ATOM     36  C   UNL A   1      34.605  31.910  27.910  1.00  0.00     0.338 C 
ATOM     37  O   UNL A   1      34.400  33.068  27.591  1.00  0.00    -0.246 OA
BRANCH  36  38
ATOM     38  C   UNL A   1      35.923  31.459  28.383  1.00  0.00     0.060 A 
ATOM     39  C   UNL A   1      35.992  30.212  28.998  1.00  0.00     0.016 A 
ATOM     40  C   UNL A   1      37.030  32.305  28.395  1.00  0.00     0.016 A 
ATOM     41  C   UNL A   1      37.117  29.833  29.712  1.00  0.00     0.010 A 
ATOM     42  C   UNL A   1      38.201  31.885  29.040  1.00  0.00     0.010 A 
ATOM     43  C   UNL A   1      38.244  30.658  29.729  1.00  0.00    -0.014 A 
BRANCH  43  44
ATOM     44  C   UNL A   1      39.445  30.224  30.485  1.00  0.00     0.031 A 
ATOM     45  C   UNL A   1      40.308  29.114  29.958  1.00  0.00     0.074 A 
ATOM     46  C   UNL A   1      39.785  30.863  31.622  1.00  0.00     0.049 A 
ATOM     47  N   UNL A   1      41.302  28.497  30.543  1.00  0.00    -0.248 NA
ATOM     48  C   UNL A   1      40.018  28.632  28.598  1.00  0.00     0.031 C 
ATOM     49  C   UNL A   1      39.077  32.011  32.197  1.00  0.00     0.029 A 
ATOM     50  N   UNL A   1      40.822  30.645  32.494  1.00  0.00    -0.354 N 
ATOM     51  C   UNL A   1      41.721  27.520  29.648  1.00  0.00     0.074 A 
ATOM     52  C   UNL A   1      40.882  27.633  28.475  1.00  0.00     0.031 C 
ATOM     53  C   UNL A   1      39.714  32.411  33.308  1.00  0.00     0.029 A 
ATOM     54  C   UNL A   1      40.820  31.498  33.572  1.00  0.00     0.049 A 
ATOM     55  H   UNL A   1      41.502  29.946  32.361  1.00  0.00     0.167 HD
ATOM     56  C   UNL A   1      42.708  26.605  29.800  1.00  0.00     0.031 A 
ATOM     57  C   UNL A   1      41.587  31.516  34.679  1.00  0.00     0.031 A 
ATOM     58  C   UNL A   1      43.554  26.520  30.960  1.00  0.00     0.049 A 
ATOM     59  C   UNL A   1      42.633  30.455  34.853  1.00  0.00     0.074 A 
ATOM     60  C   UNL A   1      44.575  25.622  31.218  1.00  0.00     0.029 A 
ATOM     61  N   UNL A   1      43.485  27.370  32.053  1.00  0.00    -0.354 N 
ATOM     62  N   UNL A   1      42.971  29.492  34.030  1.00  0.00    -0.248 NA
ATOM     63  C   UNL A   1      43.385  30.468  36.114  1.00  0.00     0.031 C 
ATOM     64  C   UNL A   1      45.100  25.909  32.483  1.00  0.00     0.029 A 
ATOM     65  C   UNL A   1      44.433  27.010  32.995  1.00  0.00     0.049 A 
ATOM     66  H   UNL A   1      42.854  28.121  32.144  1.00  0.00     0.167 HD
ATOM     67  C   UNL A   1      43.975  28.781  34.673  1.00  0.00     0.074 A 
ATOM     68  C   UNL A   1      44.206  29.439  35.944  1.00  0.00     0.031 C 
ATOM     69  C   UNL A   1      44.639  27.677  34.254  1.00  0.00     0.031 A 
BRANCH  56  70
ATOM     70  C   UNL A   1      42.883  25.587  28.708  1.00  0.00    -0.014 A 
ATOM     71  C   UNL A   1      43.855  25.743  27.706  1.00  0.00     0.010 A 
ATOM     72  C   UNL A   1      42.070  24.439  28.703  1.00  0.00     0.010 A 
ATOM     73  C   UNL A   1      43.986  24.783  26.696  1.00  0.00     0.020 A 
ATOM     74  C   UNL A   1      42.211  23.469  27.707  1.00  0.00     0.020 A 
ATOM     75  C   UNL A   1      43.157  23.657  26.699  1.00  0.00     0.054 A 
BRANCH  75  76
ATOM     76  S   UNL A   1      43.352  22.420  25.387  1.00  0.00     0.124 S 
ATOM     77  O   UNL A   1      42.213  21.539  25.634  1.00  0.00    -0.237 OA
ATOM     78  O   UNL A   1      43.271  23.223  24.169  1.00  0.00    -0.237 OA
ATOM     79  O   UNL A   1      44.662  21.834  25.655  1.00  0.00    -0.744 OA
ENDBRANCH  75  76
ENDBRANCH  56  70
BRANCH  57  80
ATOM     80  C   UNL A   1      41.332  32.531  35.736  1.00  0.00    -0.014 A 
ATOM     81  C   UNL A   1      42.021  33.754  35.735  1.00  0.00     0.010 A 
ATOM     82  C   UNL A   1      40.367  32.286  36.732  1.00  0.00     0.010 A 
ATOM     83  C   UNL A   1      41.749  34.717  36.713  1.00  0.00     0.020 A 
ATOM     84  C   UNL A   1      40.076  33.254  37.695  1.00  0.00     0.020 A 
ATOM     85  C   UNL A   1      40.776  34.461  37.685  1.00  0.00     0.054 A 
BRANCH  85  86
ATOM     86  S   UNL A   1      40.381  35.750  38.900  1.00  0.00     0.124 S 
ATOM     87  O   UNL A   1      41.658  35.922  39.584  1.00  0.00    -0.237 OA
ATOM     88  O   UNL A   1      39.958  36.866  38.057  1.00  0.00    -0.237 OA
ATOM     89  O   UNL A   1      39.316  35.147  39.698  1.00  0.00    -0.744 OA
ENDBRANCH  85  86
ENDBRANCH  57  80
BRANCH  69  90
ATOM     90  C   UNL A   1      45.691  27.122  35.173  1.00  0.00    -0.014 A 
ATOM     91  C   UNL A   1      45.382  26.092  36.078  1.00  0.00     0.010 A 
ATOM     92  C   UNL A   1      47.010  27.601  35.091  1.00  0.00     0.010 A 
ATOM     93  C   UNL A   1      46.377  25.561  36.903  1.00  0.00     0.020 A 
ATOM     94  C   UNL A   1      48.010  27.059  35.901  1.00  0.00     0.020 A 
ATOM     95  C   UNL A   1      47.684  26.050  36.810  1.00  0.00     0.054 A 
BRANCH  95  96
ATOM     96  S   UNL A   1      48.971  25.310  37.852  1.00  0.00     0.124 S 
ATOM     97  O   UNL A   1      48.379  25.411  39.183  1.00  0.00    -0.237 OA
ATOM     98  O   UNL A   1      49.085  23.955  37.316  1.00  0.00    -0.237 OA
ATOM     99  O   UNL A   1      50.135  26.164  37.620  1.00  0.00    -0.744 OA
ENDBRANCH  95  96
ENDBRANCH  69  90
ENDBRANCH  43  44
ENDBRANCH  36  38
ENDBRANCH  35  36
ENDBRANCH  34  35
ENDBRANCH   1  34
TORSDOF 20
ENDMDL
