MODEL 1
REMARK VINA RESULT:     -10.9      0.000      0.000
REMARK SMILES Cc1noc(C)c1[C@H](C)NC(=O)NC[C@@](C)(O)C(=O)OCCOC(=O)c1ccc(-c2c3nc(c(-c4ccc(S(=O)(=O)[O-])cc4)c4ccc([nH]4)c(-c4ccc(S(=O)(=O)[O-])cc4)c4nc(c(-c5ccc(S(=O)(=O)[O-])cc5)c5ccc2[nH]5)C=C4)C=C3)cc1
REMARK SMILES IDX 21 1 20 2 18 3 19 4 15 5 16 6 14 7 13 8 10 9 11 10 12 12
REMARK SMILES IDX 8 14 9 15 7 16 1 17 2 18 3 19 4 20 5 21 6 22 17 23 22 25
REMARK SMILES IDX 23 26 24 27 25 28 26 29 27 30 85 31 28 32 84 33 29 34 30 35
REMARK SMILES IDX 31 36 78 37 32 38 83 39 77 40 79 41 33 42 82 43 76 44 75 45
REMARK SMILES IDX 34 47 64 48 45 49 63 50 46 51 49 52 62 53 80 54 47 55 48 56
REMARK SMILES IDX 61 58 81 59 50 60 35 61 36 62 44 63 37 64 43 65 38 66 39 67
REMARK SMILES IDX 40 68 41 69 42 70 65 71 66 72 74 73 67 74 73 75 68 76 69 77
REMARK SMILES IDX 70 78 71 79 72 80 51 81 52 82 60 83 53 84 59 85 54 86 55 87
REMARK SMILES IDX 56 88 57 89 58 90
REMARK H PARENT 10 11 13 13 17 24 79 46 49 57
REMARK Flexibility Score: inf
ROOT
ATOM      1  C   UNL A   1      31.965  29.071  25.305  1.00  0.00     0.274 C 
ENDROOT
BRANCH   1   2
ATOM      2  O   UNL A   1      31.755  27.699  24.899  1.00  0.00    -0.460 OA
BRANCH   2   3
ATOM      3  C   UNL A   1      30.632  27.427  24.156  1.00  0.00     0.339 C 
ATOM      4  O   UNL A   1      30.202  28.160  23.277  1.00  0.00    -0.249 OA
BRANCH   3   5
ATOM      5  C   UNL A   1      30.001  26.080  24.610  1.00  0.00     0.176 C 
ATOM      6  C   UNL A   1      30.533  25.055  23.602  1.00  0.00     0.057 C 
BRANCH   5   7
ATOM      7  C   UNL A   1      30.338  25.627  26.068  1.00  0.00     0.164 C 
BRANCH   7   8
ATOM      8  N   UNL A   1      29.823  24.342  26.552  1.00  0.00    -0.335 N 
ATOM      9  N   UNL A   1      31.199  22.263  26.421  1.00  0.00    -0.331 N 
ATOM     10  C   UNL A   1      30.206  23.116  26.882  1.00  0.00     0.315 C 
ATOM     11  H   UNL A   1      31.257  21.620  27.164  1.00  0.00     0.165 HD
ATOM     12  O   UNL A   1      29.454  22.592  27.723  1.00  0.00    -0.249 OA
ATOM     13  H   UNL A   1      28.849  24.415  26.675  1.00  0.00     0.165 HD
BRANCH   9  14
ATOM     14  C   UNL A   1      32.649  21.504  25.115  1.00  0.00     0.116 C 
ATOM     15  C   UNL A   1      32.534  20.002  24.242  1.00  0.00     0.036 C 
BRANCH  14  16
ATOM     16  C   UNL A   1      34.134  22.336  24.370  1.00  0.00     0.040 A 
ATOM     17  C   UNL A   1      36.618  22.065  25.757  1.00  0.00     0.071 C 
ATOM     18  C   UNL A   1      35.637  22.333  24.652  1.00  0.00     0.086 A 
ATOM     19  N   UNL A   1      36.322  22.785  23.599  1.00  0.00    -0.085 NA
ATOM     20  O   UNL A   1      35.434  23.176  22.686  1.00  0.00    -0.361 OA
ATOM     21  C   UNL A   1      34.165  22.985  23.105  1.00  0.00     0.139 A 
ATOM     22  C   UNL A   1      33.272  23.512  22.044  1.00  0.00     0.091 C 
ENDBRANCH  14  16
ENDBRANCH   9  14
ENDBRANCH   7   8
ENDBRANCH   5   7
BRANCH   5  23
ATOM     23  O   UNL A   1      28.573  26.017  24.455  1.00  0.00    -0.377 OA
ATOM     24  H   UNL A   1      28.297  25.092  24.353  1.00  0.00     0.212 HD
ENDBRANCH   5  23
ENDBRANCH   3   5
ENDBRANCH   2   3
ENDBRANCH   1   2
BRANCH   1  25
ATOM     25  C   UNL A   1      31.937  29.170  26.829  1.00  0.00     0.275 C 
BRANCH  25  26
ATOM     26  O   UNL A   1      33.297  29.177  27.281  1.00  0.00    -0.458 OA
BRANCH  26  27
ATOM     27  C   UNL A   1      33.739  30.391  27.627  1.00  0.00     0.338 C 
ATOM     28  O   UNL A   1      33.104  31.437  27.595  1.00  0.00    -0.246 OA
BRANCH  27  29
ATOM     29  C   UNL A   1      35.099  30.385  28.168  1.00  0.00     0.060 A 
ATOM     30  C   UNL A   1      36.365  30.167  26.857  1.00  0.00     0.016 A 
ATOM     31  C   UNL A   1      35.552  29.953  29.883  1.00  0.00     0.016 A 
ATOM     32  C   UNL A   1      38.025  29.594  27.287  1.00  0.00     0.010 A 
ATOM     33  C   UNL A   1      37.150  29.171  30.252  1.00  0.00     0.010 A 
ATOM     34  C   UNL A   1      38.391  29.024  28.957  1.00  0.00    -0.014 A 
BRANCH  34  35
ATOM     35  C   UNL A   1      39.787  28.597  29.278  1.00  0.00     0.031 A 
ATOM     36  C   UNL A   1      40.713  29.524  30.007  1.00  0.00     0.074 A 
ATOM     37  C   UNL A   1      40.250  27.376  28.952  1.00  0.00     0.049 A 
ATOM     38  N   UNL A   1      41.735  29.274  30.778  1.00  0.00    -0.248 NA
ATOM     39  C   UNL A   1      40.410  30.948  29.877  1.00  0.00     0.031 C 
ATOM     40  C   UNL A   1      39.536  26.366  28.184  1.00  0.00     0.029 A 
ATOM     41  N   UNL A   1      41.460  26.788  29.222  1.00  0.00    -0.354 N 
ATOM     42  C   UNL A   1      42.088  30.499  31.341  1.00  0.00     0.074 A 
ATOM     43  C   UNL A   1      41.190  31.492  30.800  1.00  0.00     0.031 C 
ATOM     44  C   UNL A   1      40.324  25.293  28.013  1.00  0.00     0.029 A 
ATOM     45  C   UNL A   1      41.595  25.531  28.682  1.00  0.00     0.049 A 
ATOM     46  H   UNL A   1      42.166  27.225  29.752  1.00  0.00     0.167 HD
ATOM     47  C   UNL A   1      43.096  30.775  32.200  1.00  0.00     0.031 A 
ATOM     48  C   UNL A   1      42.623  24.663  28.730  1.00  0.00     0.031 A 
ATOM     49  C   UNL A   1      44.162  29.848  32.468  1.00  0.00     0.049 A 
ATOM     50  C   UNL A   1      43.814  25.014  29.578  1.00  0.00     0.074 A 
ATOM     51  C   UNL A   1      45.287  30.019  33.252  1.00  0.00     0.029 A 
ATOM     52  N   UNL A   1      44.278  28.603  31.864  1.00  0.00    -0.354 N 
ATOM     53  N   UNL A   1      44.029  26.099  30.287  1.00  0.00    -0.248 NA
ATOM     54  C   UNL A   1      44.878  24.009  29.668  1.00  0.00     0.031 C 
ATOM     55  C   UNL A   1      46.126  28.915  33.049  1.00  0.00     0.029 A 
ATOM     56  C   UNL A   1      45.480  28.017  32.211  1.00  0.00     0.049 A 
ATOM     57  H   UNL A   1      43.602  28.197  31.274  1.00  0.00     0.167 HD
ATOM     58  C   UNL A   1      45.245  25.896  30.930  1.00  0.00     0.074 A 
ATOM     59  C   UNL A   1      45.699  24.573  30.542  1.00  0.00     0.031 C 
ATOM     60  C   UNL A   1      45.924  26.718  31.771  1.00  0.00     0.031 A 
BRANCH  47  61
ATOM     61  C   UNL A   1      43.128  32.141  32.839  1.00  0.00    -0.014 A 
ATOM     62  C   UNL A   1      42.463  32.368  34.060  1.00  0.00     0.010 A 
ATOM     63  C   UNL A   1      43.871  33.189  32.267  1.00  0.00     0.010 A 
ATOM     64  C   UNL A   1      42.536  33.615  34.692  1.00  0.00     0.020 A 
ATOM     65  C   UNL A   1      43.960  34.434  32.902  1.00  0.00     0.020 A 
ATOM     66  C   UNL A   1      43.286  34.640  34.109  1.00  0.00     0.054 A 
BRANCH  66  67
ATOM     67  S   UNL A   1      43.393  36.234  34.972  1.00  0.00     0.124 S 
ATOM     68  O   UNL A   1      42.450  36.045  36.072  1.00  0.00    -0.237 OA
ATOM     69  O   UNL A   1      44.801  36.295  35.356  1.00  0.00    -0.237 OA
ATOM     70  O   UNL A   1      42.982  37.205  33.961  1.00  0.00    -0.744 OA
ENDBRANCH  66  67
ENDBRANCH  47  61
BRANCH  48  71
ATOM     71  C   UNL A   1      42.542  23.384  27.971  1.00  0.00    -0.014 A 
ATOM     72  C   UNL A   1      43.225  23.210  26.755  1.00  0.00     0.010 A 
ATOM     73  C   UNL A   1      41.807  22.303  28.498  1.00  0.00     0.010 A 
ATOM     74  C   UNL A   1      43.162  21.989  26.074  1.00  0.00     0.020 A 
ATOM     75  C   UNL A   1      41.766  21.073  27.836  1.00  0.00     0.020 A 
ATOM     76  C   UNL A   1      42.437  20.926  26.622  1.00  0.00     0.054 A 
BRANCH  76  77
ATOM     77  S   UNL A   1      42.417  19.336  25.748  1.00  0.00     0.124 S 
ATOM     78  O   UNL A   1      41.011  19.209  25.379  1.00  0.00    -0.237 OA
ATOM     79  O   UNL A   1      43.342  19.573  24.642  1.00  0.00    -0.237 OA
ATOM     80  O   UNL A   1      42.888  18.385  26.752  1.00  0.00    -0.744 OA
ENDBRANCH  76  77
ENDBRANCH  48  71
BRANCH  60  81
ATOM     81  C   UNL A   1      47.224  26.199  32.323  1.00  0.00    -0.014 A 
ATOM     82  C   UNL A   1      48.445  26.437  31.669  1.00  0.00     0.010 A 
ATOM     83  C   UNL A   1      47.219  25.472  33.528  1.00  0.00     0.010 A 
ATOM     84  C   UNL A   1      49.631  25.900  32.173  1.00  0.00     0.020 A 
ATOM     85  C   UNL A   1      48.407  24.967  34.056  1.00  0.00     0.020 A 
ATOM     86  C   UNL A   1      49.601  25.162  33.362  1.00  0.00     0.054 A 
BRANCH  86  87
ATOM     87  S   UNL A   1      51.152  24.471  33.995  1.00  0.00     0.124 S 
ATOM     88  O   UNL A   1      50.713  23.186  34.530  1.00  0.00    -0.237 OA
ATOM     89  O   UNL A   1      51.985  24.404  32.797  1.00  0.00    -0.237 OA
ATOM     90  O   UNL A   1      51.584  25.447  34.993  1.00  0.00    -0.744 OA
ENDBRANCH  86  87
ENDBRANCH  60  81
ENDBRANCH  34  35
ENDBRANCH  27  29
ENDBRANCH  26  27
ENDBRANCH  25  26
ENDBRANCH   1  25
TORSDOF 19
ENDMDL
MODEL 2
REMARK VINA RESULT:     -10.8      1.910      8.576
REMARK SMILES Cc1noc(C)c1[C@H](C)NC(=O)NC[C@@](C)(O)C(=O)OCCOC(=O)c1ccc(-c2c3nc(c(-c4ccc(S(=O)(=O)[O-])cc4)c4ccc([nH]4)c(-c4ccc(S(=O)(=O)[O-])cc4)c4nc(c(-c5ccc(S(=O)(=O)[O-])cc5)c5ccc2[nH]5)C=C4)C=C3)cc1
REMARK SMILES IDX 21 1 20 2 18 3 19 4 15 5 16 6 14 7 13 8 10 9 11 10 12 12
REMARK SMILES IDX 8 14 9 15 7 16 1 17 2 18 3 19 4 20 5 21 6 22 17 23 22 25
REMARK SMILES IDX 23 26 24 27 25 28 26 29 27 30 85 31 28 32 84 33 29 34 30 35
REMARK SMILES IDX 31 36 78 37 32 38 83 39 77 40 79 41 33 42 82 43 76 44 75 45
REMARK SMILES IDX 34 47 64 48 45 49 63 50 46 51 49 52 62 53 80 54 47 55 48 56
REMARK SMILES IDX 61 58 81 59 50 60 35 61 36 62 44 63 37 64 43 65 38 66 39 67
REMARK SMILES IDX 40 68 41 69 42 70 65 71 66 72 74 73 67 74 73 75 68 76 69 77
REMARK SMILES IDX 70 78 71 79 72 80 51 81 52 82 60 83 53 84 59 85 54 86 55 87
REMARK SMILES IDX 56 88 57 89 58 90
REMARK H PARENT 10 11 13 13 17 24 79 46 49 57
REMARK Flexibility Score: inf
ROOT
ATOM      1  C   UNL A   1      32.983  28.317  25.035  1.00  0.00     0.274 C 
ENDROOT
BRANCH   1   2
ATOM      2  O   UNL A   1      32.341  27.133  24.508  1.00  0.00    -0.460 OA
BRANCH   2   3
ATOM      3  C   UNL A   1      31.041  27.260  24.080  1.00  0.00     0.339 C 
ATOM      4  O   UNL A   1      30.633  28.196  23.409  1.00  0.00    -0.249 OA
BRANCH   3   5
ATOM      5  C   UNL A   1      30.190  26.060  24.586  1.00  0.00     0.176 C 
ATOM      6  C   UNL A   1      30.512  24.927  23.605  1.00  0.00     0.057 C 
BRANCH   5   7
ATOM      7  C   UNL A   1      30.469  25.598  26.054  1.00  0.00     0.164 C 
BRANCH   7   8
ATOM      8  N   UNL A   1      29.862  24.353  26.536  1.00  0.00    -0.335 N 
ATOM      9  N   UNL A   1      30.974  22.147  26.175  1.00  0.00    -0.331 N 
ATOM     10  C   UNL A   1      30.135  23.077  26.773  1.00  0.00     0.315 C 
ATOM     11  H   UNL A   1      31.033  21.463  26.881  1.00  0.00     0.165 HD
ATOM     12  O   UNL A   1      29.416  22.594  27.666  1.00  0.00    -0.249 OA
ATOM     13  H   UNL A   1      28.920  24.525  26.763  1.00  0.00     0.165 HD
BRANCH   9  14
ATOM     14  C   UNL A   1      32.191  21.304  24.695  1.00  0.00     0.116 C 
ATOM     15  C   UNL A   1      32.401  21.929  23.083  1.00  0.00     0.036 C 
BRANCH  14  16
ATOM     16  C   UNL A   1      33.495  19.987  24.832  1.00  0.00     0.040 A 
ATOM     17  C   UNL A   1      32.654  17.274  24.512  1.00  0.00     0.071 C 
ATOM     18  C   UNL A   1      33.548  18.479  24.582  1.00  0.00     0.086 A 
ATOM     19  N   UNL A   1      34.809  18.060  24.450  1.00  0.00    -0.085 NA
ATOM     20  O   UNL A   1      35.600  19.107  24.680  1.00  0.00    -0.361 OA
ATOM     21  C   UNL A   1      34.892  20.223  24.953  1.00  0.00     0.139 A 
ATOM     22  C   UNL A   1      35.871  21.297  25.252  1.00  0.00     0.091 C 
ENDBRANCH  14  16
ENDBRANCH   9  14
ENDBRANCH   7   8
ENDBRANCH   5   7
BRANCH   5  23
ATOM     23  O   UNL A   1      28.770  26.249  24.453  1.00  0.00    -0.377 OA
ATOM     24  H   UNL A   1      28.307  25.453  24.759  1.00  0.00     0.212 HD
ENDBRANCH   5  23
ENDBRANCH   3   5
ENDBRANCH   2   3
ENDBRANCH   1   2
BRANCH   1  25
ATOM     25  C   UNL A   1      32.805  28.370  26.551  1.00  0.00     0.275 C 
BRANCH  25  26
ATOM     26  O   UNL A   1      34.109  28.518  27.128  1.00  0.00    -0.458 OA
BRANCH  26  27
ATOM     27  C   UNL A   1      34.345  29.743  27.611  1.00  0.00     0.338 C 
ATOM     28  O   UNL A   1      33.546  30.668  27.678  1.00  0.00    -0.246 OA
BRANCH  27  29
ATOM     29  C   UNL A   1      35.686  29.901  28.175  1.00  0.00     0.060 A 
ATOM     30  C   UNL A   1      36.986  29.911  26.880  1.00  0.00     0.016 A 
ATOM     31  C   UNL A   1      36.172  29.464  29.880  1.00  0.00     0.016 A 
ATOM     32  C   UNL A   1      38.703  29.553  27.316  1.00  0.00     0.010 A 
ATOM     33  C   UNL A   1      37.858  28.894  30.247  1.00  0.00     0.010 A 
ATOM     34  C   UNL A   1      39.123  28.971  28.969  1.00  0.00    -0.014 A 
BRANCH  34  35
ATOM     35  C   UNL A   1      40.561  28.726  29.298  1.00  0.00     0.031 A 
ATOM     36  C   UNL A   1      41.172  27.378  29.057  1.00  0.00     0.074 A 
ATOM     37  C   UNL A   1      41.353  29.695  29.791  1.00  0.00     0.049 A 
ATOM     38  N   UNL A   1      42.408  27.035  28.817  1.00  0.00    -0.248 NA
ATOM     39  C   UNL A   1      40.238  26.255  29.044  1.00  0.00     0.031 C 
ATOM     40  C   UNL A   1      40.933  31.040  30.160  1.00  0.00     0.029 A 
ATOM     41  N   UNL A   1      42.694  29.679  30.082  1.00  0.00    -0.354 N 
ATOM     42  C   UNL A   1      42.361  25.686  28.472  1.00  0.00     0.074 A 
ATOM     43  C   UNL A   1      40.982  25.269  28.563  1.00  0.00     0.031 C 
ATOM     44  C   UNL A   1      41.980  31.716  30.658  1.00  0.00     0.029 A 
ATOM     45  C   UNL A   1      43.155  30.857  30.621  1.00  0.00     0.049 A 
ATOM     46  H   UNL A   1      43.272  28.898  29.921  1.00  0.00     0.167 HD
ATOM     47  C   UNL A   1      43.384  24.860  28.148  1.00  0.00     0.031 A 
ATOM     48  C   UNL A   1      44.388  31.209  31.030  1.00  0.00     0.031 A 
ATOM     49  C   UNL A   1      44.760  25.205  28.376  1.00  0.00     0.049 A 
ATOM     50  C   UNL A   1      45.519  30.245  30.798  1.00  0.00     0.074 A 
ATOM     51  C   UNL A   1      45.894  24.442  28.171  1.00  0.00     0.029 A 
ATOM     52  N   UNL A   1      45.176  26.392  28.965  1.00  0.00    -0.354 N 
ATOM     53  N   UNL A   1      45.483  29.047  30.260  1.00  0.00    -0.248 NA
ATOM     54  C   UNL A   1      46.860  30.696  31.184  1.00  0.00     0.031 C 
ATOM     55  C   UNL A   1      46.983  25.131  28.720  1.00  0.00     0.029 A 
ATOM     56  C   UNL A   1      46.540  26.361  29.183  1.00  0.00     0.049 A 
ATOM     57  H   UNL A   1      44.584  27.146  29.193  1.00  0.00     0.167 HD
ATOM     58  C   UNL A   1      46.802  28.609  30.221  1.00  0.00     0.074 A 
ATOM     59  C   UNL A   1      47.608  29.686  30.765  1.00  0.00     0.031 C 
ATOM     60  C   UNL A   1      47.307  27.432  29.770  1.00  0.00     0.031 A 
BRANCH  47  61
ATOM     61  C   UNL A   1      43.045  23.499  27.594  1.00  0.00    -0.014 A 
ATOM     62  C   UNL A   1      43.330  23.189  26.250  1.00  0.00     0.010 A 
ATOM     63  C   UNL A   1      42.505  22.496  28.420  1.00  0.00     0.010 A 
ATOM     64  C   UNL A   1      43.076  21.910  25.742  1.00  0.00     0.020 A 
ATOM     65  C   UNL A   1      42.264  21.210  27.921  1.00  0.00     0.020 A 
ATOM     66  C   UNL A   1      42.546  20.927  26.581  1.00  0.00     0.054 A 
BRANCH  66  67
ATOM     67  S   UNL A   1      42.263  19.267  25.903  1.00  0.00     0.124 S 
ATOM     68  O   UNL A   1      42.758  18.413  26.980  1.00  0.00    -0.237 OA
ATOM     69  O   UNL A   1      40.817  19.247  25.699  1.00  0.00    -0.237 OA
ATOM     70  O   UNL A   1      43.063  19.250  24.681  1.00  0.00    -0.744 OA
ENDBRANCH  66  67
ENDBRANCH  47  61
BRANCH  48  71
ATOM     71  C   UNL A   1      44.601  32.537  31.671  1.00  0.00    -0.014 A 
ATOM     72  C   UNL A   1      44.524  32.697  33.064  1.00  0.00     0.010 A 
ATOM     73  C   UNL A   1      44.933  33.651  30.875  1.00  0.00     0.010 A 
ATOM     74  C   UNL A   1      44.759  33.947  33.649  1.00  0.00     0.020 A 
ATOM     75  C   UNL A   1      45.198  34.895  31.457  1.00  0.00     0.020 A 
ATOM     76  C   UNL A   1      45.100  35.037  32.841  1.00  0.00     0.054 A 
BRANCH  76  77
ATOM     77  S   UNL A   1      45.454  36.633  33.628  1.00  0.00     0.124 S 
ATOM     78  O   UNL A   1      44.745  37.566  32.758  1.00  0.00    -0.237 OA
ATOM     79  O   UNL A   1      44.888  36.460  34.963  1.00  0.00    -0.237 OA
ATOM     80  O   UNL A   1      46.912  36.723  33.583  1.00  0.00    -0.744 OA
ENDBRANCH  76  77
ENDBRANCH  48  71
BRANCH  60  81
ATOM     81  C   UNL A   1      48.800  27.261  29.848  1.00  0.00    -0.014 A 
ATOM     82  C   UNL A   1      49.423  26.780  31.012  1.00  0.00     0.010 A 
ATOM     83  C   UNL A   1      49.589  27.577  28.726  1.00  0.00     0.010 A 
ATOM     84  C   UNL A   1      50.814  26.680  31.077  1.00  0.00     0.020 A 
ATOM     85  C   UNL A   1      50.976  27.442  28.774  1.00  0.00     0.020 A 
ATOM     86  C   UNL A   1      51.581  27.019  29.958  1.00  0.00     0.054 A 
BRANCH  86  87
ATOM     87  S   UNL A   1      53.385  26.886  30.068  1.00  0.00     0.124 S 
ATOM     88  O   UNL A   1      53.549  25.726  30.939  1.00  0.00    -0.237 OA
ATOM     89  O   UNL A   1      53.776  26.688  28.674  1.00  0.00    -0.237 OA
ATOM     90  O   UNL A   1      53.791  28.164  30.648  1.00  0.00    -0.744 OA
ENDBRANCH  86  87
ENDBRANCH  60  81
ENDBRANCH  34  35
ENDBRANCH  27  29
ENDBRANCH  26  27
ENDBRANCH  25  26
ENDBRANCH   1  25
TORSDOF 19
ENDMDL
MODEL 3
REMARK VINA RESULT:     -10.8      3.885     10.669
REMARK SMILES Cc1noc(C)c1[C@H](C)NC(=O)NC[C@@](C)(O)C(=O)OCCOC(=O)c1ccc(-c2c3nc(c(-c4ccc(S(=O)(=O)[O-])cc4)c4ccc([nH]4)c(-c4ccc(S(=O)(=O)[O-])cc4)c4nc(c(-c5ccc(S(=O)(=O)[O-])cc5)c5ccc2[nH]5)C=C4)C=C3)cc1
REMARK SMILES IDX 21 1 20 2 18 3 19 4 15 5 16 6 14 7 13 8 10 9 11 10 12 12
REMARK SMILES IDX 8 14 9 15 7 16 1 17 2 18 3 19 4 20 5 21 6 22 17 23 22 25
REMARK SMILES IDX 23 26 24 27 25 28 26 29 27 30 85 31 28 32 84 33 29 34 30 35
REMARK SMILES IDX 31 36 78 37 32 38 83 39 77 40 79 41 33 42 82 43 76 44 75 45
REMARK SMILES IDX 34 47 64 48 45 49 63 50 46 51 49 52 62 53 80 54 47 55 48 56
REMARK SMILES IDX 61 58 81 59 50 60 35 61 36 62 44 63 37 64 43 65 38 66 39 67
REMARK SMILES IDX 40 68 41 69 42 70 65 71 66 72 74 73 67 74 73 75 68 76 69 77
REMARK SMILES IDX 70 78 71 79 72 80 51 81 52 82 60 83 53 84 59 85 54 86 55 87
REMARK SMILES IDX 56 88 57 89 58 90
REMARK H PARENT 10 11 13 13 17 24 79 46 49 57
REMARK Flexibility Score: inf
ROOT
ATOM      1  C   UNL A   1      43.825  22.221  24.695  1.00  0.00     0.274 C 
ENDROOT
BRANCH   1   2
ATOM      2  O   UNL A   1      43.178  21.967  25.964  1.00  0.00    -0.460 OA
BRANCH   2   3
ATOM      3  C   UNL A   1      42.388  20.846  26.055  1.00  0.00     0.339 C 
ATOM      4  O   UNL A   1      42.592  19.816  25.428  1.00  0.00    -0.249 OA
BRANCH   3   5
ATOM      5  C   UNL A   1      41.216  21.095  27.046  1.00  0.00     0.176 C 
ATOM      6  C   UNL A   1      41.758  22.150  28.017  1.00  0.00     0.057 C 
BRANCH   5   7
ATOM      7  C   UNL A   1      39.877  21.588  26.407  1.00  0.00     0.164 C 
BRANCH   7   8
ATOM      8  N   UNL A   1      39.546  23.016  26.460  1.00  0.00    -0.335 N 
ATOM      9  N   UNL A   1      37.213  23.819  26.075  1.00  0.00    -0.331 N 
ATOM     10  C   UNL A   1      38.519  23.852  26.543  1.00  0.00     0.315 C 
ATOM     11  H   UNL A   1      36.793  24.511  26.635  1.00  0.00     0.165 HD
ATOM     12  O   UNL A   1      38.826  24.932  27.079  1.00  0.00    -0.249 OA
ATOM     13  H   UNL A   1      40.379  23.538  26.418  1.00  0.00     0.165 HD
BRANCH   9  14
ATOM     14  C   UNL A   1      35.588  23.203  24.908  1.00  0.00     0.116 C 
ATOM     15  C   UNL A   1      35.590  23.051  23.173  1.00  0.00     0.036 C 
BRANCH  14  16
ATOM     16  C   UNL A   1      33.987  22.409  25.419  1.00  0.00     0.040 A 
ATOM     17  C   UNL A   1      31.969  24.117  26.505  1.00  0.00     0.071 C 
ATOM     18  C   UNL A   1      32.620  22.918  25.877  1.00  0.00     0.086 A 
ATOM     19  N   UNL A   1      31.690  21.968  25.752  1.00  0.00    -0.085 NA
ATOM     20  O   UNL A   1      32.308  20.858  25.352  1.00  0.00    -0.361 OA
ATOM     21  C   UNL A   1      33.635  21.050  25.197  1.00  0.00     0.139 A 
ATOM     22  C   UNL A   1      34.222  19.741  24.816  1.00  0.00     0.091 C 
ENDBRANCH  14  16
ENDBRANCH   9  14
ENDBRANCH   7   8
ENDBRANCH   5   7
BRANCH   5  23
ATOM     23  O   UNL A   1      40.907  19.969  27.886  1.00  0.00    -0.377 OA
ATOM     24  H   UNL A   1      40.757  19.184  27.335  1.00  0.00     0.212 HD
ENDBRANCH   5  23
ENDBRANCH   3   5
ENDBRANCH   2   3
ENDBRANCH   1   2
BRANCH   1  25
ATOM     25  C   UNL A   1      44.657  23.498  24.786  1.00  0.00     0.275 C 
BRANCH  25  26
ATOM     26  O   UNL A   1      43.754  24.577  25.056  1.00  0.00    -0.458 OA
BRANCH  26  27
ATOM     27  C   UNL A   1      44.350  25.657  25.573  1.00  0.00     0.338 C 
ATOM     28  O   UNL A   1      45.488  26.045  25.342  1.00  0.00    -0.246 OA
BRANCH  27  29
ATOM     29  C   UNL A   1      43.472  26.456  26.430  1.00  0.00     0.060 A 
ATOM     30  C   UNL A   1      44.307  27.959  27.070  1.00  0.00     0.016 A 
ATOM     31  C   UNL A   1      42.025  25.819  27.343  1.00  0.00     0.016 A 
ATOM     32  C   UNL A   1      43.660  28.802  28.533  1.00  0.00     0.010 A 
ATOM     33  C   UNL A   1      41.533  26.554  28.930  1.00  0.00     0.010 A 
ATOM     34  C   UNL A   1      42.333  28.061  29.502  1.00  0.00    -0.014 A 
BRANCH  34  35
ATOM     35  C   UNL A   1      41.802  28.812  30.680  1.00  0.00     0.031 A 
ATOM     36  C   UNL A   1      42.428  28.638  32.032  1.00  0.00     0.074 A 
ATOM     37  C   UNL A   1      40.778  29.676  30.569  1.00  0.00     0.049 A 
ATOM     38  N   UNL A   1      42.485  29.446  33.053  1.00  0.00    -0.248 NA
ATOM     39  C   UNL A   1      43.129  27.373  32.244  1.00  0.00     0.031 C 
ATOM     40  C   UNL A   1      39.995  29.929  29.367  1.00  0.00     0.029 A 
ATOM     41  N   UNL A   1      40.207  30.498  31.510  1.00  0.00    -0.354 N 
ATOM     42  C   UNL A   1      43.359  28.847  33.958  1.00  0.00     0.074 A 
ATOM     43  C   UNL A   1      43.782  27.594  33.376  1.00  0.00     0.031 C 
ATOM     44  C   UNL A   1      39.027  30.817  29.641  1.00  0.00     0.029 A 
ATOM     45  C   UNL A   1      39.134  31.216  31.036  1.00  0.00     0.049 A 
ATOM     46  H   UNL A   1      40.535  30.567  32.436  1.00  0.00     0.167 HD
ATOM     47  C   UNL A   1      43.741  29.282  35.181  1.00  0.00     0.031 A 
ATOM     48  C   UNL A   1      38.334  32.104  31.655  1.00  0.00     0.031 A 
ATOM     49  C   UNL A   1      43.068  30.351  35.868  1.00  0.00     0.049 A 
ATOM     50  C   UNL A   1      38.668  32.503  33.066  1.00  0.00     0.074 A 
ATOM     51  C   UNL A   1      43.294  30.847  37.138  1.00  0.00     0.029 A 
ATOM     52  N   UNL A   1      41.959  31.019  35.366  1.00  0.00    -0.354 N 
ATOM     53  N   UNL A   1      39.646  32.077  33.833  1.00  0.00    -0.248 NA
ATOM     54  C   UNL A   1      37.821  33.531  33.679  1.00  0.00     0.031 C 
ATOM     55  C   UNL A   1      42.264  31.749  37.437  1.00  0.00     0.029 A 
ATOM     56  C   UNL A   1      41.454  31.882  36.320  1.00  0.00     0.049 A 
ATOM     57  H   UNL A   1      41.587  30.896  34.462  1.00  0.00     0.167 HD
ATOM     58  C   UNL A   1      39.547  32.806  35.014  1.00  0.00     0.074 A 
ATOM     59  C   UNL A   1      38.428  33.715  34.842  1.00  0.00     0.031 C 
ATOM     60  C   UNL A   1      40.310  32.740  36.134  1.00  0.00     0.031 A 
BRANCH  47  61
ATOM     61  C   UNL A   1      44.874  28.561  35.867  1.00  0.00    -0.014 A 
ATOM     62  C   UNL A   1      44.609  27.464  36.710  1.00  0.00     0.010 A 
ATOM     63  C   UNL A   1      46.212  28.922  35.627  1.00  0.00     0.010 A 
ATOM     64  C   UNL A   1      45.655  26.750  37.304  1.00  0.00     0.020 A 
ATOM     65  C   UNL A   1      47.263  28.201  36.206  1.00  0.00     0.020 A 
ATOM     66  C   UNL A   1      46.978  27.122  37.046  1.00  0.00     0.054 A 
BRANCH  66  67
ATOM     67  S   UNL A   1      48.315  26.152  37.800  1.00  0.00     0.124 S 
ATOM     68  O   UNL A   1      49.186  25.900  36.655  1.00  0.00    -0.237 OA
ATOM     69  O   UNL A   1      48.846  27.069  38.805  1.00  0.00    -0.237 OA
ATOM     70  O   UNL A   1      47.632  24.975  38.332  1.00  0.00    -0.744 OA
ENDBRANCH  66  67
ENDBRANCH  47  61
BRANCH  48  71
ATOM     71  C   UNL A   1      37.170  32.679  30.926  1.00  0.00    -0.014 A 
ATOM     72  C   UNL A   1      37.307  33.809  30.103  1.00  0.00     0.010 A 
ATOM     73  C   UNL A   1      35.910  32.055  31.019  1.00  0.00     0.010 A 
ATOM     74  C   UNL A   1      36.207  34.314  29.400  1.00  0.00     0.020 A 
ATOM     75  C   UNL A   1      34.815  32.538  30.295  1.00  0.00     0.020 A 
ATOM     76  C   UNL A   1      34.969  33.671  29.497  1.00  0.00     0.054 A 
BRANCH  76  77
ATOM     77  S   UNL A   1      33.571  34.312  28.534  1.00  0.00     0.124 S 
ATOM     78  O   UNL A   1      32.655  34.753  29.581  1.00  0.00    -0.237 OA
ATOM     79  O   UNL A   1      34.191  35.375  27.747  1.00  0.00    -0.237 OA
ATOM     80  O   UNL A   1      33.126  33.154  27.761  1.00  0.00    -0.744 OA
ENDBRANCH  76  77
ENDBRANCH  48  71
BRANCH  60  81
ATOM     81  C   UNL A   1      39.955  33.683  37.252  1.00  0.00    -0.014 A 
ATOM     82  C   UNL A   1      40.554  34.950  37.360  1.00  0.00     0.010 A 
ATOM     83  C   UNL A   1      38.994  33.293  38.202  1.00  0.00     0.010 A 
ATOM     84  C   UNL A   1      40.246  35.785  38.436  1.00  0.00     0.020 A 
ATOM     85  C   UNL A   1      38.655  34.140  39.257  1.00  0.00     0.020 A 
ATOM     86  C   UNL A   1      39.303  35.369  39.381  1.00  0.00     0.054 A 
BRANCH  86  87
ATOM     87  S   UNL A   1      38.923  36.468  40.772  1.00  0.00     0.124 S 
ATOM     88  O   UNL A   1      40.227  36.597  41.418  1.00  0.00    -0.237 OA
ATOM     89  O   UNL A   1      38.428  37.669  40.105  1.00  0.00    -0.237 OA
ATOM     90  O   UNL A   1      37.921  35.727  41.535  1.00  0.00    -0.744 OA
ENDBRANCH  86  87
ENDBRANCH  60  81
ENDBRANCH  34  35
ENDBRANCH  27  29
ENDBRANCH  26  27
ENDBRANCH  25  26
ENDBRANCH   1  25
TORSDOF 19
ENDMDL
