MODEL 1
REMARK VINA RESULT:     -10.2      0.000      0.000
REMARK SMILES O=C(CC1(CC(=O)OCCOC(=O)c2ccc(-c3c4nc(c(-c5ccc(S(=O)(=O)[O-])cc5)c5ccc([nH]5)c(-c5ccc(S(=O)(=O)[O-])cc5)c5nc(c(-c6ccc(S(=O)(=O)[O-])cc6)c6ccc3[nH]6)C=C5)C=C4)cc2)CCCC1)NNc1ccc([N+](=O)[O-])cc1
REMARK SMILES IDX 8 1 6 2 7 3 5 4 4 5 74 6 77 7 75 8 76 9 3 10 2 11 1 12 78 13
REMARK SMILES IDX 79 15 80 17 81 18 88 19 82 20 87 21 83 22 84 23 85 24 86 25
REMARK SMILES IDX 9 26 10 27 11 28 12 29 13 30 14 31 15 32 73 33 16 34 72 35
REMARK SMILES IDX 17 36 18 37 19 38 66 39 20 40 71 41 65 42 67 43 21 44 70 45
REMARK SMILES IDX 64 46 63 47 22 49 52 50 33 51 51 52 34 53 37 54 50 55 68 56
REMARK SMILES IDX 35 57 36 58 49 60 69 61 38 62 23 63 24 64 32 65 25 66 31 67
REMARK SMILES IDX 26 68 27 69 28 70 29 71 30 72 53 73 54 74 62 75 55 76 61 77
REMARK SMILES IDX 56 78 57 79 58 80 59 81 60 82 39 83 40 84 48 85 41 86 47 87
REMARK SMILES IDX 42 88 43 89 44 90 45 91 46 92
REMARK H PARENT 78 14 79 16 67 48 37 59
REMARK Flexibility Score: inf
ROOT
ATOM      1  O   UNL A   1      33.623  28.300  24.883  1.00  0.00    -0.462 OA
ENDROOT
BRANCH   1   2
ATOM      2  C   UNL A   1      33.343  27.836  23.640  1.00  0.00     0.306 C 
ATOM      3  O   UNL A   1      32.846  28.519  22.748  1.00  0.00    -0.252 OA
BRANCH   2   4
ATOM      4  C   UNL A   1      33.655  26.372  23.399  1.00  0.00     0.130 C 
BRANCH   4   5
ATOM      5  C   UNL A   1      33.085  25.234  24.293  1.00  0.00    -0.010 C 
ATOM      6  C   UNL A   1      34.148  24.918  25.384  1.00  0.00     0.008 C 
ATOM      7  C   UNL A   1      33.060  23.875  23.568  1.00  0.00     0.008 C 
ATOM      8  C   UNL A   1      35.221  24.089  24.685  1.00  0.00     0.001 C 
ATOM      9  C   UNL A   1      34.512  23.397  23.524  1.00  0.00     0.001 C 
BRANCH   5  10
ATOM     10  C   UNL A   1      31.772  25.667  24.996  1.00  0.00     0.109 C 
BRANCH  10  11
ATOM     11  C   UNL A   1      30.566  25.861  24.090  1.00  0.00     0.238 C 
ATOM     12  O   UNL A   1      29.973  24.921  23.568  1.00  0.00    -0.273 OA
ATOM     13  N   UNL A   1      30.235  27.189  23.919  1.00  0.00    -0.270 N 
ATOM     14  H   UNL A   1      30.801  27.896  24.305  1.00  0.00     0.191 HD
BRANCH  13  15
ATOM     15  N   UNL A   1      29.097  27.518  23.201  1.00  0.00    -0.299 N 
ATOM     16  H   UNL A   1      28.493  26.825  22.849  1.00  0.00     0.188 HD
BRANCH  15  17
ATOM     17  C   UNL A   1      28.846  28.876  22.998  1.00  0.00     0.055 A 
ATOM     18  C   UNL A   1      29.580  29.831  23.714  1.00  0.00     0.034 A 
ATOM     19  C   UNL A   1      27.910  29.326  22.055  1.00  0.00     0.034 A 
ATOM     20  C   UNL A   1      29.397  31.200  23.492  1.00  0.00     0.088 A 
ATOM     21  C   UNL A   1      27.708  30.690  21.824  1.00  0.00     0.088 A 
ATOM     22  C   UNL A   1      28.460  31.625  22.543  1.00  0.00     0.269 A 
BRANCH  22  23
ATOM     23  N   UNL A   1      28.268  33.058  22.295  1.00  0.00     0.062 N 
ATOM     24  O   UNL A   1      28.738  33.856  23.120  1.00  0.00    -0.258 OA
ATOM     25  O   UNL A   1      27.650  33.389  21.273  1.00  0.00    -0.258 OA
ENDBRANCH  22  23
ENDBRANCH  15  17
ENDBRANCH  13  15
ENDBRANCH  10  11
ENDBRANCH   5  10
ENDBRANCH   4   5
ENDBRANCH   2   4
ENDBRANCH   1   2
BRANCH   1  26
ATOM     26  C   UNL A   1      32.665  29.258  25.397  1.00  0.00     0.274 C 
BRANCH  26  27
ATOM     27  C   UNL A   1      32.601  29.252  26.924  1.00  0.00     0.275 C 
BRANCH  27  28
ATOM     28  O   UNL A   1      33.913  29.095  27.489  1.00  0.00    -0.458 OA
BRANCH  28  29
ATOM     29  C   UNL A   1      34.407  30.197  28.097  1.00  0.00     0.338 C 
ATOM     30  O   UNL A   1      33.781  31.179  28.456  1.00  0.00    -0.246 OA
BRANCH  29  31
ATOM     31  C   UNL A   1      35.842  30.030  28.346  1.00  0.00     0.060 A 
ATOM     32  C   UNL A   1      36.737  30.121  27.276  1.00  0.00     0.016 A 
ATOM     33  C   UNL A   1      36.282  29.668  29.617  1.00  0.00     0.016 A 
ATOM     34  C   UNL A   1      38.083  29.820  27.473  1.00  0.00     0.010 A 
ATOM     35  C   UNL A   1      37.640  29.414  29.821  1.00  0.00     0.010 A 
ATOM     36  C   UNL A   1      38.546  29.472  28.748  1.00  0.00    -0.014 A 
BRANCH  36  37
ATOM     37  C   UNL A   1      39.980  29.171  28.972  1.00  0.00     0.031 A 
ATOM     38  C   UNL A   1      40.912  30.246  29.453  1.00  0.00     0.074 A 
ATOM     39  C   UNL A   1      40.446  27.935  28.710  1.00  0.00     0.049 A 
ATOM     40  N   UNL A   1      42.214  30.217  29.566  1.00  0.00    -0.248 NA
ATOM     41  C   UNL A   1      40.298  31.523  29.856  1.00  0.00     0.031 C 
ATOM     42  C   UNL A   1      39.631  26.799  28.269  1.00  0.00     0.029 A 
ATOM     43  N   UNL A   1      41.719  27.432  28.765  1.00  0.00    -0.354 N 
ATOM     44  C   UNL A   1      42.583  31.479  30.019  1.00  0.00     0.074 A 
ATOM     45  C   UNL A   1      41.366  32.251  30.157  1.00  0.00     0.031 C 
ATOM     46  C   UNL A   1      40.426  25.732  28.096  1.00  0.00     0.029 A 
ATOM     47  C   UNL A   1      41.807  26.122  28.358  1.00  0.00     0.049 A 
ATOM     48  H   UNL A   1      42.495  27.957  29.067  1.00  0.00     0.167 HD
ATOM     49  C   UNL A   1      43.824  31.950  30.288  1.00  0.00     0.031 A 
ATOM     50  C   UNL A   1      42.883  25.333  28.178  1.00  0.00     0.031 A 
ATOM     51  C   UNL A   1      45.030  31.174  30.152  1.00  0.00     0.049 A 
ATOM     52  C   UNL A   1      44.252  25.889  28.446  1.00  0.00     0.074 A 
ATOM     53  C   UNL A   1      46.335  31.559  30.405  1.00  0.00     0.029 A 
ATOM     54  N   UNL A   1      45.076  29.855  29.729  1.00  0.00    -0.354 N 
ATOM     55  N   UNL A   1      44.585  27.090  28.853  1.00  0.00    -0.248 NA
ATOM     56  C   UNL A   1      45.389  24.985  28.226  1.00  0.00     0.031 C 
ATOM     57  C   UNL A   1      47.174  30.480  30.102  1.00  0.00     0.029 A 
ATOM     58  C   UNL A   1      46.388  29.413  29.701  1.00  0.00     0.049 A 
ATOM     59  H   UNL A   1      44.292  29.312  29.486  1.00  0.00     0.167 HD
ATOM     60  C   UNL A   1      45.972  27.083  28.951  1.00  0.00     0.074 A 
ATOM     61  C   UNL A   1      46.412  25.755  28.574  1.00  0.00     0.031 C 
ATOM     62  C   UNL A   1      46.804  28.087  29.319  1.00  0.00     0.031 A 
BRANCH  49  63
ATOM     63  C   UNL A   1      43.941  33.387  30.719  1.00  0.00    -0.014 A 
ATOM     64  C   UNL A   1      44.090  34.419  29.776  1.00  0.00     0.010 A 
ATOM     65  C   UNL A   1      43.872  33.709  32.085  1.00  0.00     0.010 A 
ATOM     66  C   UNL A   1      44.205  35.748  30.198  1.00  0.00     0.020 A 
ATOM     67  C   UNL A   1      43.966  35.037  32.510  1.00  0.00     0.020 A 
ATOM     68  C   UNL A   1      44.151  36.048  31.563  1.00  0.00     0.054 A 
BRANCH  68  69
ATOM     69  S   UNL A   1      44.290  37.779  32.088  1.00  0.00     0.124 S 
ATOM     70  O   UNL A   1      43.444  37.799  33.279  1.00  0.00    -0.237 OA
ATOM     71  O   UNL A   1      45.722  37.929  32.333  1.00  0.00    -0.237 OA
ATOM     72  O   UNL A   1      43.774  38.529  30.945  1.00  0.00    -0.744 OA
ENDBRANCH  68  69
ENDBRANCH  49  63
BRANCH  50  73
ATOM     73  C   UNL A   1      42.699  23.942  27.690  1.00  0.00    -0.014 A 
ATOM     74  C   UNL A   1      42.424  22.900  28.593  1.00  0.00     0.010 A 
ATOM     75  C   UNL A   1      42.759  23.660  26.313  1.00  0.00     0.010 A 
ATOM     76  C   UNL A   1      42.213  21.599  28.125  1.00  0.00     0.020 A 
ATOM     77  C   UNL A   1      42.526  22.366  25.842  1.00  0.00     0.020 A 
ATOM     78  C   UNL A   1      42.262  21.341  26.752  1.00  0.00     0.054 A 
BRANCH  78  79
ATOM     79  S   UNL A   1      41.909  19.664  26.157  1.00  0.00     0.124 S 
ATOM     80  O   UNL A   1      42.792  19.561  25.000  1.00  0.00    -0.237 OA
ATOM     81  O   UNL A   1      42.270  18.835  27.305  1.00  0.00    -0.237 OA
ATOM     82  O   UNL A   1      40.480  19.705  25.857  1.00  0.00    -0.744 OA
ENDBRANCH  78  79
ENDBRANCH  50  73
BRANCH  62  83
ATOM     83  C   UNL A   1      48.273  27.776  29.356  1.00  0.00    -0.014 A 
ATOM     84  C   UNL A   1      48.853  27.147  30.471  1.00  0.00     0.010 A 
ATOM     85  C   UNL A   1      49.075  28.084  28.243  1.00  0.00     0.010 A 
ATOM     86  C   UNL A   1      50.219  26.854  30.484  1.00  0.00     0.020 A 
ATOM     87  C   UNL A   1      50.438  27.775  28.244  1.00  0.00     0.020 A 
ATOM     88  C   UNL A   1      51.004  27.175  29.371  1.00  0.00     0.054 A 
BRANCH  88  89
ATOM     89  S   UNL A   1      52.768  26.753  29.389  1.00  0.00     0.124 S 
ATOM     90  O   UNL A   1      53.008  26.518  30.811  1.00  0.00    -0.237 OA
ATOM     91  O   UNL A   1      52.827  25.567  28.538  1.00  0.00    -0.237 OA
ATOM     92  O   UNL A   1      53.412  27.942  28.835  1.00  0.00    -0.744 OA
ENDBRANCH  88  89
ENDBRANCH  62  83
ENDBRANCH  36  37
ENDBRANCH  29  31
ENDBRANCH  28  29
ENDBRANCH  27  28
ENDBRANCH  26  27
ENDBRANCH   1  26
TORSDOF 20
ENDMDL
MODEL 2
REMARK VINA RESULT:     -10.2      5.067     10.241
REMARK SMILES O=C(CC1(CC(=O)OCCOC(=O)c2ccc(-c3c4nc(c(-c5ccc(S(=O)(=O)[O-])cc5)c5ccc([nH]5)c(-c5ccc(S(=O)(=O)[O-])cc5)c5nc(c(-c6ccc(S(=O)(=O)[O-])cc6)c6ccc3[nH]6)C=C5)C=C4)cc2)CCCC1)NNc1ccc([N+](=O)[O-])cc1
REMARK SMILES IDX 8 1 6 2 7 3 5 4 4 5 74 6 77 7 75 8 76 9 3 10 2 11 1 12 78 13
REMARK SMILES IDX 79 15 80 17 81 18 88 19 82 20 87 21 83 22 84 23 85 24 86 25
REMARK SMILES IDX 9 26 10 27 11 28 12 29 13 30 14 31 15 32 73 33 16 34 72 35
REMARK SMILES IDX 17 36 18 37 19 38 66 39 20 40 71 41 65 42 67 43 21 44 70 45
REMARK SMILES IDX 64 46 63 47 22 49 52 50 33 51 51 52 34 53 37 54 50 55 68 56
REMARK SMILES IDX 35 57 36 58 49 60 69 61 38 62 23 63 24 64 32 65 25 66 31 67
REMARK SMILES IDX 26 68 27 69 28 70 29 71 30 72 53 73 54 74 62 75 55 76 61 77
REMARK SMILES IDX 56 78 57 79 58 80 59 81 60 82 39 83 40 84 48 85 41 86 47 87
REMARK SMILES IDX 42 88 43 89 44 90 45 91 46 92
REMARK H PARENT 78 14 79 16 67 48 37 59
REMARK Flexibility Score: inf
ROOT
ATOM      1  O   UNL A   1      37.453  23.342  24.689  1.00  0.00    -0.462 OA
ENDROOT
BRANCH   1   2
ATOM      2  C   UNL A   1      36.507  22.938  23.806  1.00  0.00     0.306 C 
ATOM      3  O   UNL A   1      36.649  22.965  22.587  1.00  0.00    -0.252 OA
BRANCH   2   4
ATOM      4  C   UNL A   1      35.202  22.462  24.414  1.00  0.00     0.130 C 
BRANCH   4   5
ATOM      5  C   UNL A   1      34.135  23.440  24.983  1.00  0.00    -0.010 C 
ATOM      6  C   UNL A   1      34.345  23.523  26.522  1.00  0.00     0.008 C 
ATOM      7  C   UNL A   1      32.715  22.838  24.958  1.00  0.00     0.008 C 
ATOM      8  C   UNL A   1      33.747  22.238  27.089  1.00  0.00     0.001 C 
ATOM      9  C   UNL A   1      32.677  21.809  26.089  1.00  0.00     0.001 C 
BRANCH   5  10
ATOM     10  C   UNL A   1      34.293  24.863  24.387  1.00  0.00     0.109 C 
BRANCH  10  11
ATOM     11  C   UNL A   1      33.329  25.227  23.268  1.00  0.00     0.238 C 
ATOM     12  O   UNL A   1      33.489  24.851  22.110  1.00  0.00    -0.273 OA
ATOM     13  N   UNL A   1      32.288  26.022  23.698  1.00  0.00    -0.270 N 
ATOM     14  H   UNL A   1      32.264  26.352  24.626  1.00  0.00     0.191 HD
BRANCH  13  15
ATOM     15  N   UNL A   1      31.276  26.353  22.812  1.00  0.00    -0.299 N 
ATOM     16  H   UNL A   1      31.060  25.779  22.041  1.00  0.00     0.188 HD
BRANCH  15  17
ATOM     17  C   UNL A   1      30.577  27.535  23.060  1.00  0.00     0.055 A 
ATOM     18  C   UNL A   1      31.255  28.643  23.588  1.00  0.00     0.034 A 
ATOM     19  C   UNL A   1      29.215  27.673  22.752  1.00  0.00     0.034 A 
ATOM     20  C   UNL A   1      30.599  29.862  23.793  1.00  0.00     0.088 A 
ATOM     21  C   UNL A   1      28.542  28.881  22.956  1.00  0.00     0.088 A 
ATOM     22  C   UNL A   1      29.242  29.976  23.473  1.00  0.00     0.269 A 
BRANCH  22  23
ATOM     23  N   UNL A   1      28.548  31.253  23.675  1.00  0.00     0.062 N 
ATOM     24  O   UNL A   1      27.384  31.350  23.258  1.00  0.00    -0.258 OA
ATOM     25  O   UNL A   1      29.164  32.160  24.254  1.00  0.00    -0.258 OA
ENDBRANCH  22  23
ENDBRANCH  15  17
ENDBRANCH  13  15
ENDBRANCH  10  11
ENDBRANCH   5  10
ENDBRANCH   4   5
ENDBRANCH   2   4
ENDBRANCH   1   2
BRANCH   1  26
ATOM     26  C   UNL A   1      37.735  22.391  25.746  1.00  0.00     0.274 C 
BRANCH  26  27
ATOM     27  C   UNL A   1      39.174  22.492  26.249  1.00  0.00     0.275 C 
BRANCH  27  28
ATOM     28  O   UNL A   1      39.313  23.578  27.179  1.00  0.00    -0.458 OA
BRANCH  28  29
ATOM     29  C   UNL A   1      40.386  24.373  26.970  1.00  0.00     0.338 C 
ATOM     30  O   UNL A   1      41.251  24.230  26.124  1.00  0.00    -0.246 OA
BRANCH  29  31
ATOM     31  C   UNL A   1      40.345  25.521  27.883  1.00  0.00     0.060 A 
ATOM     32  C   UNL A   1      41.432  26.397  27.930  1.00  0.00     0.016 A 
ATOM     33  C   UNL A   1      39.279  25.655  28.770  1.00  0.00     0.016 A 
ATOM     34  C   UNL A   1      41.468  27.403  28.893  1.00  0.00     0.010 A 
ATOM     35  C   UNL A   1      39.297  26.693  29.704  1.00  0.00     0.010 A 
ATOM     36  C   UNL A   1      40.398  27.564  29.782  1.00  0.00    -0.014 A 
BRANCH  36  37
ATOM     37  C   UNL A   1      40.418  28.644  30.797  1.00  0.00     0.031 A 
ATOM     38  C   UNL A   1      41.352  28.561  31.969  1.00  0.00     0.074 A 
ATOM     39  C   UNL A   1      39.570  29.683  30.674  1.00  0.00     0.049 A 
ATOM     40  N   UNL A   1      41.413  29.325  33.029  1.00  0.00    -0.248 NA
ATOM     41  C   UNL A   1      42.345  27.474  31.950  1.00  0.00     0.031 C 
ATOM     42  C   UNL A   1      38.639  29.890  29.562  1.00  0.00     0.029 A 
ATOM     43  N   UNL A   1      39.346  30.753  31.501  1.00  0.00    -0.354 N 
ATOM     44  C   UNL A   1      42.425  28.793  33.820  1.00  0.00     0.074 A 
ATOM     45  C   UNL A   1      42.949  27.640  33.119  1.00  0.00     0.031 C 
ATOM     46  C   UNL A   1      37.946  31.020  29.776  1.00  0.00     0.029 A 
ATOM     47  C   UNL A   1      38.343  31.583  31.062  1.00  0.00     0.049 A 
ATOM     48  H   UNL A   1      39.855  30.912  32.329  1.00  0.00     0.167 HD
ATOM     49  C   UNL A   1      42.871  29.226  35.024  1.00  0.00     0.031 A 
ATOM     50  C   UNL A   1      37.778  32.656  31.645  1.00  0.00     0.031 A 
ATOM     51  C   UNL A   1      42.348  30.377  35.713  1.00  0.00     0.049 A 
ATOM     52  C   UNL A   1      38.262  33.094  32.998  1.00  0.00     0.074 A 
ATOM     53  C   UNL A   1      42.735  30.900  36.935  1.00  0.00     0.029 A 
ATOM     54  N   UNL A   1      41.326  31.185  35.238  1.00  0.00    -0.354 N 
ATOM     55  N   UNL A   1      39.204  32.568  33.742  1.00  0.00    -0.248 NA
ATOM     56  C   UNL A   1      37.604  34.266  33.589  1.00  0.00     0.031 C 
ATOM     57  C   UNL A   1      41.923  32.006  37.213  1.00  0.00     0.029 A 
ATOM     58  C   UNL A   1      41.060  32.195  36.146  1.00  0.00     0.049 A 
ATOM     59  H   UNL A   1      40.859  31.060  34.381  1.00  0.00     0.167 HD
ATOM     60  C   UNL A   1      39.262  33.354  34.887  1.00  0.00     0.074 A 
ATOM     61  C   UNL A   1      38.269  34.398  34.730  1.00  0.00     0.031 C 
ATOM     62  C   UNL A   1      40.065  33.222  35.971  1.00  0.00     0.031 A 
BRANCH  49  63
ATOM     63  C   UNL A   1      43.954  28.423  35.691  1.00  0.00    -0.014 A 
ATOM     64  C   UNL A   1      43.645  27.351  36.546  1.00  0.00     0.010 A 
ATOM     65  C   UNL A   1      45.302  28.729  35.434  1.00  0.00     0.010 A 
ATOM     66  C   UNL A   1      44.667  26.622  37.162  1.00  0.00     0.020 A 
ATOM     67  C   UNL A   1      46.327  27.990  36.032  1.00  0.00     0.020 A 
ATOM     68  C   UNL A   1      46.002  26.952  36.908  1.00  0.00     0.054 A 
BRANCH  68  69
ATOM     69  S   UNL A   1      47.313  25.986  37.708  1.00  0.00     0.124 S 
ATOM     70  O   UNL A   1      48.477  26.330  36.894  1.00  0.00    -0.237 OA
ATOM     71  O   UNL A   1      47.321  26.515  39.069  1.00  0.00    -0.237 OA
ATOM     72  O   UNL A   1      46.850  24.605  37.582  1.00  0.00    -0.744 OA
ENDBRANCH  68  69
ENDBRANCH  49  63
BRANCH  50  73
ATOM     73  C   UNL A   1      36.668  33.366  30.958  1.00  0.00    -0.014 A 
ATOM     74  C   UNL A   1      36.834  33.851  29.650  1.00  0.00     0.010 A 
ATOM     75  C   UNL A   1      35.424  33.523  31.597  1.00  0.00     0.010 A 
ATOM     76  C   UNL A   1      35.774  34.483  28.992  1.00  0.00     0.020 A 
ATOM     77  C   UNL A   1      34.358  34.134  30.934  1.00  0.00     0.020 A 
ATOM     78  C   UNL A   1      34.541  34.618  29.638  1.00  0.00     0.054 A 
BRANCH  78  79
ATOM     79  S   UNL A   1      33.155  35.371  28.742  1.00  0.00     0.124 S 
ATOM     80  O   UNL A   1      32.328  35.876  29.832  1.00  0.00    -0.237 OA
ATOM     81  O   UNL A   1      33.817  36.387  27.926  1.00  0.00    -0.237 OA
ATOM     82  O   UNL A   1      32.591  34.253  27.990  1.00  0.00    -0.744 OA
ENDBRANCH  78  79
ENDBRANCH  50  73
BRANCH  62  83
ATOM     83  C   UNL A   1      39.918  34.248  37.058  1.00  0.00    -0.014 A 
ATOM     84  C   UNL A   1      40.564  35.494  36.972  1.00  0.00     0.010 A 
ATOM     85  C   UNL A   1      39.089  33.976  38.161  1.00  0.00     0.010 A 
ATOM     86  C   UNL A   1      40.406  36.441  37.986  1.00  0.00     0.020 A 
ATOM     87  C   UNL A   1      38.914  34.928  39.168  1.00  0.00     0.020 A 
ATOM     88  C   UNL A   1      39.586  36.150  39.081  1.00  0.00     0.054 A 
BRANCH  88  89
ATOM     89  S   UNL A   1      39.362  37.406  40.370  1.00  0.00     0.124 S 
ATOM     90  O   UNL A   1      38.539  38.400  39.685  1.00  0.00    -0.237 OA
ATOM     91  O   UNL A   1      38.693  36.663  41.436  1.00  0.00    -0.237 OA
ATOM     92  O   UNL A   1      40.726  37.830  40.678  1.00  0.00    -0.744 OA
ENDBRANCH  88  89
ENDBRANCH  62  83
ENDBRANCH  36  37
ENDBRANCH  29  31
ENDBRANCH  28  29
ENDBRANCH  27  28
ENDBRANCH  26  27
ENDBRANCH   1  26
TORSDOF 20
ENDMDL
MODEL 3
REMARK VINA RESULT:     -10.2      3.574      8.569
REMARK SMILES O=C(CC1(CC(=O)OCCOC(=O)c2ccc(-c3c4nc(c(-c5ccc(S(=O)(=O)[O-])cc5)c5ccc([nH]5)c(-c5ccc(S(=O)(=O)[O-])cc5)c5nc(c(-c6ccc(S(=O)(=O)[O-])cc6)c6ccc3[nH]6)C=C5)C=C4)cc2)CCCC1)NNc1ccc([N+](=O)[O-])cc1
REMARK SMILES IDX 8 1 6 2 7 3 5 4 4 5 74 6 77 7 75 8 76 9 3 10 2 11 1 12 78 13
REMARK SMILES IDX 79 15 80 17 81 18 88 19 82 20 87 21 83 22 84 23 85 24 86 25
REMARK SMILES IDX 9 26 10 27 11 28 12 29 13 30 14 31 15 32 73 33 16 34 72 35
REMARK SMILES IDX 17 36 18 37 19 38 66 39 20 40 71 41 65 42 67 43 21 44 70 45
REMARK SMILES IDX 64 46 63 47 22 49 52 50 33 51 51 52 34 53 37 54 50 55 68 56
REMARK SMILES IDX 35 57 36 58 49 60 69 61 38 62 23 63 24 64 32 65 25 66 31 67
REMARK SMILES IDX 26 68 27 69 28 70 29 71 30 72 53 73 54 74 62 75 55 76 61 77
REMARK SMILES IDX 56 78 57 79 58 80 59 81 60 82 39 83 40 84 48 85 41 86 47 87
REMARK SMILES IDX 42 88 43 89 44 90 45 91 46 92
REMARK H PARENT 78 14 79 16 67 48 37 59
REMARK Flexibility Score: inf
ROOT
ATOM      1  O   UNL A   1      34.007  27.835  25.191  1.00  0.00    -0.462 OA
ENDROOT
BRANCH   1   2
ATOM      2  C   UNL A   1      33.690  26.781  24.398  1.00  0.00     0.306 C 
ATOM      3  O   UNL A   1      33.113  26.883  23.319  1.00  0.00    -0.252 OA
BRANCH   2   4
ATOM      4  C   UNL A   1      34.069  25.415  24.937  1.00  0.00     0.130 C 
BRANCH   4   5
ATOM      5  C   UNL A   1      33.037  24.458  25.598  1.00  0.00    -0.010 C 
ATOM      6  C   UNL A   1      33.820  23.499  26.539  1.00  0.00     0.008 C 
ATOM      7  C   UNL A   1      32.474  23.425  24.602  1.00  0.00     0.008 C 
ATOM      8  C   UNL A   1      34.475  22.469  25.623  1.00  0.00     0.001 C 
ATOM      9  C   UNL A   1      33.591  22.405  24.380  1.00  0.00     0.001 C 
BRANCH   5  10
ATOM     10  C   UNL A   1      31.999  25.240  26.445  1.00  0.00     0.109 C 
BRANCH  10  11
ATOM     11  C   UNL A   1      30.577  25.254  25.907  1.00  0.00     0.238 C 
ATOM     12  O   UNL A   1      29.611  24.909  26.583  1.00  0.00    -0.273 OA
ATOM     13  N   UNL A   1      30.506  25.677  24.596  1.00  0.00    -0.270 N 
ATOM     14  H   UNL A   1      31.329  25.864  24.089  1.00  0.00     0.191 HD
BRANCH  13  15
ATOM     15  N   UNL A   1      29.265  25.838  24.001  1.00  0.00    -0.299 N 
ATOM     16  H   UNL A   1      28.682  25.067  23.812  1.00  0.00     0.188 HD
BRANCH  15  17
ATOM     17  C   UNL A   1      28.880  27.141  23.682  1.00  0.00     0.055 A 
ATOM     18  C   UNL A   1      29.856  28.092  23.358  1.00  0.00     0.034 A 
ATOM     19  C   UNL A   1      27.531  27.524  23.625  1.00  0.00     0.034 A 
ATOM     20  C   UNL A   1      29.501  29.391  22.975  1.00  0.00     0.088 A 
ATOM     21  C   UNL A   1      27.158  28.819  23.250  1.00  0.00     0.088 A 
ATOM     22  C   UNL A   1      28.150  29.749  22.921  1.00  0.00     0.269 A 
BRANCH  22  23
ATOM     23  N   UNL A   1      27.767  31.104  22.510  1.00  0.00     0.062 N 
ATOM     24  O   UNL A   1      28.139  31.496  21.394  1.00  0.00    -0.258 OA
ATOM     25  O   UNL A   1      27.092  31.778  23.301  1.00  0.00    -0.258 OA
ENDBRANCH  22  23
ENDBRANCH  15  17
ENDBRANCH  13  15
ENDBRANCH  10  11
ENDBRANCH   5  10
ENDBRANCH   4   5
ENDBRANCH   2   4
ENDBRANCH   1   2
BRANCH   1  26
ATOM     26  C   UNL A   1      33.235  29.034  24.935  1.00  0.00     0.274 C 
BRANCH  26  27
ATOM     27  C   UNL A   1      32.792  29.724  26.223  1.00  0.00     0.275 C 
BRANCH  27  28
ATOM     28  O   UNL A   1      33.827  29.662  27.218  1.00  0.00    -0.458 OA
BRANCH  28  29
ATOM     29  C   UNL A   1      34.338  30.859  27.584  1.00  0.00     0.338 C 
ATOM     30  O   UNL A   1      33.851  31.957  27.382  1.00  0.00    -0.246 OA
BRANCH  29  31
ATOM     31  C   UNL A   1      35.574  30.662  28.349  1.00  0.00     0.060 A 
ATOM     32  C   UNL A   1      36.663  31.506  28.119  1.00  0.00     0.016 A 
ATOM     33  C   UNL A   1      35.685  29.569  29.206  1.00  0.00     0.016 A 
ATOM     34  C   UNL A   1      37.886  31.240  28.730  1.00  0.00     0.010 A 
ATOM     35  C   UNL A   1      36.899  29.333  29.855  1.00  0.00     0.010 A 
ATOM     36  C   UNL A   1      38.011  30.156  29.609  1.00  0.00    -0.014 A 
BRANCH  36  37
ATOM     37  C   UNL A   1      39.302  29.877  30.281  1.00  0.00     0.031 A 
ATOM     38  C   UNL A   1      40.199  28.786  29.769  1.00  0.00     0.074 A 
ATOM     39  C   UNL A   1      39.650  30.588  31.370  1.00  0.00     0.049 A 
ATOM     40  N   UNL A   1      41.288  28.297  30.303  1.00  0.00    -0.248 NA
ATOM     41  C   UNL A   1      39.819  28.160  28.492  1.00  0.00     0.031 C 
ATOM     42  C   UNL A   1      38.877  31.693  31.942  1.00  0.00     0.029 A 
ATOM     43  N   UNL A   1      40.736  30.476  32.199  1.00  0.00    -0.354 N 
ATOM     44  C   UNL A   1      41.706  27.283  29.448  1.00  0.00     0.074 A 
ATOM     45  C   UNL A   1      40.751  27.226  28.362  1.00  0.00     0.031 C 
ATOM     46  C   UNL A   1      39.515  32.160  33.026  1.00  0.00     0.029 A 
ATOM     47  C   UNL A   1      40.708  31.352  33.257  1.00  0.00     0.049 A 
ATOM     48  H   UNL A   1      41.465  29.832  32.049  1.00  0.00     0.167 HD
ATOM     49  C   UNL A   1      42.785  26.472  29.565  1.00  0.00     0.031 A 
ATOM     50  C   UNL A   1      41.529  31.469  34.318  1.00  0.00     0.031 A 
ATOM     51  C   UNL A   1      43.733  26.539  30.647  1.00  0.00     0.049 A 
ATOM     52  C   UNL A   1      42.697  30.533  34.445  1.00  0.00     0.074 A 
ATOM     53  C   UNL A   1      44.862  25.764  30.853  1.00  0.00     0.029 A 
ATOM     54  N   UNL A   1      43.664  27.435  31.703  1.00  0.00    -0.354 N 
ATOM     55  N   UNL A   1      43.066  29.566  33.641  1.00  0.00    -0.248 NA
ATOM     56  C   UNL A   1      43.554  30.701  35.626  1.00  0.00     0.031 C 
ATOM     57  C   UNL A   1      45.456  26.171  32.053  1.00  0.00     0.029 A 
ATOM     58  C   UNL A   1      44.722  27.225  32.571  1.00  0.00     0.049 A 
ATOM     59  H   UNL A   1      42.966  28.119  31.819  1.00  0.00     0.167 HD
ATOM     60  C   UNL A   1      44.209  29.017  34.211  1.00  0.00     0.074 A 
ATOM     61  C   UNL A   1      44.476  29.769  35.420  1.00  0.00     0.031 C 
ATOM     62  C   UNL A   1      44.967  27.983  33.771  1.00  0.00     0.031 A 
BRANCH  49  63
ATOM     63  C   UNL A   1      42.973  25.414  28.513  1.00  0.00    -0.014 A 
ATOM     64  C   UNL A   1      42.342  24.162  28.618  1.00  0.00     0.010 A 
ATOM     65  C   UNL A   1      43.769  25.689  27.387  1.00  0.00     0.010 A 
ATOM     66  C   UNL A   1      42.536  23.189  27.632  1.00  0.00     0.020 A 
ATOM     67  C   UNL A   1      43.949  24.727  26.389  1.00  0.00     0.020 A 
ATOM     68  C   UNL A   1      43.346  23.475  26.528  1.00  0.00     0.054 A 
BRANCH  68  69
ATOM     69  S   UNL A   1      43.574  22.203  25.254  1.00  0.00     0.124 S 
ATOM     70  O   UNL A   1      44.933  21.743  25.531  1.00  0.00    -0.237 OA
ATOM     71  O   UNL A   1      42.514  21.246  25.558  1.00  0.00    -0.237 OA
ATOM     72  O   UNL A   1      43.407  22.935  24.001  1.00  0.00    -0.744 OA
ENDBRANCH  68  69
ENDBRANCH  49  63
BRANCH  50  73
ATOM     73  C   UNL A   1      41.249  32.496  35.353  1.00  0.00    -0.014 A 
ATOM     74  C   UNL A   1      41.830  33.772  35.267  1.00  0.00     0.010 A 
ATOM     75  C   UNL A   1      40.365  32.213  36.410  1.00  0.00     0.010 A 
ATOM     76  C   UNL A   1      41.533  34.749  36.223  1.00  0.00     0.020 A 
ATOM     77  C   UNL A   1      40.048  33.193  37.354  1.00  0.00     0.020 A 
ATOM     78  C   UNL A   1      40.641  34.454  37.259  1.00  0.00     0.054 A 
BRANCH  78  79
ATOM     79  S   UNL A   1      40.206  35.756  38.445  1.00  0.00     0.124 S 
ATOM     80  O   UNL A   1      39.762  36.831  37.565  1.00  0.00    -0.237 OA
ATOM     81  O   UNL A   1      39.162  35.122  39.247  1.00  0.00    -0.237 OA
ATOM     82  O   UNL A   1      41.460  36.000  39.154  1.00  0.00    -0.744 OA
ENDBRANCH  78  79
ENDBRANCH  50  73
BRANCH  62  83
ATOM     83  C   UNL A   1      46.173  27.625  34.593  1.00  0.00    -0.014 A 
ATOM     84  C   UNL A   1      47.413  28.246  34.370  1.00  0.00     0.010 A 
ATOM     85  C   UNL A   1      46.050  26.681  35.628  1.00  0.00     0.010 A 
ATOM     86  C   UNL A   1      48.521  27.910  35.151  1.00  0.00     0.020 A 
ATOM     87  C   UNL A   1      47.151  26.355  36.424  1.00  0.00     0.020 A 
ATOM     88  C   UNL A   1      48.384  26.961  36.171  1.00  0.00     0.054 A 
BRANCH  88  89
ATOM     89  S   UNL A   1      49.823  26.563  37.200  1.00  0.00     0.124 S 
ATOM     90  O   UNL A   1      49.553  25.178  37.576  1.00  0.00    -0.237 OA
ATOM     91  O   UNL A   1      50.943  26.759  36.282  1.00  0.00    -0.237 OA
ATOM     92  O   UNL A   1      49.745  27.533  38.291  1.00  0.00    -0.744 OA
ENDBRANCH  88  89
ENDBRANCH  62  83
ENDBRANCH  36  37
ENDBRANCH  29  31
ENDBRANCH  28  29
ENDBRANCH  27  28
ENDBRANCH  26  27
ENDBRANCH   1  26
TORSDOF 20
ENDMDL
