MODEL 1
REMARK VINA RESULT:     -11.3      0.000      0.000
REMARK SMILES CC[C@]1(C(=O)OCCOC(=O)c2ccc(-c3c4nc(c(-c5ccc(S(=O)(=O)[O-])cc5)c5ccc([nH]5)c(-c5ccc(S(=O)(=O)[O-])cc5)c5nc(c(-c6ccc(S(=O)(=O)[O-])cc6)c6ccc3[nH]6)C=C5)C=C4)cc2)CCC[N@@H+]([C@@H]2CCC[C@H](S(C)(=O)=O)C2)C1
REMARK SMILES IDX 8 1 7 2 6 3 4 4 5 5 3 6 72 7 86 8 73 9 75 10 74 11 2 13 1 14
REMARK SMILES IDX 76 15 77 16 85 17 78 18 80 19 79 20 81 21 82 22 83 23 84 24
REMARK SMILES IDX 9 25 10 26 11 27 12 28 13 29 71 30 14 31 70 32 15 33 16 34
REMARK SMILES IDX 17 35 64 36 18 37 69 38 63 39 65 40 19 41 68 42 62 43 61 44
REMARK SMILES IDX 20 46 50 47 31 48 49 49 32 50 35 51 48 52 66 53 33 54 34 55
REMARK SMILES IDX 47 57 67 58 36 59 21 60 22 61 30 62 23 63 29 64 24 65 25 66
REMARK SMILES IDX 26 67 27 68 28 69 51 70 52 71 60 72 53 73 59 74 54 75 55 76
REMARK SMILES IDX 56 77 57 78 58 79 37 80 38 81 46 82 39 83 45 84 40 85 41 86
REMARK SMILES IDX 42 87 43 88 44 89
REMARK H PARENT 75 12 65 45 35 56
REMARK Flexibility Score: inf
ROOT
ATOM      1  C   UNL A   1      34.181  29.808  27.252  1.00  0.00     0.275 C 
ENDROOT
BRANCH   1   2
ATOM      2  C   UNL A   1      33.220  28.659  26.964  1.00  0.00     0.274 C 
BRANCH   2   3
ATOM      3  O   UNL A   1      33.782  27.798  25.951  1.00  0.00    -0.461 OA
BRANCH   3   4
ATOM      4  C   UNL A   1      33.326  27.954  24.678  1.00  0.00     0.317 C 
ATOM      5  O   UNL A   1      33.363  29.019  24.075  1.00  0.00    -0.251 OA
BRANCH   4   6
ATOM      6  C   UNL A   1      32.658  26.679  24.131  1.00  0.00     0.117 C 
ATOM      7  C   UNL A   1      32.607  26.682  22.576  1.00  0.00     0.030 C 
ATOM      8  C   UNL A   1      33.581  25.534  24.580  1.00  0.00     0.281 C 
ATOM      9  C   UNL A   1      32.261  25.310  22.005  1.00  0.00     0.063 C 
ATOM     10  N   UNL A   1      33.109  24.235  24.072  1.00  0.00    -0.332 N 
ATOM     11  C   UNL A   1      33.140  24.206  22.604  1.00  0.00     0.262 C 
ATOM     12  H   UNL A   1      32.123  24.114  24.304  1.00  0.00     0.348 HD
BRANCH   6  13
ATOM     13  C   UNL A   1      31.203  26.472  24.667  1.00  0.00     0.021 C 
ATOM     14  C   UNL A   1      31.038  25.859  26.054  1.00  0.00     0.005 C 
ENDBRANCH   6  13
BRANCH  10  15
ATOM     15  C   UNL A   1      33.747  23.105  24.766  1.00  0.00     0.185 C 
ATOM     16  C   UNL A   1      35.276  23.048  24.618  1.00  0.00     0.065 C 
ATOM     17  C   UNL A   1      33.094  21.767  24.378  1.00  0.00     0.084 C 
ATOM     18  C   UNL A   1      35.860  21.877  25.400  1.00  0.00     0.007 C 
ATOM     19  C   UNL A   1      33.712  20.571  25.113  1.00  0.00     0.114 C 
ATOM     20  C   UNL A   1      35.237  20.556  24.967  1.00  0.00     0.020 C 
BRANCH  19  21
ATOM     21  S   UNL A   1      32.970  19.050  24.478  1.00  0.00     0.150 S 
ATOM     22  C   UNL A   1      34.336  17.939  24.254  1.00  0.00     0.158 C 
ATOM     23  O   UNL A   1      32.142  18.486  25.526  1.00  0.00    -0.229 OA
ATOM     24  O   UNL A   1      32.420  19.317  23.162  1.00  0.00    -0.229 OA
ENDBRANCH  19  21
ENDBRANCH  10  15
ENDBRANCH   4   6
ENDBRANCH   3   4
ENDBRANCH   2   3
ENDBRANCH   1   2
BRANCH   1  25
ATOM     25  O   UNL A   1      35.397  29.257  27.782  1.00  0.00    -0.458 OA
BRANCH  25  26
ATOM     26  C   UNL A   1      36.029  29.989  28.724  1.00  0.00     0.338 C 
ATOM     27  O   UNL A   1      35.525  30.749  29.539  1.00  0.00    -0.246 OA
BRANCH  26  28
ATOM     28  C   UNL A   1      37.470  29.701  28.650  1.00  0.00     0.060 A 
ATOM     29  C   UNL A   1      38.103  29.729  27.409  1.00  0.00     0.016 A 
ATOM     30  C   UNL A   1      38.182  29.328  29.786  1.00  0.00     0.016 A 
ATOM     31  C   UNL A   1      39.426  29.318  27.277  1.00  0.00     0.010 A 
ATOM     32  C   UNL A   1      39.539  29.008  29.668  1.00  0.00     0.010 A 
ATOM     33  C   UNL A   1      40.170  28.975  28.409  1.00  0.00    -0.014 A 
BRANCH  33  34
ATOM     34  C   UNL A   1      41.590  28.549  28.285  1.00  0.00     0.031 A 
ATOM     35  C   UNL A   1      42.685  29.577  28.395  1.00  0.00     0.074 A 
ATOM     36  C   UNL A   1      41.910  27.258  28.064  1.00  0.00     0.049 A 
ATOM     37  N   UNL A   1      43.948  29.476  28.070  1.00  0.00    -0.248 NA
ATOM     38  C   UNL A   1      42.305  30.894  28.933  1.00  0.00     0.031 C 
ATOM     39  C   UNL A   1      40.967  26.137  28.021  1.00  0.00     0.029 A 
ATOM     40  N   UNL A   1      43.129  26.669  27.827  1.00  0.00    -0.354 N 
ATOM     41  C   UNL A   1      44.497  30.733  28.300  1.00  0.00     0.074 A 
ATOM     42  C   UNL A   1      43.435  31.575  28.806  1.00  0.00     0.031 C 
ATOM     43  C   UNL A   1      41.642  25.001  27.787  1.00  0.00     0.029 A 
ATOM     44  C   UNL A   1      43.048  25.320  27.568  1.00  0.00     0.049 A 
ATOM     45  H   UNL A   1      43.980  27.165  27.841  1.00  0.00     0.167 HD
ATOM     46  C   UNL A   1      45.769  31.147  28.090  1.00  0.00     0.031 A 
ATOM     47  C   UNL A   1      43.979  24.448  27.138  1.00  0.00     0.031 A 
ATOM     48  C   UNL A   1      46.829  30.294  27.625  1.00  0.00     0.049 A 
ATOM     49  C   UNL A   1      45.367  24.945  26.842  1.00  0.00     0.074 A 
ATOM     50  C   UNL A   1      48.154  30.617  27.391  1.00  0.00     0.029 A 
ATOM     51  N   UNL A   1      46.688  28.946  27.336  1.00  0.00    -0.354 N 
ATOM     52  N   UNL A   1      45.860  26.151  27.000  1.00  0.00    -0.248 NA
ATOM     53  C   UNL A   1      46.315  23.973  26.282  1.00  0.00     0.031 C 
ATOM     54  C   UNL A   1      48.804  29.473  26.917  1.00  0.00     0.029 A 
ATOM     55  C   UNL A   1      47.895  28.428  26.899  1.00  0.00     0.049 A 
ATOM     56  H   UNL A   1      45.853  28.433  27.427  1.00  0.00     0.167 HD
ATOM     57  C   UNL A   1      47.177  26.079  26.563  1.00  0.00     0.074 A 
ATOM     58  C   UNL A   1      47.412  24.709  26.153  1.00  0.00     0.031 C 
ATOM     59  C   UNL A   1      48.107  27.062  26.499  1.00  0.00     0.031 A 
BRANCH  46  60
ATOM     60  C   UNL A   1      46.071  32.605  28.300  1.00  0.00    -0.014 A 
ATOM     61  C   UNL A   1      45.906  33.549  27.273  1.00  0.00     0.010 A 
ATOM     62  C   UNL A   1      46.492  33.038  29.572  1.00  0.00     0.010 A 
ATOM     63  C   UNL A   1      46.187  34.899  27.505  1.00  0.00     0.020 A 
ATOM     64  C   UNL A   1      46.754  34.389  29.814  1.00  0.00     0.020 A 
ATOM     65  C   UNL A   1      46.615  35.309  28.774  1.00  0.00     0.054 A 
BRANCH  65  66
ATOM     66  S   UNL A   1      46.954  37.069  29.059  1.00  0.00     0.124 S 
ATOM     67  O   UNL A   1      47.385  37.070  30.454  1.00  0.00    -0.237 OA
ATOM     68  O   UNL A   1      47.997  37.360  28.079  1.00  0.00    -0.237 OA
ATOM     69  O   UNL A   1      45.668  37.714  28.805  1.00  0.00    -0.744 OA
ENDBRANCH  65  66
ENDBRANCH  46  60
BRANCH  47  70
ATOM     70  C   UNL A   1      43.606  23.032  26.867  1.00  0.00    -0.014 A 
ATOM     71  C   UNL A   1      43.868  22.445  25.618  1.00  0.00     0.010 A 
ATOM     72  C   UNL A   1      42.981  22.262  27.866  1.00  0.00     0.010 A 
ATOM     73  C   UNL A   1      43.501  21.118  25.368  1.00  0.00     0.020 A 
ATOM     74  C   UNL A   1      42.638  20.929  27.631  1.00  0.00     0.020 A 
ATOM     75  C   UNL A   1      42.888  20.368  26.377  1.00  0.00     0.054 A 
BRANCH  75  76
ATOM     76  S   UNL A   1      42.461  18.635  26.054  1.00  0.00     0.124 S 
ATOM     77  O   UNL A   1      41.048  18.732  25.701  1.00  0.00    -0.237 OA
ATOM     78  O   UNL A   1      43.363  18.280  24.962  1.00  0.00    -0.237 OA
ATOM     79  O   UNL A   1      42.746  17.974  27.326  1.00  0.00    -0.744 OA
ENDBRANCH  75  76
ENDBRANCH  47  70
BRANCH  59  80
ATOM     80  C   UNL A   1      49.471  26.690  25.986  1.00  0.00    -0.014 A 
ATOM     81  C   UNL A   1      49.820  26.907  24.642  1.00  0.00     0.010 A 
ATOM     82  C   UNL A   1      50.435  26.184  26.878  1.00  0.00     0.010 A 
ATOM     83  C   UNL A   1      51.109  26.609  24.193  1.00  0.00     0.020 A 
ATOM     84  C   UNL A   1      51.730  25.904  26.436  1.00  0.00     0.020 A 
ATOM     85  C   UNL A   1      52.056  26.111  25.093  1.00  0.00     0.054 A 
BRANCH  85  86
ATOM     86  S   UNL A   1      53.742  25.791  24.503  1.00  0.00     0.124 S 
ATOM     87  O   UNL A   1      53.982  24.436  24.989  1.00  0.00    -0.237 OA
ATOM     88  O   UNL A   1      53.608  25.924  23.055  1.00  0.00    -0.237 OA
ATOM     89  O   UNL A   1      54.536  26.835  25.147  1.00  0.00    -0.744 OA
ENDBRANCH  85  86
ENDBRANCH  59  80
ENDBRANCH  33  34
ENDBRANCH  26  28
ENDBRANCH  25  26
ENDBRANCH   1  25
TORSDOF 17
ENDMDL
MODEL 2
REMARK VINA RESULT:     -11.2      1.731      2.293
REMARK SMILES CC[C@]1(C(=O)OCCOC(=O)c2ccc(-c3c4nc(c(-c5ccc(S(=O)(=O)[O-])cc5)c5ccc([nH]5)c(-c5ccc(S(=O)(=O)[O-])cc5)c5nc(c(-c6ccc(S(=O)(=O)[O-])cc6)c6ccc3[nH]6)C=C5)C=C4)cc2)CCC[N@@H+]([C@@H]2CCC[C@H](S(C)(=O)=O)C2)C1
REMARK SMILES IDX 8 1 7 2 6 3 4 4 5 5 3 6 72 7 86 8 73 9 75 10 74 11 2 13 1 14
REMARK SMILES IDX 76 15 77 16 85 17 78 18 80 19 79 20 81 21 82 22 83 23 84 24
REMARK SMILES IDX 9 25 10 26 11 27 12 28 13 29 71 30 14 31 70 32 15 33 16 34
REMARK SMILES IDX 17 35 64 36 18 37 69 38 63 39 65 40 19 41 68 42 62 43 61 44
REMARK SMILES IDX 20 46 50 47 31 48 49 49 32 50 35 51 48 52 66 53 33 54 34 55
REMARK SMILES IDX 47 57 67 58 36 59 21 60 22 61 30 62 23 63 29 64 24 65 25 66
REMARK SMILES IDX 26 67 27 68 28 69 51 70 52 71 60 72 53 73 59 74 54 75 55 76
REMARK SMILES IDX 56 77 57 78 58 79 37 80 38 81 46 82 39 83 45 84 40 85 41 86
REMARK SMILES IDX 42 87 43 88 44 89
REMARK H PARENT 75 12 65 45 35 56
REMARK Flexibility Score: inf
ROOT
ATOM      1  C   UNL A   1      32.762  28.993  27.423  1.00  0.00     0.275 C 
ENDROOT
BRANCH   1   2
ATOM      2  C   UNL A   1      32.325  28.610  26.013  1.00  0.00     0.274 C 
BRANCH   2   3
ATOM      3  O   UNL A   1      33.022  27.417  25.595  1.00  0.00    -0.461 OA
BRANCH   3   4
ATOM      4  C   UNL A   1      33.345  27.314  24.276  1.00  0.00     0.317 C 
ATOM      5  O   UNL A   1      33.899  28.206  23.647  1.00  0.00    -0.251 OA
BRANCH   4   6
ATOM      6  C   UNL A   1      32.833  26.007  23.645  1.00  0.00     0.117 C 
ATOM      7  C   UNL A   1      33.044  25.995  22.104  1.00  0.00     0.030 C 
ATOM      8  C   UNL A   1      33.714  24.907  24.259  1.00  0.00     0.281 C 
ATOM      9  C   UNL A   1      32.857  24.604  21.504  1.00  0.00     0.063 C 
ATOM     10  N   UNL A   1      33.389  23.584  23.700  1.00  0.00    -0.332 N 
ATOM     11  C   UNL A   1      33.668  23.545  22.259  1.00  0.00     0.262 C 
ATOM     12  H   UNL A   1      32.384  23.422  23.765  1.00  0.00     0.348 HD
BRANCH   6  13
ATOM     13  C   UNL A   1      31.318  25.740  23.933  1.00  0.00     0.021 C 
ATOM     14  C   UNL A   1      30.302  26.722  23.359  1.00  0.00     0.005 C 
ENDBRANCH   6  13
BRANCH  10  15
ATOM     15  C   UNL A   1      33.949  22.489  24.508  1.00  0.00     0.185 C 
ATOM     16  C   UNL A   1      35.484  22.410  24.498  1.00  0.00     0.065 C 
ATOM     17  C   UNL A   1      33.313  21.138  24.139  1.00  0.00     0.084 C 
ATOM     18  C   UNL A   1      35.981  21.280  25.391  1.00  0.00     0.007 C 
ATOM     19  C   UNL A   1      33.848  19.980  24.990  1.00  0.00     0.114 C 
ATOM     20  C   UNL A   1      35.380  19.942  24.979  1.00  0.00     0.020 C 
BRANCH  19  21
ATOM     21  S   UNL A   1      33.143  18.432  24.377  1.00  0.00     0.150 S 
ATOM     22  C   UNL A   1      32.233  18.893  22.924  1.00  0.00     0.158 C 
ATOM     23  O   UNL A   1      34.235  17.588  23.933  1.00  0.00    -0.229 OA
ATOM     24  O   UNL A   1      32.177  17.947  25.346  1.00  0.00    -0.229 OA
ENDBRANCH  19  21
ENDBRANCH  10  15
ENDBRANCH   4   6
ENDBRANCH   3   4
ENDBRANCH   2   3
ENDBRANCH   1   2
BRANCH   1  25
ATOM     25  O   UNL A   1      34.194  29.115  27.432  1.00  0.00    -0.458 OA
BRANCH  25  26
ATOM     26  C   UNL A   1      34.702  30.193  28.067  1.00  0.00     0.338 C 
ATOM     27  O   UNL A   1      34.104  31.202  28.416  1.00  0.00    -0.246 OA
BRANCH  26  28
ATOM     28  C   UNL A   1      36.131  29.954  28.323  1.00  0.00     0.060 A 
ATOM     29  C   UNL A   1      37.034  30.066  27.269  1.00  0.00     0.016 A 
ATOM     30  C   UNL A   1      36.572  29.545  29.578  1.00  0.00     0.016 A 
ATOM     31  C   UNL A   1      38.368  29.704  27.435  1.00  0.00     0.010 A 
ATOM     32  C   UNL A   1      37.931  29.274  29.770  1.00  0.00     0.010 A 
ATOM     33  C   UNL A   1      38.840  29.326  28.695  1.00  0.00    -0.014 A 
BRANCH  33  34
ATOM     34  C   UNL A   1      40.267  28.952  28.891  1.00  0.00     0.031 A 
ATOM     35  C   UNL A   1      41.247  29.990  29.369  1.00  0.00     0.074 A 
ATOM     36  C   UNL A   1      40.697  27.699  28.636  1.00  0.00     0.049 A 
ATOM     37  N   UNL A   1      42.554  29.956  29.362  1.00  0.00    -0.248 NA
ATOM     38  C   UNL A   1      40.680  31.233  29.917  1.00  0.00     0.031 C 
ATOM     39  C   UNL A   1      39.851  26.566  28.251  1.00  0.00     0.029 A 
ATOM     40  N   UNL A   1      41.964  27.170  28.657  1.00  0.00    -0.354 N 
ATOM     41  C   UNL A   1      42.965  31.195  29.841  1.00  0.00     0.074 A 
ATOM     42  C   UNL A   1      41.770  31.952  30.143  1.00  0.00     0.031 C 
ATOM     43  C   UNL A   1      40.620  25.478  28.087  1.00  0.00     0.029 A 
ATOM     44  C   UNL A   1      42.018  25.854  28.259  1.00  0.00     0.049 A 
ATOM     45  H   UNL A   1      42.759  27.683  28.931  1.00  0.00     0.167 HD
ATOM     46  C   UNL A   1      44.227  31.661  29.997  1.00  0.00     0.031 A 
ATOM     47  C   UNL A   1      43.070  25.055  27.995  1.00  0.00     0.031 A 
ATOM     48  C   UNL A   1      45.411  30.888  29.734  1.00  0.00     0.049 A 
ATOM     49  C   UNL A   1      44.461  25.616  28.106  1.00  0.00     0.074 A 
ATOM     50  C   UNL A   1      46.735  31.268  29.871  1.00  0.00     0.029 A 
ATOM     51  N   UNL A   1      45.414  29.575  29.292  1.00  0.00    -0.354 N 
ATOM     52  N   UNL A   1      44.838  26.810  28.495  1.00  0.00    -0.248 NA
ATOM     53  C   UNL A   1      45.566  24.732  27.711  1.00  0.00     0.031 C 
ATOM     54  C   UNL A   1      47.539  30.197  29.469  1.00  0.00     0.029 A 
ATOM     55  C   UNL A   1      46.716  29.137  29.125  1.00  0.00     0.049 A 
ATOM     56  H   UNL A   1      44.610  29.034  29.122  1.00  0.00     0.167 HD
ATOM     57  C   UNL A   1      46.223  26.818  28.397  1.00  0.00     0.074 A 
ATOM     58  C   UNL A   1      46.621  25.506  27.932  1.00  0.00     0.031 C 
ATOM     59  C   UNL A   1      47.090  27.826  28.662  1.00  0.00     0.031 A 
BRANCH  46  60
ATOM     60  C   UNL A   1      44.393  33.096  30.413  1.00  0.00    -0.014 A 
ATOM     61  C   UNL A   1      44.352  34.146  29.481  1.00  0.00     0.010 A 
ATOM     62  C   UNL A   1      44.555  33.396  31.779  1.00  0.00     0.010 A 
ATOM     63  C   UNL A   1      44.501  35.471  29.904  1.00  0.00     0.020 A 
ATOM     64  C   UNL A   1      44.684  34.719  32.208  1.00  0.00     0.020 A 
ATOM     65  C   UNL A   1      44.672  35.748  31.265  1.00  0.00     0.054 A 
BRANCH  65  66
ATOM     66  S   UNL A   1      44.842  37.476  31.794  1.00  0.00     0.124 S 
ATOM     67  O   UNL A   1      44.777  38.187  30.519  1.00  0.00    -0.237 OA
ATOM     68  O   UNL A   1      43.691  37.659  32.674  1.00  0.00    -0.237 OA
ATOM     69  O   UNL A   1      46.142  37.508  32.459  1.00  0.00    -0.744 OA
ENDBRANCH  65  66
ENDBRANCH  46  60
BRANCH  47  70
ATOM     70  C   UNL A   1      42.848  23.666  27.507  1.00  0.00    -0.014 A 
ATOM     71  C   UNL A   1      42.945  23.360  26.138  1.00  0.00     0.010 A 
ATOM     72  C   UNL A   1      42.533  22.639  28.416  1.00  0.00     0.010 A 
ATOM     73  C   UNL A   1      42.720  22.056  25.687  1.00  0.00     0.020 A 
ATOM     74  C   UNL A   1      42.335  21.329  27.973  1.00  0.00     0.020 A 
ATOM     75  C   UNL A   1      42.416  21.048  26.608  1.00  0.00     0.054 A 
BRANCH  75  76
ATOM     76  S   UNL A   1      42.174  19.351  26.014  1.00  0.00     0.124 S 
ATOM     77  O   UNL A   1      42.591  18.563  27.169  1.00  0.00    -0.237 OA
ATOM     78  O   UNL A   1      40.746  19.319  25.708  1.00  0.00    -0.237 OA
ATOM     79  O   UNL A   1      43.053  19.271  24.849  1.00  0.00    -0.744 OA
ENDBRANCH  75  76
ENDBRANCH  47  70
BRANCH  59  80
ATOM     80  C   UNL A   1      48.554  27.545  28.475  1.00  0.00    -0.014 A 
ATOM     81  C   UNL A   1      49.308  26.938  29.495  1.00  0.00     0.010 A 
ATOM     82  C   UNL A   1      49.165  27.827  27.240  1.00  0.00     0.010 A 
ATOM     83  C   UNL A   1      50.655  26.630  29.287  1.00  0.00     0.020 A 
ATOM     84  C   UNL A   1      50.506  27.503  27.022  1.00  0.00     0.020 A 
ATOM     85  C   UNL A   1      51.245  26.914  28.051  1.00  0.00     0.054 A 
BRANCH  85  86
ATOM     86  S   UNL A   1      52.978  26.448  27.780  1.00  0.00     0.124 S 
ATOM     87  O   UNL A   1      52.844  25.218  27.007  1.00  0.00    -0.237 OA
ATOM     88  O   UNL A   1      53.510  27.595  27.048  1.00  0.00    -0.237 OA
ATOM     89  O   UNL A   1      53.506  26.282  29.133  1.00  0.00    -0.744 OA
ENDBRANCH  85  86
ENDBRANCH  59  80
ENDBRANCH  33  34
ENDBRANCH  26  28
ENDBRANCH  25  26
ENDBRANCH   1  25
TORSDOF 17
ENDMDL
MODEL 3
REMARK VINA RESULT:     -11.2      2.036      2.746
REMARK SMILES CC[C@]1(C(=O)OCCOC(=O)c2ccc(-c3c4nc(c(-c5ccc(S(=O)(=O)[O-])cc5)c5ccc([nH]5)c(-c5ccc(S(=O)(=O)[O-])cc5)c5nc(c(-c6ccc(S(=O)(=O)[O-])cc6)c6ccc3[nH]6)C=C5)C=C4)cc2)CCC[N@@H+]([C@@H]2CCC[C@H](S(C)(=O)=O)C2)C1
REMARK SMILES IDX 8 1 7 2 6 3 4 4 5 5 3 6 72 7 86 8 73 9 75 10 74 11 2 13 1 14
REMARK SMILES IDX 76 15 77 16 85 17 78 18 80 19 79 20 81 21 82 22 83 23 84 24
REMARK SMILES IDX 9 25 10 26 11 27 12 28 13 29 71 30 14 31 70 32 15 33 16 34
REMARK SMILES IDX 17 35 64 36 18 37 69 38 63 39 65 40 19 41 68 42 62 43 61 44
REMARK SMILES IDX 20 46 50 47 31 48 49 49 32 50 35 51 48 52 66 53 33 54 34 55
REMARK SMILES IDX 47 57 67 58 36 59 21 60 22 61 30 62 23 63 29 64 24 65 25 66
REMARK SMILES IDX 26 67 27 68 28 69 51 70 52 71 60 72 53 73 59 74 54 75 55 76
REMARK SMILES IDX 56 77 57 78 58 79 37 80 38 81 46 82 39 83 45 84 40 85 41 86
REMARK SMILES IDX 42 87 43 88 44 89
REMARK H PARENT 75 12 65 45 35 56
REMARK Flexibility Score: inf
ROOT
ATOM      1  C   UNL A   1      33.045  30.406  26.898  1.00  0.00     0.275 C 
ENDROOT
BRANCH   1   2
ATOM      2  C   UNL A   1      32.016  29.332  27.234  1.00  0.00     0.274 C 
BRANCH   2   3
ATOM      3  O   UNL A   1      31.410  28.843  26.019  1.00  0.00    -0.461 OA
BRANCH   3   4
ATOM      4  C   UNL A   1      31.388  27.494  25.833  1.00  0.00     0.317 C 
ATOM      5  O   UNL A   1      31.285  26.689  26.750  1.00  0.00    -0.251 OA
BRANCH   4   6
ATOM      6  C   UNL A   1      31.622  27.097  24.364  1.00  0.00     0.117 C 
ATOM      7  C   UNL A   1      32.572  28.097  23.646  1.00  0.00     0.030 C 
ATOM      8  C   UNL A   1      32.325  25.732  24.437  1.00  0.00     0.281 C 
ATOM      9  C   UNL A   1      33.080  27.557  22.312  1.00  0.00     0.063 C 
ATOM     10  N   UNL A   1      32.681  25.239  23.095  1.00  0.00    -0.332 N 
ATOM     11  C   UNL A   1      33.645  26.139  22.449  1.00  0.00     0.262 C 
ATOM     12  H   UNL A   1      31.862  25.273  22.490  1.00  0.00     0.348 HD
BRANCH   6  13
ATOM     13  C   UNL A   1      30.297  27.003  23.537  1.00  0.00     0.021 C 
ATOM     14  C   UNL A   1      29.636  28.307  23.102  1.00  0.00     0.005 C 
ENDBRANCH   6  13
BRANCH  10  15
ATOM     15  C   UNL A   1      33.021  23.808  23.104  1.00  0.00     0.185 C 
ATOM     16  C   UNL A   1      31.807  22.864  23.122  1.00  0.00     0.065 C 
ATOM     17  C   UNL A   1      34.012  23.473  24.231  1.00  0.00     0.084 C 
ATOM     18  C   UNL A   1      32.246  21.405  23.086  1.00  0.00     0.007 C 
ATOM     19  C   UNL A   1      34.416  21.993  24.244  1.00  0.00     0.114 C 
ATOM     20  C   UNL A   1      33.187  21.080  24.239  1.00  0.00     0.020 C 
BRANCH  19  21
ATOM     21  S   UNL A   1      35.463  21.688  25.686  1.00  0.00     0.150 S 
ATOM     22  C   UNL A   1      36.092  23.285  26.136  1.00  0.00     0.158 C 
ATOM     23  O   UNL A   1      34.609  21.255  26.775  1.00  0.00    -0.229 OA
ATOM     24  O   UNL A   1      36.600  20.885  25.273  1.00  0.00    -0.229 OA
ENDBRANCH  19  21
ENDBRANCH  10  15
ENDBRANCH   4   6
ENDBRANCH   3   4
ENDBRANCH   2   3
ENDBRANCH   1   2
BRANCH   1  25
ATOM     25  O   UNL A   1      34.342  29.925  27.287  1.00  0.00    -0.458 OA
BRANCH  25  26
ATOM     26  C   UNL A   1      34.951  30.586  28.294  1.00  0.00     0.338 C 
ATOM     27  O   UNL A   1      34.473  31.454  29.012  1.00  0.00    -0.246 OA
BRANCH  26  28
ATOM     28  C   UNL A   1      36.320  30.065  28.435  1.00  0.00     0.060 A 
ATOM     29  C   UNL A   1      36.749  29.621  29.684  1.00  0.00     0.016 A 
ATOM     30  C   UNL A   1      37.205  30.085  27.361  1.00  0.00     0.016 A 
ATOM     31  C   UNL A   1      38.078  29.261  29.892  1.00  0.00     0.010 A 
ATOM     32  C   UNL A   1      38.515  29.632  27.547  1.00  0.00     0.010 A 
ATOM     33  C   UNL A   1      38.974  29.239  28.820  1.00  0.00    -0.014 A 
BRANCH  33  34
ATOM     34  C   UNL A   1      40.393  28.841  29.024  1.00  0.00     0.031 A 
ATOM     35  C   UNL A   1      41.384  29.857  29.525  1.00  0.00     0.074 A 
ATOM     36  C   UNL A   1      40.806  27.585  28.757  1.00  0.00     0.049 A 
ATOM     37  N   UNL A   1      42.690  29.804  29.531  1.00  0.00    -0.248 NA
ATOM     38  C   UNL A   1      40.830  31.102  30.084  1.00  0.00     0.031 C 
ATOM     39  C   UNL A   1      39.948  26.470  28.349  1.00  0.00     0.029 A 
ATOM     40  N   UNL A   1      42.066  27.036  28.783  1.00  0.00    -0.354 N 
ATOM     41  C   UNL A   1      43.115  31.031  30.029  1.00  0.00     0.074 A 
ATOM     42  C   UNL A   1      41.928  31.801  30.330  1.00  0.00     0.031 C 
ATOM     43  C   UNL A   1      40.701  25.373  28.179  1.00  0.00     0.029 A 
ATOM     44  C   UNL A   1      42.103  25.725  28.368  1.00  0.00     0.049 A 
ATOM     45  H   UNL A   1      42.865  27.534  29.071  1.00  0.00     0.167 HD
ATOM     46  C   UNL A   1      44.382  31.475  30.204  1.00  0.00     0.031 A 
ATOM     47  C   UNL A   1      43.146  24.914  28.104  1.00  0.00     0.031 A 
ATOM     48  C   UNL A   1      45.557  30.688  29.942  1.00  0.00     0.049 A 
ATOM     49  C   UNL A   1      44.544  25.452  28.235  1.00  0.00     0.074 A 
ATOM     50  C   UNL A   1      46.885  31.047  30.096  1.00  0.00     0.029 A 
ATOM     51  N   UNL A   1      45.545  29.381  29.482  1.00  0.00    -0.354 N 
ATOM     52  N   UNL A   1      44.935  26.636  28.644  1.00  0.00    -0.248 NA
ATOM     53  C   UNL A   1      45.640  24.557  27.840  1.00  0.00     0.031 C 
ATOM     54  C   UNL A   1      47.677  29.969  29.687  1.00  0.00     0.029 A 
ATOM     55  C   UNL A   1      46.842  28.925  29.322  1.00  0.00     0.049 A 
ATOM     56  H   UNL A   1      44.734  28.855  29.298  1.00  0.00     0.167 HD
ATOM     57  C   UNL A   1      46.321  26.624  28.559  1.00  0.00     0.074 A 
ATOM     58  C   UNL A   1      46.704  25.312  28.080  1.00  0.00     0.031 C 
ATOM     59  C   UNL A   1      47.200  27.615  28.846  1.00  0.00     0.031 A 
BRANCH  46  60
ATOM     60  C   UNL A   1      44.566  32.902  30.640  1.00  0.00    -0.014 A 
ATOM     61  C   UNL A   1      44.626  33.957  29.714  1.00  0.00     0.010 A 
ATOM     62  C   UNL A   1      44.640  33.191  32.016  1.00  0.00     0.010 A 
ATOM     63  C   UNL A   1      44.788  35.274  30.155  1.00  0.00     0.020 A 
ATOM     64  C   UNL A   1      44.782  34.507  32.462  1.00  0.00     0.020 A 
ATOM     65  C   UNL A   1      44.871  35.540  31.528  1.00  0.00     0.054 A 
BRANCH  65  66
ATOM     66  S   UNL A   1      45.059  37.258  32.078  1.00  0.00     0.124 S 
ATOM     67  O   UNL A   1      43.723  37.798  31.840  1.00  0.00    -0.237 OA
ATOM     68  O   UNL A   1      45.434  37.108  33.482  1.00  0.00    -0.237 OA
ATOM     69  O   UNL A   1      46.109  37.786  31.210  1.00  0.00    -0.744 OA
ENDBRANCH  65  66
ENDBRANCH  46  60
BRANCH  47  70
ATOM     70  C   UNL A   1      42.908  23.535  27.595  1.00  0.00    -0.014 A 
ATOM     71  C   UNL A   1      42.492  22.510  28.462  1.00  0.00     0.010 A 
ATOM     72  C   UNL A   1      43.099  23.241  26.232  1.00  0.00     0.010 A 
ATOM     73  C   UNL A   1      42.285  21.214  27.978  1.00  0.00     0.020 A 
ATOM     74  C   UNL A   1      42.867  21.956  25.739  1.00  0.00     0.020 A 
ATOM     75  C   UNL A   1      42.473  20.945  26.619  1.00  0.00     0.054 A 
BRANCH  75  76
ATOM     76  S   UNL A   1      42.155  19.271  25.996  1.00  0.00     0.124 S 
ATOM     77  O   UNL A   1      42.988  19.229  24.799  1.00  0.00    -0.237 OA
ATOM     78  O   UNL A   1      42.596  18.428  27.105  1.00  0.00    -0.237 OA
ATOM     79  O   UNL A   1      40.713  19.267  25.759  1.00  0.00    -0.744 OA
ENDBRANCH  75  76
ENDBRANCH  47  70
BRANCH  59  80
ATOM     80  C   UNL A   1      48.662  27.314  28.669  1.00  0.00    -0.014 A 
ATOM     81  C   UNL A   1      49.290  27.491  27.424  1.00  0.00     0.010 A 
ATOM     82  C   UNL A   1      49.430  26.918  29.779  1.00  0.00     0.010 A 
ATOM     83  C   UNL A   1      50.661  27.262  27.287  1.00  0.00     0.020 A 
ATOM     84  C   UNL A   1      50.805  26.706  29.650  1.00  0.00     0.020 A 
ATOM     85  C   UNL A   1      51.410  26.872  28.402  1.00  0.00     0.054 A 
BRANCH  85  86
ATOM     86  S   UNL A   1      53.201  26.642  28.218  1.00  0.00     0.124 S 
ATOM     87  O   UNL A   1      53.586  26.182  29.548  1.00  0.00    -0.237 OA
ATOM     88  O   UNL A   1      53.289  25.640  27.157  1.00  0.00    -0.237 OA
ATOM     89  O   UNL A   1      53.683  27.971  27.852  1.00  0.00    -0.744 OA
ENDBRANCH  85  86
ENDBRANCH  59  80
ENDBRANCH  33  34
ENDBRANCH  26  28
ENDBRANCH  25  26
ENDBRANCH   1  25
TORSDOF 17
ENDMDL
