MODEL 1
REMARK VINA RESULT:     -10.0      0.000      0.000
REMARK SMILES CC(C)C[C@H](NC(=O)[C@H](Cc1ccccc1)NC(=O)CNC(=O)C[NH3+])C(=O)OCCOC(=O)c1ccc(-c2c3nc(c(-c4ccc(S(=O)(=O)[O-])cc4)c4ccc([nH]4)c(-c4ccc(S(=O)(=O)[O-])cc4)c4nc(c(-c5ccc(S(=O)(=O)[O-])cc5)c5ccc2[nH]5)C=C4)C=C3)cc1
REMARK SMILES IDX 26 1 27 2 5 3 4 4 2 5 1 6 3 7 6 8 7 9 8 11 9 12 17 13 18 14
REMARK SMILES IDX 19 16 20 17 21 18 22 19 23 21 24 22 25 23 10 27 11 28 12 29
REMARK SMILES IDX 16 30 13 31 15 32 14 33 28 34 29 35 30 36 31 37 32 38 33 39
REMARK SMILES IDX 34 40 35 41 93 42 36 43 92 44 37 45 38 46 39 47 86 48 40 49
REMARK SMILES IDX 91 50 85 51 87 52 41 53 90 54 84 55 83 56 42 58 72 59 53 60
REMARK SMILES IDX 71 61 54 62 57 63 70 64 88 65 55 66 56 67 69 69 89 70 58 71
REMARK SMILES IDX 43 72 44 73 52 74 45 75 51 76 46 77 47 78 48 79 49 80 50 81
REMARK SMILES IDX 73 82 74 83 82 84 75 85 81 86 76 87 77 88 78 89 79 90 80 91
REMARK SMILES IDX 59 92 60 93 68 94 61 95 67 96 62 97 63 98 64 99 65 100
REMARK SMILES IDX 66 101
REMARK H PARENT 6 10 17 15 21 20 25 24 25 25 25 26 87 57 57 68
REMARK Flexibility Score: inf
ROOT
ATOM      1  C   UNL A   1      31.024  26.841  26.071  1.00  0.00     0.328 C 
ATOM      2  O   UNL A   1      30.820  27.052  27.262  1.00  0.00    -0.250 OA
ENDROOT
BRANCH   1   3
ATOM      3  C   UNL A   1      30.764  25.472  25.426  1.00  0.00     0.192 C 
BRANCH   3   4
ATOM      4  C   UNL A   1      30.084  25.637  24.045  1.00  0.00     0.040 C 
BRANCH   4   5
ATOM      5  C   UNL A   1      30.959  25.467  22.773  1.00  0.00    -0.015 C 
ATOM      6  C   UNL A   1      31.241  26.796  22.053  1.00  0.00     0.007 C 
ATOM      7  C   UNL A   1      32.318  24.866  23.150  1.00  0.00     0.007 C 
ENDBRANCH   4   5
ENDBRANCH   3   4
BRANCH   3   8
ATOM      8  N   UNL A   1      30.032  24.558  26.303  1.00  0.00    -0.341 N 
ATOM      9  C   UNL A   1      30.385  23.350  26.844  1.00  0.00     0.243 C 
ATOM     10  H   UNL A   1      29.129  24.864  26.546  1.00  0.00     0.164 HD
ATOM     11  O   UNL A   1      29.627  22.923  27.723  1.00  0.00    -0.273 OA
BRANCH   9  12
ATOM     12  C   UNL A   1      31.682  22.561  26.441  1.00  0.00     0.175 C 
BRANCH  12  13
ATOM     13  N   UNL A   1      31.623  22.114  25.044  1.00  0.00    -0.342 N 
ATOM     14  C   UNL A   1      32.210  21.024  24.462  1.00  0.00     0.240 C 
ATOM     15  H   UNL A   1      31.086  22.678  24.441  1.00  0.00     0.164 HD
ATOM     16  O   UNL A   1      32.475  21.080  23.261  1.00  0.00    -0.273 OA
BRANCH  14  17
ATOM     17  C   UNL A   1      32.514  19.742  25.271  1.00  0.00     0.216 C 
BRANCH  17  18
ATOM     18  N   UNL A   1      33.855  19.203  25.185  1.00  0.00    -0.342 N 
ATOM     19  C   UNL A   1      34.341  18.183  24.424  1.00  0.00     0.275 C 
ATOM     20  H   UNL A   1      34.517  19.640  25.767  1.00  0.00     0.164 HD
ATOM     21  O   UNL A   1      35.507  17.818  24.589  1.00  0.00    -0.268 OA
BRANCH  19  22
ATOM     22  C   UNL A   1      33.436  17.443  23.437  1.00  0.00     0.360 C 
BRANCH  22  23
ATOM     23  N   UNL A   1      34.225  16.454  22.682  1.00  0.00    -0.350 N 
ATOM     24  H   UNL A   1      33.609  15.716  22.341  1.00  0.00     0.344 HD
ATOM     25  H   UNL A   1      34.935  16.049  23.292  1.00  0.00     0.344 HD
ATOM     26  H   UNL A   1      34.677  16.912  21.891  1.00  0.00     0.344 HD
ENDBRANCH  22  23
ENDBRANCH  19  22
ENDBRANCH  17  18
ENDBRANCH  14  17
ENDBRANCH  12  13
BRANCH  12  27
ATOM     27  C   UNL A   1      32.896  23.548  26.648  1.00  0.00     0.070 C 
BRANCH  27  28
ATOM     28  C   UNL A   1      34.310  23.233  26.185  1.00  0.00    -0.045 A 
ATOM     29  C   UNL A   1      34.975  22.050  26.489  1.00  0.00     0.004 A 
ATOM     30  C   UNL A   1      35.021  24.182  25.429  1.00  0.00     0.004 A 
ATOM     31  C   UNL A   1      36.256  21.764  26.009  1.00  0.00     0.000 A 
ATOM     32  C   UNL A   1      36.317  23.919  24.963  1.00  0.00     0.000 A 
ATOM     33  C   UNL A   1      36.929  22.701  25.240  1.00  0.00     0.000 A 
ENDBRANCH  27  28
ENDBRANCH  12  27
ENDBRANCH   9  12
ENDBRANCH   3   8
ENDBRANCH   1   3
BRANCH   1  34
ATOM     34  O   UNL A   1      31.658  27.701  25.224  1.00  0.00    -0.461 OA
BRANCH  34  35
ATOM     35  C   UNL A   1      33.097  27.745  25.321  1.00  0.00     0.274 C 
BRANCH  35  36
ATOM     36  C   UNL A   1      33.610  29.064  25.901  1.00  0.00     0.275 C 
BRANCH  36  37
ATOM     37  O   UNL A   1      34.586  28.844  26.931  1.00  0.00    -0.458 OA
BRANCH  37  38
ATOM     38  C   UNL A   1      34.802  29.909  27.732  1.00  0.00     0.338 C 
ATOM     39  O   UNL A   1      33.973  30.727  28.113  1.00  0.00    -0.246 OA
BRANCH  38  40
ATOM     40  C   UNL A   1      36.161  29.846  28.273  1.00  0.00     0.060 A 
ATOM     41  C   UNL A   1      37.204  30.097  27.387  1.00  0.00     0.016 A 
ATOM     42  C   UNL A   1      36.423  29.448  29.585  1.00  0.00     0.016 A 
ATOM     43  C   UNL A   1      38.514  29.927  27.801  1.00  0.00     0.010 A 
ATOM     44  C   UNL A   1      37.752  29.258  29.989  1.00  0.00     0.010 A 
ATOM     45  C   UNL A   1      38.805  29.470  29.084  1.00  0.00    -0.014 A 
BRANCH  45  46
ATOM     46  C   UNL A   1      40.200  29.054  29.367  1.00  0.00     0.031 A 
ATOM     47  C   UNL A   1      41.079  29.976  30.165  1.00  0.00     0.074 A 
ATOM     48  C   UNL A   1      40.637  27.820  29.051  1.00  0.00     0.049 A 
ATOM     49  N   UNL A   1      42.368  29.913  30.377  1.00  0.00    -0.248 NA
ATOM     50  C   UNL A   1      40.418  31.127  30.804  1.00  0.00     0.031 C 
ATOM     51  C   UNL A   1      39.831  26.765  28.433  1.00  0.00     0.029 A 
ATOM     52  N   UNL A   1      41.866  27.237  29.233  1.00  0.00    -0.354 N 
ATOM     53  C   UNL A   1      42.680  31.046  31.120  1.00  0.00     0.074 A 
ATOM     54  C   UNL A   1      41.449  31.773  31.329  1.00  0.00     0.031 C 
ATOM     55  C   UNL A   1      40.584  25.660  28.302  1.00  0.00     0.029 A 
ATOM     56  C   UNL A   1      41.943  25.956  28.743  1.00  0.00     0.049 A 
ATOM     57  H   UNL A   1      42.619  27.694  29.671  1.00  0.00     0.167 HD
ATOM     58  C   UNL A   1      43.892  31.446  31.569  1.00  0.00     0.031 A 
ATOM     59  C   UNL A   1      43.004  25.134  28.613  1.00  0.00     0.031 A 
ATOM     60  C   UNL A   1      45.099  30.681  31.396  1.00  0.00     0.049 A 
ATOM     61  C   UNL A   1      44.359  25.630  29.040  1.00  0.00     0.074 A 
ATOM     62  C   UNL A   1      46.391  31.007  31.768  1.00  0.00     0.029 A 
ATOM     63  N   UNL A   1      45.152  29.419  30.822  1.00  0.00    -0.354 N 
ATOM     64  N   UNL A   1      44.678  26.769  29.610  1.00  0.00    -0.248 NA
ATOM     65  C   UNL A   1      45.501  24.742  28.783  1.00  0.00     0.031 C 
ATOM     66  C   UNL A   1      47.231  29.957  31.383  1.00  0.00     0.029 A 
ATOM     67  C   UNL A   1      46.456  28.956  30.817  1.00  0.00     0.049 A 
ATOM     68  H   UNL A   1      44.376  28.926  30.471  1.00  0.00     0.167 HD
ATOM     69  C   UNL A   1      46.056  26.732  29.785  1.00  0.00     0.074 A 
ATOM     70  C   UNL A   1      46.507  25.450  29.282  1.00  0.00     0.031 C 
ATOM     71  C   UNL A   1      46.877  27.676  30.308  1.00  0.00     0.031 A 
BRANCH  58  72
ATOM     72  C   UNL A   1      43.982  32.803  32.213  1.00  0.00    -0.014 A 
ATOM     73  C   UNL A   1      43.895  32.975  33.606  1.00  0.00     0.010 A 
ATOM     74  C   UNL A   1      44.169  33.932  31.394  1.00  0.00     0.010 A 
ATOM     75  C   UNL A   1      43.959  34.256  34.163  1.00  0.00     0.020 A 
ATOM     76  C   UNL A   1      44.257  35.211  31.948  1.00  0.00     0.020 A 
ATOM     77  C   UNL A   1      44.133  35.367  33.329  1.00  0.00     0.054 A 
BRANCH  77  78
ATOM     78  S   UNL A   1      44.228  37.019  34.073  1.00  0.00     0.124 S 
ATOM     79  O   UNL A   1      42.947  37.601  33.679  1.00  0.00    -0.237 OA
ATOM     80  O   UNL A   1      44.371  36.725  35.498  1.00  0.00    -0.237 OA
ATOM     81  O   UNL A   1      45.402  37.617  33.445  1.00  0.00    -0.744 OA
ENDBRANCH  77  78
ENDBRANCH  58  72
BRANCH  59  82
ATOM     82  C   UNL A   1      42.838  23.802  27.969  1.00  0.00    -0.014 A 
ATOM     83  C   UNL A   1      42.511  22.666  28.730  1.00  0.00     0.010 A 
ATOM     84  C   UNL A   1      42.998  23.668  26.577  1.00  0.00     0.010 A 
ATOM     85  C   UNL A   1      42.349  21.422  28.110  1.00  0.00     0.020 A 
ATOM     86  C   UNL A   1      42.807  22.434  25.951  1.00  0.00     0.020 A 
ATOM     87  C   UNL A   1      42.493  21.315  26.723  1.00  0.00     0.054 A 
BRANCH  87  88
ATOM     88  S   UNL A   1      42.209  19.710  25.925  1.00  0.00     0.124 S 
ATOM     89  O   UNL A   1      40.805  19.807  25.539  1.00  0.00    -0.237 OA
ATOM     90  O   UNL A   1      43.171  19.727  24.826  1.00  0.00    -0.237 OA
ATOM     91  O   UNL A   1      42.503  18.747  26.984  1.00  0.00    -0.744 OA
ENDBRANCH  87  88
ENDBRANCH  59  82
BRANCH  71  92
ATOM     92  C   UNL A   1      48.341  27.345  30.387  1.00  0.00    -0.014 A 
ATOM     93  C   UNL A   1      49.258  27.894  29.474  1.00  0.00     0.010 A 
ATOM     94  C   UNL A   1      48.810  26.517  31.423  1.00  0.00     0.010 A 
ATOM     95  C   UNL A   1      50.619  27.597  29.579  1.00  0.00     0.020 A 
ATOM     96  C   UNL A   1      50.173  26.237  31.544  1.00  0.00     0.020 A 
ATOM     97  C   UNL A   1      51.068  26.769  30.614  1.00  0.00     0.054 A 
BRANCH  97  98
ATOM     98  S   UNL A   1      52.844  26.432  30.755  1.00  0.00     0.124 S 
ATOM     99  O   UNL A   1      53.197  26.082  29.383  1.00  0.00    -0.237 OA
ATOM    100  O   UNL A   1      53.376  27.704  31.237  1.00  0.00    -0.237 OA
ATOM    101  O   UNL A   1      52.912  25.332  31.715  1.00  0.00    -0.744 OA
ENDBRANCH  97  98
ENDBRANCH  71  92
ENDBRANCH  45  46
ENDBRANCH  38  40
ENDBRANCH  37  38
ENDBRANCH  36  37
ENDBRANCH  35  36
ENDBRANCH  34  35
ENDBRANCH   1  34
TORSDOF 25
ENDMDL
MODEL 2
REMARK VINA RESULT:      -9.4      1.764      2.857
REMARK SMILES CC(C)C[C@H](NC(=O)[C@H](Cc1ccccc1)NC(=O)CNC(=O)C[NH3+])C(=O)OCCOC(=O)c1ccc(-c2c3nc(c(-c4ccc(S(=O)(=O)[O-])cc4)c4ccc([nH]4)c(-c4ccc(S(=O)(=O)[O-])cc4)c4nc(c(-c5ccc(S(=O)(=O)[O-])cc5)c5ccc2[nH]5)C=C4)C=C3)cc1
REMARK SMILES IDX 26 1 27 2 5 3 4 4 2 5 1 6 3 7 6 8 7 9 8 11 9 12 17 13 18 14
REMARK SMILES IDX 19 16 20 17 21 18 22 19 23 21 24 22 25 23 10 27 11 28 12 29
REMARK SMILES IDX 16 30 13 31 15 32 14 33 28 34 29 35 30 36 31 37 32 38 33 39
REMARK SMILES IDX 34 40 35 41 93 42 36 43 92 44 37 45 38 46 39 47 86 48 40 49
REMARK SMILES IDX 91 50 85 51 87 52 41 53 90 54 84 55 83 56 42 58 72 59 53 60
REMARK SMILES IDX 71 61 54 62 57 63 70 64 88 65 55 66 56 67 69 69 89 70 58 71
REMARK SMILES IDX 43 72 44 73 52 74 45 75 51 76 46 77 47 78 48 79 49 80 50 81
REMARK SMILES IDX 73 82 74 83 82 84 75 85 81 86 76 87 77 88 78 89 79 90 80 91
REMARK SMILES IDX 59 92 60 93 68 94 61 95 67 96 62 97 63 98 64 99 65 100
REMARK SMILES IDX 66 101
REMARK H PARENT 6 10 17 15 21 20 25 24 25 25 25 26 87 57 57 68
REMARK Flexibility Score: inf
ROOT
ATOM      1  C   UNL A   1      32.001  27.342  26.859  1.00  0.00     0.328 C 
ATOM      2  O   UNL A   1      31.610  27.575  27.998  1.00  0.00    -0.250 OA
ENDROOT
BRANCH   1   3
ATOM      3  C   UNL A   1      31.191  26.487  25.874  1.00  0.00     0.192 C 
BRANCH   3   4
ATOM      4  C   UNL A   1      30.219  27.369  25.053  1.00  0.00     0.040 C 
BRANCH   4   5
ATOM      5  C   UNL A   1      30.681  27.861  23.654  1.00  0.00    -0.015 C 
ATOM      6  C   UNL A   1      29.511  28.246  22.733  1.00  0.00     0.007 C 
ATOM      7  C   UNL A   1      31.562  29.108  23.802  1.00  0.00     0.007 C 
ENDBRANCH   4   5
ENDBRANCH   3   4
BRANCH   3   8
ATOM      8  N   UNL A   1      30.513  25.362  26.518  1.00  0.00    -0.341 N 
ATOM      9  C   UNL A   1      30.856  24.040  26.620  1.00  0.00     0.243 C 
ATOM     10  H   UNL A   1      29.663  25.596  26.955  1.00  0.00     0.164 HD
ATOM     11  O   UNL A   1      30.180  23.378  27.416  1.00  0.00    -0.273 OA
BRANCH   9  12
ATOM     12  C   UNL A   1      32.052  23.388  25.836  1.00  0.00     0.175 C 
BRANCH  12  13
ATOM     13  N   UNL A   1      32.239  21.983  26.221  1.00  0.00    -0.342 N 
ATOM     14  C   UNL A   1      33.299  21.155  25.972  1.00  0.00     0.240 C 
ATOM     15  H   UNL A   1      31.497  21.581  26.729  1.00  0.00     0.164 HD
ATOM     16  O   UNL A   1      33.086  19.943  25.909  1.00  0.00    -0.273 OA
BRANCH  14  17
ATOM     17  C   UNL A   1      34.732  21.708  25.797  1.00  0.00     0.216 C 
BRANCH  17  18
ATOM     18  N   UNL A   1      35.185  21.967  24.446  1.00  0.00    -0.342 N 
ATOM     19  C   UNL A   1      36.100  22.866  23.987  1.00  0.00     0.275 C 
ATOM     20  H   UNL A   1      34.768  21.407  23.753  1.00  0.00     0.164 HD
ATOM     21  O   UNL A   1      36.257  22.990  22.771  1.00  0.00    -0.268 OA
BRANCH  19  22
ATOM     22  C   UNL A   1      36.864  23.771  24.957  1.00  0.00     0.360 C 
BRANCH  22  23
ATOM     23  N   UNL A   1      38.181  23.184  25.254  1.00  0.00    -0.350 N 
ATOM     24  H   UNL A   1      38.635  23.723  25.992  1.00  0.00     0.344 HD
ATOM     25  H   UNL A   1      38.759  23.204  24.414  1.00  0.00     0.344 HD
ATOM     26  H   UNL A   1      38.062  22.219  25.562  1.00  0.00     0.344 HD
ENDBRANCH  22  23
ENDBRANCH  19  22
ENDBRANCH  17  18
ENDBRANCH  14  17
ENDBRANCH  12  13
BRANCH  12  27
ATOM     27  C   UNL A   1      31.699  23.492  24.302  1.00  0.00     0.070 C 
BRANCH  27  28
ATOM     28  C   UNL A   1      32.292  24.548  23.384  1.00  0.00    -0.045 A 
ATOM     29  C   UNL A   1      33.389  25.333  23.721  1.00  0.00     0.004 A 
ATOM     30  C   UNL A   1      31.704  24.789  22.129  1.00  0.00     0.004 A 
ATOM     31  C   UNL A   1      33.946  26.264  22.838  1.00  0.00     0.000 A 
ATOM     32  C   UNL A   1      32.236  25.737  21.245  1.00  0.00     0.000 A 
ATOM     33  C   UNL A   1      33.369  26.465  21.594  1.00  0.00     0.000 A 
ENDBRANCH  27  28
ENDBRANCH  12  27
ENDBRANCH   9  12
ENDBRANCH   3   8
ENDBRANCH   1   3
BRANCH   1  34
ATOM     34  O   UNL A   1      33.245  27.640  26.385  1.00  0.00    -0.461 OA
BRANCH  34  35
ATOM     35  C   UNL A   1      34.056  28.494  27.219  1.00  0.00     0.274 C 
BRANCH  35  36
ATOM     36  C   UNL A   1      33.861  29.979  26.909  1.00  0.00     0.275 C 
BRANCH  36  37
ATOM     37  O   UNL A   1      33.551  30.729  28.094  1.00  0.00    -0.458 OA
BRANCH  37  38
ATOM     38  C   UNL A   1      34.200  31.909  28.193  1.00  0.00     0.338 C 
ATOM     39  O   UNL A   1      33.730  33.028  28.018  1.00  0.00    -0.246 OA
BRANCH  38  40
ATOM     40  C   UNL A   1      35.534  31.688  28.755  1.00  0.00     0.060 A 
ATOM     41  C   UNL A   1      36.577  32.435  28.214  1.00  0.00     0.016 A 
ATOM     42  C   UNL A   1      35.785  30.704  29.712  1.00  0.00     0.016 A 
ATOM     43  C   UNL A   1      37.878  32.182  28.609  1.00  0.00     0.010 A 
ATOM     44  C   UNL A   1      37.108  30.442  30.091  1.00  0.00     0.010 A 
ATOM     45  C   UNL A   1      38.167  31.163  29.515  1.00  0.00    -0.014 A 
BRANCH  45  46
ATOM     46  C   UNL A   1      39.587  30.773  29.683  1.00  0.00     0.031 A 
ATOM     47  C   UNL A   1      40.523  31.730  30.368  1.00  0.00     0.074 A 
ATOM     48  C   UNL A   1      40.011  29.534  29.368  1.00  0.00     0.049 A 
ATOM     49  N   UNL A   1      41.825  31.688  30.465  1.00  0.00    -0.248 NA
ATOM     50  C   UNL A   1      39.906  32.893  31.028  1.00  0.00     0.031 C 
ATOM     51  C   UNL A   1      39.167  28.451  28.859  1.00  0.00     0.029 A 
ATOM     52  N   UNL A   1      41.259  28.971  29.456  1.00  0.00    -0.354 N 
ATOM     53  C   UNL A   1      42.188  32.849  31.139  1.00  0.00     0.074 A 
ATOM     54  C   UNL A   1      40.971  33.568  31.437  1.00  0.00     0.031 C 
ATOM     55  C   UNL A   1      39.921  27.350  28.696  1.00  0.00     0.029 A 
ATOM     56  C   UNL A   1      41.310  27.675  29.002  1.00  0.00     0.049 A 
ATOM     57  H   UNL A   1      42.043  29.450  29.809  1.00  0.00     0.167 HD
ATOM     58  C   UNL A   1      43.430  33.276  31.464  1.00  0.00     0.031 A 
ATOM     59  C   UNL A   1      42.366  26.861  28.802  1.00  0.00     0.031 A 
ATOM     60  C   UNL A   1      44.627  32.519  31.206  1.00  0.00     0.049 A 
ATOM     61  C   UNL A   1      43.747  27.386  29.089  1.00  0.00     0.074 A 
ATOM     62  C   UNL A   1      45.942  32.872  31.448  1.00  0.00     0.029 A 
ATOM     63  N   UNL A   1      44.645  31.240  30.670  1.00  0.00    -0.354 N 
ATOM     64  N   UNL A   1      44.100  28.546  29.590  1.00  0.00    -0.248 NA
ATOM     65  C   UNL A   1      44.873  26.503  28.757  1.00  0.00     0.031 C 
ATOM     66  C   UNL A   1      46.759  31.819  31.022  1.00  0.00     0.029 A 
ATOM     67  C   UNL A   1      45.949  30.791  30.561  1.00  0.00     0.049 A 
ATOM     68  H   UNL A   1      43.848  30.727  30.407  1.00  0.00     0.167 HD
ATOM     69  C   UNL A   1      45.489  28.530  29.641  1.00  0.00     0.074 A 
ATOM     70  C   UNL A   1      45.910  27.237  29.140  1.00  0.00     0.031 C 
ATOM     71  C   UNL A   1      46.340  29.500  30.057  1.00  0.00     0.031 A 
BRANCH  58  72
ATOM     72  C   UNL A   1      43.559  34.654  32.054  1.00  0.00    -0.014 A 
ATOM     73  C   UNL A   1      43.497  34.881  33.440  1.00  0.00     0.010 A 
ATOM     74  C   UNL A   1      43.757  35.747  31.189  1.00  0.00     0.010 A 
ATOM     75  C   UNL A   1      43.597  36.181  33.946  1.00  0.00     0.020 A 
ATOM     76  C   UNL A   1      43.881  37.044  31.693  1.00  0.00     0.020 A 
ATOM     77  C   UNL A   1      43.782  37.255  33.068  1.00  0.00     0.054 A 
BRANCH  77  78
ATOM     78  S   UNL A   1      43.923  38.932  33.747  1.00  0.00     0.124 S 
ATOM     79  O   UNL A   1      42.842  39.629  33.055  1.00  0.00    -0.237 OA
ATOM     80  O   UNL A   1      43.719  38.720  35.178  1.00  0.00    -0.237 OA
ATOM     81  O   UNL A   1      45.271  39.347  33.370  1.00  0.00    -0.744 OA
ENDBRANCH  77  78
ENDBRANCH  58  72
BRANCH  59  82
ATOM     82  C   UNL A   1      42.162  25.507  28.219  1.00  0.00    -0.014 A 
ATOM     83  C   UNL A   1      41.931  25.338  26.842  1.00  0.00     0.010 A 
ATOM     84  C   UNL A   1      42.208  24.369  29.047  1.00  0.00     0.010 A 
ATOM     85  C   UNL A   1      41.750  24.058  26.307  1.00  0.00     0.020 A 
ATOM     86  C   UNL A   1      42.057  23.088  28.511  1.00  0.00     0.020 A 
ATOM     87  C   UNL A   1      41.820  22.941  27.144  1.00  0.00     0.054 A 
BRANCH  87  88
ATOM     88  S   UNL A   1      41.654  21.283  26.423  1.00  0.00     0.124 S 
ATOM     89  O   UNL A   1      41.947  20.425  27.566  1.00  0.00    -0.237 OA
ATOM     90  O   UNL A   1      40.267  21.275  25.963  1.00  0.00    -0.237 OA
ATOM     91  O   UNL A   1      42.654  21.274  25.358  1.00  0.00    -0.744 OA
ENDBRANCH  87  88
ENDBRANCH  59  82
BRANCH  71  92
ATOM     92  C   UNL A   1      47.810  29.188  30.012  1.00  0.00    -0.014 A 
ATOM     93  C   UNL A   1      48.417  28.412  31.016  1.00  0.00     0.010 A 
ATOM     94  C   UNL A   1      48.581  29.629  28.922  1.00  0.00     0.010 A 
ATOM     95  C   UNL A   1      49.778  28.108  30.944  1.00  0.00     0.020 A 
ATOM     96  C   UNL A   1      49.937  29.307  28.835  1.00  0.00     0.020 A 
ATOM     97  C   UNL A   1      50.530  28.559  29.854  1.00  0.00     0.054 A 
BRANCH  97  98
ATOM     98  S   UNL A   1      52.286  28.116  29.761  1.00  0.00     0.124 S 
ATOM     99  O   UNL A   1      52.891  29.071  30.685  1.00  0.00    -0.237 OA
ATOM    100  O   UNL A   1      52.292  26.724  30.204  1.00  0.00    -0.237 OA
ATOM    101  O   UNL A   1      52.619  28.316  28.352  1.00  0.00    -0.744 OA
ENDBRANCH  97  98
ENDBRANCH  71  92
ENDBRANCH  45  46
ENDBRANCH  38  40
ENDBRANCH  37  38
ENDBRANCH  36  37
ENDBRANCH  35  36
ENDBRANCH  34  35
ENDBRANCH   1  34
TORSDOF 25
ENDMDL
MODEL 3
REMARK VINA RESULT:      -9.4      3.189      8.323
REMARK SMILES CC(C)C[C@H](NC(=O)[C@H](Cc1ccccc1)NC(=O)CNC(=O)C[NH3+])C(=O)OCCOC(=O)c1ccc(-c2c3nc(c(-c4ccc(S(=O)(=O)[O-])cc4)c4ccc([nH]4)c(-c4ccc(S(=O)(=O)[O-])cc4)c4nc(c(-c5ccc(S(=O)(=O)[O-])cc5)c5ccc2[nH]5)C=C4)C=C3)cc1
REMARK SMILES IDX 26 1 27 2 5 3 4 4 2 5 1 6 3 7 6 8 7 9 8 11 9 12 17 13 18 14
REMARK SMILES IDX 19 16 20 17 21 18 22 19 23 21 24 22 25 23 10 27 11 28 12 29
REMARK SMILES IDX 16 30 13 31 15 32 14 33 28 34 29 35 30 36 31 37 32 38 33 39
REMARK SMILES IDX 34 40 35 41 93 42 36 43 92 44 37 45 38 46 39 47 86 48 40 49
REMARK SMILES IDX 91 50 85 51 87 52 41 53 90 54 84 55 83 56 42 58 72 59 53 60
REMARK SMILES IDX 71 61 54 62 57 63 70 64 88 65 55 66 56 67 69 69 89 70 58 71
REMARK SMILES IDX 43 72 44 73 52 74 45 75 51 76 46 77 47 78 48 79 49 80 50 81
REMARK SMILES IDX 73 82 74 83 82 84 75 85 81 86 76 87 77 88 78 89 79 90 80 91
REMARK SMILES IDX 59 92 60 93 68 94 61 95 67 96 62 97 63 98 64 99 65 100
REMARK SMILES IDX 66 101
REMARK H PARENT 6 10 17 15 21 20 25 24 25 25 25 26 87 57 57 68
REMARK Flexibility Score: inf
ROOT
ATOM      1  C   UNL A   1      31.444  28.019  24.883  1.00  0.00     0.328 C 
ATOM      2  O   UNL A   1      31.149  28.884  24.066  1.00  0.00    -0.250 OA
ENDROOT
BRANCH   1   3
ATOM      3  C   UNL A   1      31.488  26.528  24.518  1.00  0.00     0.192 C 
BRANCH   3   4
ATOM      4  C   UNL A   1      31.133  26.318  23.026  1.00  0.00     0.040 C 
BRANCH   4   5
ATOM      5  C   UNL A   1      32.293  26.296  21.993  1.00  0.00    -0.015 C 
ATOM      6  C   UNL A   1      33.619  26.825  22.565  1.00  0.00     0.007 C 
ATOM      7  C   UNL A   1      32.549  24.859  21.525  1.00  0.00     0.007 C 
ENDBRANCH   4   5
ENDBRANCH   3   4
BRANCH   3   8
ATOM      8  N   UNL A   1      30.674  25.699  25.408  1.00  0.00    -0.341 N 
ATOM      9  C   UNL A   1      30.896  24.455  25.935  1.00  0.00     0.243 C 
ATOM     10  H   UNL A   1      29.819  26.107  25.674  1.00  0.00     0.164 HD
ATOM     11  O   UNL A   1      30.113  24.113  26.830  1.00  0.00    -0.273 OA
BRANCH   9  12
ATOM     12  C   UNL A   1      32.082  23.523  25.499  1.00  0.00     0.175 C 
BRANCH  12  13
ATOM     13  N   UNL A   1      31.782  22.829  24.240  1.00  0.00    -0.342 N 
ATOM     14  C   UNL A   1      32.057  21.539  23.879  1.00  0.00     0.240 C 
ATOM     15  H   UNL A   1      31.317  23.370  23.560  1.00  0.00     0.164 HD
ATOM     16  O   UNL A   1      32.201  21.290  22.681  1.00  0.00    -0.273 OA
BRANCH  14  17
ATOM     17  C   UNL A   1      32.165  20.412  24.931  1.00  0.00     0.216 C 
BRANCH  17  18
ATOM     18  N   UNL A   1      32.278  19.053  24.442  1.00  0.00    -0.342 N 
ATOM     19  C   UNL A   1      33.383  18.278  24.260  1.00  0.00     0.275 C 
ATOM     20  H   UNL A   1      31.424  18.625  24.203  1.00  0.00     0.164 HD
ATOM     21  O   UNL A   1      33.257  17.174  23.727  1.00  0.00    -0.268 OA
BRANCH  19  22
ATOM     22  C   UNL A   1      34.773  18.796  24.633  1.00  0.00     0.360 C 
BRANCH  22  23
ATOM     23  N   UNL A   1      35.645  17.667  25.002  1.00  0.00    -0.350 N 
ATOM     24  H   UNL A   1      35.504  17.436  25.986  1.00  0.00     0.344 HD
ATOM     25  H   UNL A   1      36.619  17.927  24.850  1.00  0.00     0.344 HD
ATOM     26  H   UNL A   1      35.414  16.858  24.426  1.00  0.00     0.344 HD
ENDBRANCH  22  23
ENDBRANCH  19  22
ENDBRANCH  17  18
ENDBRANCH  14  17
ENDBRANCH  12  13
BRANCH  12  27
ATOM     27  C   UNL A   1      33.347  24.449  25.324  1.00  0.00     0.070 C 
BRANCH  27  28
ATOM     28  C   UNL A   1      34.749  23.906  25.099  1.00  0.00    -0.045 A 
ATOM     29  C   UNL A   1      35.669  23.699  26.121  1.00  0.00     0.004 A 
ATOM     30  C   UNL A   1      35.180  23.616  23.792  1.00  0.00     0.004 A 
ATOM     31  C   UNL A   1      36.935  23.151  25.893  1.00  0.00     0.000 A 
ATOM     32  C   UNL A   1      36.457  23.091  23.546  1.00  0.00     0.000 A 
ATOM     33  C   UNL A   1      37.330  22.843  24.600  1.00  0.00     0.000 A 
ENDBRANCH  27  28
ENDBRANCH  12  27
ENDBRANCH   9  12
ENDBRANCH   3   8
ENDBRANCH   1   3
BRANCH   1  34
ATOM     34  O   UNL A   1      31.590  28.229  26.223  1.00  0.00    -0.461 OA
BRANCH  34  35
ATOM     35  C   UNL A   1      32.939  28.436  26.692  1.00  0.00     0.274 C 
BRANCH  35  36
ATOM     36  C   UNL A   1      33.383  29.896  26.590  1.00  0.00     0.275 C 
BRANCH  36  37
ATOM     37  O   UNL A   1      33.654  30.456  27.884  1.00  0.00    -0.458 OA
BRANCH  37  38
ATOM     38  C   UNL A   1      34.527  31.486  27.874  1.00  0.00     0.338 C 
ATOM     39  O   UNL A   1      34.269  32.673  27.710  1.00  0.00    -0.246 OA
BRANCH  38  40
ATOM     40  C   UNL A   1      35.845  31.013  28.304  1.00  0.00     0.060 A 
ATOM     41  C   UNL A   1      35.884  29.812  29.007  1.00  0.00     0.016 A 
ATOM     42  C   UNL A   1      37.003  31.768  28.121  1.00  0.00     0.016 A 
ATOM     43  C   UNL A   1      37.078  29.375  29.553  1.00  0.00     0.010 A 
ATOM     44  C   UNL A   1      38.204  31.328  28.695  1.00  0.00     0.010 A 
ATOM     45  C   UNL A   1      38.238  30.139  29.442  1.00  0.00    -0.014 A 
BRANCH  45  46
ATOM     46  C   UNL A   1      39.402  29.748  30.273  1.00  0.00     0.031 A 
ATOM     47  C   UNL A   1      40.334  28.688  29.757  1.00  0.00     0.074 A 
ATOM     48  C   UNL A   1      39.712  30.422  31.397  1.00  0.00     0.049 A 
ATOM     49  N   UNL A   1      41.299  28.061  30.377  1.00  0.00    -0.248 NA
ATOM     50  C   UNL A   1      40.150  28.276  28.355  1.00  0.00     0.031 C 
ATOM     51  C   UNL A   1      38.991  31.585  31.918  1.00  0.00     0.029 A 
ATOM     52  N   UNL A   1      40.736  30.236  32.292  1.00  0.00    -0.354 N 
ATOM     53  C   UNL A   1      41.793  27.137  29.462  1.00  0.00     0.074 A 
ATOM     54  C   UNL A   1      41.031  27.292  28.244  1.00  0.00     0.031 C 
ATOM     55  C   UNL A   1      39.606  32.018  33.032  1.00  0.00     0.029 A 
ATOM     56  C   UNL A   1      40.705  31.112  33.350  1.00  0.00     0.049 A 
ATOM     57  H   UNL A   1      41.425  29.542  32.187  1.00  0.00     0.167 HD
ATOM     58  C   UNL A   1      42.785  26.234  29.636  1.00  0.00     0.031 A 
ATOM     59  C   UNL A   1      41.445  31.146  34.477  1.00  0.00     0.031 A 
ATOM     60  C   UNL A   1      43.568  26.130  30.839  1.00  0.00     0.049 A 
ATOM     61  C   UNL A   1      42.485  30.080  34.691  1.00  0.00     0.074 A 
ATOM     62  C   UNL A   1      44.566  25.224  31.146  1.00  0.00     0.029 A 
ATOM     63  N   UNL A   1      43.454  26.986  31.925  1.00  0.00    -0.354 N 
ATOM     64  N   UNL A   1      42.851  29.113  33.883  1.00  0.00    -0.248 NA
ATOM     65  C   UNL A   1      43.193  30.094  35.978  1.00  0.00     0.031 C 
ATOM     66  C   UNL A   1      45.030  25.509  32.435  1.00  0.00     0.029 A 
ATOM     67  C   UNL A   1      44.355  26.624  32.910  1.00  0.00     0.049 A 
ATOM     68  H   UNL A   1      42.826  27.742  31.984  1.00  0.00     0.167 HD
ATOM     69  C   UNL A   1      43.837  28.405  34.562  1.00  0.00     0.074 A 
ATOM     70  C   UNL A   1      44.025  29.070  35.836  1.00  0.00     0.031 C 
ATOM     71  C   UNL A   1      44.520  27.301  34.170  1.00  0.00     0.031 A 
BRANCH  58  72
ATOM     72  C   UNL A   1      43.017  25.236  28.534  1.00  0.00    -0.014 A 
ATOM     73  C   UNL A   1      42.268  24.051  28.429  1.00  0.00     0.010 A 
ATOM     74  C   UNL A   1      44.009  25.506  27.572  1.00  0.00     0.010 A 
ATOM     75  C   UNL A   1      42.531  23.138  27.403  1.00  0.00     0.020 A 
ATOM     76  C   UNL A   1      44.259  24.608  26.531  1.00  0.00     0.020 A 
ATOM     77  C   UNL A   1      43.530  23.421  26.464  1.00  0.00     0.054 A 
BRANCH  77  78
ATOM     78  S   UNL A   1      43.847  22.229  25.132  1.00  0.00     0.124 S 
ATOM     79  O   UNL A   1      45.288  22.022  25.249  1.00  0.00    -0.237 OA
ATOM     80  O   UNL A   1      43.016  21.090  25.513  1.00  0.00    -0.237 OA
ATOM     81  O   UNL A   1      43.416  22.933  23.927  1.00  0.00    -0.744 OA
ENDBRANCH  77  78
ENDBRANCH  58  72
BRANCH  59  82
ATOM     82  C   UNL A   1      41.160  32.167  35.523  1.00  0.00    -0.014 A 
ATOM     83  C   UNL A   1      40.156  31.958  36.485  1.00  0.00     0.010 A 
ATOM     84  C   UNL A   1      41.909  33.358  35.567  1.00  0.00     0.010 A 
ATOM     85  C   UNL A   1      39.907  32.922  37.468  1.00  0.00     0.020 A 
ATOM     86  C   UNL A   1      41.683  34.309  36.565  1.00  0.00     0.020 A 
ATOM     87  C   UNL A   1      40.675  34.089  37.504  1.00  0.00     0.054 A 
BRANCH  87  88
ATOM     88  S   UNL A   1      40.388  35.297  38.828  1.00  0.00     0.124 S 
ATOM     89  O   UNL A   1      38.932  35.310  38.916  1.00  0.00    -0.237 OA
ATOM     90  O   UNL A   1      41.086  34.697  39.962  1.00  0.00    -0.237 OA
ATOM     91  O   UNL A   1      40.996  36.521  38.311  1.00  0.00    -0.744 OA
ENDBRANCH  87  88
ENDBRANCH  59  82
BRANCH  71  92
ATOM     92  C   UNL A   1      45.552  26.761  35.119  1.00  0.00    -0.014 A 
ATOM     93  C   UNL A   1      45.223  25.770  36.061  1.00  0.00     0.010 A 
ATOM     94  C   UNL A   1      46.882  27.212  35.029  1.00  0.00     0.010 A 
ATOM     95  C   UNL A   1      46.202  25.259  36.916  1.00  0.00     0.020 A 
ATOM     96  C   UNL A   1      47.867  26.687  35.868  1.00  0.00     0.020 A 
ATOM     97  C   UNL A   1      47.518  25.723  36.815  1.00  0.00     0.054 A 
BRANCH  97  98
ATOM     98  S   UNL A   1      48.780  25.014  37.908  1.00  0.00     0.124 S 
ATOM     99  O   UNL A   1      49.309  23.923  37.094  1.00  0.00    -0.237 OA
ATOM    100  O   UNL A   1      49.690  26.137  38.121  1.00  0.00    -0.237 OA
ATOM    101  O   UNL A   1      48.024  24.601  39.088  1.00  0.00    -0.744 OA
ENDBRANCH  97  98
ENDBRANCH  71  92
ENDBRANCH  45  46
ENDBRANCH  38  40
ENDBRANCH  37  38
ENDBRANCH  36  37
ENDBRANCH  35  36
ENDBRANCH  34  35
ENDBRANCH   1  34
TORSDOF 25
ENDMDL
