MODEL 1
REMARK VINA RESULT:     -11.7      0.000      0.000
REMARK SMILES COc1cc(/C=C2/C(=O)NN(c3ccc(Cl)c(Cl)c3)C2=O)ccc1OCC(=O)OCCOC(=O)c1ccc(-c2c3nc(c(-c4ccc(S(=O)(=O)[O-])cc4)c4ccc([nH]4)c(-c4ccc(S(=O)(=O)[O-])cc4)c4nc(c(-c5ccc(S(=O)(=O)[O-])cc5)c5ccc2[nH]5)C=C4)C=C3)cc1
REMARK SMILES IDX 30 1 29 2 27 3 28 4 26 5 25 6 24 7 3 8 4 9 5 10 23 11 22 12
REMARK SMILES IDX 2 13 1 14 6 15 7 16 8 17 20 18 9 19 10 20 11 21 21 22 12 24
REMARK SMILES IDX 13 25 19 26 14 27 17 28 15 29 18 30 16 31 31 32 32 33 33 34
REMARK SMILES IDX 34 35 35 36 36 37 94 38 37 39 93 40 38 41 39 42 40 43 87 44
REMARK SMILES IDX 41 45 92 46 86 47 88 48 42 49 91 50 85 51 84 52 43 54 73 55
REMARK SMILES IDX 54 56 72 57 55 58 58 59 71 60 89 61 56 62 57 63 70 65 90 66
REMARK SMILES IDX 59 67 44 68 45 69 53 70 46 71 52 72 47 73 48 74 49 75 50 76
REMARK SMILES IDX 51 77 74 78 75 79 83 80 76 81 82 82 77 83 78 84 79 85 80 86
REMARK SMILES IDX 81 87 60 88 61 89 69 90 62 91 68 92 63 93 64 94 65 95 66 96
REMARK SMILES IDX 67 97
REMARK H PARENT 10 23 88 53 58 64
REMARK Flexibility Score: inf
ROOT
ATOM      1  C   UNL A   1      34.786  33.422  29.206  1.00  0.00     0.274 C 
ENDROOT
BRANCH   1   2
ATOM      2  O   UNL A   1      34.573  32.868  27.886  1.00  0.00    -0.460 OA
BRANCH   2   3
ATOM      3  C   UNL A   1      33.294  32.543  27.559  1.00  0.00     0.344 C 
ATOM      4  O   UNL A   1      32.359  33.339  27.542  1.00  0.00    -0.248 OA
BRANCH   3   5
ATOM      5  C   UNL A   1      33.141  31.072  27.137  1.00  0.00     0.352 C 
BRANCH   5   6
ATOM      6  O   UNL A   1      32.212  30.645  26.177  1.00  0.00    -0.478 OA
BRANCH   6   7
ATOM      7  C   UNL A   1      31.808  29.360  25.989  1.00  0.00     0.162 A 
ATOM      8  C   UNL A   1      31.347  28.656  24.867  1.00  0.00     0.161 A 
ATOM      9  C   UNL A   1      30.957  27.295  25.011  1.00  0.00     0.058 A 
ATOM     10  C   UNL A   1      30.958  26.660  26.264  1.00  0.00    -0.021 A 
ATOM     11  C   UNL A   1      31.771  28.712  27.235  1.00  0.00     0.051 A 
ATOM     12  C   UNL A   1      31.348  27.393  27.381  1.00  0.00     0.012 A 
BRANCH   8  13
ATOM     13  O   UNL A   1      30.920  29.230  23.696  1.00  0.00    -0.493 OA
ATOM     14  C   UNL A   1      29.837  28.622  23.026  1.00  0.00     0.278 C 
ENDBRANCH   8  13
BRANCH  10  15
ATOM     15  C   UNL A   1      30.448  25.304  26.512  1.00  0.00     0.028 C 
ATOM     16  C   UNL A   1      31.211  24.203  26.429  1.00  0.00     0.109 C 
ATOM     17  C   UNL A   1      30.661  22.826  26.335  1.00  0.00     0.275 C 
ATOM     18  C   UNL A   1      32.686  24.125  26.291  1.00  0.00     0.282 C 
ATOM     19  O   UNL A   1      29.497  22.499  26.433  1.00  0.00    -0.267 OA
ATOM     20  N   UNL A   1      31.757  22.028  26.061  1.00  0.00    -0.256 N 
ATOM     21  N   UNL A   1      32.940  22.765  26.083  1.00  0.00    -0.217 N 
ATOM     22  O   UNL A   1      33.466  25.059  26.312  1.00  0.00    -0.267 OA
ATOM     23  H   UNL A   1      31.708  21.062  25.876  1.00  0.00     0.192 HD
BRANCH  21  24
ATOM     24  C   UNL A   1      34.219  22.221  25.870  1.00  0.00     0.068 A 
ATOM     25  C   UNL A   1      34.379  20.912  25.406  1.00  0.00     0.030 A 
ATOM     26  C   UNL A   1      35.354  23.017  26.075  1.00  0.00     0.050 A 
ATOM     27  C   UNL A   1      35.658  20.433  25.093  1.00  0.00     0.024 A 
ATOM     28  C   UNL A   1      36.634  22.526  25.810  1.00  0.00     0.061 A 
ATOM     29  C   UNL A   1      36.787  21.236  25.296  1.00  0.00     0.059 A 
ATOM     30  Cl  UNL A   1      37.976  23.565  26.130  1.00  0.00    -0.083 Cl
ATOM     31  Cl  UNL A   1      38.329  20.588  24.869  1.00  0.00    -0.083 Cl
ENDBRANCH  21  24
ENDBRANCH  10  15
ENDBRANCH   6   7
ENDBRANCH   5   6
ENDBRANCH   3   5
ENDBRANCH   2   3
ENDBRANCH   1   2
BRANCH   1  32
ATOM     32  C   UNL A   1      35.342  32.326  30.128  1.00  0.00     0.275 C 
BRANCH  32  33
ATOM     33  O   UNL A   1      36.214  31.427  29.405  1.00  0.00    -0.458 OA
BRANCH  33  34
ATOM     34  C   UNL A   1      36.593  30.319  30.109  1.00  0.00     0.338 C 
ATOM     35  O   UNL A   1      35.944  29.809  31.009  1.00  0.00    -0.246 OA
BRANCH  34  36
ATOM     36  C   UNL A   1      37.856  29.721  29.575  1.00  0.00     0.060 A 
ATOM     37  C   UNL A   1      38.817  29.178  30.415  1.00  0.00     0.016 A 
ATOM     38  C   UNL A   1      38.148  29.794  28.210  1.00  0.00     0.016 A 
ATOM     39  C   UNL A   1      40.127  28.970  29.957  1.00  0.00     0.010 A 
ATOM     40  C   UNL A   1      39.410  29.400  27.725  1.00  0.00     0.010 A 
ATOM     41  C   UNL A   1      40.457  29.050  28.597  1.00  0.00    -0.014 A 
BRANCH  41  42
ATOM     42  C   UNL A   1      41.857  28.794  28.094  1.00  0.00     0.031 A 
ATOM     43  C   UNL A   1      42.250  27.417  27.575  1.00  0.00     0.074 A 
ATOM     44  C   UNL A   1      42.806  29.762  28.099  1.00  0.00     0.049 A 
ATOM     45  N   UNL A   1      43.445  26.911  27.375  1.00  0.00    -0.248 NA
ATOM     46  C   UNL A   1      41.159  26.475  27.267  1.00  0.00     0.031 C 
ATOM     47  C   UNL A   1      42.612  31.157  28.508  1.00  0.00     0.029 A 
ATOM     48  N   UNL A   1      44.141  29.725  27.745  1.00  0.00    -0.354 N 
ATOM     49  C   UNL A   1      43.250  25.578  27.017  1.00  0.00     0.074 A 
ATOM     50  C   UNL A   1      41.821  25.353  27.015  1.00  0.00     0.031 C 
ATOM     51  C   UNL A   1      43.747  31.845  28.326  1.00  0.00     0.029 A 
ATOM     52  C   UNL A   1      44.798  30.923  27.928  1.00  0.00     0.049 A 
ATOM     53  H   UNL A   1      44.582  28.916  27.396  1.00  0.00     0.167 HD
ATOM     54  C   UNL A   1      44.174  24.627  26.728  1.00  0.00     0.031 A 
ATOM     55  C   UNL A   1      46.104  31.251  27.863  1.00  0.00     0.031 A 
ATOM     56  C   UNL A   1      45.593  24.874  26.650  1.00  0.00     0.049 A 
ATOM     57  C   UNL A   1      47.111  30.174  27.560  1.00  0.00     0.074 A 
ATOM     58  C   UNL A   1      46.606  23.980  26.342  1.00  0.00     0.029 A 
ATOM     59  N   UNL A   1      46.197  26.105  26.851  1.00  0.00    -0.354 N 
ATOM     60  N   UNL A   1      46.906  28.904  27.304  1.00  0.00    -0.248 NA
ATOM     61  C   UNL A   1      48.524  30.574  27.551  1.00  0.00     0.031 C 
ATOM     62  C   UNL A   1      47.827  24.659  26.408  1.00  0.00     0.029 A 
ATOM     63  C   UNL A   1      47.569  25.990  26.689  1.00  0.00     0.049 A 
ATOM     64  H   UNL A   1      45.723  26.937  27.076  1.00  0.00     0.167 HD
ATOM     65  C   UNL A   1      48.165  28.361  27.077  1.00  0.00     0.074 A 
ATOM     66  C   UNL A   1      49.118  29.444  27.197  1.00  0.00     0.031 C 
ATOM     67  C   UNL A   1      48.504  27.078  26.799  1.00  0.00     0.031 A 
BRANCH  54  68
ATOM     68  C   UNL A   1      43.704  23.207  26.516  1.00  0.00    -0.014 A 
ATOM     69  C   UNL A   1      44.051  22.469  25.372  1.00  0.00     0.010 A 
ATOM     70  C   UNL A   1      42.976  22.569  27.542  1.00  0.00     0.010 A 
ATOM     71  C   UNL A   1      43.660  21.131  25.248  1.00  0.00     0.020 A 
ATOM     72  C   UNL A   1      42.609  21.223  27.435  1.00  0.00     0.020 A 
ATOM     73  C   UNL A   1      42.946  20.515  26.281  1.00  0.00     0.054 A 
BRANCH  73  74
ATOM     74  S   UNL A   1      42.505  18.763  26.109  1.00  0.00     0.124 S 
ATOM     75  O   UNL A   1      41.088  18.844  25.762  1.00  0.00    -0.237 OA
ATOM     76  O   UNL A   1      43.385  18.319  25.031  1.00  0.00    -0.237 OA
ATOM     77  O   UNL A   1      42.795  18.198  27.424  1.00  0.00    -0.744 OA
ENDBRANCH  73  74
ENDBRANCH  54  68
BRANCH  55  78
ATOM     78  C   UNL A   1      46.561  32.638  28.185  1.00  0.00    -0.014 A 
ATOM     79  C   UNL A   1      46.920  32.997  29.499  1.00  0.00     0.010 A 
ATOM     80  C   UNL A   1      46.597  33.625  27.182  1.00  0.00     0.010 A 
ATOM     81  C   UNL A   1      47.261  34.319  29.807  1.00  0.00     0.020 A 
ATOM     82  C   UNL A   1      46.983  34.936  27.476  1.00  0.00     0.020 A 
ATOM     83  C   UNL A   1      47.287  35.280  28.793  1.00  0.00     0.054 A 
BRANCH  83  84
ATOM     84  S   UNL A   1      47.737  36.989  29.208  1.00  0.00     0.124 S 
ATOM     85  O   UNL A   1      46.498  37.705  28.919  1.00  0.00    -0.237 OA
ATOM     86  O   UNL A   1      48.096  36.889  30.621  1.00  0.00    -0.237 OA
ATOM     87  O   UNL A   1      48.852  37.276  28.309  1.00  0.00    -0.744 OA
ENDBRANCH  83  84
ENDBRANCH  55  78
BRANCH  67  88
ATOM     88  C   UNL A   1      49.960  26.798  26.535  1.00  0.00    -0.014 A 
ATOM     89  C   UNL A   1      50.490  26.813  25.232  1.00  0.00     0.010 A 
ATOM     90  C   UNL A   1      50.810  26.509  27.618  1.00  0.00     0.010 A 
ATOM     91  C   UNL A   1      51.829  26.481  25.012  1.00  0.00     0.020 A 
ATOM     92  C   UNL A   1      52.157  26.211  27.406  1.00  0.00     0.020 A 
ATOM     93  C   UNL A   1      52.652  26.173  26.101  1.00  0.00     0.054 A 
BRANCH  93  94
ATOM     94  S   UNL A   1      54.384  25.738  25.792  1.00  0.00     0.124 S 
ATOM     95  O   UNL A   1      55.062  27.011  26.025  1.00  0.00    -0.237 OA
ATOM     96  O   UNL A   1      54.638  24.699  26.788  1.00  0.00    -0.237 OA
ATOM     97  O   UNL A   1      54.384  25.276  24.406  1.00  0.00    -0.744 OA
ENDBRANCH  93  94
ENDBRANCH  67  88
ENDBRANCH  41  42
ENDBRANCH  34  36
ENDBRANCH  33  34
ENDBRANCH  32  33
ENDBRANCH   1  32
TORSDOF 19
ENDMDL
MODEL 2
REMARK VINA RESULT:     -11.5      1.041      7.948
REMARK SMILES COc1cc(/C=C2/C(=O)NN(c3ccc(Cl)c(Cl)c3)C2=O)ccc1OCC(=O)OCCOC(=O)c1ccc(-c2c3nc(c(-c4ccc(S(=O)(=O)[O-])cc4)c4ccc([nH]4)c(-c4ccc(S(=O)(=O)[O-])cc4)c4nc(c(-c5ccc(S(=O)(=O)[O-])cc5)c5ccc2[nH]5)C=C4)C=C3)cc1
REMARK SMILES IDX 30 1 29 2 27 3 28 4 26 5 25 6 24 7 3 8 4 9 5 10 23 11 22 12
REMARK SMILES IDX 2 13 1 14 6 15 7 16 8 17 20 18 9 19 10 20 11 21 21 22 12 24
REMARK SMILES IDX 13 25 19 26 14 27 17 28 15 29 18 30 16 31 31 32 32 33 33 34
REMARK SMILES IDX 34 35 35 36 36 37 94 38 37 39 93 40 38 41 39 42 40 43 87 44
REMARK SMILES IDX 41 45 92 46 86 47 88 48 42 49 91 50 85 51 84 52 43 54 73 55
REMARK SMILES IDX 54 56 72 57 55 58 58 59 71 60 89 61 56 62 57 63 70 65 90 66
REMARK SMILES IDX 59 67 44 68 45 69 53 70 46 71 52 72 47 73 48 74 49 75 50 76
REMARK SMILES IDX 51 77 74 78 75 79 83 80 76 81 82 82 77 83 78 84 79 85 80 86
REMARK SMILES IDX 81 87 60 88 61 89 69 90 62 91 68 92 63 93 64 94 65 95 66 96
REMARK SMILES IDX 67 97
REMARK H PARENT 10 23 88 53 58 64
REMARK Flexibility Score: inf
ROOT
ATOM      1  C   UNL A   1      34.618  33.832  28.733  1.00  0.00     0.274 C 
ENDROOT
BRANCH   1   2
ATOM      2  O   UNL A   1      34.419  32.919  27.628  1.00  0.00    -0.460 OA
BRANCH   2   3
ATOM      3  C   UNL A   1      33.142  32.513  27.395  1.00  0.00     0.344 C 
ATOM      4  O   UNL A   1      32.174  33.266  27.336  1.00  0.00    -0.248 OA
BRANCH   3   5
ATOM      5  C   UNL A   1      33.035  31.000  27.137  1.00  0.00     0.352 C 
BRANCH   5   6
ATOM      6  O   UNL A   1      32.424  30.460  25.996  1.00  0.00    -0.478 OA
BRANCH   6   7
ATOM      7  C   UNL A   1      31.944  29.194  25.884  1.00  0.00     0.162 A 
ATOM      8  C   UNL A   1      31.435  28.454  24.807  1.00  0.00     0.161 A 
ATOM      9  C   UNL A   1      30.967  27.130  25.031  1.00  0.00     0.058 A 
ATOM     10  C   UNL A   1      30.938  26.569  26.318  1.00  0.00    -0.021 A 
ATOM     11  C   UNL A   1      31.878  28.622  27.166  1.00  0.00     0.051 A 
ATOM     12  C   UNL A   1      31.378  27.341  27.389  1.00  0.00     0.012 A 
BRANCH   8  13
ATOM     13  O   UNL A   1      31.035  28.984  23.606  1.00  0.00    -0.493 OA
ATOM     14  C   UNL A   1      29.873  29.786  23.599  1.00  0.00     0.278 C 
ENDBRANCH   8  13
BRANCH  10  15
ATOM     15  C   UNL A   1      30.350  25.262  26.646  1.00  0.00     0.028 C 
ATOM     16  C   UNL A   1      31.005  24.100  26.492  1.00  0.00     0.109 C 
ATOM     17  C   UNL A   1      30.335  22.774  26.486  1.00  0.00     0.275 C 
ATOM     18  C   UNL A   1      32.441  23.898  26.184  1.00  0.00     0.282 C 
ATOM     19  O   UNL A   1      29.169  22.546  26.725  1.00  0.00    -0.267 OA
ATOM     20  N   UNL A   1      31.322  21.885  26.099  1.00  0.00    -0.256 N 
ATOM     21  N   UNL A   1      32.556  22.520  25.970  1.00  0.00    -0.217 N 
ATOM     22  O   UNL A   1      33.293  24.763  26.099  1.00  0.00    -0.267 OA
ATOM     23  H   UNL A   1      31.172  20.925  25.937  1.00  0.00     0.192 HD
BRANCH  21  24
ATOM     24  C   UNL A   1      33.752  21.869  25.618  1.00  0.00     0.068 A 
ATOM     25  C   UNL A   1      34.986  22.517  25.724  1.00  0.00     0.030 A 
ATOM     26  C   UNL A   1      33.715  20.530  25.203  1.00  0.00     0.050 A 
ATOM     27  C   UNL A   1      36.169  21.809  25.476  1.00  0.00     0.024 A 
ATOM     28  C   UNL A   1      34.892  19.837  24.909  1.00  0.00     0.061 A 
ATOM     29  C   UNL A   1      36.126  20.471  25.067  1.00  0.00     0.059 A 
ATOM     30  Cl  UNL A   1      34.747  18.204  24.368  1.00  0.00    -0.083 Cl
ATOM     31  Cl  UNL A   1      37.625  19.657  24.800  1.00  0.00    -0.083 Cl
ENDBRANCH  21  24
ENDBRANCH  10  15
ENDBRANCH   6   7
ENDBRANCH   5   6
ENDBRANCH   3   5
ENDBRANCH   2   3
ENDBRANCH   1   2
BRANCH   1  32
ATOM     32  C   UNL A   1      35.312  33.087  29.883  1.00  0.00     0.275 C 
BRANCH  32  33
ATOM     33  O   UNL A   1      35.725  31.762  29.474  1.00  0.00    -0.458 OA
BRANCH  33  34
ATOM     34  C   UNL A   1      36.385  31.054  30.437  1.00  0.00     0.338 C 
ATOM     35  O   UNL A   1      35.857  30.538  31.410  1.00  0.00    -0.246 OA
BRANCH  34  36
ATOM     36  C   UNL A   1      37.834  30.877  30.108  1.00  0.00     0.060 A 
ATOM     37  C   UNL A   1      38.283  30.824  28.797  1.00  0.00     0.016 A 
ATOM     38  C   UNL A   1      38.765  30.649  31.126  1.00  0.00     0.016 A 
ATOM     39  C   UNL A   1      39.546  30.293  28.498  1.00  0.00     0.010 A 
ATOM     40  C   UNL A   1      40.094  30.301  30.817  1.00  0.00     0.010 A 
ATOM     41  C   UNL A   1      40.498  30.039  29.495  1.00  0.00    -0.014 A 
BRANCH  41  42
ATOM     42  C   UNL A   1      41.872  29.500  29.177  1.00  0.00     0.031 A 
ATOM     43  C   UNL A   1      43.086  30.420  29.202  1.00  0.00     0.074 A 
ATOM     44  C   UNL A   1      42.071  28.201  28.848  1.00  0.00     0.049 A 
ATOM     45  N   UNL A   1      44.280  30.237  28.690  1.00  0.00    -0.248 NA
ATOM     46  C   UNL A   1      42.929  31.727  29.865  1.00  0.00     0.031 C 
ATOM     47  C   UNL A   1      41.045  27.153  28.818  1.00  0.00     0.029 A 
ATOM     48  N   UNL A   1      43.214  27.526  28.469  1.00  0.00    -0.354 N 
ATOM     49  C   UNL A   1      44.974  31.431  28.882  1.00  0.00     0.074 A 
ATOM     50  C   UNL A   1      44.073  32.331  29.567  1.00  0.00     0.031 C 
ATOM     51  C   UNL A   1      41.607  25.976  28.510  1.00  0.00     0.029 A 
ATOM     52  C   UNL A   1      43.004  26.196  28.172  1.00  0.00     0.049 A 
ATOM     53  H   UNL A   1      44.099  27.956  28.416  1.00  0.00     0.167 HD
ATOM     54  C   UNL A   1      46.240  31.753  28.511  1.00  0.00     0.031 A 
ATOM     55  C   UNL A   1      43.803  25.260  27.621  1.00  0.00     0.031 A 
ATOM     56  C   UNL A   1      47.164  30.830  27.902  1.00  0.00     0.049 A 
ATOM     57  C   UNL A   1      45.194  25.648  27.201  1.00  0.00     0.074 A 
ATOM     58  C   UNL A   1      48.476  31.056  27.512  1.00  0.00     0.029 A 
ATOM     59  N   UNL A   1      46.891  29.500  27.621  1.00  0.00    -0.354 N 
ATOM     60  N   UNL A   1      45.799  26.805  27.321  1.00  0.00    -0.248 NA
ATOM     61  C   UNL A   1      46.005  24.605  26.560  1.00  0.00     0.031 C 
ATOM     62  C   UNL A   1      48.976  29.877  26.948  1.00  0.00     0.029 A 
ATOM     63  C   UNL A   1      48.001  28.900  27.049  1.00  0.00     0.049 A 
ATOM     64  H   UNL A   1      46.035  29.050  27.800  1.00  0.00     0.167 HD
ATOM     65  C   UNL A   1      47.072  26.620  26.794  1.00  0.00     0.074 A 
ATOM     66  C   UNL A   1      47.158  25.234  26.383  1.00  0.00     0.031 C 
ATOM     67  C   UNL A   1      48.078  27.517  26.657  1.00  0.00     0.031 A 
BRANCH  54  68
ATOM     68  C   UNL A   1      46.706  33.177  28.704  1.00  0.00    -0.014 A 
ATOM     69  C   UNL A   1      47.465  33.569  29.820  1.00  0.00     0.010 A 
ATOM     70  C   UNL A   1      46.456  34.121  27.686  1.00  0.00     0.010 A 
ATOM     71  C   UNL A   1      47.944  34.880  29.924  1.00  0.00     0.020 A 
ATOM     72  C   UNL A   1      46.958  35.424  27.772  1.00  0.00     0.020 A 
ATOM     73  C   UNL A   1      47.691  35.798  28.898  1.00  0.00     0.054 A 
BRANCH  73  74
ATOM     74  S   UNL A   1      48.376  37.473  29.042  1.00  0.00     0.124 S 
ATOM     75  O   UNL A   1      49.380  37.477  27.980  1.00  0.00    -0.237 OA
ATOM     76  O   UNL A   1      47.208  38.315  28.798  1.00  0.00    -0.237 OA
ATOM     77  O   UNL A   1      48.905  37.519  30.403  1.00  0.00    -0.744 OA
ENDBRANCH  73  74
ENDBRANCH  54  68
BRANCH  55  78
ATOM     78  C   UNL A   1      43.286  23.886  27.336  1.00  0.00    -0.014 A 
ATOM     79  C   UNL A   1      43.337  22.874  28.313  1.00  0.00     0.010 A 
ATOM     80  C   UNL A   1      42.775  23.569  26.063  1.00  0.00     0.010 A 
ATOM     81  C   UNL A   1      42.932  21.569  28.009  1.00  0.00     0.020 A 
ATOM     82  C   UNL A   1      42.326  22.279  25.769  1.00  0.00     0.020 A 
ATOM     83  C   UNL A   1      42.431  21.280  26.737  1.00  0.00     0.054 A 
BRANCH  83  84
ATOM     84  S   UNL A   1      41.905  19.585  26.360  1.00  0.00     0.124 S 
ATOM     85  O   UNL A   1      42.372  18.856  27.535  1.00  0.00    -0.237 OA
ATOM     86  O   UNL A   1      40.457  19.722  26.233  1.00  0.00    -0.237 OA
ATOM     87  O   UNL A   1      42.605  19.280  25.114  1.00  0.00    -0.744 OA
ENDBRANCH  83  84
ENDBRANCH  55  78
BRANCH  67  88
ATOM     88  C   UNL A   1      49.381  27.003  26.103  1.00  0.00    -0.014 A 
ATOM     89  C   UNL A   1      50.354  26.415  26.931  1.00  0.00     0.010 A 
ATOM     90  C   UNL A   1      49.633  27.119  24.724  1.00  0.00     0.010 A 
ATOM     91  C   UNL A   1      51.581  26.011  26.400  1.00  0.00     0.020 A 
ATOM     92  C   UNL A   1      50.844  26.684  24.183  1.00  0.00     0.020 A 
ATOM     93  C   UNL A   1      51.821  26.157  25.029  1.00  0.00     0.054 A 
BRANCH  93  94
ATOM     94  S   UNL A   1      53.423  25.633  24.362  1.00  0.00     0.124 S 
ATOM     95  O   UNL A   1      53.238  25.844  22.929  1.00  0.00    -0.237 OA
ATOM     96  O   UNL A   1      54.359  26.544  25.016  1.00  0.00    -0.237 OA
ATOM     97  O   UNL A   1      53.531  24.236  24.776  1.00  0.00    -0.744 OA
ENDBRANCH  93  94
ENDBRANCH  67  88
ENDBRANCH  41  42
ENDBRANCH  34  36
ENDBRANCH  33  34
ENDBRANCH  32  33
ENDBRANCH   1  32
TORSDOF 19
ENDMDL
MODEL 3
REMARK VINA RESULT:     -10.4     10.662     15.555
REMARK SMILES COc1cc(/C=C2/C(=O)NN(c3ccc(Cl)c(Cl)c3)C2=O)ccc1OCC(=O)OCCOC(=O)c1ccc(-c2c3nc(c(-c4ccc(S(=O)(=O)[O-])cc4)c4ccc([nH]4)c(-c4ccc(S(=O)(=O)[O-])cc4)c4nc(c(-c5ccc(S(=O)(=O)[O-])cc5)c5ccc2[nH]5)C=C4)C=C3)cc1
REMARK SMILES IDX 30 1 29 2 27 3 28 4 26 5 25 6 24 7 3 8 4 9 5 10 23 11 22 12
REMARK SMILES IDX 2 13 1 14 6 15 7 16 8 17 20 18 9 19 10 20 11 21 21 22 12 24
REMARK SMILES IDX 13 25 19 26 14 27 17 28 15 29 18 30 16 31 31 32 32 33 33 34
REMARK SMILES IDX 34 35 35 36 36 37 94 38 37 39 93 40 38 41 39 42 40 43 87 44
REMARK SMILES IDX 41 45 92 46 86 47 88 48 42 49 91 50 85 51 84 52 43 54 73 55
REMARK SMILES IDX 54 56 72 57 55 58 58 59 71 60 89 61 56 62 57 63 70 65 90 66
REMARK SMILES IDX 59 67 44 68 45 69 53 70 46 71 52 72 47 73 48 74 49 75 50 76
REMARK SMILES IDX 51 77 74 78 75 79 83 80 76 81 82 82 77 83 78 84 79 85 80 86
REMARK SMILES IDX 81 87 60 88 61 89 69 90 62 91 68 92 63 93 64 94 65 95 66 96
REMARK SMILES IDX 67 97
REMARK H PARENT 10 23 88 53 58 64
REMARK Flexibility Score: inf
ROOT
ATOM      1  C   UNL A   1      46.036  19.325  36.380  1.00  0.00     0.274 C 
ENDROOT
BRANCH   1   2
ATOM      2  O   UNL A   1      47.266  19.314  37.141  1.00  0.00    -0.460 OA
BRANCH   2   3
ATOM      3  C   UNL A   1      47.319  20.129  38.228  1.00  0.00     0.344 C 
ATOM      4  O   UNL A   1      47.901  21.210  38.257  1.00  0.00    -0.248 OA
BRANCH   3   5
ATOM      5  C   UNL A   1      46.505  19.591  39.418  1.00  0.00     0.352 C 
BRANCH   5   6
ATOM      6  O   UNL A   1      46.388  18.224  39.708  1.00  0.00    -0.478 OA
BRANCH   6   7
ATOM      7  C   UNL A   1      45.248  17.598  40.103  1.00  0.00     0.162 A 
ATOM      8  C   UNL A   1      44.391  17.769  41.200  1.00  0.00     0.161 A 
ATOM      9  C   UNL A   1      43.272  16.904  41.352  1.00  0.00     0.058 A 
ATOM     10  C   UNL A   1      43.042  15.839  40.466  1.00  0.00    -0.021 A 
ATOM     11  C   UNL A   1      45.013  16.508  39.248  1.00  0.00     0.051 A 
ATOM     12  C   UNL A   1      43.942  15.636  39.423  1.00  0.00     0.012 A 
BRANCH   8  13
ATOM     13  O   UNL A   1      44.695  18.480  42.334  1.00  0.00    -0.493 OA
ATOM     14  C   UNL A   1      45.414  17.815  43.351  1.00  0.00     0.278 C 
ENDBRANCH   8  13
BRANCH  10  15
ATOM     15  C   UNL A   1      41.987  14.829  40.631  1.00  0.00     0.028 C 
ATOM     16  C   UNL A   1      42.037  13.855  41.554  1.00  0.00     0.109 C 
ATOM     17  C   UNL A   1      41.178  12.643  41.518  1.00  0.00     0.275 C 
ATOM     18  C   UNL A   1      42.993  13.715  42.678  1.00  0.00     0.282 C 
ATOM     19  O   UNL A   1      40.265  12.420  40.751  1.00  0.00    -0.267 OA
ATOM     20  N   UNL A   1      41.688  11.823  42.508  1.00  0.00    -0.256 N 
ATOM     21  N   UNL A   1      42.707  12.456  43.218  1.00  0.00    -0.217 N 
ATOM     22  O   UNL A   1      43.852  14.514  43.004  1.00  0.00    -0.267 OA
ATOM     23  H   UNL A   1      41.370  10.909  42.689  1.00  0.00     0.192 HD
BRANCH  21  24
ATOM     24  C   UNL A   1      43.395  11.882  44.301  1.00  0.00     0.068 A 
ATOM     25  C   UNL A   1      44.177  10.735  44.135  1.00  0.00     0.030 A 
ATOM     26  C   UNL A   1      43.342  12.497  45.560  1.00  0.00     0.050 A 
ATOM     27  C   UNL A   1      44.942  10.250  45.204  1.00  0.00     0.024 A 
ATOM     28  C   UNL A   1      44.067  11.988  46.640  1.00  0.00     0.061 A 
ATOM     29  C   UNL A   1      44.888  10.873  46.456  1.00  0.00     0.059 A 
ATOM     30  Cl  UNL A   1      43.910  12.787  48.162  1.00  0.00    -0.083 Cl
ATOM     31  Cl  UNL A   1      45.874  10.233  47.722  1.00  0.00    -0.083 Cl
ENDBRANCH  21  24
ENDBRANCH  10  15
ENDBRANCH   6   7
ENDBRANCH   5   6
ENDBRANCH   3   5
ENDBRANCH   2   3
ENDBRANCH   1   2
BRANCH   1  32
ATOM     32  C   UNL A   1      46.245  20.142  35.096  1.00  0.00     0.275 C 
BRANCH  32  33
ATOM     33  O   UNL A   1      45.097  20.975  34.814  1.00  0.00    -0.458 OA
BRANCH  33  34
ATOM     34  C   UNL A   1      45.105  22.184  35.451  1.00  0.00     0.338 C 
ATOM     35  O   UNL A   1      45.341  22.345  36.638  1.00  0.00    -0.246 OA
BRANCH  34  36
ATOM     36  C   UNL A   1      44.902  23.320  34.499  1.00  0.00     0.060 A 
ATOM     37  C   UNL A   1      45.794  24.380  34.429  1.00  0.00     0.016 A 
ATOM     38  C   UNL A   1      43.739  23.395  33.729  1.00  0.00     0.016 A 
ATOM     39  C   UNL A   1      45.416  25.591  33.830  1.00  0.00     0.010 A 
ATOM     40  C   UNL A   1      43.453  24.547  32.971  1.00  0.00     0.010 A 
ATOM     41  C   UNL A   1      44.248  25.704  33.063  1.00  0.00    -0.014 A 
BRANCH  41  42
ATOM     42  C   UNL A   1      43.852  26.995  32.387  1.00  0.00     0.031 A 
ATOM     43  C   UNL A   1      44.370  27.327  30.994  1.00  0.00     0.074 A 
ATOM     44  C   UNL A   1      43.045  27.900  32.993  1.00  0.00     0.049 A 
ATOM     45  N   UNL A   1      44.393  28.478  30.366  1.00  0.00    -0.248 NA
ATOM     46  C   UNL A   1      44.966  26.225  30.216  1.00  0.00     0.031 C 
ATOM     47  C   UNL A   1      42.407  27.743  34.304  1.00  0.00     0.029 A 
ATOM     48  N   UNL A   1      42.616  29.147  32.586  1.00  0.00    -0.354 N 
ATOM     49  C   UNL A   1      45.085  28.260  29.175  1.00  0.00     0.074 A 
ATOM     50  C   UNL A   1      45.458  26.863  29.160  1.00  0.00     0.031 C 
ATOM     51  C   UNL A   1      41.630  28.805  34.561  1.00  0.00     0.029 A 
ATOM     52  C   UNL A   1      41.821  29.791  33.510  1.00  0.00     0.049 A 
ATOM     53  H   UNL A   1      42.856  29.540  31.715  1.00  0.00     0.167 HD
ATOM     54  C   UNL A   1      45.392  29.143  28.191  1.00  0.00     0.031 A 
ATOM     55  C   UNL A   1      41.349  31.053  33.566  1.00  0.00     0.031 A 
ATOM     56  C   UNL A   1      44.950  30.516  28.168  1.00  0.00     0.049 A 
ATOM     57  C   UNL A   1      41.720  32.018  32.473  1.00  0.00     0.074 A 
ATOM     58  C   UNL A   1      45.190  31.481  27.202  1.00  0.00     0.029 A 
ATOM     59  N   UNL A   1      44.154  31.110  29.134  1.00  0.00    -0.354 N 
ATOM     60  N   UNL A   1      42.442  31.808  31.399  1.00  0.00    -0.248 NA
ATOM     61  C   UNL A   1      41.223  33.393  32.609  1.00  0.00     0.031 C 
ATOM     62  C   UNL A   1      44.583  32.673  27.612  1.00  0.00     0.029 A 
ATOM     63  C   UNL A   1      43.907  32.431  28.796  1.00  0.00     0.049 A 
ATOM     64  H   UNL A   1      43.814  30.661  29.941  1.00  0.00     0.167 HD
ATOM     65  C   UNL A   1      42.461  33.019  30.718  1.00  0.00     0.074 A 
ATOM     66  C   UNL A   1      41.656  33.946  31.485  1.00  0.00     0.031 C 
ATOM     67  C   UNL A   1      43.094  33.339  29.562  1.00  0.00     0.031 A 
BRANCH  54  68
ATOM     68  C   UNL A   1      46.290  28.684  27.066  1.00  0.00    -0.014 A 
ATOM     69  C   UNL A   1      47.691  28.707  27.172  1.00  0.00     0.010 A 
ATOM     70  C   UNL A   1      45.705  28.125  25.911  1.00  0.00     0.010 A 
ATOM     71  C   UNL A   1      48.487  28.201  26.138  1.00  0.00     0.020 A 
ATOM     72  C   UNL A   1      46.496  27.592  24.888  1.00  0.00     0.020 A 
ATOM     73  C   UNL A   1      47.885  27.643  25.005  1.00  0.00     0.054 A 
BRANCH  73  74
ATOM     74  S   UNL A   1      48.949  26.947  23.710  1.00  0.00     0.124 S 
ATOM     75  O   UNL A   1      48.210  25.744  23.331  1.00  0.00    -0.237 OA
ATOM     76  O   UNL A   1      48.965  28.009  22.708  1.00  0.00    -0.237 OA
ATOM     77  O   UNL A   1      50.220  26.711  24.390  1.00  0.00    -0.744 OA
ENDBRANCH  73  74
ENDBRANCH  54  68
BRANCH  55  78
ATOM     78  C   UNL A   1      40.555  31.520  34.744  1.00  0.00    -0.014 A 
ATOM     79  C   UNL A   1      39.147  31.502  34.724  1.00  0.00     0.010 A 
ATOM     80  C   UNL A   1      41.207  32.030  35.884  1.00  0.00     0.010 A 
ATOM     81  C   UNL A   1      38.413  32.022  35.796  1.00  0.00     0.020 A 
ATOM     82  C   UNL A   1      40.478  32.507  36.976  1.00  0.00     0.020 A 
ATOM     83  C   UNL A   1      39.085  32.524  36.915  1.00  0.00     0.054 A 
BRANCH  83  84
ATOM     84  S   UNL A   1      38.118  33.190  38.298  1.00  0.00     0.124 S 
ATOM     85  O   UNL A   1      36.749  32.940  37.857  1.00  0.00    -0.237 OA
ATOM     86  O   UNL A   1      38.577  32.382  39.426  1.00  0.00    -0.237 OA
ATOM     87  O   UNL A   1      38.515  34.595  38.347  1.00  0.00    -0.744 OA
ENDBRANCH  83  84
ENDBRANCH  55  78
BRANCH  67  88
ATOM     88  C   UNL A   1      42.876  34.729  29.026  1.00  0.00    -0.014 A 
ATOM     89  C   UNL A   1      41.891  35.001  28.060  1.00  0.00     0.010 A 
ATOM     90  C   UNL A   1      43.682  35.780  29.499  1.00  0.00     0.010 A 
ATOM     91  C   UNL A   1      41.759  36.288  27.531  1.00  0.00     0.020 A 
ATOM     92  C   UNL A   1      43.530  37.074  28.999  1.00  0.00     0.020 A 
ATOM     93  C   UNL A   1      42.586  37.314  27.998  1.00  0.00     0.054 A 
BRANCH  93  94
ATOM     94  S   UNL A   1      42.403  38.974  27.293  1.00  0.00     0.124 S 
ATOM     95  O   UNL A   1      42.288  39.801  28.491  1.00  0.00    -0.237 OA
ATOM     96  O   UNL A   1      43.639  39.139  26.531  1.00  0.00    -0.237 OA
ATOM     97  O   UNL A   1      41.189  38.876  26.485  1.00  0.00    -0.744 OA
ENDBRANCH  93  94
ENDBRANCH  67  88
ENDBRANCH  41  42
ENDBRANCH  34  36
ENDBRANCH  33  34
ENDBRANCH  32  33
ENDBRANCH   1  32
TORSDOF 19
ENDMDL
