MODEL 1
REMARK VINA RESULT:     -13.8      0.000      0.000
REMARK SMILES Cc1oc2cc3c(cc2c1C)[C@H](C)[C@@H](CC(=O)N[C@H](CC1=c2ccccc2=NC1)C(=O)OCCOC(=O)c1ccc(-c2c4nc(c(-c5ccc(S(=O)(=O)[O-])cc5)c5ccc([nH]5)c(-c5ccc(S(=O)(=O)[O-])cc5)c5nc(c(-c6ccc(S(=O)(=O)[O-])cc6)c6ccc2[nH]6)C=C5)C=C4)cc1)C(=O)O3
REMARK SMILES IDX 33 1 32 2 30 3 31 4 19 5 18 6 16 7 17 8 15 10 14 11 1 12
REMARK SMILES IDX 2 13 3 14 10 15 4 16 9 17 11 18 5 19 8 20 6 21 7 22 100 23
REMARK SMILES IDX 12 24 98 25 13 26 99 27 20 28 21 29 22 30 29 31 23 32 27 33
REMARK SMILES IDX 28 34 24 35 26 36 25 37 34 38 35 39 36 40 37 41 38 42 39 43
REMARK SMILES IDX 97 44 40 45 96 46 41 47 42 48 43 49 90 50 44 51 95 52 89 53
REMARK SMILES IDX 91 54 45 55 94 56 88 57 87 58 46 60 76 61 57 62 75 63 58 64
REMARK SMILES IDX 61 65 74 66 92 67 59 68 60 69 73 71 93 72 62 73 47 74 48 75
REMARK SMILES IDX 56 76 49 77 55 78 50 79 51 80 52 81 53 82 54 83 77 84 78 85
REMARK SMILES IDX 86 86 79 87 85 88 80 89 81 90 82 91 83 92 84 93 63 94 64 95
REMARK SMILES IDX 72 96 65 97 71 98 66 99 67 100 68 101 69 102 70 103
REMARK H PARENT 18 9 91 59 61 70
REMARK Flexibility Score: inf
ROOT
ATOM      1  C   UNL A   1      36.259  21.045  25.116  1.00  0.00     0.274 C 
ENDROOT
BRANCH   1   2
ATOM      2  O   UNL A   1      35.204  21.952  24.628  1.00  0.00    -0.461 OA
BRANCH   2   3
ATOM      3  C   UNL A   1      34.074  21.683  25.292  1.00  0.00     0.329 C 
ATOM      4  O   UNL A   1      34.196  21.262  26.425  1.00  0.00    -0.250 OA
BRANCH   3   5
ATOM      5  C   UNL A   1      32.688  21.724  24.757  1.00  0.00     0.196 C 
BRANCH   5   6
ATOM      6  N   UNL A   1      31.980  22.356  25.939  1.00  0.00    -0.342 N 
ATOM      7  C   UNL A   1      31.936  23.592  26.574  1.00  0.00     0.221 C 
ATOM      8  O   UNL A   1      31.173  23.524  27.566  1.00  0.00    -0.275 OA
ATOM      9  H   UNL A   1      31.384  21.710  26.380  1.00  0.00     0.164 HD
BRANCH   7  10
ATOM     10  C   UNL A   1      32.554  25.094  26.306  1.00  0.00     0.116 C 
BRANCH  10  11
ATOM     11  C   UNL A   1      31.808  26.326  25.651  1.00  0.00     0.116 C 
ATOM     12  C   UNL A   1      28.369  33.543  22.769  1.00  0.00     0.088 C 
ATOM     13  C   UNL A   1      28.803  32.142  22.987  1.00  0.00     0.105 A 
ATOM     14  O   UNL A   1      29.571  31.966  24.086  1.00  0.00    -0.461 OA
ATOM     15  C   UNL A   1      28.684  30.935  22.300  1.00  0.00    -0.002 A 
ATOM     16  C   UNL A   1      29.926  30.665  24.107  1.00  0.00     0.138 A 
ATOM     17  C   UNL A   1      29.318  29.918  23.114  1.00  0.00     0.024 A 
ATOM     18  C   UNL A   1      28.108  30.771  20.948  1.00  0.00     0.049 C 
ATOM     19  C   UNL A   1      30.901  30.167  24.928  1.00  0.00     0.095 A 
ATOM     20  C   UNL A   1      29.559  28.489  23.120  1.00  0.00     0.020 A 
ATOM     21  C   UNL A   1      31.225  28.827  24.736  1.00  0.00     0.138 A 
ATOM     22  C   UNL A   1      30.466  27.910  24.048  1.00  0.00    -0.001 A 
ATOM     23  O   UNL A   1      32.571  28.437  24.889  1.00  0.00    -0.426 OA
ATOM     24  C   UNL A   1      30.931  26.432  24.288  1.00  0.00     0.035 C 
ATOM     25  C   UNL A   1      32.939  27.108  25.105  1.00  0.00     0.315 C 
ATOM     26  C   UNL A   1      29.793  25.459  24.162  1.00  0.00     0.014 C 
ATOM     27  O   UNL A   1      34.076  26.659  24.983  1.00  0.00    -0.251 OA
ENDBRANCH  10  11
ENDBRANCH   7  10
ENDBRANCH   5   6
BRANCH   5  28
ATOM     28  C   UNL A   1      32.218  20.343  24.012  1.00  0.00     0.070 C 
BRANCH  28  29
ATOM     29  C   UNL A   1      33.278  19.114  23.725  1.00  0.00    -0.037 C 
ATOM     30  C   UNL A   1      33.859  18.226  24.594  1.00  0.00     0.001 A 
ATOM     31  C   UNL A   1      32.672  18.185  22.749  1.00  0.00     0.174 C 
ATOM     32  C   UNL A   1      34.834  17.134  24.156  1.00  0.00     0.010 A 
ATOM     33  C   UNL A   1      32.591  17.445  24.751  1.00  0.00     0.065 A 
ATOM     34  N   UNL A   1      31.834  17.431  23.687  1.00  0.00    -0.280 NA
ATOM     35  C   UNL A   1      34.604  15.845  24.523  1.00  0.00     0.001 A 
ATOM     36  C   UNL A   1      32.600  16.401  25.785  1.00  0.00     0.028 A 
ATOM     37  C   UNL A   1      33.590  15.529  25.528  1.00  0.00     0.002 A 
ENDBRANCH  28  29
ENDBRANCH   5  28
ENDBRANCH   3   5
ENDBRANCH   2   3
ENDBRANCH   1   2
BRANCH   1  38
ATOM     38  C   UNL A   1      37.769  21.525  24.863  1.00  0.00     0.275 C 
BRANCH  38  39
ATOM     39  O   UNL A   1      38.477  21.976  26.094  1.00  0.00    -0.458 OA
BRANCH  39  40
ATOM     40  C   UNL A   1      39.824  22.036  26.357  1.00  0.00     0.338 C 
ATOM     41  O   UNL A   1      40.600  21.106  26.184  1.00  0.00    -0.246 OA
BRANCH  40  42
ATOM     42  C   UNL A   1      40.241  23.365  27.041  1.00  0.00     0.060 A 
ATOM     43  C   UNL A   1      39.330  24.111  27.797  1.00  0.00     0.016 A 
ATOM     44  C   UNL A   1      41.483  23.981  26.850  1.00  0.00     0.016 A 
ATOM     45  C   UNL A   1      39.607  25.465  28.182  1.00  0.00     0.010 A 
ATOM     46  C   UNL A   1      41.769  25.326  27.252  1.00  0.00     0.010 A 
ATOM     47  C   UNL A   1      40.809  26.129  27.855  1.00  0.00    -0.014 A 
BRANCH  47  48
ATOM     48  C   UNL A   1      41.061  27.578  28.220  1.00  0.00     0.031 A 
ATOM     49  C   UNL A   1      39.856  28.503  28.438  1.00  0.00     0.074 A 
ATOM     50  C   UNL A   1      42.237  27.970  28.784  1.00  0.00     0.049 A 
ATOM     51  N   UNL A   1      39.241  28.780  29.561  1.00  0.00    -0.248 NA
ATOM     52  C   UNL A   1      39.172  29.072  27.270  1.00  0.00     0.031 C 
ATOM     53  C   UNL A   1      42.788  27.375  30.005  1.00  0.00     0.029 A 
ATOM     54  N   UNL A   1      43.021  29.097  28.605  1.00  0.00    -0.354 N 
ATOM     55  C   UNL A   1      38.115  29.567  29.257  1.00  0.00     0.074 A 
ATOM     56  C   UNL A   1      38.116  29.692  27.816  1.00  0.00     0.031 C 
ATOM     57  C   UNL A   1      43.721  28.190  30.538  1.00  0.00     0.029 A 
ATOM     58  C   UNL A   1      43.923  29.327  29.651  1.00  0.00     0.049 A 
ATOM     59  H   UNL A   1      42.951  29.682  27.816  1.00  0.00     0.167 HD
ATOM     60  C   UNL A   1      37.257  30.126  30.169  1.00  0.00     0.031 A 
ATOM     61  C   UNL A   1      44.401  30.545  30.047  1.00  0.00     0.031 A 
ATOM     62  C   UNL A   1      37.605  29.903  31.540  1.00  0.00     0.049 A 
ATOM     63  C   UNL A   1      43.235  31.030  30.878  1.00  0.00     0.074 A 
ATOM     64  C   UNL A   1      37.224  29.096  32.587  1.00  0.00     0.029 A 
ATOM     65  N   UNL A   1      38.572  30.712  32.085  1.00  0.00    -0.354 N 
ATOM     66  N   UNL A   1      42.923  30.650  32.091  1.00  0.00    -0.248 NA
ATOM     67  C   UNL A   1      42.145  31.659  30.130  1.00  0.00     0.031 C 
ATOM     68  C   UNL A   1      38.315  29.140  33.513  1.00  0.00     0.029 A 
ATOM     69  C   UNL A   1      39.307  29.944  32.947  1.00  0.00     0.049 A 
ATOM     70  H   UNL A   1      38.712  31.667  31.892  1.00  0.00     0.167 HD
ATOM     71  C   UNL A   1      41.526  30.701  32.145  1.00  0.00     0.074 A 
ATOM     72  C   UNL A   1      41.119  31.307  30.890  1.00  0.00     0.031 C 
ATOM     73  C   UNL A   1      40.747  30.095  33.093  1.00  0.00     0.031 A 
BRANCH  60  74
ATOM     74  C   UNL A   1      36.152  31.108  29.884  1.00  0.00    -0.014 A 
ATOM     75  C   UNL A   1      35.630  31.992  30.844  1.00  0.00     0.010 A 
ATOM     76  C   UNL A   1      35.773  31.302  28.538  1.00  0.00     0.010 A 
ATOM     77  C   UNL A   1      34.755  33.033  30.462  1.00  0.00     0.020 A 
ATOM     78  C   UNL A   1      34.917  32.341  28.150  1.00  0.00     0.020 A 
ATOM     79  C   UNL A   1      34.407  33.203  29.116  1.00  0.00     0.054 A 
BRANCH  79  80
ATOM     80  S   UNL A   1      33.305  34.568  28.629  1.00  0.00     0.124 S 
ATOM     81  O   UNL A   1      34.246  35.547  28.091  1.00  0.00    -0.237 OA
ATOM     82  O   UNL A   1      32.425  33.937  27.648  1.00  0.00    -0.237 OA
ATOM     83  O   UNL A   1      32.656  34.956  29.880  1.00  0.00    -0.744 OA
ENDBRANCH  79  80
ENDBRANCH  60  74
BRANCH  61  84
ATOM     84  C   UNL A   1      45.054  31.363  28.971  1.00  0.00    -0.014 A 
ATOM     85  C   UNL A   1      45.498  30.885  27.728  1.00  0.00     0.010 A 
ATOM     86  C   UNL A   1      45.315  32.716  29.278  1.00  0.00     0.010 A 
ATOM     87  C   UNL A   1      46.394  31.637  26.954  1.00  0.00     0.020 A 
ATOM     88  C   UNL A   1      46.180  33.486  28.498  1.00  0.00     0.020 A 
ATOM     89  C   UNL A   1      46.777  32.909  27.382  1.00  0.00     0.054 A 
BRANCH  89  90
ATOM     90  S   UNL A   1      48.153  33.742  26.547  1.00  0.00     0.124 S 
ATOM     91  O   UNL A   1      49.009  32.612  26.191  1.00  0.00    -0.237 OA
ATOM     92  O   UNL A   1      47.491  34.412  25.433  1.00  0.00    -0.237 OA
ATOM     93  O   UNL A   1      48.695  34.628  27.575  1.00  0.00    -0.744 OA
ENDBRANCH  89  90
ENDBRANCH  61  84
BRANCH  73  94
ATOM     94  C   UNL A   1      41.425  29.384  34.230  1.00  0.00    -0.014 A 
ATOM     95  C   UNL A   1      41.871  30.126  35.339  1.00  0.00     0.010 A 
ATOM     96  C   UNL A   1      41.766  28.027  34.158  1.00  0.00     0.010 A 
ATOM     97  C   UNL A   1      42.732  29.568  36.285  1.00  0.00     0.020 A 
ATOM     98  C   UNL A   1      42.596  27.447  35.129  1.00  0.00     0.020 A 
ATOM     99  C   UNL A   1      43.102  28.232  36.166  1.00  0.00     0.054 A 
BRANCH  99 100
ATOM    100  S   UNL A   1      44.300  27.575  37.355  1.00  0.00     0.124 S 
ATOM    101  O   UNL A   1      43.489  26.638  38.128  1.00  0.00    -0.237 OA
ATOM    102  O   UNL A   1      45.303  26.965  36.487  1.00  0.00    -0.237 OA
ATOM    103  O   UNL A   1      44.748  28.756  38.088  1.00  0.00    -0.744 OA
ENDBRANCH  99 100
ENDBRANCH  73  94
ENDBRANCH  47  48
ENDBRANCH  40  42
ENDBRANCH  39  40
ENDBRANCH  38  39
ENDBRANCH   1  38
TORSDOF 19
ENDMDL
MODEL 2
REMARK VINA RESULT:     -12.9      1.975      2.842
REMARK SMILES Cc1oc2cc3c(cc2c1C)[C@H](C)[C@@H](CC(=O)N[C@H](CC1=c2ccccc2=NC1)C(=O)OCCOC(=O)c1ccc(-c2c4nc(c(-c5ccc(S(=O)(=O)[O-])cc5)c5ccc([nH]5)c(-c5ccc(S(=O)(=O)[O-])cc5)c5nc(c(-c6ccc(S(=O)(=O)[O-])cc6)c6ccc2[nH]6)C=C5)C=C4)cc1)C(=O)O3
REMARK SMILES IDX 33 1 32 2 30 3 31 4 19 5 18 6 16 7 17 8 15 10 14 11 1 12
REMARK SMILES IDX 2 13 3 14 10 15 4 16 9 17 11 18 5 19 8 20 6 21 7 22 100 23
REMARK SMILES IDX 12 24 98 25 13 26 99 27 20 28 21 29 22 30 29 31 23 32 27 33
REMARK SMILES IDX 28 34 24 35 26 36 25 37 34 38 35 39 36 40 37 41 38 42 39 43
REMARK SMILES IDX 97 44 40 45 96 46 41 47 42 48 43 49 90 50 44 51 95 52 89 53
REMARK SMILES IDX 91 54 45 55 94 56 88 57 87 58 46 60 76 61 57 62 75 63 58 64
REMARK SMILES IDX 61 65 74 66 92 67 59 68 60 69 73 71 93 72 62 73 47 74 48 75
REMARK SMILES IDX 56 76 49 77 55 78 50 79 51 80 52 81 53 82 54 83 77 84 78 85
REMARK SMILES IDX 86 86 79 87 85 88 80 89 81 90 82 91 83 92 84 93 63 94 64 95
REMARK SMILES IDX 72 96 65 97 71 98 66 99 67 100 68 101 69 102 70 103
REMARK H PARENT 18 9 91 59 61 70
REMARK Flexibility Score: inf
ROOT
ATOM      1  C   UNL A   1      35.729  23.071  26.401  1.00  0.00     0.274 C 
ENDROOT
BRANCH   1   2
ATOM      2  O   UNL A   1      34.588  23.706  25.715  1.00  0.00    -0.461 OA
BRANCH   2   3
ATOM      3  C   UNL A   1      34.602  23.328  24.432  1.00  0.00     0.329 C 
ATOM      4  O   UNL A   1      35.152  24.078  23.650  1.00  0.00    -0.250 OA
BRANCH   3   5
ATOM      5  C   UNL A   1      33.912  22.155  23.835  1.00  0.00     0.196 C 
BRANCH   5   6
ATOM      6  N   UNL A   1      33.796  22.633  22.402  1.00  0.00    -0.342 N 
ATOM      7  C   UNL A   1      33.049  23.557  21.680  1.00  0.00     0.221 C 
ATOM      8  O   UNL A   1      33.362  23.493  20.469  1.00  0.00    -0.275 OA
ATOM      9  H   UNL A   1      34.427  22.154  21.817  1.00  0.00     0.164 HD
BRANCH   7  10
ATOM     10  C   UNL A   1      31.950  24.733  22.025  1.00  0.00     0.116 C 
BRANCH  10  11
ATOM     11  C   UNL A   1      32.132  25.936  23.036  1.00  0.00     0.116 C 
ATOM     12  C   UNL A   1      34.099  32.091  28.557  1.00  0.00     0.088 C 
ATOM     13  C   UNL A   1      33.456  31.211  27.552  1.00  0.00     0.105 A 
ATOM     14  O   UNL A   1      34.181  30.114  27.233  1.00  0.00    -0.461 OA
ATOM     15  C   UNL A   1      32.301  31.251  26.772  1.00  0.00    -0.002 A 
ATOM     16  C   UNL A   1      33.493  29.459  26.275  1.00  0.00     0.138 A 
ATOM     17  C   UNL A   1      32.255  30.017  26.016  1.00  0.00     0.024 A 
ATOM     18  C   UNL A   1      31.372  32.397  26.676  1.00  0.00     0.049 C 
ATOM     19  C   UNL A   1      34.028  28.443  25.531  1.00  0.00     0.095 A 
ATOM     20  C   UNL A   1      31.400  29.321  25.074  1.00  0.00     0.020 A 
ATOM     21  C   UNL A   1      33.223  27.959  24.504  1.00  0.00     0.138 A 
ATOM     22  C   UNL A   1      31.871  28.176  24.376  1.00  0.00    -0.001 A 
ATOM     23  O   UNL A   1      33.841  27.559  23.302  1.00  0.00    -0.426 OA
ATOM     24  C   UNL A   1      31.200  27.239  23.313  1.00  0.00     0.035 C 
ATOM     25  C   UNL A   1      33.207  26.718  22.385  1.00  0.00     0.315 C 
ATOM     26  C   UNL A   1      29.762  26.959  23.640  1.00  0.00     0.014 C 
ATOM     27  O   UNL A   1      33.561  26.544  21.222  1.00  0.00    -0.251 OA
ENDBRANCH  10  11
ENDBRANCH   7  10
ENDBRANCH   5   6
BRANCH   5  28
ATOM     28  C   UNL A   1      32.671  21.580  24.736  1.00  0.00     0.070 C 
BRANCH  28  29
ATOM     29  C   UNL A   1      32.762  20.124  25.501  1.00  0.00    -0.037 C 
ATOM     30  C   UNL A   1      32.414  18.871  25.064  1.00  0.00     0.001 A 
ATOM     31  C   UNL A   1      34.162  19.892  25.912  1.00  0.00     0.174 C 
ATOM     32  C   UNL A   1      32.563  17.610  25.914  1.00  0.00     0.010 A 
ATOM     33  C   UNL A   1      33.615  18.774  24.175  1.00  0.00     0.065 A 
ATOM     34  N   UNL A   1      34.667  19.404  24.623  1.00  0.00    -0.280 NA
ATOM     35  C   UNL A   1      33.233  16.539  25.410  1.00  0.00     0.001 A 
ATOM     36  C   UNL A   1      33.656  17.617  23.270  1.00  0.00     0.028 A 
ATOM     37  C   UNL A   1      33.587  16.485  23.992  1.00  0.00     0.002 A 
ENDBRANCH  28  29
ENDBRANCH   5  28
ENDBRANCH   3   5
ENDBRANCH   2   3
ENDBRANCH   1   2
BRANCH   1  38
ATOM     38  C   UNL A   1      37.186  23.495  25.876  1.00  0.00     0.275 C 
BRANCH  38  39
ATOM     39  O   UNL A   1      38.304  22.766  26.538  1.00  0.00    -0.458 OA
BRANCH  39  40
ATOM     40  C   UNL A   1      39.573  23.198  26.841  1.00  0.00     0.338 C 
ATOM     41  O   UNL A   1      40.536  22.456  26.979  1.00  0.00    -0.246 OA
BRANCH  40  42
ATOM     42  C   UNL A   1      39.631  24.720  27.137  1.00  0.00     0.060 A 
ATOM     43  C   UNL A   1      40.366  25.592  26.326  1.00  0.00     0.016 A 
ATOM     44  C   UNL A   1      39.086  25.310  28.284  1.00  0.00     0.016 A 
ATOM     45  C   UNL A   1      40.670  26.930  26.745  1.00  0.00     0.010 A 
ATOM     46  C   UNL A   1      39.371  26.653  28.694  1.00  0.00     0.010 A 
ATOM     47  C   UNL A   1      40.238  27.468  27.976  1.00  0.00    -0.014 A 
BRANCH  47  48
ATOM     48  C   UNL A   1      40.616  28.864  28.430  1.00  0.00     0.031 A 
ATOM     49  C   UNL A   1      39.518  29.779  28.987  1.00  0.00     0.074 A 
ATOM     50  C   UNL A   1      41.896  29.172  28.776  1.00  0.00     0.049 A 
ATOM     51  N   UNL A   1      39.155  29.942  30.236  1.00  0.00    -0.248 NA
ATOM     52  C   UNL A   1      38.633  30.484  28.051  1.00  0.00     0.031 C 
ATOM     53  C   UNL A   1      42.661  28.438  29.789  1.00  0.00     0.029 A 
ATOM     54  N   UNL A   1      42.671  30.299  28.557  1.00  0.00    -0.354 N 
ATOM     55  C   UNL A   1      38.022  30.776  30.254  1.00  0.00     0.074 A 
ATOM     56  C   UNL A   1      37.735  31.058  28.865  1.00  0.00     0.031 C 
ATOM     57  C   UNL A   1      43.714  29.174  30.199  1.00  0.00     0.029 A 
ATOM     58  C   UNL A   1      43.775  30.398  29.412  1.00  0.00     0.049 A 
ATOM     59  H   UNL A   1      42.465  30.967  27.865  1.00  0.00     0.167 HD
ATOM     60  C   UNL A   1      37.391  31.246  31.377  1.00  0.00     0.031 A 
ATOM     61  C   UNL A   1      44.371  31.556  29.826  1.00  0.00     0.031 A 
ATOM     62  C   UNL A   1      38.001  30.868  32.616  1.00  0.00     0.049 A 
ATOM     63  C   UNL A   1      43.418  31.967  30.925  1.00  0.00     0.074 A 
ATOM     64  C   UNL A   1      37.810  29.958  33.629  1.00  0.00     0.029 A 
ATOM     65  N   UNL A   1      39.090  31.596  33.030  1.00  0.00    -0.354 N 
ATOM     66  N   UNL A   1      43.345  31.461  32.130  1.00  0.00    -0.248 NA
ATOM     67  C   UNL A   1      42.224  32.692  30.488  1.00  0.00     0.031 C 
ATOM     68  C   UNL A   1      39.068  29.882  34.309  1.00  0.00     0.029 A 
ATOM     69  C   UNL A   1      39.955  30.726  33.637  1.00  0.00     0.049 A 
ATOM     70  H   UNL A   1      39.224  32.564  32.912  1.00  0.00     0.167 HD
ATOM     71  C   UNL A   1      41.992  31.530  32.477  1.00  0.00     0.074 A 
ATOM     72  C   UNL A   1      41.362  32.276  31.403  1.00  0.00     0.031 C 
ATOM     73  C   UNL A   1      41.399  30.836  33.497  1.00  0.00     0.031 A 
BRANCH  60  74
ATOM     74  C   UNL A   1      36.289  32.271  31.430  1.00  0.00    -0.014 A 
ATOM     75  C   UNL A   1      35.106  32.104  32.169  1.00  0.00     0.010 A 
ATOM     76  C   UNL A   1      36.552  33.551  30.892  1.00  0.00     0.010 A 
ATOM     77  C   UNL A   1      34.217  33.185  32.357  1.00  0.00     0.020 A 
ATOM     78  C   UNL A   1      35.681  34.630  31.086  1.00  0.00     0.020 A 
ATOM     79  C   UNL A   1      34.512  34.443  31.816  1.00  0.00     0.054 A 
BRANCH  79  80
ATOM     80  S   UNL A   1      33.375  35.839  32.092  1.00  0.00     0.124 S 
ATOM     81  O   UNL A   1      33.387  36.507  30.793  1.00  0.00    -0.237 OA
ATOM     82  O   UNL A   1      32.124  35.170  32.443  1.00  0.00    -0.237 OA
ATOM     83  O   UNL A   1      34.000  36.588  33.179  1.00  0.00    -0.744 OA
ENDBRANCH  79  80
ENDBRANCH  60  74
BRANCH  61  84
ATOM     84  C   UNL A   1      44.822  32.476  28.729  1.00  0.00    -0.014 A 
ATOM     85  C   UNL A   1      45.225  32.087  27.441  1.00  0.00     0.010 A 
ATOM     86  C   UNL A   1      44.926  33.845  29.057  1.00  0.00     0.010 A 
ATOM     87  C   UNL A   1      45.949  32.969  26.625  1.00  0.00     0.020 A 
ATOM     88  C   UNL A   1      45.617  34.740  28.237  1.00  0.00     0.020 A 
ATOM     89  C   UNL A   1      46.195  34.271  27.062  1.00  0.00     0.054 A 
BRANCH  89  90
ATOM     90  S   UNL A   1      47.378  35.298  26.151  1.00  0.00     0.124 S 
ATOM     91  O   UNL A   1      47.601  34.495  24.950  1.00  0.00    -0.237 OA
ATOM     92  O   UNL A   1      46.637  36.540  25.955  1.00  0.00    -0.237 OA
ATOM     93  O   UNL A   1      48.522  35.391  27.054  1.00  0.00    -0.744 OA
ENDBRANCH  89  90
ENDBRANCH  61  84
BRANCH  73  94
ATOM     94  C   UNL A   1      42.266  29.994  34.389  1.00  0.00    -0.014 A 
ATOM     95  C   UNL A   1      42.590  28.682  33.998  1.00  0.00     0.010 A 
ATOM     96  C   UNL A   1      42.641  30.416  35.672  1.00  0.00     0.010 A 
ATOM     97  C   UNL A   1      43.158  27.777  34.895  1.00  0.00     0.020 A 
ATOM     98  C   UNL A   1      43.252  29.525  36.567  1.00  0.00     0.020 A 
ATOM     99  C   UNL A   1      43.474  28.201  36.182  1.00  0.00     0.054 A 
BRANCH  99 100
ATOM    100  S   UNL A   1      44.115  26.971  37.346  1.00  0.00     0.124 S 
ATOM    101  O   UNL A   1      44.879  27.794  38.280  1.00  0.00    -0.237 OA
ATOM    102  O   UNL A   1      42.893  26.382  37.888  1.00  0.00    -0.237 OA
ATOM    103  O   UNL A   1      44.914  26.081  36.509  1.00  0.00    -0.744 OA
ENDBRANCH  99 100
ENDBRANCH  73  94
ENDBRANCH  47  48
ENDBRANCH  40  42
ENDBRANCH  39  40
ENDBRANCH  38  39
ENDBRANCH   1  38
TORSDOF 19
ENDMDL
MODEL 3
REMARK VINA RESULT:     -12.7      3.286      9.987
REMARK SMILES Cc1oc2cc3c(cc2c1C)[C@H](C)[C@@H](CC(=O)N[C@H](CC1=c2ccccc2=NC1)C(=O)OCCOC(=O)c1ccc(-c2c4nc(c(-c5ccc(S(=O)(=O)[O-])cc5)c5ccc([nH]5)c(-c5ccc(S(=O)(=O)[O-])cc5)c5nc(c(-c6ccc(S(=O)(=O)[O-])cc6)c6ccc2[nH]6)C=C5)C=C4)cc1)C(=O)O3
REMARK SMILES IDX 33 1 32 2 30 3 31 4 19 5 18 6 16 7 17 8 15 10 14 11 1 12
REMARK SMILES IDX 2 13 3 14 10 15 4 16 9 17 11 18 5 19 8 20 6 21 7 22 100 23
REMARK SMILES IDX 12 24 98 25 13 26 99 27 20 28 21 29 22 30 29 31 23 32 27 33
REMARK SMILES IDX 28 34 24 35 26 36 25 37 34 38 35 39 36 40 37 41 38 42 39 43
REMARK SMILES IDX 97 44 40 45 96 46 41 47 42 48 43 49 90 50 44 51 95 52 89 53
REMARK SMILES IDX 91 54 45 55 94 56 88 57 87 58 46 60 76 61 57 62 75 63 58 64
REMARK SMILES IDX 61 65 74 66 92 67 59 68 60 69 73 71 93 72 62 73 47 74 48 75
REMARK SMILES IDX 56 76 49 77 55 78 50 79 51 80 52 81 53 82 54 83 77 84 78 85
REMARK SMILES IDX 86 86 79 87 85 88 80 89 81 90 82 91 83 92 84 93 63 94 64 95
REMARK SMILES IDX 72 96 65 97 71 98 66 99 67 100 68 101 69 102 70 103
REMARK H PARENT 18 9 91 59 61 70
REMARK Flexibility Score: inf
ROOT
ATOM      1  C   UNL A   1      32.637  29.536  26.820  1.00  0.00     0.274 C 
ENDROOT
BRANCH   1   2
ATOM      2  O   UNL A   1      32.796  28.197  27.418  1.00  0.00    -0.461 OA
BRANCH   2   3
ATOM      3  C   UNL A   1      32.459  27.282  26.503  1.00  0.00     0.329 C 
ATOM      4  O   UNL A   1      33.202  26.328  26.387  1.00  0.00    -0.250 OA
BRANCH   3   5
ATOM      5  C   UNL A   1      31.343  27.362  25.524  1.00  0.00     0.196 C 
BRANCH   5   6
ATOM      6  N   UNL A   1      30.348  26.439  26.200  1.00  0.00    -0.342 N 
ATOM      7  C   UNL A   1      30.018  25.089  26.185  1.00  0.00     0.221 C 
ATOM      8  O   UNL A   1      29.046  24.887  26.950  1.00  0.00    -0.275 OA
ATOM      9  H   UNL A   1      29.775  26.936  26.827  1.00  0.00     0.164 HD
BRANCH   7  10
ATOM     10  C   UNL A   1      30.622  23.721  25.495  1.00  0.00     0.116 C 
BRANCH  10  11
ATOM     11  C   UNL A   1      32.133  23.254  25.476  1.00  0.00     0.116 C 
ATOM     12  C   UNL A   1      40.455  21.595  25.937  1.00  0.00     0.088 C 
ATOM     13  C   UNL A   1      38.988  21.549  25.729  1.00  0.00     0.105 A 
ATOM     14  O   UNL A   1      38.347  22.695  26.054  1.00  0.00    -0.461 OA
ATOM     15  C   UNL A   1      38.057  20.585  25.345  1.00  0.00    -0.002 A 
ATOM     16  C   UNL A   1      37.030  22.470  25.867  1.00  0.00     0.138 A 
ATOM     17  C   UNL A   1      36.763  21.235  25.305  1.00  0.00     0.024 A 
ATOM     18  C   UNL A   1      38.347  19.151  25.127  1.00  0.00     0.049 C 
ATOM     19  C   UNL A   1      36.054  23.312  26.326  1.00  0.00     0.095 A 
ATOM     20  C   UNL A   1      35.382  20.945  24.973  1.00  0.00     0.020 A 
ATOM     21  C   UNL A   1      34.746  22.869  26.154  1.00  0.00     0.138 A 
ATOM     22  C   UNL A   1      34.347  21.857  25.311  1.00  0.00    -0.001 A 
ATOM     23  O   UNL A   1      33.802  23.166  27.158  1.00  0.00    -0.426 OA
ATOM     24  C   UNL A   1      32.794  21.819  25.097  1.00  0.00     0.035 C 
ATOM     25  C   UNL A   1      32.427  23.123  26.920  1.00  0.00     0.315 C 
ATOM     26  C   UNL A   1      32.428  21.262  23.752  1.00  0.00     0.014 C 
ATOM     27  O   UNL A   1      31.559  23.105  27.789  1.00  0.00    -0.251 OA
ENDBRANCH  10  11
ENDBRANCH   7  10
ENDBRANCH   5   6
BRANCH   5  28
ATOM     28  C   UNL A   1      31.815  27.246  23.960  1.00  0.00     0.070 C 
BRANCH  28  29
ATOM     29  C   UNL A   1      32.580  25.903  23.388  1.00  0.00    -0.037 C 
ATOM     30  C   UNL A   1      32.224  25.045  22.379  1.00  0.00     0.001 A 
ATOM     31  C   UNL A   1      33.942  26.282  22.957  1.00  0.00     0.174 C 
ATOM     32  C   UNL A   1      33.058  23.831  21.972  1.00  0.00     0.010 A 
ATOM     33  C   UNL A   1      32.598  26.031  21.316  1.00  0.00     0.065 A 
ATOM     34  N   UNL A   1      33.590  26.816  21.637  1.00  0.00    -0.280 NA
ATOM     35  C   UNL A   1      33.410  23.667  20.669  1.00  0.00     0.001 A 
ATOM     36  C   UNL A   1      32.230  25.667  19.940  1.00  0.00     0.028 A 
ATOM     37  C   UNL A   1      32.797  24.489  19.625  1.00  0.00     0.002 A 
ENDBRANCH  28  29
ENDBRANCH   5  28
ENDBRANCH   3   5
ENDBRANCH   2   3
ENDBRANCH   1   2
BRANCH   1  38
ATOM     38  C   UNL A   1      33.735  30.627  27.243  1.00  0.00     0.275 C 
BRANCH  38  39
ATOM     39  O   UNL A   1      35.071  30.051  27.567  1.00  0.00    -0.458 OA
BRANCH  39  40
ATOM     40  C   UNL A   1      36.210  30.677  28.012  1.00  0.00     0.338 C 
ATOM     41  O   UNL A   1      36.350  31.891  28.066  1.00  0.00    -0.246 OA
BRANCH  40  42
ATOM     42  C   UNL A   1      37.364  29.681  28.302  1.00  0.00     0.060 A 
ATOM     43  C   UNL A   1      37.449  29.001  29.522  1.00  0.00     0.016 A 
ATOM     44  C   UNL A   1      38.459  29.490  27.451  1.00  0.00     0.016 A 
ATOM     45  C   UNL A   1      38.646  28.316  29.917  1.00  0.00     0.010 A 
ATOM     46  C   UNL A   1      39.647  28.789  27.835  1.00  0.00     0.010 A 
ATOM     47  C   UNL A   1      39.802  28.256  29.109  1.00  0.00    -0.014 A 
BRANCH  47  48
ATOM     48  C   UNL A   1      41.078  27.577  29.565  1.00  0.00     0.031 A 
ATOM     49  C   UNL A   1      41.666  26.457  28.697  1.00  0.00     0.074 A 
ATOM     50  C   UNL A   1      41.934  28.189  30.428  1.00  0.00     0.049 A 
ATOM     51  N   UNL A   1      42.570  26.554  27.753  1.00  0.00    -0.248 NA
ATOM     52  C   UNL A   1      41.093  25.108  28.786  1.00  0.00     0.031 C 
ATOM     53  C   UNL A   1      42.508  29.518  30.195  1.00  0.00     0.029 A 
ATOM     54  N   UNL A   1      42.683  27.708  31.489  1.00  0.00    -0.354 N 
ATOM     55  C   UNL A   1      42.699  25.292  27.144  1.00  0.00     0.074 A 
ATOM     56  C   UNL A   1      41.738  24.445  27.815  1.00  0.00     0.031 C 
ATOM     57  C   UNL A   1      43.588  29.702  30.982  1.00  0.00     0.029 A 
ATOM     58  C   UNL A   1      43.738  28.550  31.861  1.00  0.00     0.049 A 
ATOM     59  H   UNL A   1      42.492  26.854  31.940  1.00  0.00     0.167 HD
ATOM     60  C   UNL A   1      43.601  24.963  26.164  1.00  0.00     0.031 A 
ATOM     61  C   UNL A   1      44.917  28.160  32.431  1.00  0.00     0.031 A 
ATOM     62  C   UNL A   1      44.500  26.014  25.794  1.00  0.00     0.049 A 
ATOM     63  C   UNL A   1      45.661  27.685  31.204  1.00  0.00     0.074 A 
ATOM     64  C   UNL A   1      44.658  26.933  24.784  1.00  0.00     0.029 A 
ATOM     65  N   UNL A   1      45.590  26.226  26.604  1.00  0.00    -0.354 N 
ATOM     66  N   UNL A   1      46.236  28.433  30.297  1.00  0.00    -0.248 NA
ATOM     67  C   UNL A   1      45.369  26.315  30.778  1.00  0.00     0.031 C 
ATOM     68  C   UNL A   1      45.531  27.935  25.319  1.00  0.00     0.029 A 
ATOM     69  C   UNL A   1      45.815  27.575  26.638  1.00  0.00     0.049 A 
ATOM     70  H   UNL A   1      46.111  25.535  27.073  1.00  0.00     0.167 HD
ATOM     71  C   UNL A   1      46.091  27.732  29.095  1.00  0.00     0.074 A 
ATOM     72  C   UNL A   1      45.523  26.450  29.470  1.00  0.00     0.031 C 
ATOM     73  C   UNL A   1      46.249  28.264  27.844  1.00  0.00     0.031 A 
BRANCH  60  74
ATOM     74  C   UNL A   1      43.878  23.588  25.619  1.00  0.00    -0.014 A 
ATOM     75  C   UNL A   1      44.335  23.347  24.311  1.00  0.00     0.010 A 
ATOM     76  C   UNL A   1      43.891  22.507  26.528  1.00  0.00     0.010 A 
ATOM     77  C   UNL A   1      44.786  22.063  23.932  1.00  0.00     0.020 A 
ATOM     78  C   UNL A   1      44.350  21.235  26.162  1.00  0.00     0.020 A 
ATOM     79  C   UNL A   1      44.793  21.015  24.862  1.00  0.00     0.054 A 
BRANCH  79  80
ATOM     80  S   UNL A   1      45.406  19.372  24.373  1.00  0.00     0.124 S 
ATOM     81  O   UNL A   1      44.673  18.489  25.275  1.00  0.00    -0.237 OA
ATOM     82  O   UNL A   1      45.023  19.292  22.965  1.00  0.00    -0.237 OA
ATOM     83  O   UNL A   1      46.845  19.450  24.616  1.00  0.00    -0.744 OA
ENDBRANCH  79  80
ENDBRANCH  60  74
BRANCH  61  84
ATOM     84  C   UNL A   1      44.787  27.352  33.690  1.00  0.00    -0.014 A 
ATOM     85  C   UNL A   1      43.592  27.075  34.372  1.00  0.00     0.010 A 
ATOM     86  C   UNL A   1      45.990  26.904  34.279  1.00  0.00     0.010 A 
ATOM     87  C   UNL A   1      43.617  26.623  35.699  1.00  0.00     0.020 A 
ATOM     88  C   UNL A   1      46.024  26.421  35.588  1.00  0.00     0.020 A 
ATOM     89  C   UNL A   1      44.841  26.361  36.317  1.00  0.00     0.054 A 
BRANCH  89  90
ATOM     90  S   UNL A   1      44.882  26.075  38.106  1.00  0.00     0.124 S 
ATOM     91  O   UNL A   1      44.430  27.366  38.621  1.00  0.00    -0.237 OA
ATOM     92  O   UNL A   1      43.950  24.965  38.272  1.00  0.00    -0.237 OA
ATOM     93  O   UNL A   1      46.282  25.758  38.373  1.00  0.00    -0.744 OA
ENDBRANCH  89  90
ENDBRANCH  61  84
BRANCH  73  94
ATOM     94  C   UNL A   1      46.704  29.690  27.724  1.00  0.00    -0.014 A 
ATOM     95  C   UNL A   1      45.786  30.730  27.965  1.00  0.00     0.010 A 
ATOM     96  C   UNL A   1      47.973  30.026  27.233  1.00  0.00     0.010 A 
ATOM     97  C   UNL A   1      46.076  32.048  27.611  1.00  0.00     0.020 A 
ATOM     98  C   UNL A   1      48.288  31.356  26.916  1.00  0.00     0.020 A 
ATOM     99  C   UNL A   1      47.323  32.352  27.075  1.00  0.00     0.054 A 
BRANCH  99 100
ATOM    100  S   UNL A   1      47.622  34.055  26.537  1.00  0.00     0.124 S 
ATOM    101  O   UNL A   1      47.175  34.830  27.692  1.00  0.00    -0.237 OA
ATOM    102  O   UNL A   1      49.063  34.062  26.299  1.00  0.00    -0.237 OA
ATOM    103  O   UNL A   1      46.795  34.193  25.341  1.00  0.00    -0.744 OA
ENDBRANCH  99 100
ENDBRANCH  73  94
ENDBRANCH  47  48
ENDBRANCH  40  42
ENDBRANCH  39  40
ENDBRANCH  38  39
ENDBRANCH   1  38
TORSDOF 19
ENDMDL
