MODEL 1
REMARK VINA RESULT:     -13.6      0.000      0.000
REMARK SMILES Cc1ccc([C@H](C)NC(=O)[C@H]2[C@@H]3CC[C@@H](C3)[C@@H]2C(=O)OCCOC(=O)c2ccc(-c3c4nc(c(-c5ccc(S(=O)(=O)[O-])cc5)c5ccc([nH]5)c(-c5ccc(S(=O)(=O)[O-])cc5)c5nc(c(-c6ccc(S(=O)(=O)[O-])cc6)c6ccc3[nH]6)C=C5)C=C4)cc2)cc1
REMARK SMILES IDX 21 1 20 2 18 3 19 4 17 5 11 6 12 7 13 8 16 9 15 10 14 11
REMARK SMILES IDX 9 12 8 13 10 15 6 16 7 17 5 18 1 19 2 20 3 21 87 22 4 23
REMARK SMILES IDX 86 24 22 25 23 26 24 27 25 28 26 29 27 30 85 31 28 32 84 33
REMARK SMILES IDX 29 34 30 35 31 36 78 37 32 38 83 39 77 40 79 41 33 42 82 43
REMARK SMILES IDX 76 44 75 45 34 47 64 48 45 49 63 50 46 51 49 52 62 53 80 54
REMARK SMILES IDX 47 55 48 56 61 58 81 59 50 60 35 61 36 62 44 63 37 64 43 65
REMARK SMILES IDX 38 66 39 67 40 68 41 69 42 70 65 71 66 72 74 73 67 74 73 75
REMARK SMILES IDX 68 76 69 77 70 78 71 79 72 80 51 81 52 82 60 83 53 84 59 85
REMARK SMILES IDX 54 86 55 87 56 88 57 89 58 90
REMARK H PARENT 8 14 79 46 49 57
REMARK Flexibility Score: inf
ROOT
ATOM      1  C   UNL A   1      37.035  21.514  25.671  1.00  0.00     0.274 C 
ENDROOT
BRANCH   1   2
ATOM      2  O   UNL A   1      35.162  22.166  26.050  1.00  0.00    -0.462 OA
BRANCH   2   3
ATOM      3  C   UNL A   1      33.856  22.549  26.341  1.00  0.00     0.310 C 
ATOM      4  O   UNL A   1      33.258  21.899  27.211  1.00  0.00    -0.252 OA
BRANCH   3   5
ATOM      5  C   UNL A   1      32.949  23.478  25.486  1.00  0.00     0.115 C 
ATOM      6  C   UNL A   1      31.427  23.570  25.272  1.00  0.00     0.096 C 
ATOM      7  C   UNL A   1      31.270  23.736  23.736  1.00  0.00     0.002 C 
ATOM      8  C   UNL A   1      31.583  22.372  23.082  1.00  0.00     0.005 C 
ATOM      9  C   UNL A   1      32.504  24.519  23.325  1.00  0.00     0.009 C 
ATOM     10  C   UNL A   1      33.465  23.549  24.015  1.00  0.00     0.004 C 
ATOM     11  C   UNL A   1      33.106  22.250  23.270  1.00  0.00     0.005 C 
BRANCH   6  12
ATOM     12  C   UNL A   1      30.588  24.584  26.063  1.00  0.00     0.224 C 
ATOM     13  N   UNL A   1      30.369  25.879  25.759  1.00  0.00    -0.349 N 
ATOM     14  H   UNL A   1      29.693  26.299  26.340  1.00  0.00     0.164 HD
ATOM     15  O   UNL A   1      29.977  24.173  27.063  1.00  0.00    -0.275 OA
BRANCH  13  16
ATOM     16  C   UNL A   1      30.908  26.794  24.769  1.00  0.00     0.109 C 
ATOM     17  C   UNL A   1      29.791  27.427  23.936  1.00  0.00     0.036 C 
BRANCH  16  18
ATOM     18  C   UNL A   1      31.767  27.861  25.403  1.00  0.00    -0.026 A 
ATOM     19  C   UNL A   1      33.600  30.994  27.651  1.00  0.00     0.044 C 
ATOM     20  C   UNL A   1      33.031  29.881  26.848  1.00  0.00    -0.051 A 
ATOM     21  C   UNL A   1      32.113  30.206  25.853  1.00  0.00     0.004 A 
ATOM     22  C   UNL A   1      33.416  28.557  27.037  1.00  0.00     0.004 A 
ATOM     23  C   UNL A   1      31.473  29.206  25.144  1.00  0.00     0.006 A 
ATOM     24  C   UNL A   1      32.790  27.547  26.311  1.00  0.00     0.006 A 
ENDBRANCH  16  18
ENDBRANCH  13  16
ENDBRANCH   6  12
ENDBRANCH   3   5
ENDBRANCH   2   3
ENDBRANCH   1   2
BRANCH   1  25
ATOM     25  C   UNL A   1      38.412  22.392  25.568  1.00  0.00     0.275 C 
BRANCH  25  26
ATOM     26  O   UNL A   1      39.588  22.033  26.333  1.00  0.00    -0.458 OA
BRANCH  26  27
ATOM     27  C   UNL A   1      40.583  22.939  26.475  1.00  0.00     0.338 C 
ATOM     28  O   UNL A   1      41.764  22.766  26.263  1.00  0.00    -0.246 OA
BRANCH  27  29
ATOM     29  C   UNL A   1      39.925  24.186  26.754  1.00  0.00     0.060 A 
ATOM     30  C   UNL A   1      39.239  24.340  28.412  1.00  0.00     0.016 A 
ATOM     31  C   UNL A   1      40.697  25.588  25.955  1.00  0.00     0.016 A 
ATOM     32  C   UNL A   1      39.240  25.964  29.243  1.00  0.00     0.010 A 
ATOM     33  C   UNL A   1      40.774  27.141  26.802  1.00  0.00     0.010 A 
ATOM     34  C   UNL A   1      40.000  27.390  28.431  1.00  0.00    -0.014 A 
BRANCH  34  35
ATOM     35  C   UNL A   1      40.070  28.782  28.950  1.00  0.00     0.031 A 
ATOM     36  C   UNL A   1      39.040  29.868  28.867  1.00  0.00     0.074 A 
ATOM     37  C   UNL A   1      41.244  29.179  29.495  1.00  0.00     0.049 A 
ATOM     38  N   UNL A   1      39.280  31.117  29.156  1.00  0.00    -0.248 NA
ATOM     39  C   UNL A   1      37.682  29.688  28.374  1.00  0.00     0.031 C 
ATOM     40  C   UNL A   1      41.436  30.131  30.581  1.00  0.00     0.029 A 
ATOM     41  N   UNL A   1      42.540  28.840  29.113  1.00  0.00    -0.354 N 
ATOM     42  C   UNL A   1      38.093  31.814  29.131  1.00  0.00     0.074 A 
ATOM     43  C   UNL A   1      37.162  30.911  28.510  1.00  0.00     0.031 C 
ATOM     44  C   UNL A   1      42.743  30.397  30.705  1.00  0.00     0.029 A 
ATOM     45  C   UNL A   1      43.442  29.768  29.598  1.00  0.00     0.049 A 
ATOM     46  H   UNL A   1      42.780  28.052  28.574  1.00  0.00     0.167 HD
ATOM     47  C   UNL A   1      37.970  33.014  29.772  1.00  0.00     0.031 A 
ATOM     48  C   UNL A   1      44.510  30.255  28.914  1.00  0.00     0.031 A 
ATOM     49  C   UNL A   1      39.248  33.489  30.304  1.00  0.00     0.049 A 
ATOM     50  C   UNL A   1      44.463  31.764  28.893  1.00  0.00     0.074 A 
ATOM     51  C   UNL A   1      39.887  33.312  31.518  1.00  0.00     0.029 A 
ATOM     52  N   UNL A   1      40.181  34.060  29.456  1.00  0.00    -0.354 N 
ATOM     53  N   UNL A   1      43.433  32.450  29.315  1.00  0.00    -0.248 NA
ATOM     54  C   UNL A   1      45.526  32.630  28.408  1.00  0.00     0.031 C 
ATOM     55  C   UNL A   1      41.247  33.698  31.359  1.00  0.00     0.029 A 
ATOM     56  C   UNL A   1      41.430  34.161  30.065  1.00  0.00     0.049 A 
ATOM     57  H   UNL A   1      39.987  34.358  28.538  1.00  0.00     0.167 HD
ATOM     58  C   UNL A   1      43.623  33.788  29.120  1.00  0.00     0.074 A 
ATOM     59  C   UNL A   1      44.982  33.849  28.598  1.00  0.00     0.031 C 
ATOM     60  C   UNL A   1      42.602  34.683  29.331  1.00  0.00     0.031 A 
BRANCH  47  61
ATOM     61  C   UNL A   1      36.631  33.607  30.192  1.00  0.00    -0.014 A 
ATOM     62  C   UNL A   1      35.701  33.971  29.194  1.00  0.00     0.010 A 
ATOM     63  C   UNL A   1      36.256  33.918  31.515  1.00  0.00     0.010 A 
ATOM     64  C   UNL A   1      34.528  34.691  29.487  1.00  0.00     0.020 A 
ATOM     65  C   UNL A   1      35.105  34.666  31.822  1.00  0.00     0.020 A 
ATOM     66  C   UNL A   1      34.254  35.065  30.799  1.00  0.00     0.054 A 
BRANCH  66  67
ATOM     67  S   UNL A   1      32.793  36.079  31.151  1.00  0.00     0.124 S 
ATOM     68  O   UNL A   1      32.239  36.306  29.818  1.00  0.00    -0.237 OA
ATOM     69  O   UNL A   1      32.006  35.208  32.020  1.00  0.00    -0.237 OA
ATOM     70  O   UNL A   1      33.341  37.269  31.799  1.00  0.00    -0.744 OA
ENDBRANCH  66  67
ENDBRANCH  47  61
BRANCH  48  71
ATOM     71  C   UNL A   1      45.117  29.286  27.945  1.00  0.00    -0.014 A 
ATOM     72  C   UNL A   1      45.794  28.183  28.516  1.00  0.00     0.010 A 
ATOM     73  C   UNL A   1      44.688  29.161  26.612  1.00  0.00     0.010 A 
ATOM     74  C   UNL A   1      45.876  26.949  27.853  1.00  0.00     0.020 A 
ATOM     75  C   UNL A   1      44.771  27.920  25.939  1.00  0.00     0.020 A 
ATOM     76  C   UNL A   1      45.312  26.804  26.586  1.00  0.00     0.054 A 
BRANCH  76  77
ATOM     77  S   UNL A   1      45.128  25.114  25.910  1.00  0.00     0.124 S 
ATOM     78  O   UNL A   1      44.861  24.333  27.115  1.00  0.00    -0.237 OA
ATOM     79  O   UNL A   1      43.994  25.248  24.993  1.00  0.00    -0.237 OA
ATOM     80  O   UNL A   1      46.401  24.821  25.263  1.00  0.00    -0.744 OA
ENDBRANCH  76  77
ENDBRANCH  48  71
BRANCH  60  81
ATOM     81  C   UNL A   1      42.569  36.112  28.811  1.00  0.00    -0.014 A 
ATOM     82  C   UNL A   1      43.217  37.197  29.421  1.00  0.00     0.010 A 
ATOM     83  C   UNL A   1      41.939  36.386  27.572  1.00  0.00     0.010 A 
ATOM     84  C   UNL A   1      43.205  38.482  28.861  1.00  0.00     0.020 A 
ATOM     85  C   UNL A   1      41.965  37.652  26.973  1.00  0.00     0.020 A 
ATOM     86  C   UNL A   1      42.579  38.702  27.639  1.00  0.00     0.054 A 
BRANCH  86  87
ATOM     87  S   UNL A   1      42.606  40.367  26.937  1.00  0.00     0.124 S 
ATOM     88  O   UNL A   1      43.539  40.208  25.824  1.00  0.00    -0.237 OA
ATOM     89  O   UNL A   1      41.210  40.576  26.558  1.00  0.00    -0.237 OA
ATOM     90  O   UNL A   1      43.079  41.200  28.037  1.00  0.00    -0.744 OA
ENDBRANCH  86  87
ENDBRANCH  60  81
ENDBRANCH  34  35
ENDBRANCH  27  29
ENDBRANCH  26  27
ENDBRANCH  25  26
ENDBRANCH   1  25
TORSDOF 17
ENDMDL
MODEL 2
REMARK VINA RESULT:     -13.6      1.555      3.634
REMARK SMILES Cc1ccc([C@H](C)NC(=O)[C@H]2[C@@H]3CC[C@@H](C3)[C@@H]2C(=O)OCCOC(=O)c2ccc(-c3c4nc(c(-c5ccc(S(=O)(=O)[O-])cc5)c5ccc([nH]5)c(-c5ccc(S(=O)(=O)[O-])cc5)c5nc(c(-c6ccc(S(=O)(=O)[O-])cc6)c6ccc3[nH]6)C=C5)C=C4)cc2)cc1
REMARK SMILES IDX 21 1 20 2 18 3 19 4 17 5 11 6 12 7 13 8 16 9 15 10 14 11
REMARK SMILES IDX 9 12 8 13 10 15 6 16 7 17 5 18 1 19 2 20 3 21 87 22 4 23
REMARK SMILES IDX 86 24 22 25 23 26 24 27 25 28 26 29 27 30 85 31 28 32 84 33
REMARK SMILES IDX 29 34 30 35 31 36 78 37 32 38 83 39 77 40 79 41 33 42 82 43
REMARK SMILES IDX 76 44 75 45 34 47 64 48 45 49 63 50 46 51 49 52 62 53 80 54
REMARK SMILES IDX 47 55 48 56 61 58 81 59 50 60 35 61 36 62 44 63 37 64 43 65
REMARK SMILES IDX 38 66 39 67 40 68 41 69 42 70 65 71 66 72 74 73 67 74 73 75
REMARK SMILES IDX 68 76 69 77 70 78 71 79 72 80 51 81 52 82 60 83 53 84 59 85
REMARK SMILES IDX 54 86 55 87 56 88 57 89 58 90
REMARK H PARENT 8 14 79 46 49 57
REMARK Flexibility Score: inf
ROOT
ATOM      1  C   UNL A   1      35.246  23.289  26.462  1.00  0.00     0.274 C 
ENDROOT
BRANCH   1   2
ATOM      2  O   UNL A   1      34.187  24.920  25.917  1.00  0.00    -0.462 OA
BRANCH   2   3
ATOM      3  C   UNL A   1      33.415  26.034  25.603  1.00  0.00     0.310 C 
ATOM      4  O   UNL A   1      32.877  26.632  26.548  1.00  0.00    -0.252 OA
BRANCH   3   5
ATOM      5  C   UNL A   1      32.882  26.428  24.197  1.00  0.00     0.115 C 
ATOM      6  C   UNL A   1      33.441  26.275  22.770  1.00  0.00     0.096 C 
ATOM      7  C   UNL A   1      33.177  27.657  22.112  1.00  0.00     0.002 C 
ATOM      8  C   UNL A   1      34.177  28.665  22.720  1.00  0.00     0.005 C 
ATOM      9  C   UNL A   1      31.890  28.132  22.761  1.00  0.00     0.009 C 
ATOM     10  C   UNL A   1      32.416  27.917  24.181  1.00  0.00     0.004 C 
ATOM     11  C   UNL A   1      33.641  28.848  24.152  1.00  0.00     0.005 C 
BRANCH   6  12
ATOM     12  C   UNL A   1      33.001  25.105  21.880  1.00  0.00     0.224 C 
ATOM     13  N   UNL A   1      32.366  23.979  22.263  1.00  0.00    -0.349 N 
ATOM     14  H   UNL A   1      32.068  23.430  21.501  1.00  0.00     0.164 HD
ATOM     15  O   UNL A   1      33.179  25.212  20.656  1.00  0.00    -0.275 OA
BRANCH  13  16
ATOM     16  C   UNL A   1      32.024  23.393  23.547  1.00  0.00     0.109 C 
ATOM     17  C   UNL A   1      30.658  23.883  24.032  1.00  0.00     0.036 C 
BRANCH  16  18
ATOM     18  C   UNL A   1      32.061  21.885  23.501  1.00  0.00    -0.026 A 
ATOM     19  C   UNL A   1      32.858  17.712  23.073  1.00  0.00     0.044 C 
ATOM     20  C   UNL A   1      32.529  19.147  23.273  1.00  0.00    -0.051 A 
ATOM     21  C   UNL A   1      32.142  19.883  22.156  1.00  0.00     0.004 A 
ATOM     22  C   UNL A   1      32.558  19.747  24.529  1.00  0.00     0.004 A 
ATOM     23  C   UNL A   1      31.924  21.245  22.262  1.00  0.00     0.006 A 
ATOM     24  C   UNL A   1      32.318  21.114  24.645  1.00  0.00     0.006 A 
ENDBRANCH  16  18
ENDBRANCH  13  16
ENDBRANCH   6  12
ENDBRANCH   3   5
ENDBRANCH   2   3
ENDBRANCH   1   2
BRANCH   1  25
ATOM     25  C   UNL A   1      36.674  22.762  25.861  1.00  0.00     0.275 C 
BRANCH  25  26
ATOM     26  O   UNL A   1      37.884  23.541  26.017  1.00  0.00    -0.458 OA
BRANCH  26  27
ATOM     27  C   UNL A   1      39.006  22.933  26.466  1.00  0.00     0.338 C 
ATOM     28  O   UNL A   1      39.369  21.800  26.227  1.00  0.00    -0.246 OA
BRANCH  27  29
ATOM     29  C   UNL A   1      39.757  23.962  27.131  1.00  0.00     0.060 A 
ATOM     30  C   UNL A   1      40.605  25.120  26.044  1.00  0.00     0.016 A 
ATOM     31  C   UNL A   1      38.995  24.528  28.647  1.00  0.00     0.016 A 
ATOM     32  C   UNL A   1      40.777  26.867  26.541  1.00  0.00     0.010 A 
ATOM     33  C   UNL A   1      39.088  26.242  29.083  1.00  0.00     0.010 A 
ATOM     34  C   UNL A   1      40.027  27.441  28.083  1.00  0.00    -0.014 A 
BRANCH  34  35
ATOM     35  C   UNL A   1      40.086  28.815  28.649  1.00  0.00     0.031 A 
ATOM     36  C   UNL A   1      39.052  29.898  28.594  1.00  0.00     0.074 A 
ATOM     37  C   UNL A   1      41.255  29.199  29.215  1.00  0.00     0.049 A 
ATOM     38  N   UNL A   1      39.283  31.138  28.927  1.00  0.00    -0.248 NA
ATOM     39  C   UNL A   1      37.698  29.728  28.086  1.00  0.00     0.031 C 
ATOM     40  C   UNL A   1      41.434  30.116  30.333  1.00  0.00     0.029 A 
ATOM     41  N   UNL A   1      42.555  28.879  28.831  1.00  0.00    -0.354 N 
ATOM     42  C   UNL A   1      38.093  31.830  28.916  1.00  0.00     0.074 A 
ATOM     43  C   UNL A   1      37.171  30.944  28.259  1.00  0.00     0.031 C 
ATOM     44  C   UNL A   1      42.739  30.383  30.475  1.00  0.00     0.029 A 
ATOM     45  C   UNL A   1      43.449  29.796  29.352  1.00  0.00     0.049 A 
ATOM     46  H   UNL A   1      42.803  28.111  28.267  1.00  0.00     0.167 HD
ATOM     47  C   UNL A   1      37.960  33.007  29.596  1.00  0.00     0.031 A 
ATOM     48  C   UNL A   1      44.519  30.310  28.692  1.00  0.00     0.031 A 
ATOM     49  C   UNL A   1      39.231  33.471  30.152  1.00  0.00     0.049 A 
ATOM     50  C   UNL A   1      44.464  31.818  28.721  1.00  0.00     0.074 A 
ATOM     51  C   UNL A   1      39.863  33.257  31.364  1.00  0.00     0.029 A 
ATOM     52  N   UNL A   1      40.168  34.074  29.330  1.00  0.00    -0.354 N 
ATOM     53  N   UNL A   1      43.428  32.485  29.159  1.00  0.00    -0.248 NA
ATOM     54  C   UNL A   1      45.526  32.706  28.272  1.00  0.00     0.031 C 
ATOM     55  C   UNL A   1      41.222  33.654  31.228  1.00  0.00     0.029 A 
ATOM     56  C   UNL A   1      41.411  34.161  29.951  1.00  0.00     0.049 A 
ATOM     57  H   UNL A   1      39.978  34.401  28.421  1.00  0.00     0.167 HD
ATOM     58  C   UNL A   1      43.613  33.829  29.009  1.00  0.00     0.074 A 
ATOM     59  C   UNL A   1      44.975  33.915  28.500  1.00  0.00     0.031 C 
ATOM     60  C   UNL A   1      42.586  34.712  29.243  1.00  0.00     0.031 A 
BRANCH  47  61
ATOM     61  C   UNL A   1      36.615  33.579  30.026  1.00  0.00    -0.014 A 
ATOM     62  C   UNL A   1      35.739  34.084  29.040  1.00  0.00     0.010 A 
ATOM     63  C   UNL A   1      36.186  33.739  31.359  1.00  0.00     0.010 A 
ATOM     64  C   UNL A   1      34.569  34.793  29.366  1.00  0.00     0.020 A 
ATOM     65  C   UNL A   1      35.036  34.473  31.704  1.00  0.00     0.020 A 
ATOM     66  C   UNL A   1      34.242  35.014  30.701  1.00  0.00     0.054 A 
BRANCH  66  67
ATOM     67  S   UNL A   1      32.786  36.015  31.109  1.00  0.00     0.124 S 
ATOM     68  O   UNL A   1      33.382  37.205  31.710  1.00  0.00    -0.237 OA
ATOM     69  O   UNL A   1      32.164  36.214  29.803  1.00  0.00    -0.237 OA
ATOM     70  O   UNL A   1      32.031  35.172  32.033  1.00  0.00    -0.744 OA
ENDBRANCH  66  67
ENDBRANCH  47  61
BRANCH  48  71
ATOM     71  C   UNL A   1      45.138  29.377  27.696  1.00  0.00    -0.014 A 
ATOM     72  C   UNL A   1      46.125  28.498  28.201  1.00  0.00     0.010 A 
ATOM     73  C   UNL A   1      44.517  29.022  26.486  1.00  0.00     0.010 A 
ATOM     74  C   UNL A   1      46.350  27.239  27.628  1.00  0.00     0.020 A 
ATOM     75  C   UNL A   1      44.742  27.753  25.902  1.00  0.00     0.020 A 
ATOM     76  C   UNL A   1      45.615  26.845  26.510  1.00  0.00     0.054 A 
BRANCH  76  77
ATOM     77  S   UNL A   1      45.680  25.087  26.007  1.00  0.00     0.124 S 
ATOM     78  O   UNL A   1      47.119  24.842  25.948  1.00  0.00    -0.237 OA
ATOM     79  O   UNL A   1      44.980  24.407  27.099  1.00  0.00    -0.237 OA
ATOM     80  O   UNL A   1      44.997  25.032  24.721  1.00  0.00    -0.744 OA
ENDBRANCH  76  77
ENDBRANCH  48  71
BRANCH  60  81
ATOM     81  C   UNL A   1      42.550  36.158  28.771  1.00  0.00    -0.014 A 
ATOM     82  C   UNL A   1      43.089  37.242  29.479  1.00  0.00     0.010 A 
ATOM     83  C   UNL A   1      42.037  36.455  27.482  1.00  0.00     0.010 A 
ATOM     84  C   UNL A   1      43.082  38.546  28.965  1.00  0.00     0.020 A 
ATOM     85  C   UNL A   1      42.075  37.742  26.932  1.00  0.00     0.020 A 
ATOM     86  C   UNL A   1      42.575  38.788  27.693  1.00  0.00     0.054 A 
BRANCH  86  87
ATOM     87  S   UNL A   1      42.608  40.478  27.053  1.00  0.00     0.124 S 
ATOM     88  O   UNL A   1      41.186  40.801  26.985  1.00  0.00    -0.237 OA
ATOM     89  O   UNL A   1      43.363  41.193  28.080  1.00  0.00    -0.237 OA
ATOM     90  O   UNL A   1      43.285  40.350  25.766  1.00  0.00    -0.744 OA
ENDBRANCH  86  87
ENDBRANCH  60  81
ENDBRANCH  34  35
ENDBRANCH  27  29
ENDBRANCH  26  27
ENDBRANCH  25  26
ENDBRANCH   1  25
TORSDOF 17
ENDMDL
MODEL 3
REMARK VINA RESULT:     -13.4      4.662     11.164
REMARK SMILES Cc1ccc([C@H](C)NC(=O)[C@H]2[C@@H]3CC[C@@H](C3)[C@@H]2C(=O)OCCOC(=O)c2ccc(-c3c4nc(c(-c5ccc(S(=O)(=O)[O-])cc5)c5ccc([nH]5)c(-c5ccc(S(=O)(=O)[O-])cc5)c5nc(c(-c6ccc(S(=O)(=O)[O-])cc6)c6ccc3[nH]6)C=C5)C=C4)cc2)cc1
REMARK SMILES IDX 21 1 20 2 18 3 19 4 17 5 11 6 12 7 13 8 16 9 15 10 14 11
REMARK SMILES IDX 9 12 8 13 10 15 6 16 7 17 5 18 1 19 2 20 3 21 87 22 4 23
REMARK SMILES IDX 86 24 22 25 23 26 24 27 25 28 26 29 27 30 85 31 28 32 84 33
REMARK SMILES IDX 29 34 30 35 31 36 78 37 32 38 83 39 77 40 79 41 33 42 82 43
REMARK SMILES IDX 76 44 75 45 34 47 64 48 45 49 63 50 46 51 49 52 62 53 80 54
REMARK SMILES IDX 47 55 48 56 61 58 81 59 50 60 35 61 36 62 44 63 37 64 43 65
REMARK SMILES IDX 38 66 39 67 40 68 41 69 42 70 65 71 66 72 74 73 67 74 73 75
REMARK SMILES IDX 68 76 69 77 70 78 71 79 72 80 51 81 52 82 60 83 53 84 59 85
REMARK SMILES IDX 54 86 55 87 56 88 57 89 58 90
REMARK H PARENT 8 14 79 46 49 57
REMARK Flexibility Score: inf
ROOT
ATOM      1  C   UNL A   1      33.103  27.347  25.829  1.00  0.00     0.274 C 
ENDROOT
BRANCH   1   2
ATOM      2  O   UNL A   1      33.769  25.906  24.581  1.00  0.00    -0.462 OA
BRANCH   2   3
ATOM      3  C   UNL A   1      34.212  24.959  23.662  1.00  0.00     0.310 C 
ATOM      4  O   UNL A   1      34.029  25.208  22.461  1.00  0.00    -0.252 OA
BRANCH   3   5
ATOM      5  C   UNL A   1      34.614  23.489  23.968  1.00  0.00     0.115 C 
ATOM      6  C   UNL A   1      34.253  22.502  25.093  1.00  0.00     0.096 C 
ATOM      7  C   UNL A   1      35.612  21.860  25.483  1.00  0.00     0.002 C 
ATOM      8  C   UNL A   1      36.425  22.918  26.261  1.00  0.00     0.005 C 
ATOM      9  C   UNL A   1      36.389  21.829  24.180  1.00  0.00     0.009 C 
ATOM     10  C   UNL A   1      36.164  23.316  23.901  1.00  0.00     0.004 C 
ATOM     11  C   UNL A   1      36.812  23.921  25.159  1.00  0.00     0.005 C 
BRANCH   6  12
ATOM     12  C   UNL A   1      33.145  21.459  24.892  1.00  0.00     0.224 C 
ATOM     13  N   UNL A   1      31.851  21.557  25.260  1.00  0.00    -0.349 N 
ATOM     14  H   UNL A   1      31.298  20.822  24.911  1.00  0.00     0.164 HD
ATOM     15  O   UNL A   1      33.430  20.427  24.263  1.00  0.00    -0.275 OA
BRANCH  13  16
ATOM     16  C   UNL A   1      31.092  22.505  26.057  1.00  0.00     0.109 C 
ATOM     17  C   UNL A   1      31.887  22.958  27.283  1.00  0.00     0.036 C 
BRANCH  16  18
ATOM     18  C   UNL A   1      30.653  23.696  25.239  1.00  0.00    -0.026 A 
ATOM     19  C   UNL A   1      30.075  27.368  23.138  1.00  0.00     0.044 C 
ATOM     20  C   UNL A   1      30.225  26.058  23.824  1.00  0.00    -0.051 A 
ATOM     21  C   UNL A   1      30.009  26.021  25.199  1.00  0.00     0.004 A 
ATOM     22  C   UNL A   1      30.530  24.889  23.134  1.00  0.00     0.004 A 
ATOM     23  C   UNL A   1      30.235  24.855  25.907  1.00  0.00     0.006 A 
ATOM     24  C   UNL A   1      30.738  23.706  23.839  1.00  0.00     0.006 A 
ENDBRANCH  16  18
ENDBRANCH  13  16
ENDBRANCH   6  12
ENDBRANCH   3   5
ENDBRANCH   2   3
ENDBRANCH   1   2
BRANCH   1  25
ATOM     25  C   UNL A   1      33.961  28.224  26.912  1.00  0.00     0.275 C 
BRANCH  25  26
ATOM     26  O   UNL A   1      34.684  29.412  26.508  1.00  0.00    -0.458 OA
BRANCH  26  27
ATOM     27  C   UNL A   1      34.716  30.478  27.340  1.00  0.00     0.338 C 
ATOM     28  O   UNL A   1      33.794  31.217  27.617  1.00  0.00    -0.246 OA
BRANCH  27  29
ATOM     29  C   UNL A   1      36.014  30.443  27.956  1.00  0.00     0.060 A 
ATOM     30  C   UNL A   1      36.066  29.701  29.596  1.00  0.00     0.016 A 
ATOM     31  C   UNL A   1      37.345  30.171  26.792  1.00  0.00     0.016 A 
ATOM     32  C   UNL A   1      37.535  28.748  30.111  1.00  0.00     0.010 A 
ATOM     33  C   UNL A   1      38.728  29.172  27.266  1.00  0.00     0.010 A 
ATOM     34  C   UNL A   1      38.893  28.488  28.946  1.00  0.00    -0.014 A 
BRANCH  34  35
ATOM     35  C   UNL A   1      40.164  27.762  29.202  1.00  0.00     0.031 A 
ATOM     36  C   UNL A   1      40.565  26.387  28.760  1.00  0.00     0.074 A 
ATOM     37  C   UNL A   1      41.062  28.360  30.021  1.00  0.00     0.049 A 
ATOM     38  N   UNL A   1      41.609  25.754  29.220  1.00  0.00    -0.248 NA
ATOM     39  C   UNL A   1      39.804  25.556  27.838  1.00  0.00     0.031 C 
ATOM     40  C   UNL A   1      42.515  28.261  29.959  1.00  0.00     0.029 A 
ATOM     41  N   UNL A   1      40.827  29.143  31.148  1.00  0.00    -0.354 N 
ATOM     42  C   UNL A   1      41.781  24.596  28.495  1.00  0.00     0.074 A 
ATOM     43  C   UNL A   1      40.560  24.459  27.747  1.00  0.00     0.031 C 
ATOM     44  C   UNL A   1      43.040  28.841  31.046  1.00  0.00     0.029 A 
ATOM     45  C   UNL A   1      41.954  29.187  31.946  1.00  0.00     0.049 A 
ATOM     46  H   UNL A   1      39.978  29.601  31.348  1.00  0.00     0.167 HD
ATOM     47  C   UNL A   1      42.986  23.954  28.474  1.00  0.00     0.031 A 
ATOM     48  C   UNL A   1      41.956  29.125  33.303  1.00  0.00     0.031 A 
ATOM     49  C   UNL A   1      43.945  24.547  29.408  1.00  0.00     0.049 A 
ATOM     50  C   UNL A   1      42.868  28.014  33.765  1.00  0.00     0.074 A 
ATOM     51  C   UNL A   1      44.883  25.555  29.279  1.00  0.00     0.029 A 
ATOM     52  N   UNL A   1      43.848  24.280  30.762  1.00  0.00    -0.354 N 
ATOM     53  N   UNL A   1      43.404  27.146  32.947  1.00  0.00    -0.248 NA
ATOM     54  C   UNL A   1      43.256  27.765  35.145  1.00  0.00     0.031 C 
ATOM     55  C   UNL A   1      45.281  25.955  30.586  1.00  0.00     0.029 A 
ATOM     56  C   UNL A   1      44.626  25.157  31.512  1.00  0.00     0.049 A 
ATOM     57  H   UNL A   1      43.299  23.559  31.146  1.00  0.00     0.167 HD
ATOM     58  C   UNL A   1      44.126  26.210  33.631  1.00  0.00     0.074 A 
ATOM     59  C   UNL A   1      44.047  26.681  35.007  1.00  0.00     0.031 C 
ATOM     60  C   UNL A   1      44.634  25.105  32.990  1.00  0.00     0.031 A 
BRANCH  47  61
ATOM     61  C   UNL A   1      43.400  22.982  27.375  1.00  0.00    -0.014 A 
ATOM     62  C   UNL A   1      42.621  21.825  27.158  1.00  0.00     0.010 A 
ATOM     63  C   UNL A   1      44.568  23.086  26.592  1.00  0.00     0.010 A 
ATOM     64  C   UNL A   1      43.035  20.792  26.297  1.00  0.00     0.020 A 
ATOM     65  C   UNL A   1      45.012  22.049  25.752  1.00  0.00     0.020 A 
ATOM     66  C   UNL A   1      44.249  20.896  25.624  1.00  0.00     0.054 A 
BRANCH  66  67
ATOM     67  S   UNL A   1      44.820  19.515  24.596  1.00  0.00     0.124 S 
ATOM     68  O   UNL A   1      44.528  19.987  23.245  1.00  0.00    -0.237 OA
ATOM     69  O   UNL A   1      46.236  19.430  24.941  1.00  0.00    -0.237 OA
ATOM     70  O   UNL A   1      44.004  18.387  25.043  1.00  0.00    -0.744 OA
ENDBRANCH  66  67
ENDBRANCH  47  61
BRANCH  48  71
ATOM     71  C   UNL A   1      40.745  29.723  33.952  1.00  0.00    -0.014 A 
ATOM     72  C   UNL A   1      40.874  31.065  34.382  1.00  0.00     0.010 A 
ATOM     73  C   UNL A   1      39.444  29.232  33.752  1.00  0.00     0.010 A 
ATOM     74  C   UNL A   1      39.770  31.929  34.432  1.00  0.00     0.020 A 
ATOM     75  C   UNL A   1      38.327  30.099  33.803  1.00  0.00     0.020 A 
ATOM     76  C   UNL A   1      38.505  31.457  34.087  1.00  0.00     0.054 A 
BRANCH  76  77
ATOM     77  S   UNL A   1      37.168  32.679  33.826  1.00  0.00     0.124 S 
ATOM     78  O   UNL A   1      36.824  33.049  35.196  1.00  0.00    -0.237 OA
ATOM     79  O   UNL A   1      37.829  33.728  33.046  1.00  0.00    -0.237 OA
ATOM     80  O   UNL A   1      36.125  31.956  33.108  1.00  0.00    -0.744 OA
ENDBRANCH  76  77
ENDBRANCH  48  71
BRANCH  60  81
ATOM     81  C   UNL A   1      45.122  23.840  33.680  1.00  0.00    -0.014 A 
ATOM     82  C   UNL A   1      44.349  22.684  33.864  1.00  0.00     0.010 A 
ATOM     83  C   UNL A   1      46.478  23.749  34.084  1.00  0.00     0.010 A 
ATOM     84  C   UNL A   1      44.873  21.524  34.450  1.00  0.00     0.020 A 
ATOM     85  C   UNL A   1      47.029  22.578  34.620  1.00  0.00     0.020 A 
ATOM     86  C   UNL A   1      46.212  21.478  34.825  1.00  0.00     0.054 A 
BRANCH  86  87
ATOM     87  S   UNL A   1      46.856  19.955  35.554  1.00  0.00     0.124 S 
ATOM     88  O   UNL A   1      46.775  19.026  34.430  1.00  0.00    -0.237 OA
ATOM     89  O   UNL A   1      48.210  20.340  35.951  1.00  0.00    -0.237 OA
ATOM     90  O   UNL A   1      45.942  19.684  36.659  1.00  0.00    -0.744 OA
ENDBRANCH  86  87
ENDBRANCH  60  81
ENDBRANCH  34  35
ENDBRANCH  27  29
ENDBRANCH  26  27
ENDBRANCH  25  26
ENDBRANCH   1  25
TORSDOF 17
ENDMDL
