MODEL 1
REMARK VINA RESULT:      -9.5      0.000      0.000
REMARK SMILES CC[C@](C)(NC(=O)NC[C@@H](C)[NH+](C)C)C(=O)OCCOC(=O)c1ccc(-c2c3nc(c(-c4ccc(S(=O)(=O)[O-])cc4)c4ccc([nH]4)c(-c4ccc(S(=O)(=O)[O-])cc4)c4nc(c(-c5ccc(S(=O)(=O)[O-])cc5)c5ccc2[nH]5)C=C4)C=C3)cc1
REMARK SMILES IDX 18 1 17 2 15 3 16 4 3 5 4 6 2 7 1 8 5 9 6 10 7 12 8 13 9 15
REMARK SMILES IDX 10 16 11 17 12 18 13 19 14 20 19 22 20 23 21 24 22 25 23 26
REMARK SMILES IDX 24 27 82 28 25 29 81 30 26 31 27 32 28 33 75 34 29 35 80 36
REMARK SMILES IDX 74 37 76 38 30 39 79 40 73 41 72 42 31 44 61 45 42 46 60 47
REMARK SMILES IDX 43 48 46 49 59 50 77 51 44 52 45 53 58 55 78 56 47 57 32 58
REMARK SMILES IDX 33 59 41 60 34 61 40 62 35 63 36 64 37 65 38 66 39 67 62 68
REMARK SMILES IDX 63 69 71 70 64 71 70 72 65 73 66 74 67 75 68 76 69 77 48 78
REMARK SMILES IDX 49 79 57 80 50 81 56 82 51 83 52 84 53 85 54 86 55 87
REMARK H PARENT 5 11 8 14 12 21 76 43 46 54
REMARK Flexibility Score: inf
ROOT
ATOM      1  C   UNL A   1      32.393  29.320  26.151  1.00  0.00     0.274 C 
ENDROOT
BRANCH   1   2
ATOM      2  O   UNL A   1      32.652  28.073  25.462  1.00  0.00    -0.460 OA
BRANCH   2   3
ATOM      3  C   UNL A   1      33.061  28.170  24.162  1.00  0.00     0.331 C 
ATOM      4  O   UNL A   1      34.175  28.568  23.842  1.00  0.00    -0.249 OA
BRANCH   3   5
ATOM      5  C   UNL A   1      31.974  27.678  23.142  1.00  0.00     0.136 C 
ATOM      6  C   UNL A   1      31.224  28.970  22.728  1.00  0.00     0.047 C 
BRANCH   5   7
ATOM      7  C   UNL A   1      30.984  26.678  23.825  1.00  0.00     0.037 C 
ATOM      8  C   UNL A   1      29.509  27.071  23.859  1.00  0.00     0.007 C 
ENDBRANCH   5   7
BRANCH   5   9
ATOM      9  N   UNL A   1      32.541  27.090  21.895  1.00  0.00    -0.322 N 
ATOM     10  C   UNL A   1      32.957  25.878  21.498  1.00  0.00     0.315 C 
ATOM     11  H   UNL A   1      32.632  27.762  21.181  1.00  0.00     0.166 HD
ATOM     12  O   UNL A   1      33.104  25.686  20.288  1.00  0.00    -0.249 OA
ATOM     13  N   UNL A   1      33.227  24.856  22.328  1.00  0.00    -0.332 N 
ATOM     14  H   UNL A   1      33.253  23.968  21.901  1.00  0.00     0.165 HD
BRANCH  13  15
ATOM     15  C   UNL A   1      33.484  24.858  23.748  1.00  0.00     0.182 C 
BRANCH  15  16
ATOM     16  C   UNL A   1      33.044  23.622  24.563  1.00  0.00     0.200 C 
ATOM     17  C   UNL A   1      33.651  22.358  23.929  1.00  0.00     0.077 C 
BRANCH  16  18
ATOM     18  N   UNL A   1      33.370  23.795  26.004  1.00  0.00    -0.336 N 
ATOM     19  C   UNL A   1      32.317  23.336  26.901  1.00  0.00     0.332 C 
ATOM     20  C   UNL A   1      34.664  23.268  26.436  1.00  0.00     0.332 C 
ATOM     21  H   UNL A   1      33.443  24.811  26.077  1.00  0.00     0.347 HD
ENDBRANCH  16  18
ENDBRANCH  15  16
ENDBRANCH  13  15
ENDBRANCH   5   9
ENDBRANCH   3   5
ENDBRANCH   2   3
ENDBRANCH   1   2
BRANCH   1  22
ATOM     22  C   UNL A   1      33.444  29.528  27.255  1.00  0.00     0.275 C 
BRANCH  22  23
ATOM     23  O   UNL A   1      34.168  30.738  26.994  1.00  0.00    -0.458 OA
BRANCH  23  24
ATOM     24  C   UNL A   1      34.739  31.251  28.109  1.00  0.00     0.338 C 
ATOM     25  O   UNL A   1      34.193  31.888  28.989  1.00  0.00    -0.246 OA
BRANCH  24  26
ATOM     26  C   UNL A   1      36.003  30.517  28.274  1.00  0.00     0.060 A 
ATOM     27  C   UNL A   1      36.153  29.825  29.478  1.00  0.00     0.016 A 
ATOM     28  C   UNL A   1      36.960  30.422  27.270  1.00  0.00     0.016 A 
ATOM     29  C   UNL A   1      37.273  29.053  29.723  1.00  0.00     0.010 A 
ATOM     30  C   UNL A   1      38.111  29.677  27.522  1.00  0.00     0.010 A 
ATOM     31  C   UNL A   1      38.281  29.028  28.762  1.00  0.00    -0.014 A 
BRANCH  31  32
ATOM     32  C   UNL A   1      39.630  28.599  29.171  1.00  0.00     0.031 A 
ATOM     33  C   UNL A   1      40.438  29.598  29.943  1.00  0.00     0.074 A 
ATOM     34  C   UNL A   1      40.093  27.369  28.901  1.00  0.00     0.049 A 
ATOM     35  N   UNL A   1      41.718  29.626  30.178  1.00  0.00    -0.248 NA
ATOM     36  C   UNL A   1      39.694  30.743  30.507  1.00  0.00     0.031 C 
ATOM     37  C   UNL A   1      39.327  26.286  28.284  1.00  0.00     0.029 A 
ATOM     38  N   UNL A   1      41.335  26.832  29.108  1.00  0.00    -0.354 N 
ATOM     39  C   UNL A   1      41.945  30.826  30.842  1.00  0.00     0.074 A 
ATOM     40  C   UNL A   1      40.672  31.489  30.994  1.00  0.00     0.031 C 
ATOM     41  C   UNL A   1      40.128  25.214  28.145  1.00  0.00     0.029 A 
ATOM     42  C   UNL A   1      41.472  25.566  28.593  1.00  0.00     0.049 A 
ATOM     43  H   UNL A   1      42.057  27.305  29.581  1.00  0.00     0.167 HD
ATOM     44  C   UNL A   1      43.126  31.331  31.260  1.00  0.00     0.031 A 
ATOM     45  C   UNL A   1      42.580  24.814  28.449  1.00  0.00     0.031 A 
ATOM     46  C   UNL A   1      44.365  30.620  31.112  1.00  0.00     0.049 A 
ATOM     47  C   UNL A   1      43.893  25.402  28.894  1.00  0.00     0.074 A 
ATOM     48  C   UNL A   1      45.641  31.016  31.461  1.00  0.00     0.029 A 
ATOM     49  N   UNL A   1      44.466  29.339  30.584  1.00  0.00    -0.354 N 
ATOM     50  N   UNL A   1      44.130  26.583  29.422  1.00  0.00    -0.248 NA
ATOM     51  C   UNL A   1      45.089  24.570  28.713  1.00  0.00     0.031 C 
ATOM     52  C   UNL A   1      46.520  29.982  31.115  1.00  0.00     0.029 A 
ATOM     53  C   UNL A   1      45.783  28.926  30.596  1.00  0.00     0.049 A 
ATOM     54  H   UNL A   1      43.710  28.805  30.249  1.00  0.00     0.167 HD
ATOM     55  C   UNL A   1      45.500  26.633  29.645  1.00  0.00     0.074 A 
ATOM     56  C   UNL A   1      46.035  25.355  29.212  1.00  0.00     0.031 C 
ATOM     57  C   UNL A   1      46.257  27.638  30.154  1.00  0.00     0.031 A 
BRANCH  44  58
ATOM     58  C   UNL A   1      43.124  32.724  31.828  1.00  0.00    -0.014 A 
ATOM     59  C   UNL A   1      43.253  33.860  31.007  1.00  0.00     0.010 A 
ATOM     60  C   UNL A   1      43.013  32.896  33.219  1.00  0.00     0.010 A 
ATOM     61  C   UNL A   1      43.308  35.138  31.574  1.00  0.00     0.020 A 
ATOM     62  C   UNL A   1      43.041  34.172  33.787  1.00  0.00     0.020 A 
ATOM     63  C   UNL A   1      43.206  35.285  32.960  1.00  0.00     0.054 A 
BRANCH  63  64
ATOM     64  S   UNL A   1      43.263  36.954  33.671  1.00  0.00     0.124 S 
ATOM     65  O   UNL A   1      44.420  36.865  34.558  1.00  0.00    -0.237 OA
ATOM     66  O   UNL A   1      43.440  37.799  32.492  1.00  0.00    -0.237 OA
ATOM     67  O   UNL A   1      41.973  37.089  34.341  1.00  0.00    -0.744 OA
ENDBRANCH  63  64
ENDBRANCH  44  58
BRANCH  45  68
ATOM     68  C   UNL A   1      42.495  23.477  27.801  1.00  0.00    -0.014 A 
ATOM     69  C   UNL A   1      42.749  23.323  26.428  1.00  0.00     0.010 A 
ATOM     70  C   UNL A   1      42.195  22.335  28.569  1.00  0.00     0.010 A 
ATOM     71  C   UNL A   1      42.708  22.055  25.836  1.00  0.00     0.020 A 
ATOM     72  C   UNL A   1      42.178  21.063  27.987  1.00  0.00     0.020 A 
ATOM     73  C   UNL A   1      42.429  20.932  26.621  1.00  0.00     0.054 A 
BRANCH  73  74
ATOM     74  S   UNL A   1      42.460  19.288  25.850  1.00  0.00     0.124 S 
ATOM     75  O   UNL A   1      42.984  18.457  26.929  1.00  0.00    -0.237 OA
ATOM     76  O   UNL A   1      41.056  19.071  25.508  1.00  0.00    -0.237 OA
ATOM     77  O   UNL A   1      43.350  19.464  24.706  1.00  0.00    -0.744 OA
ENDBRANCH  73  74
ENDBRANCH  45  68
BRANCH  57  78
ATOM     78  C   UNL A   1      47.726  27.372  30.300  1.00  0.00    -0.014 A 
ATOM     79  C   UNL A   1      48.235  26.733  31.444  1.00  0.00     0.010 A 
ATOM     80  C   UNL A   1      48.595  27.710  29.248  1.00  0.00     0.010 A 
ATOM     81  C   UNL A   1      49.600  26.465  31.545  1.00  0.00     0.020 A 
ATOM     82  C   UNL A   1      49.957  27.423  29.337  1.00  0.00     0.020 A 
ATOM     83  C   UNL A   1      50.453  26.815  30.493  1.00  0.00     0.054 A 
BRANCH  83  84
ATOM     84  S   UNL A   1      52.217  26.423  30.629  1.00  0.00     0.124 S 
ATOM     85  O   UNL A   1      52.191  25.191  31.412  1.00  0.00    -0.237 OA
ATOM     86  O   UNL A   1      52.623  26.274  29.234  1.00  0.00    -0.237 OA
ATOM     87  O   UNL A   1      52.777  27.586  31.313  1.00  0.00    -0.744 OA
ENDBRANCH  83  84
ENDBRANCH  57  78
ENDBRANCH  31  32
ENDBRANCH  24  26
ENDBRANCH  23  24
ENDBRANCH  22  23
ENDBRANCH   1  22
TORSDOF 19
ENDMDL
MODEL 2
REMARK VINA RESULT:      -9.4      1.491      2.204
REMARK SMILES CC[C@](C)(NC(=O)NC[C@@H](C)[NH+](C)C)C(=O)OCCOC(=O)c1ccc(-c2c3nc(c(-c4ccc(S(=O)(=O)[O-])cc4)c4ccc([nH]4)c(-c4ccc(S(=O)(=O)[O-])cc4)c4nc(c(-c5ccc(S(=O)(=O)[O-])cc5)c5ccc2[nH]5)C=C4)C=C3)cc1
REMARK SMILES IDX 18 1 17 2 15 3 16 4 3 5 4 6 2 7 1 8 5 9 6 10 7 12 8 13 9 15
REMARK SMILES IDX 10 16 11 17 12 18 13 19 14 20 19 22 20 23 21 24 22 25 23 26
REMARK SMILES IDX 24 27 82 28 25 29 81 30 26 31 27 32 28 33 75 34 29 35 80 36
REMARK SMILES IDX 74 37 76 38 30 39 79 40 73 41 72 42 31 44 61 45 42 46 60 47
REMARK SMILES IDX 43 48 46 49 59 50 77 51 44 52 45 53 58 55 78 56 47 57 32 58
REMARK SMILES IDX 33 59 41 60 34 61 40 62 35 63 36 64 37 65 38 66 39 67 62 68
REMARK SMILES IDX 63 69 71 70 64 71 70 72 65 73 66 74 67 75 68 76 69 77 48 78
REMARK SMILES IDX 49 79 57 80 50 81 56 82 51 83 52 84 53 85 54 86 55 87
REMARK H PARENT 5 11 8 14 12 21 76 43 46 54
REMARK Flexibility Score: inf
ROOT
ATOM      1  C   UNL A   1      33.582  27.833  24.944  1.00  0.00     0.274 C 
ENDROOT
BRANCH   1   2
ATOM      2  O   UNL A   1      32.926  26.544  25.008  1.00  0.00    -0.460 OA
BRANCH   2   3
ATOM      3  C   UNL A   1      32.716  25.909  23.817  1.00  0.00     0.331 C 
ATOM      4  O   UNL A   1      33.351  26.170  22.801  1.00  0.00    -0.249 OA
BRANCH   3   5
ATOM      5  C   UNL A   1      31.618  24.791  23.907  1.00  0.00     0.136 C 
ATOM      6  C   UNL A   1      30.313  25.499  23.462  1.00  0.00     0.047 C 
BRANCH   5   7
ATOM      7  C   UNL A   1      31.474  24.271  25.376  1.00  0.00     0.037 C 
ATOM      8  C   UNL A   1      30.283  24.784  26.182  1.00  0.00     0.007 C 
ENDBRANCH   5   7
BRANCH   5   9
ATOM      9  N   UNL A   1      31.835  23.656  22.965  1.00  0.00    -0.322 N 
ATOM     10  C   UNL A   1      32.635  22.580  22.913  1.00  0.00     0.315 C 
ATOM     11  H   UNL A   1      31.240  23.708  22.183  1.00  0.00     0.166 HD
ATOM     12  O   UNL A   1      32.347  21.684  22.117  1.00  0.00    -0.249 OA
ATOM     13  N   UNL A   1      33.734  22.411  23.670  1.00  0.00    -0.332 N 
ATOM     14  H   UNL A   1      34.060  21.483  23.727  1.00  0.00     0.165 HD
BRANCH  13  15
ATOM     15  C   UNL A   1      34.508  23.378  24.409  1.00  0.00     0.182 C 
BRANCH  15  16
ATOM     16  C   UNL A   1      35.454  22.854  25.512  1.00  0.00     0.200 C 
ATOM     17  C   UNL A   1      34.931  21.500  26.023  1.00  0.00     0.077 C 
BRANCH  16  18
ATOM     18  N   UNL A   1      36.861  22.820  25.031  1.00  0.00    -0.336 N 
ATOM     19  C   UNL A   1      37.778  23.600  25.853  1.00  0.00     0.332 C 
ATOM     20  C   UNL A   1      37.418  21.494  24.775  1.00  0.00     0.332 C 
ATOM     21  H   UNL A   1      36.775  23.269  24.118  1.00  0.00     0.347 HD
ENDBRANCH  16  18
ENDBRANCH  15  16
ENDBRANCH  13  15
ENDBRANCH   5   9
ENDBRANCH   3   5
ENDBRANCH   2   3
ENDBRANCH   1   2
BRANCH   1  22
ATOM     22  C   UNL A   1      33.165  28.686  26.154  1.00  0.00     0.275 C 
BRANCH  22  23
ATOM     23  O   UNL A   1      34.189  28.618  27.155  1.00  0.00    -0.458 OA
BRANCH  23  24
ATOM     24  C   UNL A   1      34.523  29.838  27.638  1.00  0.00     0.338 C 
ATOM     25  O   UNL A   1      33.766  30.729  27.974  1.00  0.00    -0.246 OA
BRANCH  24  26
ATOM     26  C   UNL A   1      35.913  29.709  28.101  1.00  0.00     0.060 A 
ATOM     27  C   UNL A   1      36.898  30.043  27.169  1.00  0.00     0.016 A 
ATOM     28  C   UNL A   1      36.249  29.373  29.407  1.00  0.00     0.016 A 
ATOM     29  C   UNL A   1      38.239  30.017  27.506  1.00  0.00     0.010 A 
ATOM     30  C   UNL A   1      37.599  29.306  29.747  1.00  0.00     0.010 A 
ATOM     31  C   UNL A   1      38.590  29.589  28.784  1.00  0.00    -0.014 A 
BRANCH  31  32
ATOM     32  C   UNL A   1      39.971  29.134  29.018  1.00  0.00     0.031 A 
ATOM     33  C   UNL A   1      40.921  30.154  29.570  1.00  0.00     0.074 A 
ATOM     34  C   UNL A   1      40.346  27.867  28.788  1.00  0.00     0.049 A 
ATOM     35  N   UNL A   1      42.223  30.142  29.603  1.00  0.00    -0.248 NA
ATOM     36  C   UNL A   1      40.312  31.372  30.140  1.00  0.00     0.031 C 
ATOM     37  C   UNL A   1      39.459  26.773  28.390  1.00  0.00     0.029 A 
ATOM     38  N   UNL A   1      41.587  27.292  28.849  1.00  0.00    -0.354 N 
ATOM     39  C   UNL A   1      42.589  31.380  30.120  1.00  0.00     0.074 A 
ATOM     40  C   UNL A   1      41.377  32.110  30.406  1.00  0.00     0.031 C 
ATOM     41  C   UNL A   1      40.193  25.659  28.223  1.00  0.00     0.029 A 
ATOM     42  C   UNL A   1      41.601  25.983  28.429  1.00  0.00     0.049 A 
ATOM     43  H   UNL A   1      42.389  27.768  29.163  1.00  0.00     0.167 HD
ATOM     44  C   UNL A   1      43.837  31.862  30.307  1.00  0.00     0.031 A 
ATOM     45  C   UNL A   1      42.648  25.173  28.184  1.00  0.00     0.031 A 
ATOM     46  C   UNL A   1      45.013  31.086  30.035  1.00  0.00     0.049 A 
ATOM     47  C   UNL A   1      44.033  25.734  28.371  1.00  0.00     0.074 A 
ATOM     48  C   UNL A   1      46.340  31.450  30.149  1.00  0.00     0.029 A 
ATOM     49  N   UNL A   1      44.990  29.764  29.609  1.00  0.00    -0.354 N 
ATOM     50  N   UNL A   1      44.387  26.942  28.753  1.00  0.00    -0.248 NA
ATOM     51  C   UNL A   1      45.158  24.837  28.083  1.00  0.00     0.031 C 
ATOM     52  C   UNL A   1      47.121  30.354  29.764  1.00  0.00     0.029 A 
ATOM     53  C   UNL A   1      46.279  29.294  29.456  1.00  0.00     0.049 A 
ATOM     54  H   UNL A   1      44.173  29.240  29.440  1.00  0.00     0.167 HD
ATOM     55  C   UNL A   1      45.776  26.948  28.760  1.00  0.00     0.074 A 
ATOM     56  C   UNL A   1      46.195  25.616  28.363  1.00  0.00     0.031 C 
ATOM     57  C   UNL A   1      46.635  27.955  29.059  1.00  0.00     0.031 A 
BRANCH  44  58
ATOM     58  C   UNL A   1      43.968  33.295  30.747  1.00  0.00    -0.014 A 
ATOM     59  C   UNL A   1      43.977  33.655  32.107  1.00  0.00     0.010 A 
ATOM     60  C   UNL A   1      44.061  34.305  29.772  1.00  0.00     0.010 A 
ATOM     61  C   UNL A   1      44.039  35.002  32.480  1.00  0.00     0.020 A 
ATOM     62  C   UNL A   1      44.149  35.650  30.141  1.00  0.00     0.020 A 
ATOM     63  C   UNL A   1      44.120  35.991  31.495  1.00  0.00     0.054 A 
BRANCH  63  64
ATOM     64  S   UNL A   1      44.216  37.730  32.003  1.00  0.00     0.124 S 
ATOM     65  O   UNL A   1      43.700  38.419  30.824  1.00  0.00    -0.237 OA
ATOM     66  O   UNL A   1      43.353  37.769  33.181  1.00  0.00    -0.237 OA
ATOM     67  O   UNL A   1      45.638  37.934  32.272  1.00  0.00    -0.744 OA
ENDBRANCH  63  64
ENDBRANCH  44  58
BRANCH  45  68
ATOM     68  C   UNL A   1      42.420  23.794  27.674  1.00  0.00    -0.014 A 
ATOM     69  C   UNL A   1      42.391  23.530  26.294  1.00  0.00     0.010 A 
ATOM     70  C   UNL A   1      42.268  22.721  28.574  1.00  0.00     0.010 A 
ATOM     71  C   UNL A   1      42.217  22.222  25.824  1.00  0.00     0.020 A 
ATOM     72  C   UNL A   1      42.120  21.410  28.109  1.00  0.00     0.020 A 
ATOM     73  C   UNL A   1      42.090  21.170  26.735  1.00  0.00     0.054 A 
BRANCH  73  74
ATOM     74  S   UNL A   1      41.947  19.472  26.107  1.00  0.00     0.124 S 
ATOM     75  O   UNL A   1      42.366  18.685  27.262  1.00  0.00    -0.237 OA
ATOM     76  O   UNL A   1      40.532  19.381  25.757  1.00  0.00    -0.237 OA
ATOM     77  O   UNL A   1      42.863  19.452  24.969  1.00  0.00    -0.744 OA
ENDBRANCH  73  74
ENDBRANCH  45  68
BRANCH  57  78
ATOM     78  C   UNL A   1      48.100  27.634  29.002  1.00  0.00    -0.014 A 
ATOM     79  C   UNL A   1      48.829  27.791  27.811  1.00  0.00     0.010 A 
ATOM     80  C   UNL A   1      48.762  27.231  30.175  1.00  0.00     0.010 A 
ATOM     81  C   UNL A   1      50.197  27.518  27.788  1.00  0.00     0.020 A 
ATOM     82  C   UNL A   1      50.134  26.981  30.160  1.00  0.00     0.020 A 
ATOM     83  C   UNL A   1      50.840  27.112  28.962  1.00  0.00     0.054 A 
BRANCH  83  84
ATOM     84  S   UNL A   1      52.624  26.800  28.918  1.00  0.00     0.124 S 
ATOM     85  O   UNL A   1      52.758  25.982  27.716  1.00  0.00    -0.237 OA
ATOM     86  O   UNL A   1      53.185  28.146  28.828  1.00  0.00    -0.237 OA
ATOM     87  O   UNL A   1      52.885  26.107  30.178  1.00  0.00    -0.744 OA
ENDBRANCH  83  84
ENDBRANCH  57  78
ENDBRANCH  31  32
ENDBRANCH  24  26
ENDBRANCH  23  24
ENDBRANCH  22  23
ENDBRANCH   1  22
TORSDOF 19
ENDMDL
MODEL 3
REMARK VINA RESULT:      -9.2      1.621      2.963
REMARK SMILES CC[C@](C)(NC(=O)NC[C@@H](C)[NH+](C)C)C(=O)OCCOC(=O)c1ccc(-c2c3nc(c(-c4ccc(S(=O)(=O)[O-])cc4)c4ccc([nH]4)c(-c4ccc(S(=O)(=O)[O-])cc4)c4nc(c(-c5ccc(S(=O)(=O)[O-])cc5)c5ccc2[nH]5)C=C4)C=C3)cc1
REMARK SMILES IDX 18 1 17 2 15 3 16 4 3 5 4 6 2 7 1 8 5 9 6 10 7 12 8 13 9 15
REMARK SMILES IDX 10 16 11 17 12 18 13 19 14 20 19 22 20 23 21 24 22 25 23 26
REMARK SMILES IDX 24 27 82 28 25 29 81 30 26 31 27 32 28 33 75 34 29 35 80 36
REMARK SMILES IDX 74 37 76 38 30 39 79 40 73 41 72 42 31 44 61 45 42 46 60 47
REMARK SMILES IDX 43 48 46 49 59 50 77 51 44 52 45 53 58 55 78 56 47 57 32 58
REMARK SMILES IDX 33 59 41 60 34 61 40 62 35 63 36 64 37 65 38 66 39 67 62 68
REMARK SMILES IDX 63 69 71 70 64 71 70 72 65 73 66 74 67 75 68 76 69 77 48 78
REMARK SMILES IDX 49 79 57 80 50 81 56 82 51 83 52 84 53 85 54 86 55 87
REMARK H PARENT 5 11 8 14 12 21 76 43 46 54
REMARK Flexibility Score: inf
ROOT
ATOM      1  C   UNL A   1      32.236  29.664  27.218  1.00  0.00     0.274 C 
ENDROOT
BRANCH   1   2
ATOM      2  O   UNL A   1      31.902  28.556  26.349  1.00  0.00    -0.460 OA
BRANCH   2   3
ATOM      3  C   UNL A   1      32.115  28.745  25.013  1.00  0.00     0.331 C 
ATOM      4  O   UNL A   1      31.987  29.835  24.465  1.00  0.00    -0.249 OA
BRANCH   3   5
ATOM      5  C   UNL A   1      32.581  27.439  24.278  1.00  0.00     0.136 C 
ATOM      6  C   UNL A   1      33.943  27.096  24.933  1.00  0.00     0.047 C 
BRANCH   5   7
ATOM      7  C   UNL A   1      32.771  27.700  22.747  1.00  0.00     0.037 C 
ATOM      8  C   UNL A   1      34.073  28.368  22.311  1.00  0.00     0.007 C 
ENDBRANCH   5   7
BRANCH   5   9
ATOM      9  N   UNL A   1      31.687  26.268  24.506  1.00  0.00    -0.322 N 
ATOM     10  C   UNL A   1      30.439  25.919  24.155  1.00  0.00     0.315 C 
ATOM     11  H   UNL A   1      32.122  25.574  25.051  1.00  0.00     0.166 HD
ATOM     12  O   UNL A   1      30.114  24.736  24.281  1.00  0.00    -0.249 OA
ATOM     13  N   UNL A   1      29.516  26.771  23.677  1.00  0.00    -0.332 N 
ATOM     14  H   UNL A   1      28.759  26.346  23.212  1.00  0.00     0.165 HD
BRANCH  13  15
ATOM     15  C   UNL A   1      29.465  28.212  23.739  1.00  0.00     0.182 C 
BRANCH  15  16
ATOM     16  C   UNL A   1      28.676  28.954  22.638  1.00  0.00     0.200 C 
ATOM     17  C   UNL A   1      27.171  28.866  22.949  1.00  0.00     0.077 C 
BRANCH  16  18
ATOM     18  N   UNL A   1      29.182  30.343  22.470  1.00  0.00    -0.336 N 
ATOM     19  C   UNL A   1      28.714  30.991  21.250  1.00  0.00     0.332 C 
ATOM     20  C   UNL A   1      29.000  31.234  23.614  1.00  0.00     0.332 C 
ATOM     21  H   UNL A   1      30.187  30.187  22.393  1.00  0.00     0.347 HD
ENDBRANCH  16  18
ENDBRANCH  15  16
ENDBRANCH  13  15
ENDBRANCH   5   9
ENDBRANCH   3   5
ENDBRANCH   2   3
ENDBRANCH   1   2
BRANCH   1  22
ATOM     22  C   UNL A   1      33.721  29.585  27.610  1.00  0.00     0.275 C 
BRANCH  22  23
ATOM     23  O   UNL A   1      34.337  30.860  27.383  1.00  0.00    -0.458 OA
BRANCH  23  24
ATOM     24  C   UNL A   1      34.976  31.330  28.480  1.00  0.00     0.338 C 
ATOM     25  O   UNL A   1      34.482  31.915  29.425  1.00  0.00    -0.246 OA
BRANCH  24  26
ATOM     26  C   UNL A   1      36.259  30.611  28.524  1.00  0.00     0.060 A 
ATOM     27  C   UNL A   1      36.616  30.077  29.764  1.00  0.00     0.016 A 
ATOM     28  C   UNL A   1      37.037  30.381  27.396  1.00  0.00     0.016 A 
ATOM     29  C   UNL A   1      37.770  29.332  29.916  1.00  0.00     0.010 A 
ATOM     30  C   UNL A   1      38.223  29.663  27.544  1.00  0.00     0.010 A 
ATOM     31  C   UNL A   1      38.604  29.175  28.811  1.00  0.00    -0.014 A 
BRANCH  31  32
ATOM     32  C   UNL A   1      40.007  28.790  29.040  1.00  0.00     0.031 A 
ATOM     33  C   UNL A   1      40.905  29.854  29.597  1.00  0.00     0.074 A 
ATOM     34  C   UNL A   1      40.446  27.545  28.803  1.00  0.00     0.049 A 
ATOM     35  N   UNL A   1      42.206  29.908  29.628  1.00  0.00    -0.248 NA
ATOM     36  C   UNL A   1      40.236  31.036  30.175  1.00  0.00     0.031 C 
ATOM     37  C   UNL A   1      39.616  26.409  28.400  1.00  0.00     0.029 A 
ATOM     38  N   UNL A   1      41.715  27.034  28.858  1.00  0.00    -0.354 N 
ATOM     39  C   UNL A   1      42.509  31.160  30.152  1.00  0.00     0.074 A 
ATOM     40  C   UNL A   1      41.262  31.826  30.444  1.00  0.00     0.031 C 
ATOM     41  C   UNL A   1      40.405  25.335  28.225  1.00  0.00     0.029 A 
ATOM     42  C   UNL A   1      41.795  25.730  28.431  1.00  0.00     0.049 A 
ATOM     43  H   UNL A   1      42.492  27.549  29.174  1.00  0.00     0.167 HD
ATOM     44  C   UNL A   1      43.731  31.705  30.341  1.00  0.00     0.031 A 
ATOM     45  C   UNL A   1      42.882  24.976  28.180  1.00  0.00     0.031 A 
ATOM     46  C   UNL A   1      44.945  30.992  30.062  1.00  0.00     0.049 A 
ATOM     47  C   UNL A   1      44.237  25.606  28.369  1.00  0.00     0.074 A 
ATOM     48  C   UNL A   1      46.252  31.422  30.177  1.00  0.00     0.029 A 
ATOM     49  N   UNL A   1      44.988  29.672  29.629  1.00  0.00    -0.354 N 
ATOM     50  N   UNL A   1      44.530  26.828  28.757  1.00  0.00    -0.248 NA
ATOM     51  C   UNL A   1      45.406  24.769  28.074  1.00  0.00     0.031 C 
ATOM     52  C   UNL A   1      47.087  30.369  29.784  1.00  0.00     0.029 A 
ATOM     53  C   UNL A   1      46.299  29.269  29.471  1.00  0.00     0.049 A 
ATOM     54  H   UNL A   1      44.200  29.108  29.458  1.00  0.00     0.167 HD
ATOM     55  C   UNL A   1      45.917  26.905  28.762  1.00  0.00     0.074 A 
ATOM     56  C   UNL A   1      46.403  25.598  28.357  1.00  0.00     0.031 C 
ATOM     57  C   UNL A   1      46.723  27.953  29.066  1.00  0.00     0.031 A 
BRANCH  44  58
ATOM     58  C   UNL A   1      43.789  33.140  30.788  1.00  0.00    -0.014 A 
ATOM     59  C   UNL A   1      43.743  34.205  29.871  1.00  0.00     0.010 A 
ATOM     60  C   UNL A   1      43.916  33.424  32.160  1.00  0.00     0.010 A 
ATOM     61  C   UNL A   1      43.862  35.526  30.317  1.00  0.00     0.020 A 
ATOM     62  C   UNL A   1      44.008  34.743  32.612  1.00  0.00     0.020 A 
ATOM     63  C   UNL A   1      43.998  35.786  31.683  1.00  0.00     0.054 A 
BRANCH  63  64
ATOM     64  S   UNL A   1      44.132  37.509  32.239  1.00  0.00     0.124 S 
ATOM     65  O   UNL A   1      43.162  37.552  33.329  1.00  0.00    -0.237 OA
ATOM     66  O   UNL A   1      45.533  37.608  32.641  1.00  0.00    -0.237 OA
ATOM     67  O   UNL A   1      43.773  38.283  31.054  1.00  0.00    -0.744 OA
ENDBRANCH  63  64
ENDBRANCH  44  58
BRANCH  45  68
ATOM     68  C   UNL A   1      42.724  23.589  27.662  1.00  0.00    -0.014 A 
ATOM     69  C   UNL A   1      42.612  22.499  28.541  1.00  0.00     0.010 A 
ATOM     70  C   UNL A   1      42.645  23.356  26.275  1.00  0.00     0.010 A 
ATOM     71  C   UNL A   1      42.422  21.204  28.044  1.00  0.00     0.020 A 
ATOM     72  C   UNL A   1      42.430  22.067  25.776  1.00  0.00     0.020 A 
ATOM     73  C   UNL A   1      42.325  20.997  26.666  1.00  0.00     0.054 A 
BRANCH  73  74
ATOM     74  S   UNL A   1      41.997  19.322  26.046  1.00  0.00     0.124 S 
ATOM     75  O   UNL A   1      42.436  18.493  27.164  1.00  0.00    -0.237 OA
ATOM     76  O   UNL A   1      40.556  19.350  25.804  1.00  0.00    -0.237 OA
ATOM     77  O   UNL A   1      42.820  19.237  24.841  1.00  0.00    -0.744 OA
ENDBRANCH  73  74
ENDBRANCH  45  68
BRANCH  57  78
ATOM     78  C   UNL A   1      48.202  27.708  29.005  1.00  0.00    -0.014 A 
ATOM     79  C   UNL A   1      48.933  27.977  27.835  1.00  0.00     0.010 A 
ATOM     80  C   UNL A   1      48.874  27.262  30.157  1.00  0.00     0.010 A 
ATOM     81  C   UNL A   1      50.313  27.773  27.810  1.00  0.00     0.020 A 
ATOM     82  C   UNL A   1      50.256  27.079  30.142  1.00  0.00     0.020 A 
ATOM     83  C   UNL A   1      50.965  27.322  28.962  1.00  0.00     0.054 A 
BRANCH  83  84
ATOM     84  S   UNL A   1      52.763  27.101  28.920  1.00  0.00     0.124 S 
ATOM     85  O   UNL A   1      52.926  26.182  27.797  1.00  0.00    -0.237 OA
ATOM     86  O   UNL A   1      53.250  28.460  28.696  1.00  0.00    -0.237 OA
ATOM     87  O   UNL A   1      53.074  26.543  30.234  1.00  0.00    -0.744 OA
ENDBRANCH  83  84
ENDBRANCH  57  78
ENDBRANCH  31  32
ENDBRANCH  24  26
ENDBRANCH  23  24
ENDBRANCH  22  23
ENDBRANCH   1  22
TORSDOF 19
ENDMDL
