MODEL 1
REMARK VINA RESULT:     -10.6      0.000      0.000
REMARK SMILES COc1ccc(OC)c(NC(=O)[C@@H]2[C@@H](C(=O)OCCOC(=O)c3ccc(-c4c5nc(c(-c6ccc(S(=O)(=O)[O-])cc6)c6ccc([nH]6)c(-c6ccc(S(=O)(=O)[O-])cc6)c6nc(c(-c7ccc(S(=O)(=O)[O-])cc7)c7ccc4[nH]7)C=C6)C=C5)cc3)[C@H]3C=C[C@@H]2C3)c1
REMARK SMILES IDX 18 1 17 2 15 3 16 4 14 5 13 6 86 7 83 8 85 9 87 10 84 11
REMARK SMILES IDX 11 12 10 13 12 15 9 16 3 17 4 18 88 19 5 20 6 21 2 22 1 23
REMARK SMILES IDX 7 24 8 25 19 26 20 27 21 28 22 29 23 30 24 31 82 32 25 33
REMARK SMILES IDX 81 34 26 35 27 36 28 37 75 38 29 39 80 40 74 41 76 42 30 43
REMARK SMILES IDX 79 44 73 45 72 46 31 48 61 49 42 50 60 51 43 52 46 53 59 54
REMARK SMILES IDX 77 55 44 56 45 57 58 59 78 60 47 61 32 62 33 63 41 64 34 65
REMARK SMILES IDX 40 66 35 67 36 68 37 69 38 70 39 71 62 72 63 73 71 74 64 75
REMARK SMILES IDX 70 76 65 77 66 78 67 79 68 80 69 81 48 82 49 83 57 84 50 85
REMARK SMILES IDX 56 86 51 87 52 88 53 89 54 90 55 91
REMARK H PARENT 10 14 76 47 46 58
REMARK Flexibility Score: inf
ROOT
ATOM      1  C   UNL A   1      35.755  21.857  24.853  1.00  0.00     0.274 C 
ENDROOT
BRANCH   1   2
ATOM      2  O   UNL A   1      34.896  22.871  24.267  1.00  0.00    -0.462 OA
BRANCH   2   3
ATOM      3  C   UNL A   1      33.714  22.401  23.773  1.00  0.00     0.310 C 
ATOM      4  O   UNL A   1      33.463  21.201  23.722  1.00  0.00    -0.252 OA
BRANCH   3   5
ATOM      5  C   UNL A   1      32.821  23.502  23.181  1.00  0.00     0.119 C 
ATOM      6  C   UNL A   1      33.013  24.973  23.712  1.00  0.00     0.100 C 
ATOM      7  C   UNL A   1      31.591  25.286  24.309  1.00  0.00     0.025 C 
ATOM      8  C   UNL A   1      31.320  23.204  23.547  1.00  0.00     0.027 C 
ATOM      9  C   UNL A   1      31.308  24.416  25.505  1.00  0.00    -0.027 C 
ATOM     10  C   UNL A   1      30.667  24.562  23.309  1.00  0.00     0.017 C 
ATOM     11  C   UNL A   1      31.117  23.172  25.048  1.00  0.00    -0.027 C 
BRANCH   6  12
ATOM     12  C   UNL A   1      33.238  26.020  22.605  1.00  0.00     0.229 C 
ATOM     13  N   UNL A   1      33.273  27.358  22.782  1.00  0.00    -0.323 N 
ATOM     14  H   UNL A   1      33.758  27.815  22.058  1.00  0.00     0.170 HD
ATOM     15  O   UNL A   1      33.526  25.675  21.448  1.00  0.00    -0.274 OA
BRANCH  13  16
ATOM     16  C   UNL A   1      32.792  28.251  23.740  1.00  0.00     0.087 A 
ATOM     17  C   UNL A   1      33.301  29.350  25.846  1.00  0.00     0.121 A 
ATOM     18  C   UNL A   1      32.042  29.931  25.867  1.00  0.00     0.050 A 
ATOM     19  C   UNL A   1      33.678  28.519  24.795  1.00  0.00     0.076 A 
ATOM     20  C   UNL A   1      31.199  29.755  24.771  1.00  0.00     0.052 A 
ATOM     21  C   UNL A   1      31.582  28.942  23.691  1.00  0.00     0.142 A 
BRANCH  17  22
ATOM     22  O   UNL A   1      34.163  29.507  26.897  1.00  0.00    -0.497 OA
ATOM     23  C   UNL A   1      34.061  30.833  27.416  1.00  0.00     0.278 C 
ENDBRANCH  17  22
BRANCH  21  24
ATOM     24  O   UNL A   1      30.688  28.847  22.659  1.00  0.00    -0.495 OA
ATOM     25  C   UNL A   1      29.764  29.926  22.615  1.00  0.00     0.278 C 
ENDBRANCH  21  24
ENDBRANCH  13  16
ENDBRANCH   6  12
ENDBRANCH   3   5
ENDBRANCH   2   3
ENDBRANCH   1   2
BRANCH   1  26
ATOM     26  C   UNL A   1      37.271  22.141  24.799  1.00  0.00     0.275 C 
BRANCH  26  27
ATOM     27  O   UNL A   1      37.687  23.318  25.530  1.00  0.00    -0.458 OA
BRANCH  27  28
ATOM     28  C   UNL A   1      38.864  23.113  26.156  1.00  0.00     0.338 C 
ATOM     29  O   UNL A   1      39.473  22.063  26.128  1.00  0.00    -0.246 OA
BRANCH  28  30
ATOM     30  C   UNL A   1      39.467  24.273  26.819  1.00  0.00     0.060 A 
ATOM     31  C   UNL A   1      39.044  24.514  28.125  1.00  0.00     0.016 A 
ATOM     32  C   UNL A   1      40.188  25.246  26.129  1.00  0.00     0.016 A 
ATOM     33  C   UNL A   1      39.323  25.719  28.750  1.00  0.00     0.010 A 
ATOM     34  C   UNL A   1      40.521  26.447  26.780  1.00  0.00     0.010 A 
ATOM     35  C   UNL A   1      40.096  26.686  28.099  1.00  0.00    -0.014 A 
BRANCH  35  36
ATOM     36  C   UNL A   1      40.532  27.867  28.883  1.00  0.00     0.031 A 
ATOM     37  C   UNL A   1      39.631  29.043  29.120  1.00  0.00     0.074 A 
ATOM     38  C   UNL A   1      41.745  27.816  29.469  1.00  0.00     0.049 A 
ATOM     39  N   UNL A   1      39.891  30.156  29.760  1.00  0.00    -0.248 NA
ATOM     40  C   UNL A   1      38.261  28.959  28.590  1.00  0.00     0.031 C 
ATOM     41  C   UNL A   1      42.670  26.680  29.387  1.00  0.00     0.029 A 
ATOM     42  N   UNL A   1      42.398  28.716  30.271  1.00  0.00    -0.354 N 
ATOM     43  C   UNL A   1      38.730  30.916  29.693  1.00  0.00     0.074 A 
ATOM     44  C   UNL A   1      37.759  30.133  28.955  1.00  0.00     0.031 C 
ATOM     45  C   UNL A   1      43.751  26.938  30.136  1.00  0.00     0.029 A 
ATOM     46  C   UNL A   1      43.636  28.283  30.684  1.00  0.00     0.049 A 
ATOM     47  H   UNL A   1      42.017  29.587  30.526  1.00  0.00     0.167 HD
ATOM     48  C   UNL A   1      38.508  32.158  30.190  1.00  0.00     0.031 A 
ATOM     49  C   UNL A   1      44.594  28.911  31.390  1.00  0.00     0.031 A 
ATOM     50  C   UNL A   1      39.485  32.931  30.916  1.00  0.00     0.049 A 
ATOM     51  C   UNL A   1      44.354  30.321  31.841  1.00  0.00     0.074 A 
ATOM     52  C   UNL A   1      39.364  34.214  31.424  1.00  0.00     0.029 A 
ATOM     53  N   UNL A   1      40.761  32.495  31.237  1.00  0.00    -0.354 N 
ATOM     54  N   UNL A   1      43.271  31.050  31.715  1.00  0.00    -0.248 NA
ATOM     55  C   UNL A   1      45.471  31.001  32.509  1.00  0.00     0.031 C 
ATOM     56  C   UNL A   1      40.584  34.570  32.013  1.00  0.00     0.029 A 
ATOM     57  C   UNL A   1      41.447  33.492  31.914  1.00  0.00     0.049 A 
ATOM     58  H   UNL A   1      41.127  31.608  31.018  1.00  0.00     0.167 HD
ATOM     59  C   UNL A   1      43.575  32.276  32.292  1.00  0.00     0.074 A 
ATOM     60  C   UNL A   1      44.934  32.181  32.788  1.00  0.00     0.031 C 
ATOM     61  C   UNL A   1      42.800  33.383  32.394  1.00  0.00     0.031 A 
BRANCH  48  62
ATOM     62  C   UNL A   1      37.173  32.796  29.912  1.00  0.00    -0.014 A 
ATOM     63  C   UNL A   1      36.111  32.708  30.830  1.00  0.00     0.010 A 
ATOM     64  C   UNL A   1      37.003  33.553  28.738  1.00  0.00     0.010 A 
ATOM     65  C   UNL A   1      34.895  33.345  30.565  1.00  0.00     0.020 A 
ATOM     66  C   UNL A   1      35.795  34.206  28.478  1.00  0.00     0.020 A 
ATOM     67  C   UNL A   1      34.743  34.086  29.388  1.00  0.00     0.054 A 
BRANCH  67  68
ATOM     68  S   UNL A   1      33.162  34.922  29.074  1.00  0.00     0.124 S 
ATOM     69  O   UNL A   1      32.557  34.052  28.069  1.00  0.00    -0.237 OA
ATOM     70  O   UNL A   1      32.521  34.904  30.387  1.00  0.00    -0.237 OA
ATOM     71  O   UNL A   1      33.557  36.244  28.596  1.00  0.00    -0.744 OA
ENDBRANCH  67  68
ENDBRANCH  48  62
BRANCH  49  72
ATOM     72  C   UNL A   1      45.895  28.236  31.636  1.00  0.00    -0.014 A 
ATOM     73  C   UNL A   1      46.095  27.442  32.777  1.00  0.00     0.010 A 
ATOM     74  C   UNL A   1      46.947  28.383  30.712  1.00  0.00     0.010 A 
ATOM     75  C   UNL A   1      47.329  26.823  32.999  1.00  0.00     0.020 A 
ATOM     76  C   UNL A   1      48.171  27.743  30.914  1.00  0.00     0.020 A 
ATOM     77  C   UNL A   1      48.359  26.980  32.066  1.00  0.00     0.054 A 
BRANCH  77  78
ATOM     78  S   UNL A   1      49.943  26.141  32.346  1.00  0.00     0.124 S 
ATOM     79  O   UNL A   1      49.723  24.855  31.692  1.00  0.00    -0.237 OA
ATOM     80  O   UNL A   1      50.899  27.031  31.691  1.00  0.00    -0.237 OA
ATOM     81  O   UNL A   1      50.048  26.094  33.804  1.00  0.00    -0.744 OA
ENDBRANCH  77  78
ENDBRANCH  49  72
BRANCH  61  82
ATOM     82  C   UNL A   1      43.405  34.574  33.084  1.00  0.00    -0.014 A 
ATOM     83  C   UNL A   1      43.293  34.736  34.477  1.00  0.00     0.010 A 
ATOM     84  C   UNL A   1      44.120  35.525  32.334  1.00  0.00     0.010 A 
ATOM     85  C   UNL A   1      43.862  35.846  35.105  1.00  0.00     0.020 A 
ATOM     86  C   UNL A   1      44.708  36.625  32.962  1.00  0.00     0.020 A 
ATOM     87  C   UNL A   1      44.563  36.787  34.343  1.00  0.00     0.054 A 
BRANCH  87  88
ATOM     88  S   UNL A   1      45.328  38.200  35.182  1.00  0.00     0.124 S 
ATOM     89  O   UNL A   1      44.310  38.554  36.169  1.00  0.00    -0.237 OA
ATOM     90  O   UNL A   1      46.557  37.628  35.726  1.00  0.00    -0.237 OA
ATOM     91  O   UNL A   1      45.523  39.173  34.110  1.00  0.00    -0.744 OA
ENDBRANCH  87  88
ENDBRANCH  61  82
ENDBRANCH  35  36
ENDBRANCH  28  30
ENDBRANCH  27  28
ENDBRANCH  26  27
ENDBRANCH   1  26
TORSDOF 18
ENDMDL
MODEL 2
REMARK VINA RESULT:     -10.6      3.292      8.841
REMARK SMILES COc1ccc(OC)c(NC(=O)[C@@H]2[C@@H](C(=O)OCCOC(=O)c3ccc(-c4c5nc(c(-c6ccc(S(=O)(=O)[O-])cc6)c6ccc([nH]6)c(-c6ccc(S(=O)(=O)[O-])cc6)c6nc(c(-c7ccc(S(=O)(=O)[O-])cc7)c7ccc4[nH]7)C=C6)C=C5)cc3)[C@H]3C=C[C@@H]2C3)c1
REMARK SMILES IDX 18 1 17 2 15 3 16 4 14 5 13 6 86 7 83 8 85 9 87 10 84 11
REMARK SMILES IDX 11 12 10 13 12 15 9 16 3 17 4 18 88 19 5 20 6 21 2 22 1 23
REMARK SMILES IDX 7 24 8 25 19 26 20 27 21 28 22 29 23 30 24 31 82 32 25 33
REMARK SMILES IDX 81 34 26 35 27 36 28 37 75 38 29 39 80 40 74 41 76 42 30 43
REMARK SMILES IDX 79 44 73 45 72 46 31 48 61 49 42 50 60 51 43 52 46 53 59 54
REMARK SMILES IDX 77 55 44 56 45 57 58 59 78 60 47 61 32 62 33 63 41 64 34 65
REMARK SMILES IDX 40 66 35 67 36 68 37 69 38 70 39 71 62 72 63 73 71 74 64 75
REMARK SMILES IDX 70 76 65 77 66 78 67 79 68 80 69 81 48 82 49 83 57 84 50 85
REMARK SMILES IDX 56 86 51 87 52 88 53 89 54 90 55 91
REMARK H PARENT 10 14 76 47 46 58
REMARK Flexibility Score: inf
ROOT
ATOM      1  C   UNL A   1      38.601  21.908  25.792  1.00  0.00     0.274 C 
ENDROOT
BRANCH   1   2
ATOM      2  O   UNL A   1      37.179  22.089  26.028  1.00  0.00    -0.462 OA
BRANCH   2   3
ATOM      3  C   UNL A   1      36.376  21.196  25.379  1.00  0.00     0.310 C 
ATOM      4  O   UNL A   1      36.769  20.078  25.064  1.00  0.00    -0.252 OA
BRANCH   3   5
ATOM      5  C   UNL A   1      35.013  21.783  24.980  1.00  0.00     0.119 C 
ATOM      6  C   UNL A   1      34.769  23.319  25.229  1.00  0.00     0.100 C 
ATOM      7  C   UNL A   1      33.544  23.293  26.216  1.00  0.00     0.025 C 
ATOM      8  C   UNL A   1      33.887  21.116  25.853  1.00  0.00     0.027 C 
ATOM      9  C   UNL A   1      33.933  22.687  27.537  1.00  0.00    -0.027 C 
ATOM     10  C   UNL A   1      32.733  22.099  25.675  1.00  0.00     0.017 C 
ATOM     11  C   UNL A   1      34.111  21.376  27.329  1.00  0.00    -0.027 C 
BRANCH   6  12
ATOM     12  C   UNL A   1      34.287  24.092  23.987  1.00  0.00     0.229 C 
ATOM     13  N   UNL A   1      33.753  25.332  23.989  1.00  0.00    -0.323 N 
ATOM     14  H   UNL A   1      33.834  25.773  23.113  1.00  0.00     0.170 HD
ATOM     15  O   UNL A   1      34.470  23.644  22.845  1.00  0.00    -0.274 OA
BRANCH  13  16
ATOM     16  C   UNL A   1      33.117  26.144  24.929  1.00  0.00     0.087 A 
ATOM     17  C   UNL A   1      33.410  28.039  26.420  1.00  0.00     0.121 A 
ATOM     18  C   UNL A   1      32.126  27.869  26.918  1.00  0.00     0.050 A 
ATOM     19  C   UNL A   1      33.905  27.189  25.436  1.00  0.00     0.076 A 
ATOM     20  C   UNL A   1      31.304  26.902  26.343  1.00  0.00     0.052 A 
ATOM     21  C   UNL A   1      31.784  26.058  25.327  1.00  0.00     0.142 A 
BRANCH  17  22
ATOM     22  O   UNL A   1      34.247  28.984  26.949  1.00  0.00    -0.497 OA
ATOM     23  C   UNL A   1      33.506  30.159  27.280  1.00  0.00     0.278 C 
ENDBRANCH  17  22
BRANCH  21  24
ATOM     24  O   UNL A   1      30.891  25.152  24.822  1.00  0.00    -0.495 OA
ATOM     25  C   UNL A   1      30.087  25.680  23.776  1.00  0.00     0.278 C 
ENDBRANCH  21  24
ENDBRANCH  13  16
ENDBRANCH   6  12
ENDBRANCH   3   5
ENDBRANCH   2   3
ENDBRANCH   1   2
BRANCH   1  26
ATOM     26  C   UNL A   1      39.541  22.857  26.565  1.00  0.00     0.275 C 
BRANCH  26  27
ATOM     27  O   UNL A   1      39.449  24.246  26.171  1.00  0.00    -0.458 OA
BRANCH  27  28
ATOM     28  C   UNL A   1      40.527  24.943  26.583  1.00  0.00     0.338 C 
ATOM     29  O   UNL A   1      41.625  24.857  26.072  1.00  0.00    -0.246 OA
BRANCH  28  30
ATOM     30  C   UNL A   1      40.308  25.928  27.645  1.00  0.00     0.060 A 
ATOM     31  C   UNL A   1      41.334  26.852  27.838  1.00  0.00     0.016 A 
ATOM     32  C   UNL A   1      39.298  25.800  28.597  1.00  0.00     0.016 A 
ATOM     33  C   UNL A   1      41.371  27.644  28.975  1.00  0.00     0.010 A 
ATOM     34  C   UNL A   1      39.303  26.641  29.724  1.00  0.00     0.010 A 
ATOM     35  C   UNL A   1      40.337  27.574  29.914  1.00  0.00    -0.014 A 
BRANCH  35  36
ATOM     36  C   UNL A   1      40.322  28.580  31.004  1.00  0.00     0.031 A 
ATOM     37  C   UNL A   1      41.304  28.540  32.138  1.00  0.00     0.074 A 
ATOM     38  C   UNL A   1      39.453  29.604  30.899  1.00  0.00     0.049 A 
ATOM     39  N   UNL A   1      41.388  29.336  33.174  1.00  0.00    -0.248 NA
ATOM     40  C   UNL A   1      42.332  27.489  32.101  1.00  0.00     0.031 C 
ATOM     41  C   UNL A   1      38.514  29.799  29.787  1.00  0.00     0.029 A 
ATOM     42  N   UNL A   1      39.233  30.688  31.709  1.00  0.00    -0.354 N 
ATOM     43  C   UNL A   1      42.460  28.873  33.927  1.00  0.00     0.074 A 
ATOM     44  C   UNL A   1      43.003  27.729  33.223  1.00  0.00     0.031 C 
ATOM     45  C   UNL A   1      37.848  30.947  29.970  1.00  0.00     0.029 A 
ATOM     46  C   UNL A   1      38.249  31.528  31.244  1.00  0.00     0.049 A 
ATOM     47  H   UNL A   1      39.731  30.848  32.543  1.00  0.00     0.167 HD
ATOM     48  C   UNL A   1      42.932  29.354  35.104  1.00  0.00     0.031 A 
ATOM     49  C   UNL A   1      37.697  32.624  31.798  1.00  0.00     0.031 A 
ATOM     50  C   UNL A   1      42.379  30.490  35.799  1.00  0.00     0.049 A 
ATOM     51  C   UNL A   1      38.176  33.072  33.147  1.00  0.00     0.074 A 
ATOM     52  C   UNL A   1      42.766  31.026  37.017  1.00  0.00     0.029 A 
ATOM     53  N   UNL A   1      41.323  31.262  35.342  1.00  0.00    -0.354 N 
ATOM     54  N   UNL A   1      39.151  32.585  33.876  1.00  0.00    -0.248 NA
ATOM     55  C   UNL A   1      37.466  34.203  33.758  1.00  0.00     0.031 C 
ATOM     56  C   UNL A   1      41.913  32.096  37.315  1.00  0.00     0.029 A 
ATOM     57  C   UNL A   1      41.027  32.255  36.263  1.00  0.00     0.049 A 
ATOM     58  H   UNL A   1      40.852  31.127  34.488  1.00  0.00     0.167 HD
ATOM     59  C   UNL A   1      39.175  33.353  35.032  1.00  0.00     0.074 A 
ATOM     60  C   UNL A   1      38.134  34.352  34.895  1.00  0.00     0.031 C 
ATOM     61  C   UNL A   1      39.983  33.236  36.113  1.00  0.00     0.031 A 
BRANCH  48  62
ATOM     62  C   UNL A   1      44.070  28.616  35.756  1.00  0.00    -0.014 A 
ATOM     63  C   UNL A   1      43.843  27.535  36.627  1.00  0.00     0.010 A 
ATOM     64  C   UNL A   1      45.394  28.972  35.437  1.00  0.00     0.010 A 
ATOM     65  C   UNL A   1      44.921  26.842  37.186  1.00  0.00     0.020 A 
ATOM     66  C   UNL A   1      46.473  28.270  35.980  1.00  0.00     0.020 A 
ATOM     67  C   UNL A   1      46.230  27.217  36.863  1.00  0.00     0.054 A 
BRANCH  67  68
ATOM     68  S   UNL A   1      47.613  26.289  37.586  1.00  0.00     0.124 S 
ATOM     69  O   UNL A   1      48.156  27.253  38.538  1.00  0.00    -0.237 OA
ATOM     70  O   UNL A   1      46.950  25.129  38.177  1.00  0.00    -0.237 OA
ATOM     71  O   UNL A   1      48.470  25.996  36.439  1.00  0.00    -0.744 OA
ENDBRANCH  67  68
ENDBRANCH  48  62
BRANCH  49  72
ATOM     72  C   UNL A   1      36.574  33.315  31.111  1.00  0.00    -0.014 A 
ATOM     73  C   UNL A   1      35.266  33.251  31.618  1.00  0.00     0.010 A 
ATOM     74  C   UNL A   1      36.819  34.054  29.938  1.00  0.00     0.010 A 
ATOM     75  C   UNL A   1      34.220  33.898  30.955  1.00  0.00     0.020 A 
ATOM     76  C   UNL A   1      35.782  34.726  29.289  1.00  0.00     0.020 A 
ATOM     77  C   UNL A   1      34.485  34.630  29.793  1.00  0.00     0.054 A 
BRANCH  77  78
ATOM     78  S   UNL A   1      33.125  35.496  28.962  1.00  0.00     0.124 S 
ATOM     79  O   UNL A   1      32.368  36.024  30.093  1.00  0.00    -0.237 OA
ATOM     80  O   UNL A   1      33.824  36.488  28.148  1.00  0.00    -0.237 OA
ATOM     81  O   UNL A   1      32.462  34.437  28.203  1.00  0.00    -0.744 OA
ENDBRANCH  77  78
ENDBRANCH  49  72
BRANCH  61  82
ATOM     82  C   UNL A   1      39.777  34.227  37.225  1.00  0.00    -0.014 A 
ATOM     83  C   UNL A   1      39.150  33.847  38.425  1.00  0.00     0.010 A 
ATOM     84  C   UNL A   1      40.244  35.545  37.078  1.00  0.00     0.010 A 
ATOM     85  C   UNL A   1      38.968  34.778  39.450  1.00  0.00     0.020 A 
ATOM     86  C   UNL A   1      40.081  36.473  38.109  1.00  0.00     0.020 A 
ATOM     87  C   UNL A   1      39.431  36.087  39.284  1.00  0.00     0.054 A 
BRANCH  87  88
ATOM     88  S   UNL A   1      39.219  37.270  40.642  1.00  0.00     0.124 S 
ATOM     89  O   UNL A   1      40.595  37.691  40.894  1.00  0.00    -0.237 OA
ATOM     90  O   UNL A   1      38.349  38.286  40.055  1.00  0.00    -0.237 OA
ATOM     91  O   UNL A   1      38.607  36.473  41.702  1.00  0.00    -0.744 OA
ENDBRANCH  87  88
ENDBRANCH  61  82
ENDBRANCH  35  36
ENDBRANCH  28  30
ENDBRANCH  27  28
ENDBRANCH  26  27
ENDBRANCH   1  26
TORSDOF 18
ENDMDL
MODEL 3
REMARK VINA RESULT:     -10.4      4.145      5.372
REMARK SMILES COc1ccc(OC)c(NC(=O)[C@@H]2[C@@H](C(=O)OCCOC(=O)c3ccc(-c4c5nc(c(-c6ccc(S(=O)(=O)[O-])cc6)c6ccc([nH]6)c(-c6ccc(S(=O)(=O)[O-])cc6)c6nc(c(-c7ccc(S(=O)(=O)[O-])cc7)c7ccc4[nH]7)C=C6)C=C5)cc3)[C@H]3C=C[C@@H]2C3)c1
REMARK SMILES IDX 18 1 17 2 15 3 16 4 14 5 13 6 86 7 83 8 85 9 87 10 84 11
REMARK SMILES IDX 11 12 10 13 12 15 9 16 3 17 4 18 88 19 5 20 6 21 2 22 1 23
REMARK SMILES IDX 7 24 8 25 19 26 20 27 21 28 22 29 23 30 24 31 82 32 25 33
REMARK SMILES IDX 81 34 26 35 27 36 28 37 75 38 29 39 80 40 74 41 76 42 30 43
REMARK SMILES IDX 79 44 73 45 72 46 31 48 61 49 42 50 60 51 43 52 46 53 59 54
REMARK SMILES IDX 77 55 44 56 45 57 58 59 78 60 47 61 32 62 33 63 41 64 34 65
REMARK SMILES IDX 40 66 35 67 36 68 37 69 38 70 39 71 62 72 63 73 71 74 64 75
REMARK SMILES IDX 70 76 65 77 66 78 67 79 68 80 69 81 48 82 49 83 57 84 50 85
REMARK SMILES IDX 56 86 51 87 52 88 53 89 54 90 55 91
REMARK H PARENT 10 14 76 47 46 58
REMARK Flexibility Score: inf
ROOT
ATOM      1  C   UNL A   1      39.003  21.518  25.819  1.00  0.00     0.274 C 
ENDROOT
BRANCH   1   2
ATOM      2  O   UNL A   1      37.800  21.762  25.044  1.00  0.00    -0.462 OA
BRANCH   2   3
ATOM      3  C   UNL A   1      37.157  22.929  25.342  1.00  0.00     0.310 C 
ATOM      4  O   UNL A   1      37.619  23.739  26.138  1.00  0.00    -0.252 OA
BRANCH   3   5
ATOM      5  C   UNL A   1      35.769  23.041  24.692  1.00  0.00     0.119 C 
ATOM      6  C   UNL A   1      34.831  24.218  25.154  1.00  0.00     0.100 C 
ATOM      7  C   UNL A   1      33.591  23.434  25.724  1.00  0.00     0.025 C 
ATOM      8  C   UNL A   1      34.921  21.768  25.058  1.00  0.00     0.027 C 
ATOM      9  C   UNL A   1      33.968  22.658  26.957  1.00  0.00    -0.027 C 
ATOM     10  C   UNL A   1      33.503  22.241  24.752  1.00  0.00     0.017 C 
ATOM     11  C   UNL A   1      34.743  21.641  26.558  1.00  0.00    -0.027 C 
BRANCH   6  12
ATOM     12  C   UNL A   1      34.284  25.080  24.001  1.00  0.00     0.229 C 
ATOM     13  N   UNL A   1      33.709  26.295  24.130  1.00  0.00    -0.323 N 
ATOM     14  H   UNL A   1      33.747  26.814  23.294  1.00  0.00     0.170 HD
ATOM     15  O   UNL A   1      34.446  24.743  22.818  1.00  0.00    -0.274 OA
BRANCH  13  16
ATOM     16  C   UNL A   1      33.075  26.996  25.157  1.00  0.00     0.087 A 
ATOM     17  C   UNL A   1      33.304  28.843  26.718  1.00  0.00     0.121 A 
ATOM     18  C   UNL A   1      32.087  28.523  27.302  1.00  0.00     0.050 A 
ATOM     19  C   UNL A   1      33.797  28.092  25.656  1.00  0.00     0.076 A 
ATOM     20  C   UNL A   1      31.318  27.505  26.742  1.00  0.00     0.052 A 
ATOM     21  C   UNL A   1      31.793  26.760  25.650  1.00  0.00     0.142 A 
BRANCH  17  22
ATOM     22  O   UNL A   1      34.085  29.843  27.231  1.00  0.00    -0.497 OA
ATOM     23  C   UNL A   1      35.403  29.351  27.480  1.00  0.00     0.278 C 
ENDBRANCH  17  22
BRANCH  21  24
ATOM     24  O   UNL A   1      30.954  25.792  25.167  1.00  0.00    -0.495 OA
ATOM     25  C   UNL A   1      30.085  25.258  26.157  1.00  0.00     0.278 C 
ENDBRANCH  21  24
ENDBRANCH  13  16
ENDBRANCH   6  12
ENDBRANCH   3   5
ENDBRANCH   2   3
ENDBRANCH   1   2
BRANCH   1  26
ATOM     26  C   UNL A   1      39.565  20.082  25.762  1.00  0.00     0.275 C 
BRANCH  26  27
ATOM     27  O   UNL A   1      40.667  19.831  26.665  1.00  0.00    -0.458 OA
BRANCH  27  28
ATOM     28  C   UNL A   1      41.853  20.000  26.046  1.00  0.00     0.338 C 
ATOM     29  O   UNL A   1      42.354  19.179  25.305  1.00  0.00    -0.246 OA
BRANCH  28  30
ATOM     30  C   UNL A   1      42.505  21.301  26.217  1.00  0.00     0.060 A 
ATOM     31  C   UNL A   1      42.725  21.702  27.534  1.00  0.00     0.016 A 
ATOM     32  C   UNL A   1      42.642  22.220  25.177  1.00  0.00     0.016 A 
ATOM     33  C   UNL A   1      43.072  23.011  27.829  1.00  0.00     0.010 A 
ATOM     34  C   UNL A   1      43.047  23.534  25.468  1.00  0.00     0.010 A 
ATOM     35  C   UNL A   1      43.272  23.935  26.797  1.00  0.00    -0.014 A 
BRANCH  35  36
ATOM     36  C   UNL A   1      43.834  25.260  27.154  1.00  0.00     0.031 A 
ATOM     37  C   UNL A   1      43.022  26.305  27.862  1.00  0.00     0.074 A 
ATOM     38  C   UNL A   1      45.142  25.472  26.908  1.00  0.00     0.049 A 
ATOM     39  N   UNL A   1      43.375  27.517  28.208  1.00  0.00    -0.248 NA
ATOM     40  C   UNL A   1      41.650  25.943  28.248  1.00  0.00     0.031 C 
ATOM     41  C   UNL A   1      46.054  24.490  26.310  1.00  0.00     0.029 A 
ATOM     42  N   UNL A   1      45.942  26.557  27.155  1.00  0.00    -0.354 N 
ATOM     43  C   UNL A   1      42.266  28.076  28.831  1.00  0.00     0.074 A 
ATOM     44  C   UNL A   1      41.229  27.064  28.823  1.00  0.00     0.031 C 
ATOM     45  C   UNL A   1      47.291  25.005  26.269  1.00  0.00     0.029 A 
ATOM     46  C   UNL A   1      47.247  26.377  26.760  1.00  0.00     0.049 A 
ATOM     47  H   UNL A   1      45.614  27.385  27.574  1.00  0.00     0.167 HD
ATOM     48  C   UNL A   1      42.129  29.323  29.346  1.00  0.00     0.031 A 
ATOM     49  C   UNL A   1      48.287  27.230  26.753  1.00  0.00     0.031 A 
ATOM     50  C   UNL A   1      43.167  30.324  29.341  1.00  0.00     0.049 A 
ATOM     51  C   UNL A   1      48.076  28.633  27.239  1.00  0.00     0.074 A 
ATOM     52  C   UNL A   1      43.108  31.628  29.804  1.00  0.00     0.029 A 
ATOM     53  N   UNL A   1      44.450  30.134  28.850  1.00  0.00    -0.354 N 
ATOM     54  N   UNL A   1      47.000  29.165  27.768  1.00  0.00    -0.248 NA
ATOM     55  C   UNL A   1      49.209  29.557  27.105  1.00  0.00     0.031 C 
ATOM     56  C   UNL A   1      44.342  32.240  29.551  1.00  0.00     0.029 A 
ATOM     57  C   UNL A   1      45.184  31.303  28.975  1.00  0.00     0.049 A 
ATOM     58  H   UNL A   1      44.790  29.293  28.469  1.00  0.00     0.167 HD
ATOM     59  C   UNL A   1      47.329  30.488  28.036  1.00  0.00     0.074 A 
ATOM     60  C   UNL A   1      48.710  30.667  27.632  1.00  0.00     0.031 C 
ATOM     61  C   UNL A   1      46.553  31.467  28.562  1.00  0.00     0.031 A 
BRANCH  48  62
ATOM     62  C   UNL A   1      40.785  29.707  29.904  1.00  0.00    -0.014 A 
ATOM     63  C   UNL A   1      40.502  29.601  31.277  1.00  0.00     0.010 A 
ATOM     64  C   UNL A   1      39.811  30.247  29.043  1.00  0.00     0.010 A 
ATOM     65  C   UNL A   1      39.259  30.004  31.774  1.00  0.00     0.020 A 
ATOM     66  C   UNL A   1      38.574  30.667  29.539  1.00  0.00     0.020 A 
ATOM     67  C   UNL A   1      38.300  30.530  30.901  1.00  0.00     0.054 A 
BRANCH  67  68
ATOM     68  S   UNL A   1      36.700  31.066  31.572  1.00  0.00     0.124 S 
ATOM     69  O   UNL A   1      36.333  29.930  32.413  1.00  0.00    -0.237 OA
ATOM     70  O   UNL A   1      37.044  32.292  32.288  1.00  0.00    -0.237 OA
ATOM     71  O   UNL A   1      35.872  31.254  30.383  1.00  0.00    -0.744 OA
ENDBRANCH  67  68
ENDBRANCH  48  62
BRANCH  49  72
ATOM     72  C   UNL A   1      49.594  26.800  26.190  1.00  0.00    -0.014 A 
ATOM     73  C   UNL A   1      49.963  27.138  24.877  1.00  0.00     0.010 A 
ATOM     74  C   UNL A   1      50.485  26.049  26.980  1.00  0.00     0.010 A 
ATOM     75  C   UNL A   1      51.191  26.717  24.359  1.00  0.00     0.020 A 
ATOM     76  C   UNL A   1      51.725  25.651  26.476  1.00  0.00     0.020 A 
ATOM     77  C   UNL A   1      52.063  25.974  25.162  1.00  0.00     0.054 A 
BRANCH  77  78
ATOM     78  S   UNL A   1      53.669  25.465  24.490  1.00  0.00     0.124 S 
ATOM     79  O   UNL A   1      53.541  25.840  23.086  1.00  0.00    -0.237 OA
ATOM     80  O   UNL A   1      54.612  26.260  25.275  1.00  0.00    -0.237 OA
ATOM     81  O   UNL A   1      53.708  24.028  24.756  1.00  0.00    -0.744 OA
ENDBRANCH  77  78
ENDBRANCH  49  72
BRANCH  61  82
ATOM     82  C   UNL A   1      47.193  32.815  28.743  1.00  0.00    -0.014 A 
ATOM     83  C   UNL A   1      47.875  33.138  29.929  1.00  0.00     0.010 A 
ATOM     84  C   UNL A   1      47.134  33.759  27.702  1.00  0.00     0.010 A 
ATOM     85  C   UNL A   1      48.466  34.394  30.082  1.00  0.00     0.020 A 
ATOM     86  C   UNL A   1      47.742  35.008  27.844  1.00  0.00     0.020 A 
ATOM     87  C   UNL A   1      48.392  35.324  29.040  1.00  0.00     0.054 A 
BRANCH  87  88
ATOM     88  S   UNL A   1      49.200  36.935  29.243  1.00  0.00     0.124 S 
ATOM     89  O   UNL A   1      48.493  37.754  28.262  1.00  0.00    -0.237 OA
ATOM     90  O   UNL A   1      48.931  37.258  30.643  1.00  0.00    -0.237 OA
ATOM     91  O   UNL A   1      50.601  36.660  28.933  1.00  0.00    -0.744 OA
ENDBRANCH  87  88
ENDBRANCH  61  82
ENDBRANCH  35  36
ENDBRANCH  28  30
ENDBRANCH  27  28
ENDBRANCH  26  27
ENDBRANCH   1  26
TORSDOF 18
ENDMDL
