MODEL 1
REMARK VINA RESULT:     -10.7      0.000      0.000
REMARK SMILES CC[C@@H]1SC[C@@H](C(=O)OCCOC(=O)c2ccc(-c3c4nc(c(-c5ccc(S(=O)(=O)[O-])cc5)c5ccc([nH]5)c(-c5ccc(S(=O)(=O)[O-])cc5)c5nc(c(-c6ccc(S(=O)(=O)[O-])cc6)c6ccc3[nH]6)C=C5)C=C4)cc2)N1C(=O)NC1C(C)(C)C1(C)C
REMARK SMILES IDX 11 1 10 2 9 3 7 4 8 5 6 6 3 7 4 8 75 9 5 10 2 11 1 12 76 13
REMARK SMILES IDX 77 14 78 15 79 17 80 18 83 19 81 20 82 21 84 22 85 23 12 24
REMARK SMILES IDX 13 25 14 26 15 27 16 28 74 29 17 30 73 31 18 32 19 33 20 34
REMARK SMILES IDX 67 35 21 36 72 37 66 38 68 39 22 40 71 41 65 42 64 43 23 45
REMARK SMILES IDX 53 46 34 47 52 48 35 49 38 50 51 51 69 52 36 53 37 54 50 56
REMARK SMILES IDX 70 57 39 58 24 59 25 60 33 61 26 62 32 63 27 64 28 65 29 66
REMARK SMILES IDX 30 67 31 68 54 69 55 70 63 71 56 72 62 73 57 74 58 75 59 76
REMARK SMILES IDX 60 77 61 78 40 79 41 80 49 81 42 82 48 83 43 84 44 85 45 86
REMARK SMILES IDX 46 87 47 88
REMARK H PARENT 78 16 68 44 38 55
REMARK Flexibility Score: inf
ROOT
ATOM      1  C   UNL A   1      32.456  30.115  27.081  1.00  0.00     0.275 C 
ENDROOT
BRANCH   1   2
ATOM      2  C   UNL A   1      31.822  29.043  26.202  1.00  0.00     0.274 C 
BRANCH   2   3
ATOM      3  O   UNL A   1      31.997  29.348  24.804  1.00  0.00    -0.461 OA
BRANCH   3   4
ATOM      4  C   UNL A   1      32.815  28.509  24.103  1.00  0.00     0.329 C 
ATOM      5  O   UNL A   1      34.029  28.437  24.268  1.00  0.00    -0.250 OA
BRANCH   4   6
ATOM      6  C   UNL A   1      32.070  27.671  23.037  1.00  0.00     0.208 C 
ATOM      7  C   UNL A   1      31.266  25.768  24.238  1.00  0.00     0.145 C 
ATOM      8  S   UNL A   1      29.746  26.774  23.955  1.00  0.00    -0.134 SA
ATOM      9  N   UNL A   1      32.191  26.194  23.178  1.00  0.00    -0.298 N 
ATOM     10  C   UNL A   1      30.601  28.068  23.041  1.00  0.00     0.109 C 
BRANCH   7  11
ATOM     11  C   UNL A   1      30.801  24.348  24.521  1.00  0.00     0.033 C 
ATOM     12  C   UNL A   1      30.625  23.574  23.210  1.00  0.00     0.007 C 
ENDBRANCH   7  11
BRANCH   9  13
ATOM     13  C   UNL A   1      33.309  25.696  22.570  1.00  0.00     0.319 C 
ATOM     14  O   UNL A   1      33.402  25.745  21.333  1.00  0.00    -0.249 OA
ATOM     15  N   UNL A   1      34.359  25.081  23.141  1.00  0.00    -0.334 N 
ATOM     16  H   UNL A   1      35.098  24.952  22.503  1.00  0.00     0.165 HD
BRANCH  15  17
ATOM     17  C   UNL A   1      34.680  24.571  24.419  1.00  0.00     0.096 C 
ATOM     18  C   UNL A   1      34.363  23.159  24.873  1.00  0.00    -0.007 C 
ATOM     19  C   UNL A   1      35.824  23.608  24.699  1.00  0.00    -0.007 C 
ATOM     20  C   UNL A   1      33.761  23.020  26.254  1.00  0.00     0.014 C 
ATOM     21  C   UNL A   1      33.808  22.128  23.914  1.00  0.00     0.014 C 
ATOM     22  C   UNL A   1      36.667  23.056  23.572  1.00  0.00     0.014 C 
ATOM     23  C   UNL A   1      36.663  23.890  25.934  1.00  0.00     0.014 C 
ENDBRANCH  15  17
ENDBRANCH   9  13
ENDBRANCH   4   6
ENDBRANCH   3   4
ENDBRANCH   2   3
ENDBRANCH   1   2
BRANCH   1  24
ATOM     24  O   UNL A   1      33.832  29.787  27.314  1.00  0.00    -0.458 OA
BRANCH  24  25
ATOM     25  C   UNL A   1      34.494  30.607  28.162  1.00  0.00     0.338 C 
ATOM     26  O   UNL A   1      34.089  31.647  28.659  1.00  0.00    -0.246 OA
BRANCH  25  27
ATOM     27  C   UNL A   1      35.854  30.084  28.348  1.00  0.00     0.060 A 
ATOM     28  C   UNL A   1      36.278  29.662  29.610  1.00  0.00     0.016 A 
ATOM     29  C   UNL A   1      36.735  30.078  27.270  1.00  0.00     0.016 A 
ATOM     30  C   UNL A   1      37.599  29.274  29.813  1.00  0.00     0.010 A 
ATOM     31  C   UNL A   1      38.048  29.643  27.460  1.00  0.00     0.010 A 
ATOM     32  C   UNL A   1      38.496  29.263  28.738  1.00  0.00    -0.014 A 
BRANCH  32  33
ATOM     33  C   UNL A   1      39.926  28.930  28.955  1.00  0.00     0.031 A 
ATOM     34  C   UNL A   1      40.855  29.987  29.485  1.00  0.00     0.074 A 
ATOM     35  C   UNL A   1      40.388  27.695  28.683  1.00  0.00     0.049 A 
ATOM     36  N   UNL A   1      42.159  29.972  29.573  1.00  0.00    -0.248 NA
ATOM     37  C   UNL A   1      40.232  31.228  29.977  1.00  0.00     0.031 C 
ATOM     38  C   UNL A   1      39.577  26.564  28.226  1.00  0.00     0.029 A 
ATOM     39  N   UNL A   1      41.662  27.187  28.745  1.00  0.00    -0.354 N 
ATOM     40  C   UNL A   1      42.516  31.208  30.099  1.00  0.00     0.074 A 
ATOM     41  C   UNL A   1      41.293  31.954  30.301  1.00  0.00     0.031 C 
ATOM     42  C   UNL A   1      40.373  25.496  28.051  1.00  0.00     0.029 A 
ATOM     43  C   UNL A   1      41.754  25.882  28.320  1.00  0.00     0.049 A 
ATOM     44  H   UNL A   1      42.435  27.706  29.064  1.00  0.00     0.167 HD
ATOM     45  C   UNL A   1      43.754  31.677  30.387  1.00  0.00     0.031 A 
ATOM     46  C   UNL A   1      42.834  25.101  28.127  1.00  0.00     0.031 A 
ATOM     47  C   UNL A   1      44.964  30.923  30.198  1.00  0.00     0.049 A 
ATOM     48  C   UNL A   1      44.203  25.666  28.397  1.00  0.00     0.074 A 
ATOM     49  C   UNL A   1      46.271  31.317  30.427  1.00  0.00     0.029 A 
ATOM     50  N   UNL A   1      45.014  29.611  29.751  1.00  0.00    -0.354 N 
ATOM     51  N   UNL A   1      44.531  26.859  28.833  1.00  0.00    -0.248 NA
ATOM     52  C   UNL A   1      45.348  24.782  28.139  1.00  0.00     0.031 C 
ATOM     53  C   UNL A   1      47.113  30.252  30.093  1.00  0.00     0.029 A 
ATOM     54  C   UNL A   1      46.328  29.180  29.698  1.00  0.00     0.049 A 
ATOM     55  H   UNL A   1      44.230  29.066  29.508  1.00  0.00     0.167 HD
ATOM     56  C   UNL A   1      45.917  26.861  28.920  1.00  0.00     0.074 A 
ATOM     57  C   UNL A   1      46.366  25.546  28.511  1.00  0.00     0.031 C 
ATOM     58  C   UNL A   1      46.749  27.862  29.300  1.00  0.00     0.031 A 
BRANCH  45  59
ATOM     59  C   UNL A   1      43.864  33.080  30.917  1.00  0.00    -0.014 A 
ATOM     60  C   UNL A   1      44.013  34.174  30.047  1.00  0.00     0.010 A 
ATOM     61  C   UNL A   1      43.762  33.311  32.301  1.00  0.00     0.010 A 
ATOM     62  C   UNL A   1      44.079  35.475  30.554  1.00  0.00     0.020 A 
ATOM     63  C   UNL A   1      43.805  34.612  32.810  1.00  0.00     0.020 A 
ATOM     64  C   UNL A   1      43.975  35.686  31.934  1.00  0.00     0.054 A 
BRANCH  64  65
ATOM     65  S   UNL A   1      44.019  37.388  32.561  1.00  0.00     0.124 S 
ATOM     66  O   UNL A   1      45.383  37.484  33.077  1.00  0.00    -0.237 OA
ATOM     67  O   UNL A   1      43.744  38.179  31.365  1.00  0.00    -0.237 OA
ATOM     68  O   UNL A   1      42.968  37.411  33.575  1.00  0.00    -0.744 OA
ENDBRANCH  64  65
ENDBRANCH  45  59
BRANCH  46  69
ATOM     69  C   UNL A   1      42.677  23.720  27.595  1.00  0.00    -0.014 A 
ATOM     70  C   UNL A   1      42.341  22.654  28.448  1.00  0.00     0.010 A 
ATOM     71  C   UNL A   1      42.891  23.461  26.229  1.00  0.00     0.010 A 
ATOM     72  C   UNL A   1      42.255  21.349  27.950  1.00  0.00     0.020 A 
ATOM     73  C   UNL A   1      42.778  22.163  25.722  1.00  0.00     0.020 A 
ATOM     74  C   UNL A   1      42.479  21.112  26.591  1.00  0.00     0.054 A 
BRANCH  74  75
ATOM     75  S   UNL A   1      42.346  19.418  25.956  1.00  0.00     0.124 S 
ATOM     76  O   UNL A   1      40.909  19.290  25.736  1.00  0.00    -0.237 OA
ATOM     77  O   UNL A   1      43.170  19.462  24.750  1.00  0.00    -0.237 OA
ATOM     78  O   UNL A   1      42.891  18.605  27.042  1.00  0.00    -0.744 OA
ENDBRANCH  74  75
ENDBRANCH  46  69
BRANCH  58  79
ATOM     79  C   UNL A   1      48.220  27.559  29.336  1.00  0.00    -0.014 A 
ATOM     80  C   UNL A   1      48.802  26.913  30.440  1.00  0.00     0.010 A 
ATOM     81  C   UNL A   1      49.021  27.881  28.224  1.00  0.00     0.010 A 
ATOM     82  C   UNL A   1      50.169  26.620  30.444  1.00  0.00     0.020 A 
ATOM     83  C   UNL A   1      50.382  27.570  28.216  1.00  0.00     0.020 A 
ATOM     84  C   UNL A   1      50.951  26.953  29.333  1.00  0.00     0.054 A 
BRANCH  84  85
ATOM     85  S   UNL A   1      52.713  26.524  29.341  1.00  0.00     0.124 S 
ATOM     86  O   UNL A   1      52.853  25.843  30.625  1.00  0.00    -0.237 OA
ATOM     87  O   UNL A   1      52.845  25.675  28.161  1.00  0.00    -0.237 OA
ATOM     88  O   UNL A   1      53.384  27.820  29.247  1.00  0.00    -0.744 OA
ENDBRANCH  84  85
ENDBRANCH  58  79
ENDBRANCH  32  33
ENDBRANCH  25  27
ENDBRANCH  24  25
ENDBRANCH   1  24
TORSDOF 17
ENDMDL
MODEL 2
REMARK VINA RESULT:     -10.6      2.959      9.413
REMARK SMILES CC[C@@H]1SC[C@@H](C(=O)OCCOC(=O)c2ccc(-c3c4nc(c(-c5ccc(S(=O)(=O)[O-])cc5)c5ccc([nH]5)c(-c5ccc(S(=O)(=O)[O-])cc5)c5nc(c(-c6ccc(S(=O)(=O)[O-])cc6)c6ccc3[nH]6)C=C5)C=C4)cc2)N1C(=O)NC1C(C)(C)C1(C)C
REMARK SMILES IDX 11 1 10 2 9 3 7 4 8 5 6 6 3 7 4 8 75 9 5 10 2 11 1 12 76 13
REMARK SMILES IDX 77 14 78 15 79 17 80 18 83 19 81 20 82 21 84 22 85 23 12 24
REMARK SMILES IDX 13 25 14 26 15 27 16 28 74 29 17 30 73 31 18 32 19 33 20 34
REMARK SMILES IDX 67 35 21 36 72 37 66 38 68 39 22 40 71 41 65 42 64 43 23 45
REMARK SMILES IDX 53 46 34 47 52 48 35 49 38 50 51 51 69 52 36 53 37 54 50 56
REMARK SMILES IDX 70 57 39 58 24 59 25 60 33 61 26 62 32 63 27 64 28 65 29 66
REMARK SMILES IDX 30 67 31 68 54 69 55 70 63 71 56 72 62 73 57 74 58 75 59 76
REMARK SMILES IDX 60 77 61 78 40 79 41 80 49 81 42 82 48 83 43 84 44 85 45 86
REMARK SMILES IDX 46 87 47 88
REMARK H PARENT 78 16 68 44 38 55
REMARK Flexibility Score: inf
ROOT
ATOM      1  C   UNL A   1      37.203  21.584  25.435  1.00  0.00     0.275 C 
ENDROOT
BRANCH   1   2
ATOM      2  C   UNL A   1      35.780  21.762  24.919  1.00  0.00     0.274 C 
BRANCH   2   3
ATOM      3  O   UNL A   1      34.817  21.285  25.880  1.00  0.00    -0.461 OA
BRANCH   3   4
ATOM      4  C   UNL A   1      33.999  22.229  26.430  1.00  0.00     0.329 C 
ATOM      5  O   UNL A   1      34.381  23.106  27.199  1.00  0.00    -0.250 OA
BRANCH   4   6
ATOM      6  C   UNL A   1      32.514  22.071  26.024  1.00  0.00     0.208 C 
ATOM      7  C   UNL A   1      32.289  23.427  24.069  1.00  0.00     0.145 C 
ATOM      8  S   UNL A   1      32.256  21.706  23.408  1.00  0.00    -0.134 SA
ATOM      9  N   UNL A   1      31.864  23.289  25.470  1.00  0.00    -0.298 N 
ATOM     10  C   UNL A   1      32.399  20.929  25.025  1.00  0.00     0.109 C 
BRANCH   7  11
ATOM     11  C   UNL A   1      31.652  24.313  23.011  1.00  0.00     0.033 C 
ATOM     12  C   UNL A   1      32.687  24.705  21.951  1.00  0.00     0.007 C 
ENDBRANCH   7  11
BRANCH   9  13
ATOM     13  C   UNL A   1      31.355  24.105  26.442  1.00  0.00     0.319 C 
ATOM     14  O   UNL A   1      30.351  23.739  27.077  1.00  0.00    -0.249 OA
ATOM     15  N   UNL A   1      31.772  25.331  26.799  1.00  0.00    -0.334 N 
ATOM     16  H   UNL A   1      31.331  25.641  27.623  1.00  0.00     0.165 HD
BRANCH  15  17
ATOM     17  C   UNL A   1      32.677  26.293  26.299  1.00  0.00     0.096 C 
ATOM     18  C   UNL A   1      32.322  27.326  25.246  1.00  0.00    -0.007 C 
ATOM     19  C   UNL A   1      32.666  27.766  26.680  1.00  0.00    -0.007 C 
ATOM     20  C   UNL A   1      33.324  27.509  24.127  1.00  0.00     0.014 C 
ATOM     21  C   UNL A   1      30.900  27.501  24.761  1.00  0.00     0.014 C 
ATOM     22  C   UNL A   1      31.593  28.324  27.588  1.00  0.00     0.014 C 
ATOM     23  C   UNL A   1      34.015  28.408  26.954  1.00  0.00     0.014 C 
ENDBRANCH  15  17
ENDBRANCH   9  13
ENDBRANCH   4   6
ENDBRANCH   3   4
ENDBRANCH   2   3
ENDBRANCH   1   2
BRANCH   1  24
ATOM     24  O   UNL A   1      37.740  22.862  25.802  1.00  0.00    -0.458 OA
BRANCH  24  25
ATOM     25  C   UNL A   1      39.039  22.867  26.177  1.00  0.00     0.338 C 
ATOM     26  O   UNL A   1      39.835  21.942  26.110  1.00  0.00    -0.246 OA
BRANCH  25  27
ATOM     27  C   UNL A   1      39.348  24.174  26.771  1.00  0.00     0.060 A 
ATOM     28  C   UNL A   1      40.074  25.121  26.046  1.00  0.00     0.016 A 
ATOM     29  C   UNL A   1      38.967  24.432  28.085  1.00  0.00     0.016 A 
ATOM     30  C   UNL A   1      40.467  26.314  26.646  1.00  0.00     0.010 A 
ATOM     31  C   UNL A   1      39.317  25.649  28.673  1.00  0.00     0.010 A 
ATOM     32  C   UNL A   1      40.092  26.587  27.967  1.00  0.00    -0.014 A 
BRANCH  32  33
ATOM     33  C   UNL A   1      40.569  27.817  28.646  1.00  0.00     0.031 A 
ATOM     34  C   UNL A   1      41.968  27.857  29.196  1.00  0.00     0.074 A 
ATOM     35  C   UNL A   1      39.762  28.888  28.766  1.00  0.00     0.049 A 
ATOM     36  N   UNL A   1      42.523  28.746  29.978  1.00  0.00    -0.248 NA
ATOM     37  C   UNL A   1      42.859  26.746  28.819  1.00  0.00     0.031 C 
ATOM     38  C   UNL A   1      38.407  28.998  28.219  1.00  0.00     0.029 A 
ATOM     39  N   UNL A   1      39.964  30.089  29.399  1.00  0.00    -0.354 N 
ATOM     40  C   UNL A   1      43.814  28.287  30.213  1.00  0.00     0.074 A 
ATOM     41  C   UNL A   1      43.959  27.037  29.500  1.00  0.00     0.031 C 
ATOM     42  C   UNL A   1      37.903  30.202  28.539  1.00  0.00     0.029 A 
ATOM     43  C   UNL A   1      38.869  30.920  29.365  1.00  0.00     0.049 A 
ATOM     44  H   UNL A   1      40.813  30.333  29.834  1.00  0.00     0.167 HD
ATOM     45  C   UNL A   1      44.791  28.860  30.957  1.00  0.00     0.031 A 
ATOM     46  C   UNL A   1      38.651  32.104  29.969  1.00  0.00     0.031 A 
ATOM     47  C   UNL A   1      44.644  30.112  31.650  1.00  0.00     0.049 A 
ATOM     48  C   UNL A   1      39.730  32.689  30.839  1.00  0.00     0.074 A 
ATOM     49  C   UNL A   1      45.560  30.763  32.458  1.00  0.00     0.029 A 
ATOM     50  N   UNL A   1      43.513  30.913  31.602  1.00  0.00    -0.354 N 
ATOM     51  N   UNL A   1      40.923  32.214  31.105  1.00  0.00    -0.248 NA
ATOM     52  C   UNL A   1      39.428  33.968  31.499  1.00  0.00     0.031 C 
ATOM     53  C   UNL A   1      44.973  31.944  32.920  1.00  0.00     0.029 A 
ATOM     54  C   UNL A   1      43.707  32.050  32.365  1.00  0.00     0.049 A 
ATOM     55  H   UNL A   1      42.693  30.702  31.099  1.00  0.00     0.167 HD
ATOM     56  C   UNL A   1      41.521  33.144  31.947  1.00  0.00     0.074 A 
ATOM     57  C   UNL A   1      40.567  34.219  32.131  1.00  0.00     0.031 C 
ATOM     58  C   UNL A   1      42.748  33.112  32.521  1.00  0.00     0.031 A 
BRANCH  45  59
ATOM     59  C   UNL A   1      46.098  28.127  31.078  1.00  0.00    -0.014 A 
ATOM     60  C   UNL A   1      46.287  27.140  32.062  1.00  0.00     0.010 A 
ATOM     61  C   UNL A   1      47.132  28.390  30.161  1.00  0.00     0.010 A 
ATOM     62  C   UNL A   1      47.497  26.443  32.139  1.00  0.00     0.020 A 
ATOM     63  C   UNL A   1      48.334  27.680  30.221  1.00  0.00     0.020 A 
ATOM     64  C   UNL A   1      48.513  26.718  31.218  1.00  0.00     0.054 A 
BRANCH  64  65
ATOM     65  S   UNL A   1      50.056  25.768  31.313  1.00  0.00     0.124 S 
ATOM     66  O   UNL A   1      50.100  25.132  29.998  1.00  0.00    -0.237 OA
ATOM     67  O   UNL A   1      51.059  26.803  31.543  1.00  0.00    -0.237 OA
ATOM     68  O   UNL A   1      49.834  24.859  32.435  1.00  0.00    -0.744 OA
ENDBRANCH  64  65
ENDBRANCH  45  59
BRANCH  46  69
ATOM     69  C   UNL A   1      37.338  32.791  29.824  1.00  0.00    -0.014 A 
ATOM     70  C   UNL A   1      37.053  33.566  28.687  1.00  0.00     0.010 A 
ATOM     71  C   UNL A   1      36.374  32.692  30.844  1.00  0.00     0.010 A 
ATOM     72  C   UNL A   1      35.841  34.257  28.587  1.00  0.00     0.020 A 
ATOM     73  C   UNL A   1      35.150  33.358  30.735  1.00  0.00     0.020 A 
ATOM     74  C   UNL A   1      34.900  34.153  29.615  1.00  0.00     0.054 A 
BRANCH  74  75
ATOM     75  S   UNL A   1      33.325  35.040  29.464  1.00  0.00     0.124 S 
ATOM     76  O   UNL A   1      33.769  36.391  29.138  1.00  0.00    -0.237 OA
ATOM     77  O   UNL A   1      32.651  34.318  28.388  1.00  0.00    -0.237 OA
ATOM     78  O   UNL A   1      32.717  34.879  30.784  1.00  0.00    -0.744 OA
ENDBRANCH  74  75
ENDBRANCH  46  69
BRANCH  58  79
ATOM     79  C   UNL A   1      43.145  34.293  33.363  1.00  0.00    -0.014 A 
ATOM     80  C   UNL A   1      43.654  35.464  32.777  1.00  0.00     0.010 A 
ATOM     81  C   UNL A   1      42.957  34.245  34.757  1.00  0.00     0.010 A 
ATOM     82  C   UNL A   1      43.997  36.560  33.575  1.00  0.00     0.020 A 
ATOM     83  C   UNL A   1      43.278  35.345  35.554  1.00  0.00     0.020 A 
ATOM     84  C   UNL A   1      43.809  36.491  34.959  1.00  0.00     0.054 A 
BRANCH  84  85
ATOM     85  S   UNL A   1      44.219  37.940  35.971  1.00  0.00     0.124 S 
ATOM     86  O   UNL A   1      43.356  37.751  37.133  1.00  0.00    -0.237 OA
ATOM     87  O   UNL A   1      45.649  37.768  36.215  1.00  0.00    -0.237 OA
ATOM     88  O   UNL A   1      43.872  39.070  35.112  1.00  0.00    -0.744 OA
ENDBRANCH  84  85
ENDBRANCH  58  79
ENDBRANCH  32  33
ENDBRANCH  25  27
ENDBRANCH  24  25
ENDBRANCH   1  24
TORSDOF 17
ENDMDL
MODEL 3
REMARK VINA RESULT:     -10.3      2.236      2.916
REMARK SMILES CC[C@@H]1SC[C@@H](C(=O)OCCOC(=O)c2ccc(-c3c4nc(c(-c5ccc(S(=O)(=O)[O-])cc5)c5ccc([nH]5)c(-c5ccc(S(=O)(=O)[O-])cc5)c5nc(c(-c6ccc(S(=O)(=O)[O-])cc6)c6ccc3[nH]6)C=C5)C=C4)cc2)N1C(=O)NC1C(C)(C)C1(C)C
REMARK SMILES IDX 11 1 10 2 9 3 7 4 8 5 6 6 3 7 4 8 75 9 5 10 2 11 1 12 76 13
REMARK SMILES IDX 77 14 78 15 79 17 80 18 83 19 81 20 82 21 84 22 85 23 12 24
REMARK SMILES IDX 13 25 14 26 15 27 16 28 74 29 17 30 73 31 18 32 19 33 20 34
REMARK SMILES IDX 67 35 21 36 72 37 66 38 68 39 22 40 71 41 65 42 64 43 23 45
REMARK SMILES IDX 53 46 34 47 52 48 35 49 38 50 51 51 69 52 36 53 37 54 50 56
REMARK SMILES IDX 70 57 39 58 24 59 25 60 33 61 26 62 32 63 27 64 28 65 29 66
REMARK SMILES IDX 30 67 31 68 54 69 55 70 63 71 56 72 62 73 57 74 58 75 59 76
REMARK SMILES IDX 60 77 61 78 40 79 41 80 49 81 42 82 48 83 43 84 44 85 45 86
REMARK SMILES IDX 46 87 47 88
REMARK H PARENT 78 16 68 44 38 55
REMARK Flexibility Score: inf
ROOT
ATOM      1  C   UNL A   1      34.324  31.058  27.894  1.00  0.00     0.275 C 
ENDROOT
BRANCH   1   2
ATOM      2  C   UNL A   1      33.844  29.926  26.991  1.00  0.00     0.274 C 
BRANCH   2   3
ATOM      3  O   UNL A   1      32.405  29.891  26.926  1.00  0.00    -0.461 OA
BRANCH   3   4
ATOM      4  C   UNL A   1      31.863  29.754  25.680  1.00  0.00     0.329 C 
ATOM      5  O   UNL A   1      31.020  30.512  25.211  1.00  0.00    -0.250 OA
BRANCH   4   6
ATOM      6  C   UNL A   1      32.385  28.516  24.913  1.00  0.00     0.208 C 
ATOM      7  C   UNL A   1      30.405  27.390  24.191  1.00  0.00     0.145 C 
ATOM      8  S   UNL A   1      31.060  28.148  22.643  1.00  0.00    -0.134 SA
ATOM      9  N   UNL A   1      31.579  27.275  25.068  1.00  0.00    -0.298 N 
ATOM     10  C   UNL A   1      32.506  28.869  23.437  1.00  0.00     0.109 C 
BRANCH   7  11
ATOM     11  C   UNL A   1      29.476  26.264  23.766  1.00  0.00     0.033 C 
ATOM     12  C   UNL A   1      28.014  26.706  23.884  1.00  0.00     0.007 C 
ENDBRANCH   7  11
BRANCH   9  13
ATOM     13  C   UNL A   1      31.931  26.551  26.174  1.00  0.00     0.319 C 
ATOM     14  O   UNL A   1      31.387  26.802  27.262  1.00  0.00    -0.249 OA
ATOM     15  N   UNL A   1      32.865  25.590  26.273  1.00  0.00    -0.334 N 
ATOM     16  H   UNL A   1      32.819  25.125  27.140  1.00  0.00     0.165 HD
BRANCH  15  17
ATOM     17  C   UNL A   1      33.897  25.073  25.459  1.00  0.00     0.096 C 
ATOM     18  C   UNL A   1      34.708  23.837  25.800  1.00  0.00    -0.007 C 
ATOM     19  C   UNL A   1      33.765  23.834  24.584  1.00  0.00    -0.007 C 
ATOM     20  C   UNL A   1      36.205  23.948  25.610  1.00  0.00     0.014 C 
ATOM     21  C   UNL A   1      34.356  22.965  26.986  1.00  0.00     0.014 C 
ATOM     22  C   UNL A   1      32.499  23.007  24.598  1.00  0.00     0.014 C 
ATOM     23  C   UNL A   1      34.357  23.922  23.189  1.00  0.00     0.014 C 
ENDBRANCH  15  17
ENDBRANCH   9  13
ENDBRANCH   4   6
ENDBRANCH   3   4
ENDBRANCH   2   3
ENDBRANCH   1   2
BRANCH   1  24
ATOM     24  O   UNL A   1      35.755  31.030  27.972  1.00  0.00    -0.458 OA
BRANCH  24  25
ATOM     25  C   UNL A   1      36.271  30.748  29.190  1.00  0.00     0.338 C 
ATOM     26  O   UNL A   1      35.787  31.010  30.281  1.00  0.00    -0.246 OA
BRANCH  25  27
ATOM     27  C   UNL A   1      37.588  30.123  29.006  1.00  0.00     0.060 A 
ATOM     28  C   UNL A   1      38.359  29.769  30.114  1.00  0.00     0.016 A 
ATOM     29  C   UNL A   1      38.084  29.949  27.716  1.00  0.00     0.016 A 
ATOM     30  C   UNL A   1      39.652  29.283  29.944  1.00  0.00     0.010 A 
ATOM     31  C   UNL A   1      39.362  29.415  27.541  1.00  0.00     0.010 A 
ATOM     32  C   UNL A   1      40.165  29.103  28.654  1.00  0.00    -0.014 A 
BRANCH  32  33
ATOM     33  C   UNL A   1      41.568  28.662  28.457  1.00  0.00     0.031 A 
ATOM     34  C   UNL A   1      42.676  29.676  28.541  1.00  0.00     0.074 A 
ATOM     35  C   UNL A   1      41.848  27.369  28.208  1.00  0.00     0.049 A 
ATOM     36  N   UNL A   1      43.937  29.548  28.222  1.00  0.00    -0.248 NA
ATOM     37  C   UNL A   1      42.313  31.011  29.045  1.00  0.00     0.031 C 
ATOM     38  C   UNL A   1      40.871  26.279  28.166  1.00  0.00     0.029 A 
ATOM     39  N   UNL A   1      43.045  26.753  27.935  1.00  0.00    -0.354 N 
ATOM     40  C   UNL A   1      44.512  30.792  28.457  1.00  0.00     0.074 A 
ATOM     41  C   UNL A   1      43.462  31.664  28.934  1.00  0.00     0.031 C 
ATOM     42  C   UNL A   1      41.508  25.129  27.886  1.00  0.00     0.029 A 
ATOM     43  C   UNL A   1      42.923  25.411  27.666  1.00  0.00     0.049 A 
ATOM     44  H   UNL A   1      43.907  27.228  27.934  1.00  0.00     0.167 HD
ATOM     45  C   UNL A   1      45.802  31.170  28.289  1.00  0.00     0.031 A 
ATOM     46  C   UNL A   1      43.840  24.518  27.245  1.00  0.00     0.031 A 
ATOM     47  C   UNL A   1      46.844  30.292  27.828  1.00  0.00     0.049 A 
ATOM     48  C   UNL A   1      45.253  24.978  27.007  1.00  0.00     0.074 A 
ATOM     49  C   UNL A   1      48.177  30.584  27.592  1.00  0.00     0.029 A 
ATOM     50  N   UNL A   1      46.675  28.944  27.552  1.00  0.00    -0.354 N 
ATOM     51  N   UNL A   1      45.770  26.172  27.172  1.00  0.00    -0.248 NA
ATOM     52  C   UNL A   1      46.205  23.970  26.518  1.00  0.00     0.031 C 
ATOM     53  C   UNL A   1      48.807  29.418  27.147  1.00  0.00     0.029 A 
ATOM     54  C   UNL A   1      47.877  28.390  27.148  1.00  0.00     0.049 A 
ATOM     55  H   UNL A   1      45.825  28.453  27.632  1.00  0.00     0.167 HD
ATOM     56  C   UNL A   1      47.110  26.054  26.825  1.00  0.00     0.074 A 
ATOM     57  C   UNL A   1      47.330  24.669  26.461  1.00  0.00     0.031 C 
ATOM     58  C   UNL A   1      48.074  27.006  26.804  1.00  0.00     0.031 A 
BRANCH  45  59
ATOM     59  C   UNL A   1      46.155  32.602  28.583  1.00  0.00    -0.014 A 
ATOM     60  C   UNL A   1      45.987  33.604  27.612  1.00  0.00     0.010 A 
ATOM     61  C   UNL A   1      46.609  32.958  29.866  1.00  0.00     0.010 A 
ATOM     62  C   UNL A   1      46.287  34.936  27.913  1.00  0.00     0.020 A 
ATOM     63  C   UNL A   1      46.888  34.291  30.178  1.00  0.00     0.020 A 
ATOM     64  C   UNL A   1      46.736  35.271  29.195  1.00  0.00     0.054 A 
BRANCH  64  65
ATOM     65  S   UNL A   1      47.075  37.013  29.572  1.00  0.00     0.124 S 
ATOM     66  O   UNL A   1      48.483  37.134  29.200  1.00  0.00    -0.237 OA
ATOM     67  O   UNL A   1      46.135  37.719  28.706  1.00  0.00    -0.237 OA
ATOM     68  O   UNL A   1      46.799  37.118  31.002  1.00  0.00    -0.744 OA
ENDBRANCH  64  65
ENDBRANCH  45  59
BRANCH  46  69
ATOM     69  C   UNL A   1      43.443  23.111  26.961  1.00  0.00    -0.014 A 
ATOM     70  C   UNL A   1      42.880  22.305  27.966  1.00  0.00     0.010 A 
ATOM     71  C   UNL A   1      43.654  22.563  25.682  1.00  0.00     0.010 A 
ATOM     72  C   UNL A   1      42.567  20.966  27.707  1.00  0.00     0.020 A 
ATOM     73  C   UNL A   1      43.315  21.235  25.412  1.00  0.00     0.020 A 
ATOM     74  C   UNL A   1      42.792  20.439  26.432  1.00  0.00     0.054 A 
BRANCH  74  75
ATOM     75  S   UNL A   1      42.364  18.707  26.105  1.00  0.00     0.124 S 
ATOM     76  O   UNL A   1      40.948  18.805  25.762  1.00  0.00    -0.237 OA
ATOM     77  O   UNL A   1      43.259  18.357  25.005  1.00  0.00    -0.237 OA
ATOM     78  O   UNL A   1      42.659  18.039  27.371  1.00  0.00    -0.744 OA
ENDBRANCH  74  75
ENDBRANCH  46  69
BRANCH  58  79
ATOM     79  C   UNL A   1      49.461  26.573  26.420  1.00  0.00    -0.014 A 
ATOM     80  C   UNL A   1      49.926  26.711  25.101  1.00  0.00     0.010 A 
ATOM     81  C   UNL A   1      50.327  26.068  27.407  1.00  0.00     0.010 A 
ATOM     82  C   UNL A   1      51.228  26.323  24.769  1.00  0.00     0.020 A 
ATOM     83  C   UNL A   1      51.635  25.700  27.084  1.00  0.00     0.020 A 
ATOM     84  C   UNL A   1      52.073  25.817  25.762  1.00  0.00     0.054 A 
BRANCH  84  85
ATOM     85  S   UNL A   1      53.771  25.360  25.319  1.00  0.00     0.124 S 
ATOM     86  O   UNL A   1      54.414  25.279  26.627  1.00  0.00    -0.237 OA
ATOM     87  O   UNL A   1      53.592  24.086  24.627  1.00  0.00    -0.237 OA
ATOM     88  O   UNL A   1      54.215  26.465  24.472  1.00  0.00    -0.744 OA
ENDBRANCH  84  85
ENDBRANCH  58  79
ENDBRANCH  32  33
ENDBRANCH  25  27
ENDBRANCH  24  25
ENDBRANCH   1  24
TORSDOF 17
ENDMDL
