MODEL 1
REMARK VINA RESULT:      -8.9      0.000      0.000
REMARK SMILES CC(C)Oc1ccc([C@H](O)[C@H](F)C(=O)OCCOC(=O)c2ccc(-c3c4nc(c(-c5ccc(S(=O)(=O)[O-])cc5)c5ccc([nH]5)c(-c5ccc(S(=O)(=O)[O-])cc5)c5nc(c(-c6ccc(S(=O)(=O)[O-])cc6)c6ccc3[nH]6)C=C5)C=C4)cc2)cc1
REMARK SMILES IDX 16 1 15 2 13 3 14 4 11 5 12 6 9 7 8 8 5 9 6 10 82 11 7 12
REMARK SMILES IDX 81 13 4 14 2 15 1 16 3 17 10 18 17 20 18 21 19 22 20 23
REMARK SMILES IDX 21 24 22 25 80 26 23 27 79 28 24 29 25 30 26 31 73 32 27 33
REMARK SMILES IDX 78 34 72 35 74 36 28 37 77 38 71 39 70 40 29 42 59 43 40 44
REMARK SMILES IDX 58 45 41 46 44 47 57 48 75 49 42 50 43 51 56 53 76 54 45 55
REMARK SMILES IDX 30 56 31 57 39 58 32 59 38 60 33 61 34 62 35 63 36 64 37 65
REMARK SMILES IDX 60 66 61 67 69 68 62 69 68 70 63 71 64 72 65 73 66 74 67 75
REMARK SMILES IDX 46 76 47 77 55 78 48 79 54 80 49 81 50 82 51 83 52 84 53 85
REMARK H PARENT 10 19 74 41 44 52
REMARK Flexibility Score: inf
ROOT
ATOM      1  C   UNL A   1      40.831  19.747  26.378  1.00  0.00     0.274 C 
ENDROOT
BRANCH   1   2
ATOM      2  O   UNL A   1      41.788  19.643  25.309  1.00  0.00    -0.460 OA
BRANCH   2   3
ATOM      3  C   UNL A   1      43.061  20.040  25.577  1.00  0.00     0.343 C 
ATOM      4  O   UNL A   1      44.034  19.297  25.627  1.00  0.00    -0.249 OA
BRANCH   3   5
ATOM      5  C   UNL A   1      43.141  21.524  25.855  1.00  0.00     0.308 C 
ATOM      6  F   UNL A   1      43.107  21.831  27.187  1.00  0.00    -0.232 F 
BRANCH   5   7
ATOM      7  C   UNL A   1      44.401  22.111  25.201  1.00  0.00     0.190 C 
BRANCH   7   8
ATOM      8  C   UNL A   1      44.489  23.625  25.248  1.00  0.00    -0.016 A 
ATOM      9  C   UNL A   1      44.630  26.429  25.196  1.00  0.00     0.119 A 
ATOM     10  C   UNL A   1      43.393  25.793  25.121  1.00  0.00     0.047 A 
ATOM     11  C   UNL A   1      45.785  25.683  25.385  1.00  0.00     0.047 A 
ATOM     12  C   UNL A   1      43.322  24.398  25.137  1.00  0.00     0.010 A 
ATOM     13  C   UNL A   1      45.716  24.288  25.407  1.00  0.00     0.010 A 
BRANCH   9  14
ATOM     14  O   UNL A   1      44.653  27.795  25.190  1.00  0.00    -0.491 OA
BRANCH  14  15
ATOM     15  C   UNL A   1      44.197  28.442  26.394  1.00  0.00     0.167 C 
ATOM     16  C   UNL A   1      45.200  29.453  26.943  1.00  0.00     0.052 C 
ATOM     17  C   UNL A   1      42.784  29.020  26.306  1.00  0.00     0.052 C 
ENDBRANCH  14  15
ENDBRANCH   9  14
ENDBRANCH   7   8
BRANCH   7  18
ATOM     18  O   UNL A   1      44.520  21.716  23.829  1.00  0.00    -0.385 OA
ATOM     19  H   UNL A   1      43.719  21.239  23.559  1.00  0.00     0.211 HD
ENDBRANCH   7  18
ENDBRANCH   5   7
ENDBRANCH   3   5
ENDBRANCH   2   3
ENDBRANCH   1   2
BRANCH   1  20
ATOM     20  C   UNL A   1      39.656  20.619  25.935  1.00  0.00     0.275 C 
BRANCH  20  21
ATOM     21  O   UNL A   1      39.591  21.810  26.742  1.00  0.00    -0.458 OA
BRANCH  21  22
ATOM     22  C   UNL A   1      38.844  22.811  26.208  1.00  0.00     0.338 C 
ATOM     23  O   UNL A   1      37.956  22.709  25.382  1.00  0.00    -0.246 OA
BRANCH  22  24
ATOM     24  C   UNL A   1      39.155  24.068  26.907  1.00  0.00     0.060 A 
ATOM     25  C   UNL A   1      39.920  25.016  26.225  1.00  0.00     0.016 A 
ATOM     26  C   UNL A   1      38.750  24.295  28.224  1.00  0.00     0.016 A 
ATOM     27  C   UNL A   1      40.280  26.204  26.854  1.00  0.00     0.010 A 
ATOM     28  C   UNL A   1      39.125  25.483  28.861  1.00  0.00     0.010 A 
ATOM     29  C   UNL A   1      39.900  26.440  28.182  1.00  0.00    -0.014 A 
BRANCH  29  30
ATOM     30  C   UNL A   1      40.374  27.675  28.851  1.00  0.00     0.031 A 
ATOM     31  C   UNL A   1      41.788  27.767  29.347  1.00  0.00     0.074 A 
ATOM     32  C   UNL A   1      39.550  28.734  28.952  1.00  0.00     0.049 A 
ATOM     33  N   UNL A   1      42.406  28.786  29.888  1.00  0.00    -0.248 NA
ATOM     34  C   UNL A   1      42.612  26.556  29.221  1.00  0.00     0.031 C 
ATOM     35  C   UNL A   1      38.161  28.767  28.494  1.00  0.00     0.029 A 
ATOM     36  N   UNL A   1      39.766  29.988  29.464  1.00  0.00    -0.354 N 
ATOM     37  C   UNL A   1      43.689  28.337  30.180  1.00  0.00     0.074 A 
ATOM     38  C   UNL A   1      43.751  26.949  29.774  1.00  0.00     0.031 C 
ATOM     39  C   UNL A   1      37.653  29.987  28.733  1.00  0.00     0.029 A 
ATOM     40  C   UNL A   1      38.669  30.811  29.382  1.00  0.00     0.049 A 
ATOM     41  H   UNL A   1      40.626  30.271  29.851  1.00  0.00     0.167 HD
ATOM     42  C   UNL A   1      44.719  29.019  30.737  1.00  0.00     0.031 A 
ATOM     43  C   UNL A   1      38.499  32.083  29.789  1.00  0.00     0.031 A 
ATOM     44  C   UNL A   1      44.651  30.397  31.151  1.00  0.00     0.049 A 
ATOM     45  C   UNL A   1      39.654  32.820  30.407  1.00  0.00     0.074 A 
ATOM     46  C   UNL A   1      45.649  31.182  31.702  1.00  0.00     0.029 A 
ATOM     47  N   UNL A   1      43.517  31.192  31.071  1.00  0.00    -0.354 N 
ATOM     48  N   UNL A   1      40.872  32.391  30.643  1.00  0.00    -0.248 NA
ATOM     49  C   UNL A   1      39.416  34.215  30.799  1.00  0.00     0.031 C 
ATOM     50  C   UNL A   1      45.104  32.438  31.999  1.00  0.00     0.029 A 
ATOM     51  C   UNL A   1      43.781  32.452  31.585  1.00  0.00     0.049 A 
ATOM     52  H   UNL A   1      42.650  30.903  30.703  1.00  0.00     0.167 HD
ATOM     53  C   UNL A   1      41.549  33.467  31.206  1.00  0.00     0.074 A 
ATOM     54  C   UNL A   1      40.611  34.572  31.248  1.00  0.00     0.031 C 
ATOM     55  C   UNL A   1      42.831  33.534  31.647  1.00  0.00     0.031 A 
BRANCH  42  56
ATOM     56  C   UNL A   1      45.996  28.256  30.976  1.00  0.00    -0.014 A 
ATOM     57  C   UNL A   1      46.221  27.556  32.175  1.00  0.00     0.010 A 
ATOM     58  C   UNL A   1      46.989  28.244  29.980  1.00  0.00     0.010 A 
ATOM     59  C   UNL A   1      47.437  26.903  32.396  1.00  0.00     0.020 A 
ATOM     60  C   UNL A   1      48.196  27.571  30.186  1.00  0.00     0.020 A 
ATOM     61  C   UNL A   1      48.423  26.925  31.403  1.00  0.00     0.054 A 
BRANCH  61  62
ATOM     62  S   UNL A   1      49.999  26.084  31.715  1.00  0.00     0.124 S 
ATOM     63  O   UNL A   1      50.889  27.209  31.996  1.00  0.00    -0.237 OA
ATOM     64  O   UNL A   1      49.689  25.229  32.859  1.00  0.00    -0.237 OA
ATOM     65  O   UNL A   1      50.266  25.375  30.466  1.00  0.00    -0.744 OA
ENDBRANCH  61  62
ENDBRANCH  42  56
BRANCH  43  66
ATOM     66  C   UNL A   1      37.171  32.730  29.619  1.00  0.00    -0.014 A 
ATOM     67  C   UNL A   1      36.204  32.672  30.636  1.00  0.00     0.010 A 
ATOM     68  C   UNL A   1      36.892  33.458  28.447  1.00  0.00     0.010 A 
ATOM     69  C   UNL A   1      34.981  33.336  30.487  1.00  0.00     0.020 A 
ATOM     70  C   UNL A   1      35.682  34.142  28.305  1.00  0.00     0.020 A 
ATOM     71  C   UNL A   1      34.733  34.075  29.326  1.00  0.00     0.054 A 
BRANCH  71  72
ATOM     72  S   UNL A   1      33.185  35.012  29.195  1.00  0.00     0.124 S 
ATOM     73  O   UNL A   1      33.644  36.284  28.646  1.00  0.00    -0.237 OA
ATOM     74  O   UNL A   1      32.388  34.183  28.294  1.00  0.00    -0.237 OA
ATOM     75  O   UNL A   1      32.699  35.061  30.573  1.00  0.00    -0.744 OA
ENDBRANCH  71  72
ENDBRANCH  43  66
BRANCH  55  76
ATOM     76  C   UNL A   1      43.288  34.854  32.208  1.00  0.00    -0.014 A 
ATOM     77  C   UNL A   1      43.076  35.183  33.559  1.00  0.00     0.010 A 
ATOM     78  C   UNL A   1      43.945  35.777  31.373  1.00  0.00     0.010 A 
ATOM     79  C   UNL A   1      43.462  36.433  34.052  1.00  0.00     0.020 A 
ATOM     80  C   UNL A   1      44.357  37.017  31.869  1.00  0.00     0.020 A 
ATOM     81  C   UNL A   1      44.089  37.346  33.199  1.00  0.00     0.054 A 
BRANCH  81  82
ATOM     82  S   UNL A   1      44.577  38.966  33.855  1.00  0.00     0.124 S 
ATOM     83  O   UNL A   1      43.283  39.601  34.087  1.00  0.00    -0.237 OA
ATOM     84  O   UNL A   1      45.331  38.616  35.057  1.00  0.00    -0.237 OA
ATOM     85  O   UNL A   1      45.374  39.548  32.777  1.00  0.00    -0.744 OA
ENDBRANCH  81  82
ENDBRANCH  55  76
ENDBRANCH  29  30
ENDBRANCH  22  24
ENDBRANCH  21  22
ENDBRANCH  20  21
ENDBRANCH   1  20
TORSDOF 19
ENDMDL
MODEL 2
REMARK VINA RESULT:      -8.6      4.263     11.034
REMARK SMILES CC(C)Oc1ccc([C@H](O)[C@H](F)C(=O)OCCOC(=O)c2ccc(-c3c4nc(c(-c5ccc(S(=O)(=O)[O-])cc5)c5ccc([nH]5)c(-c5ccc(S(=O)(=O)[O-])cc5)c5nc(c(-c6ccc(S(=O)(=O)[O-])cc6)c6ccc3[nH]6)C=C5)C=C4)cc2)cc1
REMARK SMILES IDX 16 1 15 2 13 3 14 4 11 5 12 6 9 7 8 8 5 9 6 10 82 11 7 12
REMARK SMILES IDX 81 13 4 14 2 15 1 16 3 17 10 18 17 20 18 21 19 22 20 23
REMARK SMILES IDX 21 24 22 25 80 26 23 27 79 28 24 29 25 30 26 31 73 32 27 33
REMARK SMILES IDX 78 34 72 35 74 36 28 37 77 38 71 39 70 40 29 42 59 43 40 44
REMARK SMILES IDX 58 45 41 46 44 47 57 48 75 49 42 50 43 51 56 53 76 54 45 55
REMARK SMILES IDX 30 56 31 57 39 58 32 59 38 60 33 61 34 62 35 63 36 64 37 65
REMARK SMILES IDX 60 66 61 67 69 68 62 69 68 70 63 71 64 72 65 73 66 74 67 75
REMARK SMILES IDX 46 76 47 77 55 78 48 79 54 80 49 81 50 82 51 83 52 84 53 85
REMARK H PARENT 10 19 74 41 44 52
REMARK Flexibility Score: inf
ROOT
ATOM      1  C   UNL A   1      31.519  28.090  26.849  1.00  0.00     0.274 C 
ENDROOT
BRANCH   1   2
ATOM      2  O   UNL A   1      31.346  27.231  25.709  1.00  0.00    -0.460 OA
BRANCH   2   3
ATOM      3  C   UNL A   1      31.888  25.985  25.785  1.00  0.00     0.343 C 
ATOM      4  O   UNL A   1      33.089  25.739  25.781  1.00  0.00    -0.249 OA
BRANCH   3   5
ATOM      5  C   UNL A   1      30.825  24.911  25.833  1.00  0.00     0.308 C 
ATOM      6  F   UNL A   1      29.578  25.392  26.117  1.00  0.00    -0.232 F 
BRANCH   5   7
ATOM      7  C   UNL A   1      30.812  24.131  24.510  1.00  0.00     0.190 C 
BRANCH   7   8
ATOM      8  C   UNL A   1      31.639  22.859  24.519  1.00  0.00    -0.016 A 
ATOM      9  C   UNL A   1      33.055  20.434  24.503  1.00  0.00     0.119 A 
ATOM     10  C   UNL A   1      32.715  21.050  23.301  1.00  0.00     0.047 A 
ATOM     11  C   UNL A   1      32.772  21.061  25.709  1.00  0.00     0.047 A 
ATOM     12  C   UNL A   1      32.003  22.252  23.307  1.00  0.00     0.010 A 
ATOM     13  C   UNL A   1      32.065  22.265  25.717  1.00  0.00     0.010 A 
BRANCH   9  14
ATOM     14  O   UNL A   1      33.763  19.267  24.451  1.00  0.00    -0.491 OA
BRANCH  14  15
ATOM     15  C   UNL A   1      33.003  18.076  24.171  1.00  0.00     0.167 C 
ATOM     16  C   UNL A   1      33.681  17.162  23.154  1.00  0.00     0.052 C 
ATOM     17  C   UNL A   1      32.538  17.314  25.412  1.00  0.00     0.052 C 
ENDBRANCH  14  15
ENDBRANCH   9  14
ENDBRANCH   7   8
BRANCH   7  18
ATOM     18  O   UNL A   1      31.270  24.934  23.416  1.00  0.00    -0.385 OA
ATOM     19  H   UNL A   1      30.747  24.732  22.624  1.00  0.00     0.211 HD
ENDBRANCH   7  18
ENDBRANCH   5   7
ENDBRANCH   3   5
ENDBRANCH   2   3
ENDBRANCH   1   2
BRANCH   1  20
ATOM     20  C   UNL A   1      32.544  29.177  26.525  1.00  0.00     0.275 C 
BRANCH  20  21
ATOM     21  O   UNL A   1      33.722  29.005  27.335  1.00  0.00    -0.458 OA
BRANCH  21  22
ATOM     22  C   UNL A   1      34.303  30.165  27.736  1.00  0.00     0.338 C 
ATOM     23  O   UNL A   1      33.768  31.250  27.873  1.00  0.00    -0.246 OA
BRANCH  22  24
ATOM     24  C   UNL A   1      35.687  29.890  28.154  1.00  0.00     0.060 A 
ATOM     25  C   UNL A   1      36.685  29.966  27.180  1.00  0.00     0.016 A 
ATOM     26  C   UNL A   1      35.998  29.513  29.462  1.00  0.00     0.016 A 
ATOM     27  C   UNL A   1      38.004  29.673  27.510  1.00  0.00     0.010 A 
ATOM     28  C   UNL A   1      37.323  29.205  29.790  1.00  0.00     0.010 A 
ATOM     29  C   UNL A   1      38.332  29.274  28.812  1.00  0.00    -0.014 A 
BRANCH  29  30
ATOM     30  C   UNL A   1      39.731  28.885  29.109  1.00  0.00     0.031 A 
ATOM     31  C   UNL A   1      40.635  29.832  29.844  1.00  0.00     0.074 A 
ATOM     32  C   UNL A   1      40.165  27.657  28.773  1.00  0.00     0.049 A 
ATOM     33  N   UNL A   1      41.862  29.644  30.259  1.00  0.00    -0.248 NA
ATOM     34  C   UNL A   1      40.089  31.163  30.150  1.00  0.00     0.031 C 
ATOM     35  C   UNL A   1      39.374  26.647  28.070  1.00  0.00     0.029 A 
ATOM     36  N   UNL A   1      41.375  27.047  28.989  1.00  0.00    -0.354 N 
ATOM     37  C   UNL A   1      42.242  30.837  30.864  1.00  0.00     0.074 A 
ATOM     38  C   UNL A   1      41.122  31.745  30.743  1.00  0.00     0.031 C 
ATOM     39  C   UNL A   1      40.116  25.536  27.925  1.00  0.00     0.029 A 
ATOM     40  C   UNL A   1      41.439  25.765  28.500  1.00  0.00     0.049 A 
ATOM     41  H   UNL A   1      42.125  27.487  29.451  1.00  0.00     0.167 HD
ATOM     42  C   UNL A   1      43.418  31.146  31.464  1.00  0.00     0.031 A 
ATOM     43  C   UNL A   1      42.450  24.876  28.509  1.00  0.00     0.031 A 
ATOM     44  C   UNL A   1      44.535  30.243  31.573  1.00  0.00     0.049 A 
ATOM     45  C   UNL A   1      43.746  25.240  29.176  1.00  0.00     0.074 A 
ATOM     46  C   UNL A   1      45.759  30.455  32.184  1.00  0.00     0.029 A 
ATOM     47  N   UNL A   1      44.569  28.959  31.048  1.00  0.00    -0.354 N 
ATOM     48  N   UNL A   1      44.077  26.360  29.775  1.00  0.00    -0.248 NA
ATOM     49  C   UNL A   1      44.799  24.217  29.183  1.00  0.00     0.031 C 
ATOM     50  C   UNL A   1      46.550  29.317  31.987  1.00  0.00     0.029 A 
ATOM     51  C   UNL A   1      45.801  28.376  31.298  1.00  0.00     0.049 A 
ATOM     52  H   UNL A   1      43.827  28.526  30.567  1.00  0.00     0.167 HD
ATOM     53  C   UNL A   1      45.375  26.174  30.236  1.00  0.00     0.074 A 
ATOM     54  C   UNL A   1      45.756  24.824  29.870  1.00  0.00     0.031 C 
ATOM     55  C   UNL A   1      46.178  27.042  30.904  1.00  0.00     0.031 A 
BRANCH  42  56
ATOM     56  C   UNL A   1      43.565  32.545  32.002  1.00  0.00    -0.014 A 
ATOM     57  C   UNL A   1      44.053  33.593  31.201  1.00  0.00     0.010 A 
ATOM     58  C   UNL A   1      43.210  32.812  33.337  1.00  0.00     0.010 A 
ATOM     59  C   UNL A   1      44.234  34.870  31.740  1.00  0.00     0.020 A 
ATOM     60  C   UNL A   1      43.365  34.093  33.873  1.00  0.00     0.020 A 
ATOM     61  C   UNL A   1      43.899  35.109  33.078  1.00  0.00     0.054 A 
BRANCH  61  62
ATOM     62  S   UNL A   1      44.156  36.768  33.762  1.00  0.00     0.124 S 
ATOM     63  O   UNL A   1      42.897  37.000  34.469  1.00  0.00    -0.237 OA
ATOM     64  O   UNL A   1      45.329  36.590  34.614  1.00  0.00    -0.237 OA
ATOM     65  O   UNL A   1      44.369  37.601  32.581  1.00  0.00    -0.744 OA
ENDBRANCH  61  62
ENDBRANCH  42  56
BRANCH  43  66
ATOM     66  C   UNL A   1      42.262  23.553  27.855  1.00  0.00    -0.014 A 
ATOM     67  C   UNL A   1      42.766  23.306  26.567  1.00  0.00     0.010 A 
ATOM     68  C   UNL A   1      41.617  22.514  28.552  1.00  0.00     0.010 A 
ATOM     69  C   UNL A   1      42.634  22.039  25.989  1.00  0.00     0.020 A 
ATOM     70  C   UNL A   1      41.505  21.241  27.987  1.00  0.00     0.020 A 
ATOM     71  C   UNL A   1      42.013  21.012  26.707  1.00  0.00     0.054 A 
BRANCH  71  72
ATOM     72  S   UNL A   1      41.943  19.350  25.982  1.00  0.00     0.124 S 
ATOM     73  O   UNL A   1      42.782  19.499  24.797  1.00  0.00    -0.237 OA
ATOM     74  O   UNL A   1      42.494  18.516  27.047  1.00  0.00    -0.237 OA
ATOM     75  O   UNL A   1      40.519  19.152  25.723  1.00  0.00    -0.744 OA
ENDBRANCH  71  72
ENDBRANCH  43  66
BRANCH  55  76
ATOM     76  C   UNL A   1      47.548  26.545  31.282  1.00  0.00    -0.014 A 
ATOM     77  C   UNL A   1      48.638  26.678  30.402  1.00  0.00     0.010 A 
ATOM     78  C   UNL A   1      47.750  25.942  32.537  1.00  0.00     0.010 A 
ATOM     79  C   UNL A   1      49.892  26.167  30.749  1.00  0.00     0.020 A 
ATOM     80  C   UNL A   1      49.009  25.454  32.897  1.00  0.00     0.020 A 
ATOM     81  C   UNL A   1      50.066  25.547  31.990  1.00  0.00     0.054 A 
BRANCH  81  82
ATOM     82  S   UNL A   1      51.699  24.884  32.419  1.00  0.00     0.124 S 
ATOM     83  O   UNL A   1      51.812  25.247  33.829  1.00  0.00    -0.237 OA
ATOM     84  O   UNL A   1      51.552  23.456  32.147  1.00  0.00    -0.237 OA
ATOM     85  O   UNL A   1      52.606  25.593  31.519  1.00  0.00    -0.744 OA
ENDBRANCH  81  82
ENDBRANCH  55  76
ENDBRANCH  29  30
ENDBRANCH  22  24
ENDBRANCH  21  22
ENDBRANCH  20  21
ENDBRANCH   1  20
TORSDOF 19
ENDMDL
MODEL 3
REMARK VINA RESULT:      -8.6      3.364     11.654
REMARK SMILES CC(C)Oc1ccc([C@H](O)[C@H](F)C(=O)OCCOC(=O)c2ccc(-c3c4nc(c(-c5ccc(S(=O)(=O)[O-])cc5)c5ccc([nH]5)c(-c5ccc(S(=O)(=O)[O-])cc5)c5nc(c(-c6ccc(S(=O)(=O)[O-])cc6)c6ccc3[nH]6)C=C5)C=C4)cc2)cc1
REMARK SMILES IDX 16 1 15 2 13 3 14 4 11 5 12 6 9 7 8 8 5 9 6 10 82 11 7 12
REMARK SMILES IDX 81 13 4 14 2 15 1 16 3 17 10 18 17 20 18 21 19 22 20 23
REMARK SMILES IDX 21 24 22 25 80 26 23 27 79 28 24 29 25 30 26 31 73 32 27 33
REMARK SMILES IDX 78 34 72 35 74 36 28 37 77 38 71 39 70 40 29 42 59 43 40 44
REMARK SMILES IDX 58 45 41 46 44 47 57 48 75 49 42 50 43 51 56 53 76 54 45 55
REMARK SMILES IDX 30 56 31 57 39 58 32 59 38 60 33 61 34 62 35 63 36 64 37 65
REMARK SMILES IDX 60 66 61 67 69 68 62 69 68 70 63 71 64 72 65 73 66 74 67 75
REMARK SMILES IDX 46 76 47 77 55 78 48 79 54 80 49 81 50 82 51 83 52 84 53 85
REMARK H PARENT 10 19 74 41 44 52
REMARK Flexibility Score: inf
ROOT
ATOM      1  C   UNL A   1      33.209  34.247  28.081  1.00  0.00     0.274 C 
ENDROOT
BRANCH   1   2
ATOM      2  O   UNL A   1      32.901  34.259  29.486  1.00  0.00    -0.460 OA
BRANCH   2   3
ATOM      3  C   UNL A   1      33.175  35.402  30.170  1.00  0.00     0.343 C 
ATOM      4  O   UNL A   1      32.899  36.534  29.788  1.00  0.00    -0.249 OA
BRANCH   3   5
ATOM      5  C   UNL A   1      33.910  35.123  31.462  1.00  0.00     0.308 C 
ATOM      6  F   UNL A   1      33.078  34.889  32.521  1.00  0.00    -0.232 F 
BRANCH   5   7
ATOM      7  C   UNL A   1      34.876  33.945  31.268  1.00  0.00     0.190 C 
BRANCH   7   8
ATOM      8  C   UNL A   1      35.689  33.587  32.498  1.00  0.00    -0.016 A 
ATOM      9  C   UNL A   1      37.089  32.837  34.814  1.00  0.00     0.119 A 
ATOM     10  C   UNL A   1      37.065  31.989  33.710  1.00  0.00     0.047 A 
ATOM     11  C   UNL A   1      36.495  34.090  34.741  1.00  0.00     0.047 A 
ATOM     12  C   UNL A   1      36.361  32.357  32.560  1.00  0.00     0.010 A 
ATOM     13  C   UNL A   1      35.796  34.462  33.592  1.00  0.00     0.010 A 
BRANCH   9  14
ATOM     14  O   UNL A   1      37.800  32.445  35.912  1.00  0.00    -0.491 OA
BRANCH  14  15
ATOM     15  C   UNL A   1      39.002  33.189  36.188  1.00  0.00     0.167 C 
ATOM     16  C   UNL A   1      38.904  34.028  37.460  1.00  0.00     0.052 C 
ATOM     17  C   UNL A   1      40.285  32.359  36.142  1.00  0.00     0.052 C 
ENDBRANCH  14  15
ENDBRANCH   9  14
ENDBRANCH   7   8
BRANCH   7  18
ATOM     18  O   UNL A   1      35.799  34.186  30.199  1.00  0.00    -0.385 OA
ATOM     19  H   UNL A   1      35.308  34.351  29.379  1.00  0.00     0.211 HD
ENDBRANCH   7  18
ENDBRANCH   5   7
ENDBRANCH   3   5
ENDBRANCH   2   3
ENDBRANCH   1   2
BRANCH   1  20
ATOM     20  C   UNL A   1      33.252  32.805  27.574  1.00  0.00     0.275 C 
BRANCH  20  21
ATOM     21  O   UNL A   1      34.242  32.054  28.301  1.00  0.00    -0.458 OA
BRANCH  21  22
ATOM     22  C   UNL A   1      34.270  30.728  28.007  1.00  0.00     0.338 C 
ATOM     23  O   UNL A   1      33.379  30.063  27.511  1.00  0.00    -0.246 OA
BRANCH  22  24
ATOM     24  C   UNL A   1      35.631  30.215  28.227  1.00  0.00     0.060 A 
ATOM     25  C   UNL A   1      35.964  29.793  29.517  1.00  0.00     0.016 A 
ATOM     26  C   UNL A   1      36.583  30.196  27.206  1.00  0.00     0.016 A 
ATOM     27  C   UNL A   1      37.250  29.341  29.792  1.00  0.00     0.010 A 
ATOM     28  C   UNL A   1      37.881  29.754  27.487  1.00  0.00     0.010 A 
ATOM     29  C   UNL A   1      38.223  29.333  28.784  1.00  0.00    -0.014 A 
BRANCH  29  30
ATOM     30  C   UNL A   1      39.606  28.927  29.131  1.00  0.00     0.031 A 
ATOM     31  C   UNL A   1      40.491  29.858  29.909  1.00  0.00     0.074 A 
ATOM     32  C   UNL A   1      40.041  27.697  28.801  1.00  0.00     0.049 A 
ATOM     33  N   UNL A   1      41.699  29.655  30.369  1.00  0.00    -0.248 NA
ATOM     34  C   UNL A   1      39.947  31.192  30.205  1.00  0.00     0.031 C 
ATOM     35  C   UNL A   1      39.267  26.702  28.060  1.00  0.00     0.029 A 
ATOM     36  N   UNL A   1      41.235  27.074  29.058  1.00  0.00    -0.354 N 
ATOM     37  C   UNL A   1      42.067  30.838  30.999  1.00  0.00     0.074 A 
ATOM     38  C   UNL A   1      40.961  31.759  30.843  1.00  0.00     0.031 C 
ATOM     39  C   UNL A   1      40.003  25.585  27.933  1.00  0.00     0.029 A 
ATOM     40  C   UNL A   1      41.305  25.795  28.561  1.00  0.00     0.049 A 
ATOM     41  H   UNL A   1      41.971  27.501  29.553  1.00  0.00     0.167 HD
ATOM     42  C   UNL A   1      43.222  31.130  31.646  1.00  0.00     0.031 A 
ATOM     43  C   UNL A   1      42.306  24.895  28.600  1.00  0.00     0.031 A 
ATOM     44  C   UNL A   1      44.324  30.215  31.790  1.00  0.00     0.049 A 
ATOM     45  C   UNL A   1      43.579  25.241  29.320  1.00  0.00     0.074 A 
ATOM     46  C   UNL A   1      45.526  30.409  32.450  1.00  0.00     0.029 A 
ATOM     47  N   UNL A   1      44.367  28.935  31.256  1.00  0.00    -0.354 N 
ATOM     48  N   UNL A   1      43.898  26.352  29.942  1.00  0.00    -0.248 NA
ATOM     49  C   UNL A   1      44.621  24.207  29.358  1.00  0.00     0.031 C 
ATOM     50  C   UNL A   1      46.313  29.264  32.274  1.00  0.00     0.029 A 
ATOM     51  C   UNL A   1      45.582  28.337  31.548  1.00  0.00     0.049 A 
ATOM     52  H   UNL A   1      43.639  28.514  30.743  1.00  0.00     0.167 HD
ATOM     53  C   UNL A   1      45.175  26.149  30.451  1.00  0.00     0.074 A 
ATOM     54  C   UNL A   1      45.557  24.798  30.088  1.00  0.00     0.031 C 
ATOM     55  C   UNL A   1      45.960  27.002  31.156  1.00  0.00     0.031 A 
BRANCH  42  56
ATOM     56  C   UNL A   1      43.362  32.522  32.202  1.00  0.00    -0.014 A 
ATOM     57  C   UNL A   1      43.916  33.566  31.439  1.00  0.00     0.010 A 
ATOM     58  C   UNL A   1      42.932  32.788  33.515  1.00  0.00     0.010 A 
ATOM     59  C   UNL A   1      44.088  34.836  31.998  1.00  0.00     0.020 A 
ATOM     60  C   UNL A   1      43.079  34.063  34.068  1.00  0.00     0.020 A 
ATOM     61  C   UNL A   1      43.678  35.074  33.314  1.00  0.00     0.054 A 
BRANCH  61  62
ATOM     62  S   UNL A   1      43.923  36.724  34.025  1.00  0.00     0.124 S 
ATOM     63  O   UNL A   1      42.946  36.732  35.111  1.00  0.00    -0.237 OA
ATOM     64  O   UNL A   1      45.323  36.692  34.442  1.00  0.00    -0.237 OA
ATOM     65  O   UNL A   1      43.628  37.626  32.914  1.00  0.00    -0.744 OA
ENDBRANCH  61  62
ENDBRANCH  42  56
BRANCH  43  66
ATOM     66  C   UNL A   1      42.130  23.581  27.928  1.00  0.00    -0.014 A 
ATOM     67  C   UNL A   1      42.682  23.339  26.659  1.00  0.00     0.010 A 
ATOM     68  C   UNL A   1      41.449  22.542  28.590  1.00  0.00     0.010 A 
ATOM     69  C   UNL A   1      42.560  22.078  26.065  1.00  0.00     0.020 A 
ATOM     70  C   UNL A   1      41.346  21.276  28.010  1.00  0.00     0.020 A 
ATOM     71  C   UNL A   1      41.901  21.052  26.749  1.00  0.00     0.054 A 
BRANCH  71  72
ATOM     72  S   UNL A   1      41.842  19.397  26.007  1.00  0.00     0.124 S 
ATOM     73  O   UNL A   1      42.709  19.554  24.843  1.00  0.00    -0.237 OA
ATOM     74  O   UNL A   1      42.365  18.551  27.077  1.00  0.00    -0.237 OA
ATOM     75  O   UNL A   1      40.424  19.206  25.712  1.00  0.00    -0.744 OA
ENDBRANCH  71  72
ENDBRANCH  43  66
BRANCH  55  76
ATOM     76  C   UNL A   1      47.310  26.488  31.582  1.00  0.00    -0.014 A 
ATOM     77  C   UNL A   1      48.436  26.622  30.749  1.00  0.00     0.010 A 
ATOM     78  C   UNL A   1      47.456  25.869  32.837  1.00  0.00     0.010 A 
ATOM     79  C   UNL A   1      49.670  26.095  31.139  1.00  0.00     0.020 A 
ATOM     80  C   UNL A   1      48.695  25.364  33.241  1.00  0.00     0.020 A 
ATOM     81  C   UNL A   1      49.788  25.459  32.378  1.00  0.00     0.054 A 
BRANCH  81  82
ATOM     82  S   UNL A   1      51.397  24.775  32.864  1.00  0.00     0.124 S 
ATOM     83  O   UNL A   1      52.318  25.812  32.405  1.00  0.00    -0.237 OA
ATOM     84  O   UNL A   1      51.270  24.644  34.313  1.00  0.00    -0.237 OA
ATOM     85  O   UNL A   1      51.469  23.511  32.134  1.00  0.00    -0.744 OA
ENDBRANCH  81  82
ENDBRANCH  55  76
ENDBRANCH  29  30
ENDBRANCH  22  24
ENDBRANCH  21  22
ENDBRANCH  20  21
ENDBRANCH   1  20
TORSDOF 19
ENDMDL
