MODEL 1
REMARK VINA RESULT:     -10.8      0.000      0.000
REMARK SMILES O=C(OCCOC(=O)c1ccc(Cl)nc1NC[C@@H]1C[N@@H+]2CCC[C@@H]2CO1)c1ccc(-c2c3nc(c(-c4ccc(S(=O)(=O)[O-])cc4)c4ccc([nH]4)c(-c4ccc(S(=O)(=O)[O-])cc4)c4nc(c(-c5ccc(S(=O)(=O)[O-])cc5)c5ccc2[nH]5)C=C4)C=C3)cc1
REMARK SMILES IDX 4 1 3 2 2 3 1 4 27 5 28 6 86 7 29 8 85 9 30 10 31 11 32 12
REMARK SMILES IDX 79 13 33 14 84 15 78 16 80 17 34 18 83 19 77 20 76 21 35 23
REMARK SMILES IDX 65 24 46 25 64 26 47 27 50 28 63 29 81 30 48 31 49 32 62 34
REMARK SMILES IDX 82 35 51 36 36 37 37 38 45 39 38 40 44 41 39 42 40 43 41 44
REMARK SMILES IDX 42 45 43 46 66 47 67 48 75 49 68 50 74 51 69 52 70 53 71 54
REMARK SMILES IDX 72 55 73 56 52 57 53 58 61 59 54 60 60 61 55 62 56 63 57 64
REMARK SMILES IDX 58 65 59 66 5 67 6 68 7 69 8 70 9 71 10 72 15 73 11 74 14 75
REMARK SMILES IDX 12 76 13 77 16 78 17 80 18 81 19 82 26 83 20 84 25 85 21 86
REMARK SMILES IDX 24 87 22 89 23 90
REMARK H PARENT 80 22 50 33 16 79 20 88
REMARK Flexibility Score: inf
ROOT
ATOM      1  C   UNL A   1      32.843  29.898  26.024  1.00  0.00     0.275 C 
ENDROOT
BRANCH   1   2
ATOM      2  O   UNL A   1      33.451  30.005  27.321  1.00  0.00    -0.458 OA
BRANCH   2   3
ATOM      3  C   UNL A   1      34.417  30.878  27.703  1.00  0.00     0.338 C 
ATOM      4  O   UNL A   1      34.324  32.066  27.402  1.00  0.00    -0.246 OA
BRANCH   3   5
ATOM      5  C   UNL A   1      35.698  30.400  28.295  1.00  0.00     0.060 A 
ATOM      6  C   UNL A   1      35.819  29.656  29.467  1.00  0.00     0.016 A 
ATOM      7  C   UNL A   1      36.874  30.798  27.640  1.00  0.00     0.016 A 
ATOM      8  C   UNL A   1      37.076  29.258  29.928  1.00  0.00     0.010 A 
ATOM      9  C   UNL A   1      38.133  30.379  28.075  1.00  0.00     0.010 A 
ATOM     10  C   UNL A   1      38.240  29.614  29.237  1.00  0.00    -0.014 A 
BRANCH  10  11
ATOM     11  C   UNL A   1      39.553  29.287  29.834  1.00  0.00     0.031 A 
ATOM     12  C   UNL A   1      40.023  30.069  31.025  1.00  0.00     0.074 A 
ATOM     13  C   UNL A   1      40.258  28.234  29.379  1.00  0.00     0.049 A 
ATOM     14  N   UNL A   1      41.024  29.817  31.826  1.00  0.00    -0.248 NA
ATOM     15  C   UNL A   1      39.248  31.268  31.388  1.00  0.00     0.031 C 
ATOM     16  C   UNL A   1      39.868  27.384  28.255  1.00  0.00     0.029 A 
ATOM     17  N   UNL A   1      41.439  27.688  29.808  1.00  0.00    -0.354 N 
ATOM     18  C   UNL A   1      40.958  30.784  32.821  1.00  0.00     0.074 A 
ATOM     19  C   UNL A   1      39.879  31.681  32.477  1.00  0.00     0.031 C 
ATOM     20  C   UNL A   1      40.809  26.446  28.057  1.00  0.00     0.029 A 
ATOM     21  C   UNL A   1      41.851  26.607  29.063  1.00  0.00     0.049 A 
ATOM     22  H   UNL A   1      41.945  28.035  30.578  1.00  0.00     0.167 HD
ATOM     23  C   UNL A   1      41.698  30.884  33.948  1.00  0.00     0.031 A 
ATOM     24  C   UNL A   1      42.933  25.818  29.197  1.00  0.00     0.031 A 
ATOM     25  C   UNL A   1      42.800  30.016  34.254  1.00  0.00     0.049 A 
ATOM     26  C   UNL A   1      43.813  26.018  30.401  1.00  0.00     0.074 A 
ATOM     27  C   UNL A   1      43.642  30.040  35.350  1.00  0.00     0.029 A 
ATOM     28  N   UNL A   1      43.222  28.969  33.444  1.00  0.00    -0.354 N 
ATOM     29  N   UNL A   1      43.691  26.895  31.371  1.00  0.00    -0.248 NA
ATOM     30  C   UNL A   1      44.942  25.093  30.560  1.00  0.00     0.031 C 
ATOM     31  C   UNL A   1      44.601  29.034  35.180  1.00  0.00     0.029 A 
ATOM     32  C   UNL A   1      44.323  28.351  34.005  1.00  0.00     0.049 A 
ATOM     33  H   UNL A   1      42.798  28.707  32.596  1.00  0.00     0.167 HD
ATOM     34  C   UNL A   1      44.706  26.605  32.273  1.00  0.00     0.074 A 
ATOM     35  C   UNL A   1      45.421  25.462  31.740  1.00  0.00     0.031 C 
ATOM     36  C   UNL A   1      45.016  27.220  33.442  1.00  0.00     0.031 A 
BRANCH  23  37
ATOM     37  C   UNL A   1      41.315  31.967  34.918  1.00  0.00    -0.014 A 
ATOM     38  C   UNL A   1      40.296  31.746  35.865  1.00  0.00     0.010 A 
ATOM     39  C   UNL A   1      41.961  33.214  34.886  1.00  0.00     0.010 A 
ATOM     40  C   UNL A   1      39.899  32.767  36.731  1.00  0.00     0.020 A 
ATOM     41  C   UNL A   1      41.582  34.232  35.767  1.00  0.00     0.020 A 
ATOM     42  C   UNL A   1      40.542  34.007  36.673  1.00  0.00     0.054 A 
BRANCH  42  43
ATOM     43  S   UNL A   1      40.008  35.315  37.810  1.00  0.00     0.124 S 
ATOM     44  O   UNL A   1      41.166  35.439  38.692  1.00  0.00    -0.237 OA
ATOM     45  O   UNL A   1      39.777  36.445  36.914  1.00  0.00    -0.237 OA
ATOM     46  O   UNL A   1      38.807  34.762  38.433  1.00  0.00    -0.744 OA
ENDBRANCH  42  43
ENDBRANCH  23  37
BRANCH  24  47
ATOM     47  C   UNL A   1      43.224  24.761  28.190  1.00  0.00    -0.014 A 
ATOM     48  C   UNL A   1      42.691  23.465  28.310  1.00  0.00     0.010 A 
ATOM     49  C   UNL A   1      44.060  25.054  27.095  1.00  0.00     0.010 A 
ATOM     50  C   UNL A   1      43.017  22.475  27.376  1.00  0.00     0.020 A 
ATOM     51  C   UNL A   1      44.369  24.074  26.146  1.00  0.00     0.020 A 
ATOM     52  C   UNL A   1      43.857  22.784  26.303  1.00  0.00     0.054 A 
BRANCH  52  53
ATOM     53  S   UNL A   1      44.252  21.490  25.092  1.00  0.00     0.124 S 
ATOM     54  O   UNL A   1      45.620  21.140  25.459  1.00  0.00    -0.237 OA
ATOM     55  O   UNL A   1      43.239  20.477  25.377  1.00  0.00    -0.237 OA
ATOM     56  O   UNL A   1      44.099  22.168  23.807  1.00  0.00    -0.744 OA
ENDBRANCH  52  53
ENDBRANCH  24  47
BRANCH  36  57
ATOM     57  C   UNL A   1      46.166  26.649  34.224  1.00  0.00    -0.014 A 
ATOM     58  C   UNL A   1      45.962  25.635  35.174  1.00  0.00     0.010 A 
ATOM     59  C   UNL A   1      47.470  27.112  33.976  1.00  0.00     0.010 A 
ATOM     60  C   UNL A   1      47.041  25.120  35.896  1.00  0.00     0.020 A 
ATOM     61  C   UNL A   1      48.555  26.579  34.674  1.00  0.00     0.020 A 
ATOM     62  C   UNL A   1      48.331  25.598  35.642  1.00  0.00     0.054 A 
BRANCH  62  63
ATOM     63  S   UNL A   1      49.720  24.894  36.569  1.00  0.00     0.124 S 
ATOM     64  O   UNL A   1      49.133  23.670  37.108  1.00  0.00    -0.237 OA
ATOM     65  O   UNL A   1      50.734  24.702  35.534  1.00  0.00    -0.237 OA
ATOM     66  O   UNL A   1      50.034  25.924  37.557  1.00  0.00    -0.744 OA
ENDBRANCH  62  63
ENDBRANCH  36  57
ENDBRANCH  10  11
ENDBRANCH   3   5
ENDBRANCH   2   3
ENDBRANCH   1   2
BRANCH   1  67
ATOM     67  C   UNL A   1      33.533  28.912  25.080  1.00  0.00     0.275 C 
BRANCH  67  68
ATOM     68  O   UNL A   1      33.210  29.119  23.699  1.00  0.00    -0.458 OA
BRANCH  68  69
ATOM     69  C   UNL A   1      32.693  28.033  23.063  1.00  0.00     0.342 C 
ATOM     70  O   UNL A   1      33.310  27.059  22.667  1.00  0.00    -0.246 OA
BRANCH  69  71
ATOM     71  C   UNL A   1      31.230  28.174  22.987  1.00  0.00     0.102 A 
ATOM     72  C   UNL A   1      30.667  29.254  22.291  1.00  0.00     0.023 A 
ATOM     73  C   UNL A   1      30.396  27.253  23.627  1.00  0.00     0.142 A 
ATOM     74  C   UNL A   1      29.286  29.416  22.285  1.00  0.00     0.042 A 
ATOM     75  N   UNL A   1      29.054  27.447  23.647  1.00  0.00    -0.218 NA
ATOM     76  C   UNL A   1      28.537  28.506  22.997  1.00  0.00     0.131 A 
ATOM     77  Cl  UNL A   1      26.837  28.660  23.137  1.00  0.00    -0.062 Cl
BRANCH  73  78
ATOM     78  N   UNL A   1      30.878  26.147  24.303  1.00  0.00    -0.366 N 
ATOM     79  H   UNL A   1      31.267  25.392  23.805  1.00  0.00     0.162 HD
BRANCH  78  80
ATOM     80  C   UNL A   1      30.808  26.110  25.753  1.00  0.00     0.152 C 
BRANCH  80  81
ATOM     81  C   UNL A   1      31.825  25.146  26.393  1.00  0.00     0.192 C 
ATOM     82  C   UNL A   1      32.669  24.563  25.222  1.00  0.00     0.296 C 
ATOM     83  O   UNL A   1      31.135  24.161  27.186  1.00  0.00    -0.364 OA
ATOM     84  N   UNL A   1      33.203  23.211  25.401  1.00  0.00    -0.328 N 
ATOM     85  C   UNL A   1      30.899  22.949  26.464  1.00  0.00     0.225 C 
ATOM     86  C   UNL A   1      33.568  22.611  24.109  1.00  0.00     0.262 C 
ATOM     87  C   UNL A   1      32.240  22.309  26.071  1.00  0.00     0.210 C 
ATOM     88  H   UNL A   1      34.030  23.311  25.990  1.00  0.00     0.348 HD
ATOM     89  C   UNL A   1      33.340  21.127  24.308  1.00  0.00     0.068 C 
ATOM     90  C   UNL A   1      32.077  21.102  25.150  1.00  0.00     0.073 C 
ENDBRANCH  80  81
ENDBRANCH  78  80
ENDBRANCH  73  78
ENDBRANCH  69  71
ENDBRANCH  68  69
ENDBRANCH  67  68
ENDBRANCH   1  67
TORSDOF 17
ENDMDL
MODEL 2
REMARK VINA RESULT:     -10.8      2.460      3.142
REMARK SMILES O=C(OCCOC(=O)c1ccc(Cl)nc1NC[C@@H]1C[N@@H+]2CCC[C@@H]2CO1)c1ccc(-c2c3nc(c(-c4ccc(S(=O)(=O)[O-])cc4)c4ccc([nH]4)c(-c4ccc(S(=O)(=O)[O-])cc4)c4nc(c(-c5ccc(S(=O)(=O)[O-])cc5)c5ccc2[nH]5)C=C4)C=C3)cc1
REMARK SMILES IDX 4 1 3 2 2 3 1 4 27 5 28 6 86 7 29 8 85 9 30 10 31 11 32 12
REMARK SMILES IDX 79 13 33 14 84 15 78 16 80 17 34 18 83 19 77 20 76 21 35 23
REMARK SMILES IDX 65 24 46 25 64 26 47 27 50 28 63 29 81 30 48 31 49 32 62 34
REMARK SMILES IDX 82 35 51 36 36 37 37 38 45 39 38 40 44 41 39 42 40 43 41 44
REMARK SMILES IDX 42 45 43 46 66 47 67 48 75 49 68 50 74 51 69 52 70 53 71 54
REMARK SMILES IDX 72 55 73 56 52 57 53 58 61 59 54 60 60 61 55 62 56 63 57 64
REMARK SMILES IDX 58 65 59 66 5 67 6 68 7 69 8 70 9 71 10 72 15 73 11 74 14 75
REMARK SMILES IDX 12 76 13 77 16 78 17 80 18 81 19 82 26 83 20 84 25 85 21 86
REMARK SMILES IDX 24 87 22 89 23 90
REMARK H PARENT 80 22 50 33 16 79 20 88
REMARK Flexibility Score: inf
ROOT
ATOM      1  C   UNL A   1      32.496  29.828  26.687  1.00  0.00     0.275 C 
ENDROOT
BRANCH   1   2
ATOM      2  O   UNL A   1      33.850  30.295  26.793  1.00  0.00    -0.458 OA
BRANCH   2   3
ATOM      3  C   UNL A   1      34.494  30.693  27.919  1.00  0.00     0.338 C 
ATOM      4  O   UNL A   1      34.051  31.630  28.580  1.00  0.00    -0.246 OA
BRANCH   3   5
ATOM      5  C   UNL A   1      35.845  30.167  28.263  1.00  0.00     0.060 A 
ATOM      6  C   UNL A   1      36.244  29.726  29.524  1.00  0.00     0.016 A 
ATOM      7  C   UNL A   1      36.801  30.184  27.235  1.00  0.00     0.016 A 
ATOM      8  C   UNL A   1      37.539  29.247  29.731  1.00  0.00     0.010 A 
ATOM      9  C   UNL A   1      38.089  29.678  27.424  1.00  0.00     0.010 A 
ATOM     10  C   UNL A   1      38.469  29.218  28.685  1.00  0.00    -0.014 A 
BRANCH  10  11
ATOM     11  C   UNL A   1      39.866  28.831  28.983  1.00  0.00     0.031 A 
ATOM     12  C   UNL A   1      40.754  29.810  29.693  1.00  0.00     0.074 A 
ATOM     13  C   UNL A   1      40.292  27.582  28.715  1.00  0.00     0.049 A 
ATOM     14  N   UNL A   1      41.926  29.608  30.235  1.00  0.00    -0.248 NA
ATOM     15  C   UNL A   1      40.247  31.184  29.849  1.00  0.00     0.031 C 
ATOM     16  C   UNL A   1      39.493  26.543  28.067  1.00  0.00     0.029 A 
ATOM     17  N   UNL A   1      41.490  26.966  28.965  1.00  0.00    -0.354 N 
ATOM     18  C   UNL A   1      42.263  30.806  30.851  1.00  0.00     0.074 A 
ATOM     19  C   UNL A   1      41.220  31.757  30.540  1.00  0.00     0.031 C 
ATOM     20  C   UNL A   1      40.232  25.430  27.933  1.00  0.00     0.029 A 
ATOM     21  C   UNL A   1      41.545  25.666  28.520  1.00  0.00     0.049 A 
ATOM     22  H   UNL A   1      42.240  27.412  29.420  1.00  0.00     0.167 HD
ATOM     23  C   UNL A   1      43.322  31.073  31.648  1.00  0.00     0.031 A 
ATOM     24  C   UNL A   1      42.536  24.758  28.605  1.00  0.00     0.031 A 
ATOM     25  C   UNL A   1      44.377  30.135  31.908  1.00  0.00     0.049 A 
ATOM     26  C   UNL A   1      43.761  25.115  29.402  1.00  0.00     0.074 A 
ATOM     27  C   UNL A   1      45.516  30.303  32.674  1.00  0.00     0.029 A 
ATOM     28  N   UNL A   1      44.425  28.847  31.391  1.00  0.00    -0.354 N 
ATOM     29  N   UNL A   1      44.029  26.232  30.038  1.00  0.00    -0.248 NA
ATOM     30  C   UNL A   1      44.790  24.078  29.539  1.00  0.00     0.031 C 
ATOM     31  C   UNL A   1      46.274  29.130  32.583  1.00  0.00     0.029 A 
ATOM     32  C   UNL A   1      45.583  28.214  31.805  1.00  0.00     0.049 A 
ATOM     33  H   UNL A   1      43.736  28.444  30.815  1.00  0.00     0.167 HD
ATOM     34  C   UNL A   1      45.241  26.019  30.681  1.00  0.00     0.074 A 
ATOM     35  C   UNL A   1      45.644  24.661  30.369  1.00  0.00     0.031 C 
ATOM     36  C   UNL A   1      45.956  26.864  31.467  1.00  0.00     0.031 A 
BRANCH  23  37
ATOM     37  C   UNL A   1      43.363  32.433  32.288  1.00  0.00    -0.014 A 
ATOM     38  C   UNL A   1      42.758  32.647  33.542  1.00  0.00     0.010 A 
ATOM     39  C   UNL A   1      43.997  33.507  31.641  1.00  0.00     0.010 A 
ATOM     40  C   UNL A   1      42.746  33.921  34.115  1.00  0.00     0.020 A 
ATOM     41  C   UNL A   1      44.007  34.779  32.223  1.00  0.00     0.020 A 
ATOM     42  C   UNL A   1      43.366  34.981  33.448  1.00  0.00     0.054 A 
BRANCH  42  43
ATOM     43  S   UNL A   1      43.338  36.624  34.216  1.00  0.00     0.124 S 
ATOM     44  O   UNL A   1      44.598  36.634  34.954  1.00  0.00    -0.237 OA
ATOM     45  O   UNL A   1      43.279  37.516  33.061  1.00  0.00    -0.237 OA
ATOM     46  O   UNL A   1      42.133  36.598  35.042  1.00  0.00    -0.744 OA
ENDBRANCH  42  43
ENDBRANCH  23  37
BRANCH  24  47
ATOM     47  C   UNL A   1      42.398  23.430  27.946  1.00  0.00    -0.014 A 
ATOM     48  C   UNL A   1      41.851  22.327  28.625  1.00  0.00     0.010 A 
ATOM     49  C   UNL A   1      42.834  23.263  26.618  1.00  0.00     0.010 A 
ATOM     50  C   UNL A   1      41.775  21.076  28.001  1.00  0.00     0.020 A 
ATOM     51  C   UNL A   1      42.738  22.021  25.982  1.00  0.00     0.020 A 
ATOM     52  C   UNL A   1      42.224  20.930  26.685  1.00  0.00     0.054 A 
BRANCH  52  53
ATOM     53  S   UNL A   1      42.099  19.304  25.888  1.00  0.00     0.124 S 
ATOM     54  O   UNL A   1      43.001  19.454  24.751  1.00  0.00    -0.237 OA
ATOM     55  O   UNL A   1      42.553  18.402  26.944  1.00  0.00    -0.237 OA
ATOM     56  O   UNL A   1      40.680  19.195  25.555  1.00  0.00    -0.744 OA
ENDBRANCH  52  53
ENDBRANCH  24  47
BRANCH  36  57
ATOM     57  C   UNL A   1      47.232  26.328  32.054  1.00  0.00    -0.014 A 
ATOM     58  C   UNL A   1      47.256  25.763  33.339  1.00  0.00     0.010 A 
ATOM     59  C   UNL A   1      48.412  26.360  31.291  1.00  0.00     0.010 A 
ATOM     60  C   UNL A   1      48.451  25.275  33.871  1.00  0.00     0.020 A 
ATOM     61  C   UNL A   1      49.603  25.846  31.806  1.00  0.00     0.020 A 
ATOM     62  C   UNL A   1      49.618  25.323  33.101  1.00  0.00     0.054 A 
BRANCH  62  63
ATOM     63  S   UNL A   1      51.151  24.655  33.799  1.00  0.00     0.124 S 
ATOM     64  O   UNL A   1      51.518  25.689  34.764  1.00  0.00    -0.237 OA
ATOM     65  O   UNL A   1      50.719  23.384  34.374  1.00  0.00    -0.237 OA
ATOM     66  O   UNL A   1      52.036  24.540  32.642  1.00  0.00    -0.744 OA
ENDBRANCH  62  63
ENDBRANCH  36  57
ENDBRANCH  10  11
ENDBRANCH   3   5
ENDBRANCH   2   3
ENDBRANCH   1   2
BRANCH   1  67
ATOM     67  C   UNL A   1      32.351  28.306  26.664  1.00  0.00     0.275 C 
BRANCH  67  68
ATOM     68  O   UNL A   1      31.064  27.859  26.218  1.00  0.00    -0.458 OA
BRANCH  68  69
ATOM     69  C   UNL A   1      31.000  26.544  25.876  1.00  0.00     0.342 C 
ATOM     70  O   UNL A   1      30.600  25.629  26.575  1.00  0.00    -0.246 OA
BRANCH  69  71
ATOM     71  C   UNL A   1      31.426  26.390  24.475  1.00  0.00     0.102 A 
ATOM     72  C   UNL A   1      30.816  27.158  23.472  1.00  0.00     0.023 A 
ATOM     73  C   UNL A   1      32.415  25.464  24.134  1.00  0.00     0.142 A 
ATOM     74  C   UNL A   1      31.176  26.954  22.144  1.00  0.00     0.042 A 
ATOM     75  N   UNL A   1      32.726  25.247  22.832  1.00  0.00    -0.218 NA
ATOM     76  C   UNL A   1      32.108  25.975  21.883  1.00  0.00     0.131 A 
ATOM     77  Cl  UNL A   1      32.558  25.573  20.280  1.00  0.00    -0.062 Cl
BRANCH  73  78
ATOM     78  N   UNL A   1      33.081  24.697  25.072  1.00  0.00    -0.366 N 
ATOM     79  H   UNL A   1      33.643  25.128  25.756  1.00  0.00     0.162 HD
BRANCH  78  80
ATOM     80  C   UNL A   1      32.943  23.252  25.041  1.00  0.00     0.152 C 
BRANCH  80  81
ATOM     81  C   UNL A   1      33.837  22.527  26.065  1.00  0.00     0.192 C 
ATOM     82  C   UNL A   1      35.171  23.328  26.123  1.00  0.00     0.296 C 
ATOM     83  O   UNL A   1      33.983  21.143  25.696  1.00  0.00    -0.364 OA
ATOM     84  N   UNL A   1      36.384  22.573  26.444  1.00  0.00    -0.328 N 
ATOM     85  C   UNL A   1      35.174  20.903  24.942  1.00  0.00     0.225 C 
ATOM     86  C   UNL A   1      37.589  23.305  26.028  1.00  0.00     0.262 C 
ATOM     87  C   UNL A   1      36.407  21.243  25.794  1.00  0.00     0.210 C 
ATOM     88  H   UNL A   1      36.377  22.448  27.456  1.00  0.00     0.348 HD
ATOM     89  C   UNL A   1      38.586  22.218  25.684  1.00  0.00     0.068 C 
ATOM     90  C   UNL A   1      37.713  21.178  25.007  1.00  0.00     0.073 C 
ENDBRANCH  80  81
ENDBRANCH  78  80
ENDBRANCH  73  78
ENDBRANCH  69  71
ENDBRANCH  68  69
ENDBRANCH  67  68
ENDBRANCH   1  67
TORSDOF 17
ENDMDL
MODEL 3
REMARK VINA RESULT:     -10.7      6.303     11.693
REMARK SMILES O=C(OCCOC(=O)c1ccc(Cl)nc1NC[C@@H]1C[N@@H+]2CCC[C@@H]2CO1)c1ccc(-c2c3nc(c(-c4ccc(S(=O)(=O)[O-])cc4)c4ccc([nH]4)c(-c4ccc(S(=O)(=O)[O-])cc4)c4nc(c(-c5ccc(S(=O)(=O)[O-])cc5)c5ccc2[nH]5)C=C4)C=C3)cc1
REMARK SMILES IDX 4 1 3 2 2 3 1 4 27 5 28 6 86 7 29 8 85 9 30 10 31 11 32 12
REMARK SMILES IDX 79 13 33 14 84 15 78 16 80 17 34 18 83 19 77 20 76 21 35 23
REMARK SMILES IDX 65 24 46 25 64 26 47 27 50 28 63 29 81 30 48 31 49 32 62 34
REMARK SMILES IDX 82 35 51 36 36 37 37 38 45 39 38 40 44 41 39 42 40 43 41 44
REMARK SMILES IDX 42 45 43 46 66 47 67 48 75 49 68 50 74 51 69 52 70 53 71 54
REMARK SMILES IDX 72 55 73 56 52 57 53 58 61 59 54 60 60 61 55 62 56 63 57 64
REMARK SMILES IDX 58 65 59 66 5 67 6 68 7 69 8 70 9 71 10 72 15 73 11 74 14 75
REMARK SMILES IDX 12 76 13 77 16 78 17 80 18 81 19 82 26 83 20 84 25 85 21 86
REMARK SMILES IDX 24 87 22 89 23 90
REMARK H PARENT 80 22 50 33 16 79 20 88
REMARK Flexibility Score: inf
ROOT
ATOM      1  C   UNL A   1      43.435  18.378  25.523  1.00  0.00     0.275 C 
ENDROOT
BRANCH   1   2
ATOM      2  O   UNL A   1      43.721  19.397  24.553  1.00  0.00    -0.458 OA
BRANCH   2   3
ATOM      3  C   UNL A   1      44.912  20.012  24.336  1.00  0.00     0.338 C 
ATOM      4  O   UNL A   1      45.828  19.398  23.794  1.00  0.00    -0.246 OA
BRANCH   3   5
ATOM      5  C   UNL A   1      45.212  21.344  24.932  1.00  0.00     0.060 A 
ATOM      6  C   UNL A   1      45.296  21.619  26.296  1.00  0.00     0.016 A 
ATOM      7  C   UNL A   1      45.355  22.412  24.032  1.00  0.00     0.016 A 
ATOM      8  C   UNL A   1      45.588  22.909  26.742  1.00  0.00     0.010 A 
ATOM      9  C   UNL A   1      45.678  23.699  24.467  1.00  0.00     0.010 A 
ATOM     10  C   UNL A   1      45.782  23.957  25.834  1.00  0.00    -0.014 A 
BRANCH  10  11
ATOM     11  C   UNL A   1      45.954  25.331  26.354  1.00  0.00     0.031 A 
ATOM     12  C   UNL A   1      47.334  25.918  26.410  1.00  0.00     0.074 A 
ATOM     13  C   UNL A   1      44.876  26.074  26.668  1.00  0.00     0.049 A 
ATOM     14  N   UNL A   1      47.688  27.157  26.624  1.00  0.00    -0.248 NA
ATOM     15  C   UNL A   1      48.461  25.004  26.154  1.00  0.00     0.031 C 
ATOM     16  C   UNL A   1      43.490  25.612  26.607  1.00  0.00     0.029 A 
ATOM     17  N   UNL A   1      44.769  27.375  27.085  1.00  0.00    -0.354 N 
ATOM     18  C   UNL A   1      49.067  27.183  26.464  1.00  0.00     0.074 A 
ATOM     19  C   UNL A   1      49.498  25.825  26.226  1.00  0.00     0.031 C 
ATOM     20  C   UNL A   1      42.672  26.598  27.009  1.00  0.00     0.029 A 
ATOM     21  C   UNL A   1      43.474  27.775  27.321  1.00  0.00     0.049 A 
ATOM     22  H   UNL A   1      45.545  27.968  27.203  1.00  0.00     0.167 HD
ATOM     23  C   UNL A   1      49.894  28.253  26.463  1.00  0.00     0.031 A 
ATOM     24  C   UNL A   1      42.989  28.966  27.717  1.00  0.00     0.031 A 
ATOM     25  C   UNL A   1      49.461  29.592  26.750  1.00  0.00     0.049 A 
ATOM     26  C   UNL A   1      43.944  30.123  27.822  1.00  0.00     0.074 A 
ATOM     27  C   UNL A   1      50.212  30.751  26.810  1.00  0.00     0.029 A 
ATOM     28  N   UNL A   1      48.150  29.946  27.043  1.00  0.00    -0.354 N 
ATOM     29  N   UNL A   1      45.238  30.142  27.596  1.00  0.00    -0.248 NA
ATOM     30  C   UNL A   1      43.373  31.426  28.182  1.00  0.00     0.031 C 
ATOM     31  C   UNL A   1      49.361  31.798  27.181  1.00  0.00     0.029 A 
ATOM     32  C   UNL A   1      48.072  31.301  27.302  1.00  0.00     0.049 A 
ATOM     33  H   UNL A   1      47.388  29.322  27.062  1.00  0.00     0.167 HD
ATOM     34  C   UNL A   1      45.629  31.466  27.751  1.00  0.00     0.074 A 
ATOM     35  C   UNL A   1      44.432  32.217  28.074  1.00  0.00     0.031 C 
ATOM     36  C   UNL A   1      46.864  32.015  27.630  1.00  0.00     0.031 A 
BRANCH  23  37
ATOM     37  C   UNL A   1      51.338  27.996  26.131  1.00  0.00    -0.014 A 
ATOM     38  C   UNL A   1      51.781  28.052  24.796  1.00  0.00     0.010 A 
ATOM     39  C   UNL A   1      52.258  27.687  27.146  1.00  0.00     0.010 A 
ATOM     40  C   UNL A   1      53.109  27.760  24.477  1.00  0.00     0.020 A 
ATOM     41  C   UNL A   1      53.594  27.415  26.833  1.00  0.00     0.020 A 
ATOM     42  C   UNL A   1      54.007  27.437  25.498  1.00  0.00     0.054 A 
BRANCH  42  43
ATOM     43  S   UNL A   1      55.725  27.063  25.056  1.00  0.00     0.124 S 
ATOM     44  O   UNL A   1      55.597  25.752  24.426  1.00  0.00    -0.237 OA
ATOM     45  O   UNL A   1      56.069  28.161  24.155  1.00  0.00    -0.237 OA
ATOM     46  O   UNL A   1      56.423  27.073  26.339  1.00  0.00    -0.744 OA
ENDBRANCH  42  43
ENDBRANCH  23  37
BRANCH  24  47
ATOM     47  C   UNL A   1      41.538  29.128  28.011  1.00  0.00    -0.014 A 
ATOM     48  C   UNL A   1      40.580  29.175  26.983  1.00  0.00     0.010 A 
ATOM     49  C   UNL A   1      41.109  29.250  29.347  1.00  0.00     0.010 A 
ATOM     50  C   UNL A   1      39.228  29.376  27.281  1.00  0.00     0.020 A 
ATOM     51  C   UNL A   1      39.755  29.426  29.651  1.00  0.00     0.020 A 
ATOM     52  C   UNL A   1      38.824  29.505  28.613  1.00  0.00     0.054 A 
BRANCH  52  53
ATOM     53  S   UNL A   1      37.063  29.746  28.979  1.00  0.00     0.124 S 
ATOM     54  O   UNL A   1      36.929  29.083  30.272  1.00  0.00    -0.237 OA
ATOM     55  O   UNL A   1      36.943  31.202  28.997  1.00  0.00    -0.237 OA
ATOM     56  O   UNL A   1      36.389  29.087  27.862  1.00  0.00    -0.744 OA
ENDBRANCH  52  53
ENDBRANCH  24  47
BRANCH  36  57
ATOM     57  C   UNL A   1      46.967  33.502  27.828  1.00  0.00    -0.014 A 
ATOM     58  C   UNL A   1      47.226  34.047  29.097  1.00  0.00     0.010 A 
ATOM     59  C   UNL A   1      46.838  34.359  26.721  1.00  0.00     0.010 A 
ATOM     60  C   UNL A   1      47.313  35.430  29.264  1.00  0.00     0.020 A 
ATOM     61  C   UNL A   1      46.954  35.741  26.878  1.00  0.00     0.020 A 
ATOM     62  C   UNL A   1      47.173  36.268  28.153  1.00  0.00     0.054 A 
BRANCH  62  63
ATOM     63  S   UNL A   1      47.320  38.059  28.387  1.00  0.00     0.124 S 
ATOM     64  O   UNL A   1      45.923  38.482  28.361  1.00  0.00    -0.237 OA
ATOM     65  O   UNL A   1      47.985  38.162  29.684  1.00  0.00    -0.237 OA
ATOM     66  O   UNL A   1      48.124  38.492  27.246  1.00  0.00    -0.744 OA
ENDBRANCH  62  63
ENDBRANCH  36  57
ENDBRANCH  10  11
ENDBRANCH   3   5
ENDBRANCH   2   3
ENDBRANCH   1   2
BRANCH   1  67
ATOM     67  C   UNL A   1      42.504  18.822  26.653  1.00  0.00     0.275 C 
BRANCH  67  68
ATOM     68  O   UNL A   1      42.136  20.205  26.581  1.00  0.00    -0.458 OA
BRANCH  68  69
ATOM     69  C   UNL A   1      40.808  20.436  26.399  1.00  0.00     0.342 C 
ATOM     70  O   UNL A   1      39.975  19.633  26.014  1.00  0.00    -0.246 OA
BRANCH  69  71
ATOM     71  C   UNL A   1      40.498  21.813  26.817  1.00  0.00     0.102 A 
ATOM     72  C   UNL A   1      41.306  22.453  27.767  1.00  0.00     0.023 A 
ATOM     73  C   UNL A   1      39.386  22.478  26.293  1.00  0.00     0.142 A 
ATOM     74  C   UNL A   1      40.964  23.727  28.207  1.00  0.00     0.042 A 
ATOM     75  N   UNL A   1      39.041  23.704  26.761  1.00  0.00    -0.218 NA
ATOM     76  C   UNL A   1      39.815  24.288  27.695  1.00  0.00     0.131 A 
ATOM     77  Cl  UNL A   1      39.246  25.811  28.232  1.00  0.00    -0.062 Cl
BRANCH  73  78
ATOM     78  N   UNL A   1      38.564  21.922  25.331  1.00  0.00    -0.366 N 
ATOM     79  H   UNL A   1      38.853  21.123  24.833  1.00  0.00     0.162 HD
BRANCH  78  80
ATOM     80  C   UNL A   1      37.271  22.525  25.060  1.00  0.00     0.152 C 
BRANCH  80  81
ATOM     81  C   UNL A   1      36.131  21.947  25.920  1.00  0.00     0.192 C 
ATOM     82  C   UNL A   1      35.767  20.570  25.292  1.00  0.00     0.296 C 
ATOM     83  O   UNL A   1      35.040  22.886  25.985  1.00  0.00    -0.364 OA
ATOM     84  N   UNL A   1      34.378  20.125  25.432  1.00  0.00    -0.328 N 
ATOM     85  C   UNL A   1      34.031  22.616  25.009  1.00  0.00     0.225 C 
ATOM     86  C   UNL A   1      34.053  19.086  24.443  1.00  0.00     0.262 C 
ATOM     87  C   UNL A   1      33.412  21.234  25.268  1.00  0.00     0.210 C 
ATOM     88  H   UNL A   1      34.298  19.750  26.378  1.00  0.00     0.348 HD
ATOM     89  C   UNL A   1      32.578  19.285  24.164  1.00  0.00     0.068 C 
ATOM     90  C   UNL A   1      32.447  20.797  24.170  1.00  0.00     0.073 C 
ENDBRANCH  80  81
ENDBRANCH  78  80
ENDBRANCH  73  78
ENDBRANCH  69  71
ENDBRANCH  68  69
ENDBRANCH  67  68
ENDBRANCH   1  67
TORSDOF 17
ENDMDL
