MODEL 1
REMARK VINA RESULT:     -12.2      0.000      0.000
REMARK SMILES O=C(OCCOC(=O)c1ccc(-c2c3nc(c(-c4ccc(S(=O)(=O)[O-])cc4)c4ccc([nH]4)c(-c4ccc(S(=O)(=O)[O-])cc4)c4nc(c(-c5ccc(S(=O)(=O)[O-])cc5)c5ccc2[nH]5)C=C4)C=C3)cc1)c1ccc(NC(=O)[C@@H]2CC=CC[C@@H]2C(=O)Nc2ccc(Br)cc2)cc1
REMARK SMILES IDX 4 1 3 2 2 3 1 4 69 5 70 6 93 7 71 8 92 9 72 10 73 11 74 12
REMARK SMILES IDX 75 14 76 15 77 16 81 17 78 18 80 19 79 20 82 21 83 22 84 23
REMARK SMILES IDX 85 25 86 26 91 27 87 28 90 29 88 30 89 31 5 32 6 33 7 34
REMARK SMILES IDX 8 35 9 36 10 37 68 38 11 39 67 40 12 41 13 42 14 43 61 44
REMARK SMILES IDX 15 45 66 46 60 47 62 48 16 49 65 50 59 51 58 52 17 54 47 55
REMARK SMILES IDX 28 56 46 57 29 58 32 59 45 60 63 61 30 62 31 63 44 65 64 66
REMARK SMILES IDX 33 67 18 68 19 69 27 70 20 71 26 72 21 73 22 74 23 75 24 76
REMARK SMILES IDX 25 77 48 78 49 79 57 80 50 81 56 82 51 83 52 84 53 85 54 86
REMARK SMILES IDX 55 87 34 88 35 89 43 90 36 91 42 92 37 93 38 94 39 95 40 96
REMARK SMILES IDX 41 97
REMARK H PARENT 73 13 84 24 62 53 32 64
REMARK Flexibility Score: inf
ROOT
ATOM      1  C   UNL A   1      42.924  22.218  26.077  1.00  0.00     0.275 C 
ENDROOT
BRANCH   1   2
ATOM      2  O   UNL A   1      41.958  22.041  27.129  1.00  0.00    -0.458 OA
BRANCH   2   3
ATOM      3  C   UNL A   1      40.792  21.354  27.171  1.00  0.00     0.338 C 
ATOM      4  O   UNL A   1      40.763  20.316  27.834  1.00  0.00    -0.246 OA
BRANCH   3   5
ATOM      5  C   UNL A   1      39.516  21.776  26.484  1.00  0.00     0.060 A 
ATOM      6  C   UNL A   1      38.882  23.018  26.572  1.00  0.00     0.018 A 
ATOM      7  C   UNL A   1      38.867  20.808  25.696  1.00  0.00     0.018 A 
ATOM      8  C   UNL A   1      37.778  23.352  25.749  1.00  0.00     0.027 A 
ATOM      9  C   UNL A   1      37.730  21.124  24.921  1.00  0.00     0.027 A 
ATOM     10  C   UNL A   1      37.293  22.445  24.810  1.00  0.00     0.041 A 
BRANCH  10  11
ATOM     11  N   UNL A   1      36.555  22.833  23.655  1.00  0.00    -0.326 N 
ATOM     12  C   UNL A   1      35.183  22.937  23.399  1.00  0.00     0.228 C 
ATOM     13  H   UNL A   1      37.120  23.074  22.886  1.00  0.00     0.169 HD
ATOM     14  O   UNL A   1      34.829  23.234  22.251  1.00  0.00    -0.274 OA
BRANCH  12  15
ATOM     15  C   UNL A   1      34.108  22.692  24.462  1.00  0.00     0.095 C 
ATOM     16  C   UNL A   1      32.759  21.932  24.188  1.00  0.00     0.041 C 
ATOM     17  C   UNL A   1      33.676  23.951  25.176  1.00  0.00     0.095 C 
ATOM     18  C   UNL A   1      31.987  21.722  25.503  1.00  0.00    -0.030 C 
ATOM     19  C   UNL A   1      33.342  23.459  26.611  1.00  0.00     0.041 C 
ATOM     20  C   UNL A   1      32.306  22.379  26.631  1.00  0.00    -0.030 C 
BRANCH  17  21
ATOM     21  C   UNL A   1      32.626  24.788  24.432  1.00  0.00     0.228 C 
ATOM     22  O   UNL A   1      32.108  24.316  23.416  1.00  0.00    -0.274 OA
ATOM     23  N   UNL A   1      32.051  25.919  24.972  1.00  0.00    -0.326 N 
ATOM     24  H   UNL A   1      31.081  25.920  24.803  1.00  0.00     0.169 HD
BRANCH  23  25
ATOM     25  C   UNL A   1      32.422  27.078  25.693  1.00  0.00     0.041 A 
ATOM     26  C   UNL A   1      33.625  27.695  25.311  1.00  0.00     0.027 A 
ATOM     27  C   UNL A   1      31.791  27.585  26.826  1.00  0.00     0.027 A 
ATOM     28  C   UNL A   1      34.103  28.866  25.923  1.00  0.00     0.018 A 
ATOM     29  C   UNL A   1      32.247  28.776  27.441  1.00  0.00     0.018 A 
ATOM     30  C   UNL A   1      33.382  29.428  26.964  1.00  0.00     0.018 A 
ATOM     31  Br  UNL A   1      33.921  31.087  27.693  1.00  0.00    -0.051 Br
ENDBRANCH  23  25
ENDBRANCH  17  21
ENDBRANCH  12  15
ENDBRANCH  10  11
ENDBRANCH   3   5
ENDBRANCH   2   3
ENDBRANCH   1   2
BRANCH   1  32
ATOM     32  C   UNL A   1      43.084  23.642  25.544  1.00  0.00     0.275 C 
BRANCH  32  33
ATOM     33  O   UNL A   1      41.958  24.488  25.806  1.00  0.00    -0.458 OA
BRANCH  33  34
ATOM     34  C   UNL A   1      42.214  25.815  25.688  1.00  0.00     0.338 C 
ATOM     35  O   UNL A   1      42.560  26.403  24.666  1.00  0.00    -0.246 OA
BRANCH  34  36
ATOM     36  C   UNL A   1      41.980  26.485  26.978  1.00  0.00     0.060 A 
ATOM     37  C   UNL A   1      41.041  25.978  27.876  1.00  0.00     0.016 A 
ATOM     38  C   UNL A   1      42.651  27.660  27.286  1.00  0.00     0.016 A 
ATOM     39  C   UNL A   1      40.752  26.673  29.065  1.00  0.00     0.010 A 
ATOM     40  C   UNL A   1      42.426  28.294  28.517  1.00  0.00     0.010 A 
ATOM     41  C   UNL A   1      41.428  27.857  29.405  1.00  0.00    -0.014 A 
BRANCH  41  42
ATOM     42  C   UNL A   1      41.024  28.706  30.584  1.00  0.00     0.031 A 
ATOM     43  C   UNL A   1      41.777  28.568  31.899  1.00  0.00     0.074 A 
ATOM     44  C   UNL A   1      40.011  29.604  30.533  1.00  0.00     0.049 A 
ATOM     45  N   UNL A   1      41.636  29.255  33.009  1.00  0.00    -0.248 NA
ATOM     46  C   UNL A   1      42.809  27.521  31.988  1.00  0.00     0.031 C 
ATOM     47  C   UNL A   1      39.171  29.881  29.371  1.00  0.00     0.029 A 
ATOM     48  N   UNL A   1      39.512  30.461  31.494  1.00  0.00    -0.354 N 
ATOM     49  C   UNL A   1      42.555  28.720  33.906  1.00  0.00     0.074 A 
ATOM     50  C   UNL A   1      43.160  27.580  33.261  1.00  0.00     0.031 C 
ATOM     51  C   UNL A   1      38.252  30.812  29.684  1.00  0.00     0.029 A 
ATOM     52  C   UNL A   1      38.459  31.243  31.062  1.00  0.00     0.049 A 
ATOM     53  H   UNL A   1      39.875  30.511  32.407  1.00  0.00     0.167 HD
ATOM     54  C   UNL A   1      42.930  29.159  35.131  1.00  0.00     0.031 A 
ATOM     55  C   UNL A   1      37.763  32.225  31.674  1.00  0.00     0.031 A 
ATOM     56  C   UNL A   1      42.374  30.306  35.789  1.00  0.00     0.049 A 
ATOM     57  C   UNL A   1      38.172  32.688  33.050  1.00  0.00     0.074 A 
ATOM     58  C   UNL A   1      42.750  30.868  36.996  1.00  0.00     0.029 A 
ATOM     59  N   UNL A   1      41.323  31.062  35.302  1.00  0.00    -0.354 N 
ATOM     60  N   UNL A   1      39.136  32.242  33.819  1.00  0.00    -0.248 NA
ATOM     61  C   UNL A   1      37.432  33.827  33.617  1.00  0.00     0.031 C 
ATOM     62  C   UNL A   1      41.881  31.927  37.272  1.00  0.00     0.029 A 
ATOM     63  C   UNL A   1      41.015  32.070  36.200  1.00  0.00     0.049 A 
ATOM     64  H   UNL A   1      40.862  30.907  34.445  1.00  0.00     0.167 HD
ATOM     65  C   UNL A   1      39.157  33.085  34.928  1.00  0.00     0.074 A 
ATOM     66  C   UNL A   1      38.111  34.065  34.730  1.00  0.00     0.031 C 
ATOM     67  C   UNL A   1      39.983  33.054  36.002  1.00  0.00     0.031 A 
BRANCH  54  68
ATOM     68  C   UNL A   1      44.026  28.393  35.829  1.00  0.00    -0.014 A 
ATOM     69  C   UNL A   1      43.725  27.326  36.699  1.00  0.00     0.010 A 
ATOM     70  C   UNL A   1      45.370  28.737  35.608  1.00  0.00     0.010 A 
ATOM     71  C   UNL A   1      44.744  26.659  37.381  1.00  0.00     0.020 A 
ATOM     72  C   UNL A   1      46.396  28.045  36.259  1.00  0.00     0.020 A 
ATOM     73  C   UNL A   1      46.075  27.025  37.157  1.00  0.00     0.054 A 
BRANCH  73  74
ATOM     74  S   UNL A   1      47.378  26.133  38.045  1.00  0.00     0.124 S 
ATOM     75  O   UNL A   1      47.308  24.808  37.432  1.00  0.00    -0.237 OA
ATOM     76  O   UNL A   1      48.574  26.909  37.726  1.00  0.00    -0.237 OA
ATOM     77  O   UNL A   1      46.954  26.194  39.441  1.00  0.00    -0.744 OA
ENDBRANCH  73  74
ENDBRANCH  54  68
BRANCH  55  78
ATOM     78  C   UNL A   1      36.651  32.925  30.958  1.00  0.00    -0.014 A 
ATOM     79  C   UNL A   1      36.929  33.854  29.937  1.00  0.00     0.010 A 
ATOM     80  C   UNL A   1      35.310  32.699  31.321  1.00  0.00     0.010 A 
ATOM     81  C   UNL A   1      35.897  34.567  29.319  1.00  0.00     0.020 A 
ATOM     82  C   UNL A   1      34.271  33.392  30.685  1.00  0.00     0.020 A 
ATOM     83  C   UNL A   1      34.572  34.331  29.696  1.00  0.00     0.054 A 
BRANCH  83  84
ATOM     84  S   UNL A   1      33.250  35.249  28.856  1.00  0.00     0.124 S 
ATOM     85  O   UNL A   1      32.636  34.215  28.030  1.00  0.00    -0.237 OA
ATOM     86  O   UNL A   1      32.443  35.729  29.975  1.00  0.00    -0.237 OA
ATOM     87  O   UNL A   1      33.968  36.291  28.124  1.00  0.00    -0.744 OA
ENDBRANCH  83  84
ENDBRANCH  55  78
BRANCH  67  88
ATOM     88  C   UNL A   1      39.848  34.148  37.033  1.00  0.00    -0.014 A 
ATOM     89  C   UNL A   1      40.424  35.417  36.847  1.00  0.00     0.010 A 
ATOM     90  C   UNL A   1      39.078  33.911  38.187  1.00  0.00     0.010 A 
ATOM     91  C   UNL A   1      40.271  36.412  37.819  1.00  0.00     0.020 A 
ATOM     92  C   UNL A   1      38.892  34.913  39.143  1.00  0.00     0.020 A 
ATOM     93  C   UNL A   1      39.507  36.153  38.961  1.00  0.00     0.054 A 
BRANCH  93  94
ATOM     94  S   UNL A   1      39.302  37.467  40.194  1.00  0.00     0.124 S 
ATOM     95  O   UNL A   1      38.820  36.723  41.355  1.00  0.00    -0.237 OA
ATOM     96  O   UNL A   1      40.653  38.008  40.313  1.00  0.00    -0.237 OA
ATOM     97  O   UNL A   1      38.327  38.367  39.584  1.00  0.00    -0.744 OA
ENDBRANCH  93  94
ENDBRANCH  67  88
ENDBRANCH  41  42
ENDBRANCH  34  36
ENDBRANCH  33  34
ENDBRANCH  32  33
ENDBRANCH   1  32
TORSDOF 18
ENDMDL
MODEL 2
REMARK VINA RESULT:     -11.6      5.973     11.669
REMARK SMILES O=C(OCCOC(=O)c1ccc(-c2c3nc(c(-c4ccc(S(=O)(=O)[O-])cc4)c4ccc([nH]4)c(-c4ccc(S(=O)(=O)[O-])cc4)c4nc(c(-c5ccc(S(=O)(=O)[O-])cc5)c5ccc2[nH]5)C=C4)C=C3)cc1)c1ccc(NC(=O)[C@@H]2CC=CC[C@@H]2C(=O)Nc2ccc(Br)cc2)cc1
REMARK SMILES IDX 4 1 3 2 2 3 1 4 69 5 70 6 93 7 71 8 92 9 72 10 73 11 74 12
REMARK SMILES IDX 75 14 76 15 77 16 81 17 78 18 80 19 79 20 82 21 83 22 84 23
REMARK SMILES IDX 85 25 86 26 91 27 87 28 90 29 88 30 89 31 5 32 6 33 7 34
REMARK SMILES IDX 8 35 9 36 10 37 68 38 11 39 67 40 12 41 13 42 14 43 61 44
REMARK SMILES IDX 15 45 66 46 60 47 62 48 16 49 65 50 59 51 58 52 17 54 47 55
REMARK SMILES IDX 28 56 46 57 29 58 32 59 45 60 63 61 30 62 31 63 44 65 64 66
REMARK SMILES IDX 33 67 18 68 19 69 27 70 20 71 26 72 21 73 22 74 23 75 24 76
REMARK SMILES IDX 25 77 48 78 49 79 57 80 50 81 56 82 51 83 52 84 53 85 54 86
REMARK SMILES IDX 55 87 34 88 35 89 43 90 36 91 42 92 37 93 38 94 39 95 40 96
REMARK SMILES IDX 41 97
REMARK H PARENT 73 13 84 24 62 53 32 64
REMARK Flexibility Score: inf
ROOT
ATOM      1  C   UNL A   1      33.153  29.676  27.162  1.00  0.00     0.275 C 
ENDROOT
BRANCH   1   2
ATOM      2  O   UNL A   1      33.033  29.157  25.825  1.00  0.00    -0.458 OA
BRANCH   2   3
ATOM      3  C   UNL A   1      31.957  28.983  25.023  1.00  0.00     0.338 C 
ATOM      4  O   UNL A   1      31.116  29.882  24.993  1.00  0.00    -0.246 OA
BRANCH   3   5
ATOM      5  C   UNL A   1      31.720  27.779  24.144  1.00  0.00     0.060 A 
ATOM      6  C   UNL A   1      32.490  27.369  23.051  1.00  0.00     0.018 A 
ATOM      7  C   UNL A   1      30.583  27.000  24.424  1.00  0.00     0.018 A 
ATOM      8  C   UNL A   1      32.264  26.128  22.405  1.00  0.00     0.027 A 
ATOM      9  C   UNL A   1      30.325  25.793  23.739  1.00  0.00     0.027 A 
ATOM     10  C   UNL A   1      31.265  25.267  22.851  1.00  0.00     0.041 A 
BRANCH  10  11
ATOM     11  N   UNL A   1      31.276  23.863  22.610  1.00  0.00    -0.326 N 
ATOM     12  C   UNL A   1      31.930  22.799  23.241  1.00  0.00     0.228 C 
ATOM     13  H   UNL A   1      30.715  23.588  21.849  1.00  0.00     0.169 HD
ATOM     14  O   UNL A   1      31.806  21.670  22.750  1.00  0.00    -0.274 OA
BRANCH  12  15
ATOM     15  C   UNL A   1      32.795  22.967  24.493  1.00  0.00     0.095 C 
ATOM     16  C   UNL A   1      33.051  24.347  25.204  1.00  0.00     0.041 C 
ATOM     17  C   UNL A   1      34.176  22.373  24.350  1.00  0.00     0.095 C 
ATOM     18  C   UNL A   1      33.826  24.135  26.518  1.00  0.00    -0.030 C 
ATOM     19  C   UNL A   1      34.512  21.883  25.786  1.00  0.00     0.041 C 
ATOM     20  C   UNL A   1      34.438  22.975  26.806  1.00  0.00    -0.030 C 
BRANCH  17  21
ATOM     21  C   UNL A   1      35.195  23.268  23.631  1.00  0.00     0.228 C 
ATOM     22  O   UNL A   1      34.865  23.798  22.566  1.00  0.00    -0.274 OA
ATOM     23  N   UNL A   1      36.356  23.712  24.229  1.00  0.00    -0.326 N 
ATOM     24  H   UNL A   1      36.499  24.664  24.026  1.00  0.00     0.169 HD
BRANCH  23  25
ATOM     25  C   UNL A   1      37.404  23.223  25.044  1.00  0.00     0.041 A 
ATOM     26  C   UNL A   1      37.743  21.870  24.882  1.00  0.00     0.027 A 
ATOM     27  C   UNL A   1      38.035  23.908  26.079  1.00  0.00     0.027 A 
ATOM     28  C   UNL A   1      38.779  21.257  25.607  1.00  0.00     0.018 A 
ATOM     29  C   UNL A   1      39.095  23.312  26.803  1.00  0.00     0.018 A 
ATOM     30  C   UNL A   1      39.483  22.000  26.540  1.00  0.00     0.018 A 
ATOM     31  Br  UNL A   1      40.982  21.243  27.408  1.00  0.00    -0.051 Br
ENDBRANCH  23  25
ENDBRANCH  17  21
ENDBRANCH  12  15
ENDBRANCH  10  11
ENDBRANCH   3   5
ENDBRANCH   2   3
ENDBRANCH   1   2
BRANCH   1  32
ATOM     32  C   UNL A   1      34.501  30.303  27.523  1.00  0.00     0.275 C 
BRANCH  32  33
ATOM     33  O   UNL A   1      35.506  29.347  27.879  1.00  0.00    -0.458 OA
BRANCH  33  34
ATOM     34  C   UNL A   1      36.309  29.733  28.902  1.00  0.00     0.338 C 
ATOM     35  O   UNL A   1      35.958  30.326  29.920  1.00  0.00    -0.246 OA
BRANCH  34  36
ATOM     36  C   UNL A   1      37.692  29.302  28.642  1.00  0.00     0.060 A 
ATOM     37  C   UNL A   1      38.442  28.693  29.648  1.00  0.00     0.016 A 
ATOM     38  C   UNL A   1      38.280  29.549  27.409  1.00  0.00     0.016 A 
ATOM     39  C   UNL A   1      39.793  28.369  29.425  1.00  0.00     0.010 A 
ATOM     40  C   UNL A   1      39.597  29.134  27.165  1.00  0.00     0.010 A 
ATOM     41  C   UNL A   1      40.407  28.597  28.181  1.00  0.00    -0.014 A 
BRANCH  41  42
ATOM     42  C   UNL A   1      41.888  28.412  27.967  1.00  0.00     0.031 A 
ATOM     43  C   UNL A   1      42.846  29.527  28.360  1.00  0.00     0.074 A 
ATOM     44  C   UNL A   1      42.421  27.285  27.437  1.00  0.00     0.049 A 
ATOM     45  N   UNL A   1      44.158  29.540  28.326  1.00  0.00    -0.248 NA
ATOM     46  C   UNL A   1      42.263  30.792  28.839  1.00  0.00     0.031 C 
ATOM     47  C   UNL A   1      41.674  26.110  26.997  1.00  0.00     0.029 A 
ATOM     48  N   UNL A   1      43.733  26.939  27.178  1.00  0.00    -0.354 N 
ATOM     49  C   UNL A   1      44.537  30.801  28.776  1.00  0.00     0.074 A 
ATOM     50  C   UNL A   1      43.327  31.564  28.960  1.00  0.00     0.031 C 
ATOM     51  C   UNL A   1      42.521  25.189  26.504  1.00  0.00     0.029 A 
ATOM     52  C   UNL A   1      43.888  25.683  26.630  1.00  0.00     0.049 A 
ATOM     53  H   UNL A   1      44.491  27.537  27.368  1.00  0.00     0.167 HD
ATOM     54  C   UNL A   1      45.766  31.280  29.084  1.00  0.00     0.031 A 
ATOM     55  C   UNL A   1      44.993  24.976  26.305  1.00  0.00     0.031 A 
ATOM     56  C   UNL A   1      46.987  30.539  28.944  1.00  0.00     0.049 A 
ATOM     57  C   UNL A   1      46.358  25.532  26.627  1.00  0.00     0.074 A 
ATOM     58  C   UNL A   1      48.267  30.920  29.306  1.00  0.00     0.029 A 
ATOM     59  N   UNL A   1      47.082  29.272  28.396  1.00  0.00    -0.354 N 
ATOM     60  N   UNL A   1      46.674  26.681  27.176  1.00  0.00    -0.248 NA
ATOM     61  C   UNL A   1      47.514  24.670  26.336  1.00  0.00     0.031 C 
ATOM     62  C   UNL A   1      49.147  29.908  28.915  1.00  0.00     0.029 A 
ATOM     63  C   UNL A   1      48.405  28.867  28.382  1.00  0.00     0.049 A 
ATOM     64  H   UNL A   1      46.322  28.739  28.067  1.00  0.00     0.167 HD
ATOM     65  C   UNL A   1      48.056  26.649  27.351  1.00  0.00     0.074 A 
ATOM     66  C   UNL A   1      48.513  25.371  26.851  1.00  0.00     0.031 C 
ATOM     67  C   UNL A   1      48.864  27.592  27.895  1.00  0.00     0.031 A 
BRANCH  54  68
ATOM     68  C   UNL A   1      45.838  32.684  29.631  1.00  0.00    -0.014 A 
ATOM     69  C   UNL A   1      46.141  33.776  28.793  1.00  0.00     0.010 A 
ATOM     70  C   UNL A   1      45.592  32.917  30.995  1.00  0.00     0.010 A 
ATOM     71  C   UNL A   1      46.257  35.062  29.320  1.00  0.00     0.020 A 
ATOM     72  C   UNL A   1      45.669  34.210  31.519  1.00  0.00     0.020 A 
ATOM     73  C   UNL A   1      46.023  35.271  30.683  1.00  0.00     0.054 A 
BRANCH  73  74
ATOM     74  S   UNL A   1      46.167  36.955  31.337  1.00  0.00     0.124 S 
ATOM     75  O   UNL A   1      46.453  36.706  32.749  1.00  0.00    -0.237 OA
ATOM     76  O   UNL A   1      47.273  37.508  30.560  1.00  0.00    -0.237 OA
ATOM     77  O   UNL A   1      44.860  37.547  31.064  1.00  0.00    -0.744 OA
ENDBRANCH  73  74
ENDBRANCH  54  68
BRANCH  55  78
ATOM     78  C   UNL A   1      44.872  23.605  25.719  1.00  0.00    -0.014 A 
ATOM     79  C   UNL A   1      44.797  22.474  26.554  1.00  0.00     0.010 A 
ATOM     80  C   UNL A   1      44.873  23.418  24.324  1.00  0.00     0.010 A 
ATOM     81  C   UNL A   1      44.762  21.186  26.010  1.00  0.00     0.020 A 
ATOM     82  C   UNL A   1      44.810  22.131  23.776  1.00  0.00     0.020 A 
ATOM     83  C   UNL A   1      44.768  21.022  24.622  1.00  0.00     0.054 A 
BRANCH  83  84
ATOM     84  S   UNL A   1      44.691  19.339  23.943  1.00  0.00     0.124 S 
ATOM     85  O   UNL A   1      43.554  18.771  24.659  1.00  0.00    -0.237 OA
ATOM     86  O   UNL A   1      44.484  19.587  22.519  1.00  0.00    -0.237 OA
ATOM     87  O   UNL A   1      45.994  18.772  24.286  1.00  0.00    -0.744 OA
ENDBRANCH  83  84
ENDBRANCH  55  78
BRANCH  67  88
ATOM     88  C   UNL A   1      50.330  27.267  28.047  1.00  0.00    -0.014 A 
ATOM     89  C   UNL A   1      51.276  27.631  27.073  1.00  0.00     0.010 A 
ATOM     90  C   UNL A   1      50.772  26.631  29.223  1.00  0.00     0.010 A 
ATOM     91  C   UNL A   1      52.628  27.324  27.251  1.00  0.00     0.020 A 
ATOM     92  C   UNL A   1      52.127  26.354  29.421  1.00  0.00     0.020 A 
ATOM     93  C   UNL A   1      53.045  26.685  28.424  1.00  0.00     0.054 A 
BRANCH  93  94
ATOM     94  S   UNL A   1      54.808  26.320  28.643  1.00  0.00     0.124 S 
ATOM     95  O   UNL A   1      54.888  26.056  30.076  1.00  0.00    -0.237 OA
ATOM     96  O   UNL A   1      55.004  25.159  27.778  1.00  0.00    -0.237 OA
ATOM     97  O   UNL A   1      55.474  27.541  28.197  1.00  0.00    -0.744 OA
ENDBRANCH  93  94
ENDBRANCH  67  88
ENDBRANCH  41  42
ENDBRANCH  34  36
ENDBRANCH  33  34
ENDBRANCH  32  33
ENDBRANCH   1  32
TORSDOF 18
ENDMDL
MODEL 3
REMARK VINA RESULT:     -11.6      1.685      2.346
REMARK SMILES O=C(OCCOC(=O)c1ccc(-c2c3nc(c(-c4ccc(S(=O)(=O)[O-])cc4)c4ccc([nH]4)c(-c4ccc(S(=O)(=O)[O-])cc4)c4nc(c(-c5ccc(S(=O)(=O)[O-])cc5)c5ccc2[nH]5)C=C4)C=C3)cc1)c1ccc(NC(=O)[C@@H]2CC=CC[C@@H]2C(=O)Nc2ccc(Br)cc2)cc1
REMARK SMILES IDX 4 1 3 2 2 3 1 4 69 5 70 6 93 7 71 8 92 9 72 10 73 11 74 12
REMARK SMILES IDX 75 14 76 15 77 16 81 17 78 18 80 19 79 20 82 21 83 22 84 23
REMARK SMILES IDX 85 25 86 26 91 27 87 28 90 29 88 30 89 31 5 32 6 33 7 34
REMARK SMILES IDX 8 35 9 36 10 37 68 38 11 39 67 40 12 41 13 42 14 43 61 44
REMARK SMILES IDX 15 45 66 46 60 47 62 48 16 49 65 50 59 51 58 52 17 54 47 55
REMARK SMILES IDX 28 56 46 57 29 58 32 59 45 60 63 61 30 62 31 63 44 65 64 66
REMARK SMILES IDX 33 67 18 68 19 69 27 70 20 71 26 72 21 73 22 74 23 75 24 76
REMARK SMILES IDX 25 77 48 78 49 79 57 80 50 81 56 82 51 83 52 84 53 85 54 86
REMARK SMILES IDX 55 87 34 88 35 89 43 90 36 91 42 92 37 93 38 94 39 95 40 96
REMARK SMILES IDX 41 97
REMARK H PARENT 73 13 84 24 62 53 32 64
REMARK Flexibility Score: inf
ROOT
ATOM      1  C   UNL A   1      42.359  23.314  25.994  1.00  0.00     0.275 C 
ENDROOT
BRANCH   1   2
ATOM      2  O   UNL A   1      41.226  22.918  26.789  1.00  0.00    -0.458 OA
BRANCH   2   3
ATOM      3  C   UNL A   1      40.210  22.061  26.538  1.00  0.00     0.338 C 
ATOM      4  O   UNL A   1      40.418  20.860  26.714  1.00  0.00    -0.246 OA
BRANCH   3   5
ATOM      5  C   UNL A   1      38.830  22.467  26.078  1.00  0.00     0.060 A 
ATOM      6  C   UNL A   1      38.189  23.687  26.313  1.00  0.00     0.018 A 
ATOM      7  C   UNL A   1      38.087  21.507  25.368  1.00  0.00     0.018 A 
ATOM      8  C   UNL A   1      36.960  24.015  25.689  1.00  0.00     0.027 A 
ATOM      9  C   UNL A   1      36.834  21.815  24.796  1.00  0.00     0.027 A 
ATOM     10  C   UNL A   1      36.353  23.125  24.806  1.00  0.00     0.041 A 
BRANCH  10  11
ATOM     11  N   UNL A   1      35.431  23.529  23.799  1.00  0.00    -0.326 N 
ATOM     12  C   UNL A   1      34.250  22.957  23.310  1.00  0.00     0.228 C 
ATOM     13  H   UNL A   1      35.670  24.377  23.359  1.00  0.00     0.169 HD
ATOM     14  O   UNL A   1      33.690  23.511  22.357  1.00  0.00    -0.274 OA
BRANCH  12  15
ATOM     15  C   UNL A   1      33.633  21.681  23.890  1.00  0.00     0.095 C 
ATOM     16  C   UNL A   1      32.482  20.867  23.191  1.00  0.00     0.041 C 
ATOM     17  C   UNL A   1      33.150  21.843  25.311  1.00  0.00     0.095 C 
ATOM     18  C   UNL A   1      32.212  19.559  23.957  1.00  0.00    -0.030 C 
ATOM     19  C   UNL A   1      33.387  20.441  25.938  1.00  0.00     0.041 C 
ATOM     20  C   UNL A   1      32.689  19.345  25.195  1.00  0.00    -0.030 C 
BRANCH  17  21
ATOM     21  C   UNL A   1      31.760  22.477  25.454  1.00  0.00     0.228 C 
ATOM     22  O   UNL A   1      30.808  21.749  25.751  1.00  0.00    -0.274 OA
ATOM     23  N   UNL A   1      31.560  23.840  25.517  1.00  0.00    -0.326 N 
ATOM     24  H   UNL A   1      30.908  24.055  26.222  1.00  0.00     0.169 HD
BRANCH  23  25
ATOM     25  C   UNL A   1      32.003  25.024  24.883  1.00  0.00     0.041 A 
ATOM     26  C   UNL A   1      33.121  25.658  25.451  1.00  0.00     0.027 A 
ATOM     27  C   UNL A   1      31.363  25.696  23.845  1.00  0.00     0.027 A 
ATOM     28  C   UNL A   1      33.683  26.827  24.912  1.00  0.00     0.018 A 
ATOM     29  C   UNL A   1      31.929  26.863  23.277  1.00  0.00     0.018 A 
ATOM     30  C   UNL A   1      33.105  27.403  23.793  1.00  0.00     0.018 A 
ATOM     31  Br  UNL A   1      33.937  28.880  22.958  1.00  0.00    -0.051 Br
ENDBRANCH  23  25
ENDBRANCH  17  21
ENDBRANCH  12  15
ENDBRANCH  10  11
ENDBRANCH   3   5
ENDBRANCH   2   3
ENDBRANCH   1   2
BRANCH   1  32
ATOM     32  C   UNL A   1      42.567  24.819  25.820  1.00  0.00     0.275 C 
BRANCH  32  33
ATOM     33  O   UNL A   1      41.417  25.604  26.156  1.00  0.00    -0.458 OA
BRANCH  33  34
ATOM     34  C   UNL A   1      41.575  26.938  25.971  1.00  0.00     0.338 C 
ATOM     35  O   UNL A   1      41.933  27.493  24.935  1.00  0.00    -0.246 OA
BRANCH  34  36
ATOM     36  C   UNL A   1      41.215  27.659  27.203  1.00  0.00     0.060 A 
ATOM     37  C   UNL A   1      41.675  28.958  27.421  1.00  0.00     0.016 A 
ATOM     38  C   UNL A   1      40.460  27.031  28.184  1.00  0.00     0.016 A 
ATOM     39  C   UNL A   1      41.408  29.608  28.640  1.00  0.00     0.010 A 
ATOM     40  C   UNL A   1      40.118  27.723  29.355  1.00  0.00     0.010 A 
ATOM     41  C   UNL A   1      40.635  28.998  29.642  1.00  0.00    -0.014 A 
BRANCH  41  42
ATOM     42  C   UNL A   1      40.473  29.602  31.015  1.00  0.00     0.031 A 
ATOM     43  C   UNL A   1      41.477  29.262  32.106  1.00  0.00     0.074 A 
ATOM     44  C   UNL A   1      39.464  30.449  31.332  1.00  0.00     0.049 A 
ATOM     45  N   UNL A   1      41.559  29.731  33.329  1.00  0.00    -0.248 NA
ATOM     46  C   UNL A   1      42.513  28.263  31.793  1.00  0.00     0.031 C 
ATOM     47  C   UNL A   1      38.404  30.894  30.432  1.00  0.00     0.029 A 
ATOM     48  N   UNL A   1      39.164  31.096  32.515  1.00  0.00    -0.354 N 
ATOM     49  C   UNL A   1      42.644  29.084  33.912  1.00  0.00     0.074 A 
ATOM     50  C   UNL A   1      43.114  28.108  32.959  1.00  0.00     0.031 C 
ATOM     51  C   UNL A   1      37.562  31.712  31.087  1.00  0.00     0.029 A 
ATOM     52  C   UNL A   1      38.041  31.895  32.453  1.00  0.00     0.049 A 
ATOM     53  H   UNL A   1      39.705  30.996  33.331  1.00  0.00     0.167 HD
ATOM     54  C   UNL A   1      43.257  29.312  35.098  1.00  0.00     0.031 A 
ATOM     55  C   UNL A   1      37.475  32.720  33.361  1.00  0.00     0.031 A 
ATOM     56  C   UNL A   1      42.838  30.296  36.054  1.00  0.00     0.049 A 
ATOM     57  C   UNL A   1      38.152  32.944  34.690  1.00  0.00     0.074 A 
ATOM     58  C   UNL A   1      43.447  30.647  37.246  1.00  0.00     0.029 A 
ATOM     59  N   UNL A   1      41.704  31.080  35.934  1.00  0.00    -0.354 N 
ATOM     60  N   UNL A   1      39.255  32.410  35.157  1.00  0.00    -0.248 NA
ATOM     61  C   UNL A   1      37.535  33.929  35.594  1.00  0.00     0.031 C 
ATOM     62  C   UNL A   1      42.644  31.599  37.879  1.00  0.00     0.029 A 
ATOM     63  C   UNL A   1      41.578  31.895  37.046  1.00  0.00     0.049 A 
ATOM     64  H   UNL A   1      41.081  31.062  35.171  1.00  0.00     0.167 HD
ATOM     65  C   UNL A   1      39.494  33.039  36.377  1.00  0.00     0.074 A 
ATOM     66  C   UNL A   1      38.423  33.992  36.575  1.00  0.00     0.031 C 
ATOM     67  C   UNL A   1      40.521  32.852  37.242  1.00  0.00     0.031 A 
BRANCH  54  68
ATOM     68  C   UNL A   1      44.477  28.482  35.412  1.00  0.00    -0.014 A 
ATOM     69  C   UNL A   1      45.766  28.920  35.052  1.00  0.00     0.010 A 
ATOM     70  C   UNL A   1      44.334  27.255  36.081  1.00  0.00     0.010 A 
ATOM     71  C   UNL A   1      46.882  28.120  35.300  1.00  0.00     0.020 A 
ATOM     72  C   UNL A   1      45.454  26.468  36.366  1.00  0.00     0.020 A 
ATOM     73  C   UNL A   1      46.718  26.895  35.954  1.00  0.00     0.054 A 
BRANCH  73  74
ATOM     74  S   UNL A   1      48.185  25.882  36.276  1.00  0.00     0.124 S 
ATOM     75  O   UNL A   1      48.303  25.975  37.729  1.00  0.00    -0.237 OA
ATOM     76  O   UNL A   1      47.792  24.574  35.761  1.00  0.00    -0.237 OA
ATOM     77  O   UNL A   1      49.243  26.552  35.523  1.00  0.00    -0.744 OA
ENDBRANCH  73  74
ENDBRANCH  54  68
BRANCH  55  78
ATOM     78  C   UNL A   1      36.237  33.487  33.022  1.00  0.00    -0.014 A 
ATOM     79  C   UNL A   1      36.308  34.858  32.708  1.00  0.00     0.010 A 
ATOM     80  C   UNL A   1      34.975  32.864  33.052  1.00  0.00     0.010 A 
ATOM     81  C   UNL A   1      35.145  35.596  32.466  1.00  0.00     0.020 A 
ATOM     82  C   UNL A   1      33.811  33.594  32.783  1.00  0.00     0.020 A 
ATOM     83  C   UNL A   1      33.902  34.959  32.505  1.00  0.00     0.054 A 
BRANCH  83  84
ATOM     84  S   UNL A   1      32.411  35.936  32.157  1.00  0.00     0.124 S 
ATOM     85  O   UNL A   1      32.695  37.188  32.850  1.00  0.00    -0.237 OA
ATOM     86  O   UNL A   1      32.415  36.003  30.698  1.00  0.00    -0.237 OA
ATOM     87  O   UNL A   1      31.334  35.133  32.733  1.00  0.00    -0.744 OA
ENDBRANCH  83  84
ENDBRANCH  55  78
BRANCH  67  88
ATOM     88  C   UNL A   1      40.590  33.735  38.463  1.00  0.00    -0.014 A 
ATOM     89  C   UNL A   1      40.079  33.323  39.707  1.00  0.00     0.010 A 
ATOM     90  C   UNL A   1      41.233  34.984  38.370  1.00  0.00     0.010 A 
ATOM     91  C   UNL A   1      40.169  34.163  40.821  1.00  0.00     0.020 A 
ATOM     92  C   UNL A   1      41.357  35.811  39.489  1.00  0.00     0.020 A 
ATOM     93  C   UNL A   1      40.806  35.403  40.705  1.00  0.00     0.054 A 
BRANCH  93  94
ATOM     94  S   UNL A   1      40.932  36.464  42.171  1.00  0.00     0.124 S 
ATOM     95  O   UNL A   1      40.751  35.505  43.257  1.00  0.00    -0.237 OA
ATOM     96  O   UNL A   1      42.274  37.025  42.045  1.00  0.00    -0.237 OA
ATOM     97  O   UNL A   1      39.843  37.423  42.000  1.00  0.00    -0.744 OA
ENDBRANCH  93  94
ENDBRANCH  67  88
ENDBRANCH  41  42
ENDBRANCH  34  36
ENDBRANCH  33  34
ENDBRANCH  32  33
ENDBRANCH   1  32
TORSDOF 18
ENDMDL
