MODEL 1
REMARK VINA RESULT:      -8.9      0.000      0.000
REMARK SMILES Nc1c(CC(=O)OCCOC(=O)c2ccc(-c3c4nc(c(-c5ccc(S(=O)(=O)[O-])cc5)c5ccc([nH]5)c(-c5ccc(S(=O)(=O)[O-])cc5)c5nc(c(-c6ccc(S(=O)(=O)[O-])cc6)c6ccc3[nH]6)C=C5)C=C4)cc2)cccc1C(=O)c1ccc(Br)cc1
REMARK SMILES IDX 8 1 7 2 5 3 6 4 4 5 3 6 2 7 76 8 73 9 75 10 74 11 1 12 77 15
REMARK SMILES IDX 78 16 79 17 80 18 85 19 81 20 84 21 82 22 83 23 9 24 10 25
REMARK SMILES IDX 11 26 12 27 13 28 14 29 72 30 15 31 71 32 16 33 17 34 18 35
REMARK SMILES IDX 65 36 19 37 70 38 64 39 66 40 20 41 69 42 63 43 62 44 21 46
REMARK SMILES IDX 51 47 32 48 50 49 33 50 36 51 49 52 67 53 34 54 35 55 48 57
REMARK SMILES IDX 68 58 37 59 22 60 23 61 31 62 24 63 30 64 25 65 26 66 27 67
REMARK SMILES IDX 28 68 29 69 52 70 53 71 61 72 54 73 60 74 55 75 56 76 57 77
REMARK SMILES IDX 58 78 59 79 38 80 39 81 47 82 40 83 46 84 41 85 42 86 43 87
REMARK SMILES IDX 44 88 45 89
REMARK H PARENT 1 13 1 14 66 45 36 56
REMARK Flexibility Score: inf
ROOT
ATOM      1  C   UNL A   1      34.780  33.612  29.482  1.00  0.00     0.274 C 
ENDROOT
BRANCH   1   2
ATOM      2  O   UNL A   1      34.152  32.952  30.597  1.00  0.00    -0.462 OA
BRANCH   2   3
ATOM      3  C   UNL A   1      34.932  32.746  31.689  1.00  0.00     0.310 C 
ATOM      4  O   UNL A   1      34.565  32.915  32.848  1.00  0.00    -0.252 OA
BRANCH   3   5
ATOM      5  C   UNL A   1      36.313  32.227  31.369  1.00  0.00     0.160 C 
BRANCH   5   6
ATOM      6  C   UNL A   1      37.382  32.432  32.418  1.00  0.00    -0.013 A 
ATOM      7  C   UNL A   1      37.785  31.389  33.279  1.00  0.00     0.047 A 
ATOM      8  C   UNL A   1      38.925  31.604  34.091  1.00  0.00     0.046 A 
ATOM      9  C   UNL A   1      37.976  33.704  32.520  1.00  0.00     0.006 A 
ATOM     10  C   UNL A   1      39.507  32.882  34.176  1.00  0.00     0.014 A 
ATOM     11  C   UNL A   1      39.017  33.933  33.412  1.00  0.00     0.001 A 
BRANCH   7  12
ATOM     12  N   UNL A   1      37.107  30.170  33.234  1.00  0.00    -0.398 N 
ATOM     13  H   UNL A   1      36.631  29.842  34.031  1.00  0.00     0.156 HD
ATOM     14  H   UNL A   1      37.105  29.638  32.406  1.00  0.00     0.156 HD
ENDBRANCH   7  12
BRANCH   8  15
ATOM     15  C   UNL A   1      39.584  30.538  34.902  1.00  0.00     0.195 C 
ATOM     16  O   UNL A   1      39.130  30.213  35.997  1.00  0.00    -0.289 OA
BRANCH  15  17
ATOM     17  C   UNL A   1      40.786  29.829  34.407  1.00  0.00     0.023 A 
ATOM     18  C   UNL A   1      42.030  30.221  34.916  1.00  0.00     0.013 A 
ATOM     19  C   UNL A   1      40.688  28.735  33.538  1.00  0.00     0.013 A 
ATOM     20  C   UNL A   1      43.169  29.475  34.612  1.00  0.00     0.016 A 
ATOM     21  C   UNL A   1      41.831  27.992  33.233  1.00  0.00     0.016 A 
ATOM     22  C   UNL A   1      43.061  28.356  33.784  1.00  0.00     0.018 A 
ATOM     23  Br  UNL A   1      44.593  27.307  33.430  1.00  0.00    -0.051 Br
ENDBRANCH  15  17
ENDBRANCH   8  15
ENDBRANCH   5   6
ENDBRANCH   3   5
ENDBRANCH   2   3
ENDBRANCH   1   2
BRANCH   1  24
ATOM     24  C   UNL A   1      34.540  32.814  28.204  1.00  0.00     0.275 C 
BRANCH  24  25
ATOM     25  O   UNL A   1      34.115  31.479  28.534  1.00  0.00    -0.458 OA
BRANCH  25  26
ATOM     26  C   UNL A   1      34.506  30.517  27.666  1.00  0.00     0.338 C 
ATOM     27  O   UNL A   1      33.910  30.109  26.686  1.00  0.00    -0.246 OA
BRANCH  26  28
ATOM     28  C   UNL A   1      35.808  29.981  28.084  1.00  0.00     0.060 A 
ATOM     29  C   UNL A   1      35.981  29.457  29.367  1.00  0.00     0.016 A 
ATOM     30  C   UNL A   1      36.892  30.103  27.216  1.00  0.00     0.016 A 
ATOM     31  C   UNL A   1      37.257  29.110  29.810  1.00  0.00     0.010 A 
ATOM     32  C   UNL A   1      38.151  29.676  27.633  1.00  0.00     0.010 A 
ATOM     33  C   UNL A   1      38.352  29.199  28.941  1.00  0.00    -0.014 A 
BRANCH  33  34
ATOM     34  C   UNL A   1      39.720  28.801  29.361  1.00  0.00     0.031 A 
ATOM     35  C   UNL A   1      40.613  29.810  30.028  1.00  0.00     0.074 A 
ATOM     36  C   UNL A   1      40.187  27.571  29.075  1.00  0.00     0.049 A 
ATOM     37  N   UNL A   1      41.909  29.779  30.202  1.00  0.00    -0.248 NA
ATOM     38  C   UNL A   1      39.962  31.023  30.551  1.00  0.00     0.031 C 
ATOM     39  C   UNL A   1      39.409  26.479  28.487  1.00  0.00     0.029 A 
ATOM     40  N   UNL A   1      41.446  27.041  29.216  1.00  0.00    -0.354 N 
ATOM     41  C   UNL A   1      42.237  30.986  30.808  1.00  0.00     0.074 A 
ATOM     42  C   UNL A   1      41.004  31.727  30.974  1.00  0.00     0.031 C 
ATOM     43  C   UNL A   1      40.207  25.415  28.312  1.00  0.00     0.029 A 
ATOM     44  C   UNL A   1      41.568  25.774  28.696  1.00  0.00     0.049 A 
ATOM     45  H   UNL A   1      42.189  27.522  29.647  1.00  0.00     0.167 HD
ATOM     46  C   UNL A   1      43.459  31.440  31.177  1.00  0.00     0.031 A 
ATOM     47  C   UNL A   1      42.657  25.009  28.492  1.00  0.00     0.031 A 
ATOM     48  C   UNL A   1      44.675  30.686  31.018  1.00  0.00     0.049 A 
ATOM     49  C   UNL A   1      44.011  25.553  28.851  1.00  0.00     0.074 A 
ATOM     50  C   UNL A   1      45.967  31.054  31.353  1.00  0.00     0.029 A 
ATOM     51  N   UNL A   1      44.746  29.407  30.489  1.00  0.00    -0.354 N 
ATOM     52  N   UNL A   1      44.316  26.718  29.371  1.00  0.00    -0.248 NA
ATOM     53  C   UNL A   1      45.167  24.687  28.584  1.00  0.00     0.031 C 
ATOM     54  C   UNL A   1      46.824  30.008  30.996  1.00  0.00     0.029 A 
ATOM     55  C   UNL A   1      46.059  28.972  30.482  1.00  0.00     0.049 A 
ATOM     56  H   UNL A   1      43.977  28.885  30.166  1.00  0.00     0.167 HD
ATOM     57  C   UNL A   1      45.698  26.714  29.519  1.00  0.00     0.074 A 
ATOM     58  C   UNL A   1      46.169  25.432  29.035  1.00  0.00     0.031 C 
ATOM     59  C   UNL A   1      46.503  27.684  30.014  1.00  0.00     0.031 A 
BRANCH  46  60
ATOM     60  C   UNL A   1      43.547  32.829  31.746  1.00  0.00    -0.014 A 
ATOM     61  C   UNL A   1      43.855  33.935  30.934  1.00  0.00     0.010 A 
ATOM     62  C   UNL A   1      43.280  33.036  33.112  1.00  0.00     0.010 A 
ATOM     63  C   UNL A   1      43.933  35.216  31.486  1.00  0.00     0.020 A 
ATOM     64  C   UNL A   1      43.335  34.319  33.663  1.00  0.00     0.020 A 
ATOM     65  C   UNL A   1      43.680  35.399  32.850  1.00  0.00     0.054 A 
BRANCH  65  66
ATOM     66  S   UNL A   1      43.776  37.074  33.541  1.00  0.00     0.124 S 
ATOM     67  O   UNL A   1      42.601  37.107  34.409  1.00  0.00    -0.237 OA
ATOM     68  O   UNL A   1      45.064  37.066  34.231  1.00  0.00    -0.237 OA
ATOM     69  O   UNL A   1      43.707  37.939  32.367  1.00  0.00    -0.744 OA
ENDBRANCH  65  66
ENDBRANCH  46  60
BRANCH  47  70
ATOM     70  C   UNL A   1      42.508  23.667  27.869  1.00  0.00    -0.014 A 
ATOM     71  C   UNL A   1      42.700  23.501  26.487  1.00  0.00     0.010 A 
ATOM     72  C   UNL A   1      42.206  22.543  28.660  1.00  0.00     0.010 A 
ATOM     73  C   UNL A   1      42.586  22.234  25.905  1.00  0.00     0.020 A 
ATOM     74  C   UNL A   1      42.116  21.272  28.086  1.00  0.00     0.020 A 
ATOM     75  C   UNL A   1      42.297  21.128  26.710  1.00  0.00     0.054 A 
BRANCH  75  76
ATOM     76  S   UNL A   1      42.218  19.483  25.946  1.00  0.00     0.124 S 
ATOM     77  O   UNL A   1      43.104  19.641  24.797  1.00  0.00    -0.237 OA
ATOM     78  O   UNL A   1      42.710  18.614  27.011  1.00  0.00    -0.237 OA
ATOM     79  O   UNL A   1      40.801  19.324  25.628  1.00  0.00    -0.744 OA
ENDBRANCH  75  76
ENDBRANCH  47  70
BRANCH  59  80
ATOM     80  C   UNL A   1      47.972  27.384  30.117  1.00  0.00    -0.014 A 
ATOM     81  C   UNL A   1      48.851  27.680  29.063  1.00  0.00     0.010 A 
ATOM     82  C   UNL A   1      48.487  26.890  31.330  1.00  0.00     0.010 A 
ATOM     83  C   UNL A   1      50.225  27.480  29.218  1.00  0.00     0.020 A 
ATOM     84  C   UNL A   1      49.860  26.707  31.494  1.00  0.00     0.020 A 
ATOM     85  C   UNL A   1      50.722  26.999  30.434  1.00  0.00     0.054 A 
BRANCH  85  86
ATOM     86  S   UNL A   1      52.516  26.832  30.642  1.00  0.00     0.124 S 
ATOM     87  O   UNL A   1      52.607  25.959  31.809  1.00  0.00    -0.237 OA
ATOM     88  O   UNL A   1      52.934  26.235  29.376  1.00  0.00    -0.237 OA
ATOM     89  O   UNL A   1      52.968  28.206  30.854  1.00  0.00    -0.744 OA
ENDBRANCH  85  86
ENDBRANCH  59  80
ENDBRANCH  33  34
ENDBRANCH  26  28
ENDBRANCH  25  26
ENDBRANCH  24  25
ENDBRANCH   1  24
TORSDOF 18
ENDMDL
MODEL 2
REMARK VINA RESULT:      -8.6      3.857      6.576
REMARK SMILES Nc1c(CC(=O)OCCOC(=O)c2ccc(-c3c4nc(c(-c5ccc(S(=O)(=O)[O-])cc5)c5ccc([nH]5)c(-c5ccc(S(=O)(=O)[O-])cc5)c5nc(c(-c6ccc(S(=O)(=O)[O-])cc6)c6ccc3[nH]6)C=C5)C=C4)cc2)cccc1C(=O)c1ccc(Br)cc1
REMARK SMILES IDX 8 1 7 2 5 3 6 4 4 5 3 6 2 7 76 8 73 9 75 10 74 11 1 12 77 15
REMARK SMILES IDX 78 16 79 17 80 18 85 19 81 20 84 21 82 22 83 23 9 24 10 25
REMARK SMILES IDX 11 26 12 27 13 28 14 29 72 30 15 31 71 32 16 33 17 34 18 35
REMARK SMILES IDX 65 36 19 37 70 38 64 39 66 40 20 41 69 42 63 43 62 44 21 46
REMARK SMILES IDX 51 47 32 48 50 49 33 50 36 51 49 52 67 53 34 54 35 55 48 57
REMARK SMILES IDX 68 58 37 59 22 60 23 61 31 62 24 63 30 64 25 65 26 66 27 67
REMARK SMILES IDX 28 68 29 69 52 70 53 71 61 72 54 73 60 74 55 75 56 76 57 77
REMARK SMILES IDX 58 78 59 79 38 80 39 81 47 82 40 83 46 84 41 85 42 86 43 87
REMARK SMILES IDX 44 88 45 89
REMARK H PARENT 1 13 1 14 66 45 36 56
REMARK Flexibility Score: inf
ROOT
ATOM      1  C   UNL A   1      31.772  28.454  27.019  1.00  0.00     0.274 C 
ENDROOT
BRANCH   1   2
ATOM      2  O   UNL A   1      32.331  27.663  25.955  1.00  0.00    -0.462 OA
BRANCH   2   3
ATOM      3  C   UNL A   1      31.638  27.653  24.787  1.00  0.00     0.310 C 
ATOM      4  O   UNL A   1      31.951  28.290  23.786  1.00  0.00    -0.252 OA
BRANCH   3   5
ATOM      5  C   UNL A   1      30.442  26.732  24.790  1.00  0.00     0.160 C 
BRANCH   5   6
ATOM      6  C   UNL A   1      30.713  25.258  24.992  1.00  0.00    -0.013 A 
ATOM      7  C   UNL A   1      31.425  24.499  24.040  1.00  0.00     0.047 A 
ATOM      8  C   UNL A   1      31.808  23.182  24.396  1.00  0.00     0.046 A 
ATOM      9  C   UNL A   1      30.231  24.650  26.167  1.00  0.00     0.006 A 
ATOM     10  C   UNL A   1      31.320  22.594  25.576  1.00  0.00     0.014 A 
ATOM     11  C   UNL A   1      30.514  23.318  26.445  1.00  0.00     0.001 A 
BRANCH   7  12
ATOM     12  N   UNL A   1      31.797  25.094  22.834  1.00  0.00    -0.398 N 
ATOM     13  H   UNL A   1      32.744  25.110  22.564  1.00  0.00     0.156 HD
ATOM     14  H   UNL A   1      31.113  25.499  22.254  1.00  0.00     0.156 HD
ENDBRANCH   7  12
BRANCH   8  15
ATOM     15  C   UNL A   1      32.725  22.331  23.581  1.00  0.00     0.195 C 
ATOM     16  O   UNL A   1      32.333  21.805  22.541  1.00  0.00    -0.289 OA
BRANCH  15  17
ATOM     17  C   UNL A   1      34.133  22.113  23.984  1.00  0.00     0.023 A 
ATOM     18  C   UNL A   1      35.079  23.067  23.590  1.00  0.00     0.013 A 
ATOM     19  C   UNL A   1      34.503  21.048  24.815  1.00  0.00     0.013 A 
ATOM     20  C   UNL A   1      36.381  22.996  24.087  1.00  0.00     0.016 A 
ATOM     21  C   UNL A   1      35.808  20.978  25.307  1.00  0.00     0.016 A 
ATOM     22  C   UNL A   1      36.735  21.961  24.953  1.00  0.00     0.018 A 
ATOM     23  Br  UNL A   1      38.479  21.906  25.679  1.00  0.00    -0.051 Br
ENDBRANCH  15  17
ENDBRANCH   8  15
ENDBRANCH   5   6
ENDBRANCH   3   5
ENDBRANCH   2   3
ENDBRANCH   1   2
BRANCH   1  24
ATOM     24  C   UNL A   1      32.471  29.809  27.082  1.00  0.00     0.275 C 
BRANCH  24  25
ATOM     25  O   UNL A   1      33.896  29.621  27.160  1.00  0.00    -0.458 OA
BRANCH  25  26
ATOM     26  C   UNL A   1      34.554  30.509  27.940  1.00  0.00     0.338 C 
ATOM     27  O   UNL A   1      34.154  31.585  28.347  1.00  0.00    -0.246 OA
BRANCH  26  28
ATOM     28  C   UNL A   1      35.896  29.994  28.243  1.00  0.00     0.060 A 
ATOM     29  C   UNL A   1      36.211  29.549  29.529  1.00  0.00     0.016 A 
ATOM     30  C   UNL A   1      36.877  30.059  27.255  1.00  0.00     0.016 A 
ATOM     31  C   UNL A   1      37.530  29.225  29.848  1.00  0.00     0.010 A 
ATOM     32  C   UNL A   1      38.176  29.654  27.555  1.00  0.00     0.010 A 
ATOM     33  C   UNL A   1      38.522  29.256  28.860  1.00  0.00    -0.014 A 
BRANCH  33  34
ATOM     34  C   UNL A   1      39.928  28.880  29.150  1.00  0.00     0.031 A 
ATOM     35  C   UNL A   1      40.886  29.924  29.654  1.00  0.00     0.074 A 
ATOM     36  C   UNL A   1      40.366  27.633  28.886  1.00  0.00     0.049 A 
ATOM     37  N   UNL A   1      42.193  29.899  29.687  1.00  0.00    -0.248 NA
ATOM     38  C   UNL A   1      40.292  31.167  30.175  1.00  0.00     0.031 C 
ATOM     39  C   UNL A   1      39.532  26.512  28.451  1.00  0.00     0.029 A 
ATOM     40  N   UNL A   1      41.635  27.110  28.918  1.00  0.00    -0.354 N 
ATOM     41  C   UNL A   1      42.581  31.138  30.182  1.00  0.00     0.074 A 
ATOM     42  C   UNL A   1      41.372  31.891  30.440  1.00  0.00     0.031 C 
ATOM     43  C   UNL A   1      40.310  25.437  28.251  1.00  0.00     0.029 A 
ATOM     44  C   UNL A   1      41.703  25.815  28.462  1.00  0.00     0.049 A 
ATOM     45  H   UNL A   1      42.419  27.613  29.236  1.00  0.00     0.167 HD
ATOM     46  C   UNL A   1      43.835  31.609  30.388  1.00  0.00     0.031 A 
ATOM     47  C   UNL A   1      42.766  25.036  28.184  1.00  0.00     0.031 A 
ATOM     48  C   UNL A   1      45.029  30.844  30.141  1.00  0.00     0.049 A 
ATOM     49  C   UNL A   1      44.149  25.596  28.360  1.00  0.00     0.074 A 
ATOM     50  C   UNL A   1      46.348  31.227  30.310  1.00  0.00     0.029 A 
ATOM     51  N   UNL A   1      45.046  29.536  29.682  1.00  0.00    -0.354 N 
ATOM     52  N   UNL A   1      44.506  26.788  28.776  1.00  0.00    -0.248 NA
ATOM     53  C   UNL A   1      45.272  24.713  28.019  1.00  0.00     0.031 C 
ATOM     54  C   UNL A   1      47.165  30.160  29.922  1.00  0.00     0.029 A 
ATOM     55  C   UNL A   1      46.352  29.098  29.556  1.00  0.00     0.049 A 
ATOM     56  H   UNL A   1      44.248  28.999  29.476  1.00  0.00     0.167 HD
ATOM     57  C   UNL A   1      45.895  26.789  28.771  1.00  0.00     0.074 A 
ATOM     58  C   UNL A   1      46.315  25.479  28.313  1.00  0.00     0.031 C 
ATOM     59  C   UNL A   1      46.746  27.784  29.118  1.00  0.00     0.031 A 
BRANCH  46  60
ATOM     60  C   UNL A   1      43.979  33.028  30.862  1.00  0.00    -0.014 A 
ATOM     61  C   UNL A   1      44.003  34.105  29.958  1.00  0.00     0.010 A 
ATOM     62  C   UNL A   1      44.058  33.293  32.242  1.00  0.00     0.010 A 
ATOM     63  C   UNL A   1      44.140  35.415  30.422  1.00  0.00     0.020 A 
ATOM     64  C   UNL A   1      44.173  34.604  32.712  1.00  0.00     0.020 A 
ATOM     65  C   UNL A   1      44.232  35.656  31.797  1.00  0.00     0.054 A 
BRANCH  65  66
ATOM     66  S   UNL A   1      44.398  37.368  32.377  1.00  0.00     0.124 S 
ATOM     67  O   UNL A   1      45.695  37.331  33.048  1.00  0.00    -0.237 OA
ATOM     68  O   UNL A   1      44.357  38.136  31.135  1.00  0.00    -0.237 OA
ATOM     69  O   UNL A   1      43.246  37.549  33.256  1.00  0.00    -0.744 OA
ENDBRANCH  65  66
ENDBRANCH  46  60
BRANCH  47  70
ATOM     70  C   UNL A   1      42.555  23.660  27.660  1.00  0.00    -0.014 A 
ATOM     71  C   UNL A   1      42.599  23.412  26.278  1.00  0.00     0.010 A 
ATOM     72  C   UNL A   1      42.340  22.585  28.543  1.00  0.00     0.010 A 
ATOM     73  C   UNL A   1      42.426  22.114  25.787  1.00  0.00     0.020 A 
ATOM     74  C   UNL A   1      42.192  21.284  28.057  1.00  0.00     0.020 A 
ATOM     75  C   UNL A   1      42.227  21.058  26.680  1.00  0.00     0.054 A 
BRANCH  75  76
ATOM     76  S   UNL A   1      42.070  19.373  26.027  1.00  0.00     0.124 S 
ATOM     77  O   UNL A   1      42.566  18.570  27.141  1.00  0.00    -0.237 OA
ATOM     78  O   UNL A   1      40.639  19.267  25.758  1.00  0.00    -0.237 OA
ATOM     79  O   UNL A   1      42.919  19.388  24.838  1.00  0.00    -0.744 OA
ENDBRANCH  75  76
ENDBRANCH  47  70
BRANCH  59  80
ATOM     80  C   UNL A   1      48.219  27.486  29.076  1.00  0.00    -0.014 A 
ATOM     81  C   UNL A   1      48.999  27.827  27.959  1.00  0.00     0.010 A 
ATOM     82  C   UNL A   1      48.842  26.946  30.216  1.00  0.00     0.010 A 
ATOM     83  C   UNL A   1      50.382  27.627  27.982  1.00  0.00     0.020 A 
ATOM     84  C   UNL A   1      50.224  26.763  30.249  1.00  0.00     0.020 A 
ATOM     85  C   UNL A   1      50.987  27.101  29.128  1.00  0.00     0.054 A 
BRANCH  85  86
ATOM     86  S   UNL A   1      52.792  26.933  29.167  1.00  0.00     0.124 S 
ATOM     87  O   UNL A   1      53.229  28.325  29.097  1.00  0.00    -0.237 OA
ATOM     88  O   UNL A   1      53.027  26.263  30.444  1.00  0.00    -0.237 OA
ATOM     89  O   UNL A   1      53.089  26.127  27.985  1.00  0.00    -0.744 OA
ENDBRANCH  85  86
ENDBRANCH  59  80
ENDBRANCH  33  34
ENDBRANCH  26  28
ENDBRANCH  25  26
ENDBRANCH  24  25
ENDBRANCH   1  24
TORSDOF 18
ENDMDL
MODEL 3
REMARK VINA RESULT:      -8.6      4.509     11.135
REMARK SMILES Nc1c(CC(=O)OCCOC(=O)c2ccc(-c3c4nc(c(-c5ccc(S(=O)(=O)[O-])cc5)c5ccc([nH]5)c(-c5ccc(S(=O)(=O)[O-])cc5)c5nc(c(-c6ccc(S(=O)(=O)[O-])cc6)c6ccc3[nH]6)C=C5)C=C4)cc2)cccc1C(=O)c1ccc(Br)cc1
REMARK SMILES IDX 8 1 7 2 5 3 6 4 4 5 3 6 2 7 76 8 73 9 75 10 74 11 1 12 77 15
REMARK SMILES IDX 78 16 79 17 80 18 85 19 81 20 84 21 82 22 83 23 9 24 10 25
REMARK SMILES IDX 11 26 12 27 13 28 14 29 72 30 15 31 71 32 16 33 17 34 18 35
REMARK SMILES IDX 65 36 19 37 70 38 64 39 66 40 20 41 69 42 63 43 62 44 21 46
REMARK SMILES IDX 51 47 32 48 50 49 33 50 36 51 49 52 67 53 34 54 35 55 48 57
REMARK SMILES IDX 68 58 37 59 22 60 23 61 31 62 24 63 30 64 25 65 26 66 27 67
REMARK SMILES IDX 28 68 29 69 52 70 53 71 61 72 54 73 60 74 55 75 56 76 57 77
REMARK SMILES IDX 58 78 59 79 38 80 39 81 47 82 40 83 46 84 41 85 42 86 43 87
REMARK SMILES IDX 44 88 45 89
REMARK H PARENT 1 13 1 14 66 45 36 56
REMARK Flexibility Score: inf
ROOT
ATOM      1  C   UNL A   1      36.186  21.273  25.597  1.00  0.00     0.274 C 
ENDROOT
BRANCH   1   2
ATOM      2  O   UNL A   1      35.152  20.710  24.769  1.00  0.00    -0.462 OA
BRANCH   2   3
ATOM      3  C   UNL A   1      33.903  20.687  25.301  1.00  0.00     0.310 C 
ATOM      4  O   UNL A   1      33.657  20.518  26.491  1.00  0.00    -0.252 OA
BRANCH   3   5
ATOM      5  C   UNL A   1      32.804  20.944  24.299  1.00  0.00     0.160 C 
BRANCH   5   6
ATOM      6  C   UNL A   1      32.394  22.383  24.084  1.00  0.00    -0.013 A 
ATOM      7  C   UNL A   1      31.705  23.113  25.075  1.00  0.00     0.047 A 
ATOM      8  C   UNL A   1      31.538  24.506  24.875  1.00  0.00     0.046 A 
ATOM      9  C   UNL A   1      32.721  22.989  22.856  1.00  0.00     0.006 A 
ATOM     10  C   UNL A   1      31.874  25.093  23.642  1.00  0.00     0.014 A 
ATOM     11  C   UNL A   1      32.440  24.331  22.628  1.00  0.00     0.001 A 
BRANCH   7  12
ATOM     12  N   UNL A   1      31.295  22.462  26.239  1.00  0.00    -0.398 N 
ATOM     13  H   UNL A   1      30.340  22.278  26.390  1.00  0.00     0.156 HD
ATOM     14  H   UNL A   1      31.961  22.185  26.908  1.00  0.00     0.156 HD
ENDBRANCH   7  12
BRANCH   8  15
ATOM     15  C   UNL A   1      31.006  25.438  25.913  1.00  0.00     0.195 C 
ATOM     16  O   UNL A   1      29.883  25.276  26.385  1.00  0.00    -0.289 OA
BRANCH  15  17
ATOM     17  C   UNL A   1      31.818  26.569  26.417  1.00  0.00     0.023 A 
ATOM     18  C   UNL A   1      33.182  26.586  26.099  1.00  0.00     0.013 A 
ATOM     19  C   UNL A   1      31.237  27.642  27.104  1.00  0.00     0.013 A 
ATOM     20  C   UNL A   1      33.949  27.710  26.404  1.00  0.00     0.016 A 
ATOM     21  C   UNL A   1      32.010  28.764  27.411  1.00  0.00     0.016 A 
ATOM     22  C   UNL A   1      33.357  28.798  27.045  1.00  0.00     0.018 A 
ATOM     23  Br  UNL A   1      34.384  30.347  27.396  1.00  0.00    -0.051 Br
ENDBRANCH  15  17
ENDBRANCH   8  15
ENDBRANCH   5   6
ENDBRANCH   3   5
ENDBRANCH   2   3
ENDBRANCH   1   2
BRANCH   1  24
ATOM     24  C   UNL A   1      37.268  21.899  24.722  1.00  0.00     0.275 C 
BRANCH  24  25
ATOM     25  O   UNL A   1      37.778  23.088  25.350  1.00  0.00    -0.458 OA
BRANCH  25  26
ATOM     26  C   UNL A   1      38.967  22.944  25.981  1.00  0.00     0.338 C 
ATOM     27  O   UNL A   1      39.683  21.960  26.008  1.00  0.00    -0.246 OA
BRANCH  26  28
ATOM     28  C   UNL A   1      39.302  24.190  26.684  1.00  0.00     0.060 A 
ATOM     29  C   UNL A   1      40.155  25.128  26.098  1.00  0.00     0.016 A 
ATOM     30  C   UNL A   1      38.841  24.368  27.987  1.00  0.00     0.016 A 
ATOM     31  C   UNL A   1      40.602  26.221  26.840  1.00  0.00     0.010 A 
ATOM     32  C   UNL A   1      39.222  25.506  28.696  1.00  0.00     0.010 A 
ATOM     33  C   UNL A   1      40.125  26.431  28.140  1.00  0.00    -0.014 A 
BRANCH  33  34
ATOM     34  C   UNL A   1      40.544  27.603  28.949  1.00  0.00     0.031 A 
ATOM     35  C   UNL A   1      41.808  27.530  29.760  1.00  0.00     0.074 A 
ATOM     36  C   UNL A   1      39.758  28.695  29.021  1.00  0.00     0.049 A 
ATOM     37  N   UNL A   1      42.203  28.294  30.746  1.00  0.00    -0.248 NA
ATOM     38  C   UNL A   1      42.744  26.443  29.428  1.00  0.00     0.031 C 
ATOM     39  C   UNL A   1      38.539  28.920  28.242  1.00  0.00     0.029 A 
ATOM     40  N   UNL A   1      39.856  29.812  29.813  1.00  0.00    -0.354 N 
ATOM     41  C   UNL A   1      43.404  27.751  31.187  1.00  0.00     0.074 A 
ATOM     42  C   UNL A   1      43.677  26.595  30.358  1.00  0.00     0.031 C 
ATOM     43  C   UNL A   1      38.000  30.095  28.599  1.00  0.00     0.029 A 
ATOM     44  C   UNL A   1      38.786  30.666  29.687  1.00  0.00     0.049 A 
ATOM     45  H   UNL A   1      40.617  29.983  30.414  1.00  0.00     0.167 HD
ATOM     46  C   UNL A   1      44.198  28.172  32.200  1.00  0.00     0.031 A 
ATOM     47  C   UNL A   1      38.440  31.752  30.404  1.00  0.00     0.031 A 
ATOM     48  C   UNL A   1      43.922  29.331  33.007  1.00  0.00     0.049 A 
ATOM     49  C   UNL A   1      39.300  32.168  31.564  1.00  0.00     0.074 A 
ATOM     50  C   UNL A   1      44.657  29.842  34.062  1.00  0.00     0.029 A 
ATOM     51  N   UNL A   1      42.828  30.165  32.839  1.00  0.00    -0.354 N 
ATOM     52  N   UNL A   1      40.404  31.615  32.007  1.00  0.00    -0.248 NA
ATOM     53  C   UNL A   1      38.863  33.344  32.327  1.00  0.00     0.031 C 
ATOM     54  C   UNL A   1      43.989  30.968  34.553  1.00  0.00     0.029 A 
ATOM     55  C   UNL A   1      42.863  31.184  33.774  1.00  0.00     0.049 A 
ATOM     56  H   UNL A   1      42.129  30.051  32.155  1.00  0.00     0.167 HD
ATOM     57  C   UNL A   1      40.808  32.392  33.085  1.00  0.00     0.074 A 
ATOM     58  C   UNL A   1      39.832  33.454  33.228  1.00  0.00     0.031 C 
ATOM     59  C   UNL A   1      41.892  32.242  33.884  1.00  0.00     0.031 A 
BRANCH  46  60
ATOM     60  C   UNL A   1      45.415  27.349  32.522  1.00  0.00    -0.014 A 
ATOM     61  C   UNL A   1      46.650  27.592  31.895  1.00  0.00     0.010 A 
ATOM     62  C   UNL A   1      45.330  26.337  33.495  1.00  0.00     0.010 A 
ATOM     63  C   UNL A   1      47.767  26.813  32.208  1.00  0.00     0.020 A 
ATOM     64  C   UNL A   1      46.450  25.571  33.828  1.00  0.00     0.020 A 
ATOM     65  C   UNL A   1      47.658  25.801  33.168  1.00  0.00     0.054 A 
BRANCH  65  66
ATOM     66  S   UNL A   1      49.125  24.810  33.567  1.00  0.00     0.124 S 
ATOM     67  O   UNL A   1      49.809  25.665  34.533  1.00  0.00    -0.237 OA
ATOM     68  O   UNL A   1      48.548  23.584  34.113  1.00  0.00    -0.237 OA
ATOM     69  O   UNL A   1      49.800  24.658  32.281  1.00  0.00    -0.744 OA
ENDBRANCH  65  66
ENDBRANCH  46  60
BRANCH  47  70
ATOM     70  C   UNL A   1      37.190  32.487  30.072  1.00  0.00    -0.014 A 
ATOM     71  C   UNL A   1      36.009  32.241  30.793  1.00  0.00     0.010 A 
ATOM     72  C   UNL A   1      37.183  33.459  29.055  1.00  0.00     0.010 A 
ATOM     73  C   UNL A   1      34.841  32.951  30.497  1.00  0.00     0.020 A 
ATOM     74  C   UNL A   1      36.024  34.187  28.774  1.00  0.00     0.020 A 
ATOM     75  C   UNL A   1      34.857  33.921  29.492  1.00  0.00     0.054 A 
BRANCH  75  76
ATOM     76  S   UNL A   1      33.348  34.876  29.168  1.00  0.00     0.124 S 
ATOM     77  O   UNL A   1      32.649  34.023  28.213  1.00  0.00    -0.237 OA
ATOM     78  O   UNL A   1      32.742  34.972  30.494  1.00  0.00    -0.237 OA
ATOM     79  O   UNL A   1      33.853  36.138  28.631  1.00  0.00    -0.744 OA
ENDBRANCH  75  76
ENDBRANCH  47  70
BRANCH  59  80
ATOM     80  C   UNL A   1      42.122  33.278  34.948  1.00  0.00    -0.014 A 
ATOM     81  C   UNL A   1      41.613  33.113  36.247  1.00  0.00     0.010 A 
ATOM     82  C   UNL A   1      42.944  34.383  34.663  1.00  0.00     0.010 A 
ATOM     83  C   UNL A   1      41.919  34.041  37.244  1.00  0.00     0.020 A 
ATOM     84  C   UNL A   1      43.267  35.302  35.662  1.00  0.00     0.020 A 
ATOM     85  C   UNL A   1      42.749  35.128  36.947  1.00  0.00     0.054 A 
BRANCH  85  86
ATOM     86  S   UNL A   1      43.204  36.272  38.279  1.00  0.00     0.124 S 
ATOM     87  O   UNL A   1      42.679  35.590  39.458  1.00  0.00    -0.237 OA
ATOM     88  O   UNL A   1      44.661  36.323  38.177  1.00  0.00    -0.237 OA
ATOM     89  O   UNL A   1      42.518  37.511  37.919  1.00  0.00    -0.744 OA
ENDBRANCH  85  86
ENDBRANCH  59  80
ENDBRANCH  33  34
ENDBRANCH  26  28
ENDBRANCH  25  26
ENDBRANCH  24  25
ENDBRANCH   1  24
TORSDOF 18
ENDMDL
