MODEL 1
REMARK VINA RESULT:     -10.4      0.000      0.000
REMARK SMILES CC(C)[C@H](CO)NS(=O)(=O)c1ccc(C(=O)OCCOC(=O)c2ccc(-c3c4nc(c(-c5ccc(S(=O)(=O)[O-])cc5)c5ccc([nH]5)c(-c5ccc(S(=O)(=O)[O-])cc5)c5nc(c(-c6ccc(S(=O)(=O)[O-])cc6)c6ccc3[nH]6)C=C5)C=C4)cc2)cn1
REMARK SMILES IDX 18 1 17 2 15 3 16 4 14 5 11 6 12 7 84 8 13 9 83 10 8 11 9 12
REMARK SMILES IDX 10 13 7 14 4 16 2 17 1 18 3 19 5 20 6 21 19 23 20 24 21 25
REMARK SMILES IDX 22 26 23 27 24 28 82 29 25 30 81 31 26 32 27 33 28 34 75 35
REMARK SMILES IDX 29 36 80 37 74 38 76 39 30 40 79 41 73 42 72 43 31 45 61 46
REMARK SMILES IDX 42 47 60 48 43 49 46 50 59 51 77 52 44 53 45 54 58 56 78 57
REMARK SMILES IDX 47 58 32 59 33 60 41 61 34 62 40 63 35 64 36 65 37 66 38 67
REMARK SMILES IDX 39 68 62 69 63 70 71 71 64 72 70 73 65 74 66 75 67 76 68 77
REMARK SMILES IDX 69 78 48 79 49 80 57 81 50 82 56 83 51 84 52 85 53 86 54 87
REMARK SMILES IDX 55 88
REMARK H PARENT 7 15 6 22 76 44 46 55
REMARK Flexibility Score: inf
ROOT
ATOM      1  C   UNL A   1      37.949  23.293  25.520  1.00  0.00     0.275 C 
ENDROOT
BRANCH   1   2
ATOM      2  O   UNL A   1      36.759  23.326  26.336  1.00  0.00    -0.458 OA
BRANCH   2   3
ATOM      3  C   UNL A   1      35.657  22.767  25.781  1.00  0.00     0.339 C 
ATOM      4  O   UNL A   1      35.227  21.646  26.004  1.00  0.00    -0.246 OA
BRANCH   3   5
ATOM      5  C   UNL A   1      34.949  23.718  24.901  1.00  0.00     0.078 A 
ATOM      6  C   UNL A   1      33.717  25.332  23.069  1.00  0.00     0.170 A 
ATOM      7  C   UNL A   1      33.985  25.856  24.329  1.00  0.00     0.043 A 
ATOM      8  N   UNL A   1      34.027  24.069  22.686  1.00  0.00    -0.243 NA
ATOM      9  C   UNL A   1      34.601  25.021  25.269  1.00  0.00     0.020 A 
ATOM     10  C   UNL A   1      34.657  23.307  23.605  1.00  0.00     0.128 A 
BRANCH   6  11
ATOM     11  S   UNL A   1      33.120  26.359  21.728  1.00  0.00     0.258 S 
ATOM     12  O   UNL A   1      33.197  25.585  20.509  1.00  0.00    -0.205 OA
ATOM     13  O   UNL A   1      33.821  27.628  21.821  1.00  0.00    -0.205 OA
BRANCH  11  14
ATOM     14  N   UNL A   1      31.519  26.747  22.049  1.00  0.00    -0.204 NA
ATOM     15  H   UNL A   1      31.238  27.377  21.297  1.00  0.00     0.141 HD
BRANCH  14  16
ATOM     16  C   UNL A   1      31.023  27.377  23.295  1.00  0.00     0.098 C 
BRANCH  16  17
ATOM     17  C   UNL A   1      30.241  26.435  24.255  1.00  0.00     0.003 C 
ATOM     18  C   UNL A   1      30.186  24.952  23.893  1.00  0.00     0.009 C 
ATOM     19  C   UNL A   1      30.750  26.597  25.693  1.00  0.00     0.009 C 
ENDBRANCH  16  17
BRANCH  16  20
ATOM     20  C   UNL A   1      30.079  28.527  22.829  1.00  0.00     0.176 C 
BRANCH  20  21
ATOM     21  O   UNL A   1      30.396  28.960  21.503  1.00  0.00    -0.395 OA
ATOM     22  H   UNL A   1      30.620  28.190  20.956  1.00  0.00     0.210 HD
ENDBRANCH  20  21
ENDBRANCH  16  20
ENDBRANCH  14  16
ENDBRANCH  11  14
ENDBRANCH   6  11
ENDBRANCH   3   5
ENDBRANCH   2   3
ENDBRANCH   1   2
BRANCH   1  23
ATOM     23  C   UNL A   1      39.065  22.474  26.175  1.00  0.00     0.275 C 
BRANCH  23  24
ATOM     24  O   UNL A   1      39.631  23.148  27.314  1.00  0.00    -0.458 OA
BRANCH  24  25
ATOM     25  C   UNL A   1      40.650  23.988  27.033  1.00  0.00     0.338 C 
ATOM     26  O   UNL A   1      41.536  23.829  26.209  1.00  0.00    -0.246 OA
BRANCH  25  27
ATOM     27  C   UNL A   1      40.513  25.226  27.812  1.00  0.00     0.060 A 
ATOM     28  C   UNL A   1      41.614  26.075  27.895  1.00  0.00     0.016 A 
ATOM     29  C   UNL A   1      39.376  25.470  28.578  1.00  0.00     0.016 A 
ATOM     30  C   UNL A   1      41.629  27.121  28.812  1.00  0.00     0.010 A 
ATOM     31  C   UNL A   1      39.359  26.576  29.438  1.00  0.00     0.010 A 
ATOM     32  C   UNL A   1      40.498  27.392  29.590  1.00  0.00    -0.014 A 
BRANCH  32  33
ATOM     33  C   UNL A   1      40.502  28.502  30.583  1.00  0.00     0.031 A 
ATOM     34  C   UNL A   1      41.472  28.470  31.736  1.00  0.00     0.074 A 
ATOM     35  C   UNL A   1      39.635  29.528  30.471  1.00  0.00     0.049 A 
ATOM     36  N   UNL A   1      41.482  29.188  32.828  1.00  0.00    -0.248 NA
ATOM     37  C   UNL A   1      42.566  27.488  31.651  1.00  0.00     0.031 C 
ATOM     38  C   UNL A   1      38.690  29.729  29.369  1.00  0.00     0.029 A 
ATOM     39  N   UNL A   1      39.402  30.596  31.303  1.00  0.00    -0.354 N 
ATOM     40  C   UNL A   1      42.540  28.703  33.591  1.00  0.00     0.074 A 
ATOM     41  C   UNL A   1      43.152  27.634  32.831  1.00  0.00     0.031 C 
ATOM     42  C   UNL A   1      37.993  30.855  29.586  1.00  0.00     0.029 A 
ATOM     43  C   UNL A   1      38.372  31.405  30.881  1.00  0.00     0.049 A 
ATOM     44  H   UNL A   1      39.922  30.766  32.121  1.00  0.00     0.167 HD
ATOM     45  C   UNL A   1      42.951  29.105  34.818  1.00  0.00     0.031 A 
ATOM     46  C   UNL A   1      37.758  32.439  31.490  1.00  0.00     0.031 A 
ATOM     47  C   UNL A   1      42.354  30.193  35.548  1.00  0.00     0.049 A 
ATOM     48  C   UNL A   1      38.200  32.842  32.869  1.00  0.00     0.074 A 
ATOM     49  C   UNL A   1      42.692  30.678  36.800  1.00  0.00     0.029 A 
ATOM     50  N   UNL A   1      41.307  30.975  35.085  1.00  0.00    -0.354 N 
ATOM     51  N   UNL A   1      39.153  32.328  33.609  1.00  0.00    -0.248 NA
ATOM     52  C   UNL A   1      37.476  33.954  33.499  1.00  0.00     0.031 C 
ATOM     53  C   UNL A   1      41.825  31.732  37.108  1.00  0.00     0.029 A 
ATOM     54  C   UNL A   1      40.982  31.936  36.026  1.00  0.00     0.049 A 
ATOM     55  H   UNL A   1      40.861  30.864  34.215  1.00  0.00     0.167 HD
ATOM     56  C   UNL A   1      39.160  33.071  34.783  1.00  0.00     0.074 A 
ATOM     57  C   UNL A   1      38.122  34.073  34.652  1.00  0.00     0.031 C 
ATOM     58  C   UNL A   1      39.957  32.936  35.872  1.00  0.00     0.031 A 
BRANCH  45  59
ATOM     59  C   UNL A   1      44.064  28.330  35.473  1.00  0.00    -0.014 A 
ATOM     60  C   UNL A   1      43.814  27.170  36.226  1.00  0.00     0.010 A 
ATOM     61  C   UNL A   1      45.394  28.758  35.298  1.00  0.00     0.010 A 
ATOM     62  C   UNL A   1      44.868  26.478  36.828  1.00  0.00     0.020 A 
ATOM     63  C   UNL A   1      46.453  28.054  35.876  1.00  0.00     0.020 A 
ATOM     64  C   UNL A   1      46.182  26.928  36.655  1.00  0.00     0.054 A 
BRANCH  64  65
ATOM     65  S   UNL A   1      47.534  26.008  37.440  1.00  0.00     0.124 S 
ATOM     66  O   UNL A   1      48.593  27.013  37.486  1.00  0.00    -0.237 OA
ATOM     67  O   UNL A   1      46.965  25.639  38.733  1.00  0.00    -0.237 OA
ATOM     68  O   UNL A   1      47.772  24.893  36.527  1.00  0.00    -0.744 OA
ENDBRANCH  64  65
ENDBRANCH  45  59
BRANCH  46  69
ATOM     69  C   UNL A   1      36.620  33.123  30.816  1.00  0.00    -0.014 A 
ATOM     70  C   UNL A   1      35.305  32.950  31.278  1.00  0.00     0.010 A 
ATOM     71  C   UNL A   1      36.855  33.979  29.723  1.00  0.00     0.010 A 
ATOM     72  C   UNL A   1      34.243  33.613  30.656  1.00  0.00     0.020 A 
ATOM     73  C   UNL A   1      35.800  34.667  29.117  1.00  0.00     0.020 A 
ATOM     74  C   UNL A   1      34.498  34.470  29.581  1.00  0.00     0.054 A 
BRANCH  74  75
ATOM     75  S   UNL A   1      33.115  35.373  28.828  1.00  0.00     0.124 S 
ATOM     76  O   UNL A   1      32.348  35.783  30.000  1.00  0.00    -0.237 OA
ATOM     77  O   UNL A   1      33.793  36.447  28.105  1.00  0.00    -0.237 OA
ATOM     78  O   UNL A   1      32.476  34.369  27.980  1.00  0.00    -0.744 OA
ENDBRANCH  74  75
ENDBRANCH  46  69
BRANCH  58  79
ATOM     79  C   UNL A   1      39.784  33.930  36.986  1.00  0.00    -0.014 A 
ATOM     80  C   UNL A   1      38.963  33.652  38.092  1.00  0.00     0.010 A 
ATOM     81  C   UNL A   1      40.520  35.128  36.957  1.00  0.00     0.010 A 
ATOM     82  C   UNL A   1      38.870  34.565  39.146  1.00  0.00     0.020 A 
ATOM     83  C   UNL A   1      40.446  36.033  38.018  1.00  0.00     0.020 A 
ATOM     84  C   UNL A   1      39.615  35.749  39.102  1.00  0.00     0.054 A 
BRANCH  84  85
ATOM     85  S   UNL A   1      39.531  36.887  40.512  1.00  0.00     0.124 S 
ATOM     86  O   UNL A   1      40.899  36.845  41.020  1.00  0.00    -0.237 OA
ATOM     87  O   UNL A   1      39.131  38.146  39.886  1.00  0.00    -0.237 OA
ATOM     88  O   UNL A   1      38.523  36.286  41.383  1.00  0.00    -0.744 OA
ENDBRANCH  84  85
ENDBRANCH  58  79
ENDBRANCH  32  33
ENDBRANCH  25  27
ENDBRANCH  24  25
ENDBRANCH  23  24
ENDBRANCH   1  23
TORSDOF 20
ENDMDL
MODEL 2
REMARK VINA RESULT:     -10.1      2.094      2.756
REMARK SMILES CC(C)[C@H](CO)NS(=O)(=O)c1ccc(C(=O)OCCOC(=O)c2ccc(-c3c4nc(c(-c5ccc(S(=O)(=O)[O-])cc5)c5ccc([nH]5)c(-c5ccc(S(=O)(=O)[O-])cc5)c5nc(c(-c6ccc(S(=O)(=O)[O-])cc6)c6ccc3[nH]6)C=C5)C=C4)cc2)cn1
REMARK SMILES IDX 18 1 17 2 15 3 16 4 14 5 11 6 12 7 84 8 13 9 83 10 8 11 9 12
REMARK SMILES IDX 10 13 7 14 4 16 2 17 1 18 3 19 5 20 6 21 19 23 20 24 21 25
REMARK SMILES IDX 22 26 23 27 24 28 82 29 25 30 81 31 26 32 27 33 28 34 75 35
REMARK SMILES IDX 29 36 80 37 74 38 76 39 30 40 79 41 73 42 72 43 31 45 61 46
REMARK SMILES IDX 42 47 60 48 43 49 46 50 59 51 77 52 44 53 45 54 58 56 78 57
REMARK SMILES IDX 47 58 32 59 33 60 41 61 34 62 40 63 35 64 36 65 37 66 38 67
REMARK SMILES IDX 39 68 62 69 63 70 71 71 64 72 70 73 65 74 66 75 67 76 68 77
REMARK SMILES IDX 69 78 48 79 49 80 57 81 50 82 56 83 51 84 52 85 53 86 54 87
REMARK SMILES IDX 55 88
REMARK H PARENT 7 15 6 22 76 44 46 55
REMARK Flexibility Score: inf
ROOT
ATOM      1  C   UNL A   1      36.535  21.032  25.592  1.00  0.00     0.275 C 
ENDROOT
BRANCH   1   2
ATOM      2  O   UNL A   1      35.485  20.866  24.615  1.00  0.00    -0.458 OA
BRANCH   2   3
ATOM      3  C   UNL A   1      34.259  21.297  24.999  1.00  0.00     0.339 C 
ATOM      4  O   UNL A   1      33.642  20.928  25.986  1.00  0.00    -0.246 OA
BRANCH   3   5
ATOM      5  C   UNL A   1      33.757  22.366  24.113  1.00  0.00     0.078 A 
ATOM      6  C   UNL A   1      33.053  24.470  22.514  1.00  0.00     0.170 A 
ATOM      7  C   UNL A   1      32.040  23.655  23.008  1.00  0.00     0.043 A 
ATOM      8  N   UNL A   1      34.372  24.292  22.774  1.00  0.00    -0.243 NA
ATOM      9  C   UNL A   1      32.407  22.569  23.813  1.00  0.00     0.020 A 
ATOM     10  C   UNL A   1      34.683  23.260  23.586  1.00  0.00     0.128 A 
BRANCH   6  11
ATOM     11  S   UNL A   1      32.696  25.996  21.647  1.00  0.00     0.258 S 
ATOM     12  O   UNL A   1      32.025  25.658  20.412  1.00  0.00    -0.205 OA
ATOM     13  O   UNL A   1      33.931  26.761  21.609  1.00  0.00    -0.205 OA
BRANCH  11  14
ATOM     14  N   UNL A   1      31.674  26.912  22.612  1.00  0.00    -0.204 NA
ATOM     15  H   UNL A   1      31.125  27.477  21.964  1.00  0.00     0.141 HD
BRANCH  14  16
ATOM     16  C   UNL A   1      32.108  27.846  23.678  1.00  0.00     0.098 C 
BRANCH  16  17
ATOM     17  C   UNL A   1      31.987  27.305  25.131  1.00  0.00     0.003 C 
ATOM     18  C   UNL A   1      30.813  26.378  25.440  1.00  0.00     0.009 C 
ATOM     19  C   UNL A   1      33.300  26.639  25.564  1.00  0.00     0.009 C 
ENDBRANCH  16  17
BRANCH  16  20
ATOM     20  C   UNL A   1      31.197  29.101  23.523  1.00  0.00     0.176 C 
BRANCH  20  21
ATOM     21  O   UNL A   1      31.254  29.937  24.682  1.00  0.00    -0.395 OA
ATOM     22  H   UNL A   1      31.934  29.603  25.289  1.00  0.00     0.210 HD
ENDBRANCH  20  21
ENDBRANCH  16  20
ENDBRANCH  14  16
ENDBRANCH  11  14
ENDBRANCH   6  11
ENDBRANCH   3   5
ENDBRANCH   2   3
ENDBRANCH   1   2
BRANCH   1  23
ATOM     23  C   UNL A   1      37.794  21.647  24.973  1.00  0.00     0.275 C 
BRANCH  23  24
ATOM     24  O   UNL A   1      38.111  22.924  25.556  1.00  0.00    -0.458 OA
BRANCH  24  25
ATOM     25  C   UNL A   1      39.338  23.009  26.115  1.00  0.00     0.338 C 
ATOM     26  O   UNL A   1      40.259  22.217  26.004  1.00  0.00    -0.246 OA
BRANCH  25  27
ATOM     27  C   UNL A   1      39.475  24.281  26.838  1.00  0.00     0.060 A 
ATOM     28  C   UNL A   1      40.320  25.251  26.305  1.00  0.00     0.016 A 
ATOM     29  C   UNL A   1      38.912  24.454  28.100  1.00  0.00     0.016 A 
ATOM     30  C   UNL A   1      40.685  26.360  27.061  1.00  0.00     0.010 A 
ATOM     31  C   UNL A   1      39.212  25.614  28.826  1.00  0.00     0.010 A 
ATOM     32  C   UNL A   1      40.129  26.562  28.329  1.00  0.00    -0.014 A 
BRANCH  32  33
ATOM     33  C   UNL A   1      40.517  27.739  29.155  1.00  0.00     0.031 A 
ATOM     34  C   UNL A   1      41.804  27.709  29.939  1.00  0.00     0.074 A 
ATOM     35  C   UNL A   1      39.721  28.825  29.221  1.00  0.00     0.049 A 
ATOM     36  N   UNL A   1      42.207  28.503  30.896  1.00  0.00    -0.248 NA
ATOM     37  C   UNL A   1      42.753  26.633  29.611  1.00  0.00     0.031 C 
ATOM     38  C   UNL A   1      38.485  29.023  28.461  1.00  0.00     0.029 A 
ATOM     39  N   UNL A   1      39.831  29.968  29.975  1.00  0.00    -0.354 N 
ATOM     40  C   UNL A   1      43.424  27.987  31.329  1.00  0.00     0.074 A 
ATOM     41  C   UNL A   1      43.696  26.815  30.525  1.00  0.00     0.031 C 
ATOM     42  C   UNL A   1      37.962  30.219  28.775  1.00  0.00     0.029 A 
ATOM     43  C   UNL A   1      38.769  30.829  29.823  1.00  0.00     0.049 A 
ATOM     44  H   UNL A   1      40.597  30.153  30.566  1.00  0.00     0.167 HD
ATOM     45  C   UNL A   1      44.232  28.443  32.317  1.00  0.00     0.031 A 
ATOM     46  C   UNL A   1      38.445  31.955  30.489  1.00  0.00     0.031 A 
ATOM     47  C   UNL A   1      43.966  29.630  33.088  1.00  0.00     0.049 A 
ATOM     48  C   UNL A   1      39.331  32.421  31.610  1.00  0.00     0.074 A 
ATOM     49  C   UNL A   1      44.717  30.177  34.114  1.00  0.00     0.029 A 
ATOM     50  N   UNL A   1      42.874  30.464  32.904  1.00  0.00    -0.354 N 
ATOM     51  N   UNL A   1      40.441  31.884  32.058  1.00  0.00    -0.248 NA
ATOM     52  C   UNL A   1      38.916  33.636  32.324  1.00  0.00     0.031 C 
ATOM     53  C   UNL A   1      44.059  31.322  34.575  1.00  0.00     0.029 A 
ATOM     54  C   UNL A   1      42.926  31.517  33.800  1.00  0.00     0.049 A 
ATOM     55  H   UNL A   1      42.164  30.326  32.235  1.00  0.00     0.167 HD
ATOM     56  C   UNL A   1      40.870  32.709  33.091  1.00  0.00     0.074 A 
ATOM     57  C   UNL A   1      39.905  33.784  33.196  1.00  0.00     0.031 C 
ATOM     58  C   UNL A   1      41.965  32.587  33.879  1.00  0.00     0.031 A 
BRANCH  45  59
ATOM     59  C   UNL A   1      45.450  27.626  32.660  1.00  0.00    -0.014 A 
ATOM     60  C   UNL A   1      45.372  26.499  33.495  1.00  0.00     0.010 A 
ATOM     61  C   UNL A   1      46.694  27.979  32.102  1.00  0.00     0.010 A 
ATOM     62  C   UNL A   1      46.523  25.766  33.801  1.00  0.00     0.020 A 
ATOM     63  C   UNL A   1      47.841  27.234  32.383  1.00  0.00     0.020 A 
ATOM     64  C   UNL A   1      47.752  26.142  33.248  1.00  0.00     0.054 A 
BRANCH  64  65
ATOM     65  S   UNL A   1      49.229  25.171  33.654  1.00  0.00     0.124 S 
ATOM     66  O   UNL A   1      48.678  24.137  34.527  1.00  0.00    -0.237 OA
ATOM     67  O   UNL A   1      49.682  24.709  32.344  1.00  0.00    -0.237 OA
ATOM     68  O   UNL A   1      50.110  26.134  34.310  1.00  0.00    -0.744 OA
ENDBRANCH  64  65
ENDBRANCH  45  59
BRANCH  46  69
ATOM     69  C   UNL A   1      37.193  32.683  30.145  1.00  0.00    -0.014 A 
ATOM     70  C   UNL A   1      37.190  33.670  29.146  1.00  0.00     0.010 A 
ATOM     71  C   UNL A   1      35.987  32.368  30.800  1.00  0.00     0.010 A 
ATOM     72  C   UNL A   1      36.007  34.335  28.811  1.00  0.00     0.020 A 
ATOM     73  C   UNL A   1      34.796  33.009  30.448  1.00  0.00     0.020 A 
ATOM     74  C   UNL A   1      34.816  33.997  29.463  1.00  0.00     0.054 A 
BRANCH  74  75
ATOM     75  S   UNL A   1      33.278  34.825  28.969  1.00  0.00     0.124 S 
ATOM     76  O   UNL A   1      33.775  36.075  28.404  1.00  0.00    -0.237 OA
ATOM     77  O   UNL A   1      32.703  33.881  28.012  1.00  0.00    -0.237 OA
ATOM     78  O   UNL A   1      32.542  34.951  30.224  1.00  0.00    -0.744 OA
ENDBRANCH  74  75
ENDBRANCH  46  69
BRANCH  58  79
ATOM     79  C   UNL A   1      42.219  33.673  34.888  1.00  0.00    -0.014 A 
ATOM     80  C   UNL A   1      41.783  33.552  36.217  1.00  0.00     0.010 A 
ATOM     81  C   UNL A   1      42.976  34.797  34.509  1.00  0.00     0.010 A 
ATOM     82  C   UNL A   1      42.088  34.546  37.151  1.00  0.00     0.020 A 
ATOM     83  C   UNL A   1      43.301  35.782  35.444  1.00  0.00     0.020 A 
ATOM     84  C   UNL A   1      42.847  35.654  36.758  1.00  0.00     0.054 A 
BRANCH  84  85
ATOM     85  S   UNL A   1      43.289  36.897  38.002  1.00  0.00     0.124 S 
ATOM     86  O   UNL A   1      44.021  37.878  37.207  1.00  0.00    -0.237 OA
ATOM     87  O   UNL A   1      41.985  37.335  38.497  1.00  0.00    -0.237 OA
ATOM     88  O   UNL A   1      44.093  36.151  38.967  1.00  0.00    -0.744 OA
ENDBRANCH  84  85
ENDBRANCH  58  79
ENDBRANCH  32  33
ENDBRANCH  25  27
ENDBRANCH  24  25
ENDBRANCH  23  24
ENDBRANCH   1  23
TORSDOF 20
ENDMDL
MODEL 3
REMARK VINA RESULT:     -10.0      2.664      8.333
REMARK SMILES CC(C)[C@H](CO)NS(=O)(=O)c1ccc(C(=O)OCCOC(=O)c2ccc(-c3c4nc(c(-c5ccc(S(=O)(=O)[O-])cc5)c5ccc([nH]5)c(-c5ccc(S(=O)(=O)[O-])cc5)c5nc(c(-c6ccc(S(=O)(=O)[O-])cc6)c6ccc3[nH]6)C=C5)C=C4)cc2)cn1
REMARK SMILES IDX 18 1 17 2 15 3 16 4 14 5 11 6 12 7 84 8 13 9 83 10 8 11 9 12
REMARK SMILES IDX 10 13 7 14 4 16 2 17 1 18 3 19 5 20 6 21 19 23 20 24 21 25
REMARK SMILES IDX 22 26 23 27 24 28 82 29 25 30 81 31 26 32 27 33 28 34 75 35
REMARK SMILES IDX 29 36 80 37 74 38 76 39 30 40 79 41 73 42 72 43 31 45 61 46
REMARK SMILES IDX 42 47 60 48 43 49 46 50 59 51 77 52 44 53 45 54 58 56 78 57
REMARK SMILES IDX 47 58 32 59 33 60 41 61 34 62 40 63 35 64 36 65 37 66 38 67
REMARK SMILES IDX 39 68 62 69 63 70 71 71 64 72 70 73 65 74 66 75 67 76 68 77
REMARK SMILES IDX 69 78 48 79 49 80 57 81 50 82 56 83 51 84 52 85 53 86 54 87
REMARK SMILES IDX 55 88
REMARK H PARENT 7 15 6 22 76 44 46 55
REMARK Flexibility Score: inf
ROOT
ATOM      1  C   UNL A   1      32.234  29.593  25.344  1.00  0.00     0.275 C 
ENDROOT
BRANCH   1   2
ATOM      2  O   UNL A   1      31.168  28.631  25.496  1.00  0.00    -0.458 OA
BRANCH   2   3
ATOM      3  C   UNL A   1      31.471  27.540  26.240  1.00  0.00     0.339 C 
ATOM      4  O   UNL A   1      31.066  27.300  27.367  1.00  0.00    -0.246 OA
BRANCH   3   5
ATOM      5  C   UNL A   1      32.311  26.585  25.489  1.00  0.00     0.078 A 
ATOM      6  C   UNL A   1      33.644  24.712  24.008  1.00  0.00     0.170 A 
ATOM      7  C   UNL A   1      34.324  25.326  25.054  1.00  0.00     0.043 A 
ATOM      8  N   UNL A   1      32.359  24.981  23.671  1.00  0.00    -0.243 NA
ATOM      9  C   UNL A   1      33.642  26.296  25.800  1.00  0.00     0.020 A 
ATOM     10  C   UNL A   1      31.722  25.892  24.438  1.00  0.00     0.128 A 
BRANCH   6  11
ATOM     11  S   UNL A   1      34.339  23.322  23.118  1.00  0.00     0.258 S 
ATOM     12  O   UNL A   1      35.777  23.474  23.111  1.00  0.00    -0.205 OA
ATOM     13  O   UNL A   1      33.619  23.221  21.860  1.00  0.00    -0.205 OA
BRANCH  11  14
ATOM     14  N   UNL A   1      33.924  21.921  23.944  1.00  0.00    -0.204 NA
ATOM     15  H   UNL A   1      33.806  21.208  23.224  1.00  0.00     0.141 HD
BRANCH  14  16
ATOM     16  C   UNL A   1      32.755  21.769  24.843  1.00  0.00     0.098 C 
BRANCH  16  17
ATOM     17  C   UNL A   1      33.069  21.842  26.365  1.00  0.00     0.003 C 
ATOM     18  C   UNL A   1      34.530  22.020  26.774  1.00  0.00     0.009 C 
ATOM     19  C   UNL A   1      32.209  22.921  27.036  1.00  0.00     0.009 C 
ENDBRANCH  16  17
BRANCH  16  20
ATOM     20  C   UNL A   1      32.159  20.368  24.511  1.00  0.00     0.176 C 
BRANCH  20  21
ATOM     21  O   UNL A   1      32.154  19.515  25.659  1.00  0.00    -0.395 OA
ATOM     22  H   UNL A   1      31.312  19.034  25.701  1.00  0.00     0.210 HD
ENDBRANCH  20  21
ENDBRANCH  16  20
ENDBRANCH  14  16
ENDBRANCH  11  14
ENDBRANCH   6  11
ENDBRANCH   3   5
ENDBRANCH   2   3
ENDBRANCH   1   2
BRANCH   1  23
ATOM     23  C   UNL A   1      32.523  30.333  26.654  1.00  0.00     0.275 C 
BRANCH  23  24
ATOM     24  O   UNL A   1      33.883  30.149  27.087  1.00  0.00    -0.458 OA
BRANCH  24  25
ATOM     25  C   UNL A   1      34.463  31.242  27.630  1.00  0.00     0.338 C 
ATOM     26  O   UNL A   1      33.973  32.351  27.763  1.00  0.00    -0.246 OA
BRANCH  25  27
ATOM     27  C   UNL A   1      35.792  30.900  28.153  1.00  0.00     0.060 A 
ATOM     28  C   UNL A   1      35.976  29.632  28.697  1.00  0.00     0.016 A 
ATOM     29  C   UNL A   1      36.793  31.863  28.256  1.00  0.00     0.016 A 
ATOM     30  C   UNL A   1      37.122  29.339  29.429  1.00  0.00     0.010 A 
ATOM     31  C   UNL A   1      37.984  31.539  28.919  1.00  0.00     0.010 A 
ATOM     32  C   UNL A   1      38.147  30.285  29.542  1.00  0.00    -0.014 A 
BRANCH  32  33
ATOM     33  C   UNL A   1      39.375  29.991  30.331  1.00  0.00     0.031 A 
ATOM     34  C   UNL A   1      40.345  28.946  29.843  1.00  0.00     0.074 A 
ATOM     35  C   UNL A   1      39.620  30.638  31.488  1.00  0.00     0.049 A 
ATOM     36  N   UNL A   1      41.328  28.367  30.481  1.00  0.00    -0.248 NA
ATOM     37  C   UNL A   1      40.173  28.483  28.456  1.00  0.00     0.031 C 
ATOM     38  C   UNL A   1      38.810  31.723  32.046  1.00  0.00     0.029 A 
ATOM     39  N   UNL A   1      40.625  30.470  32.411  1.00  0.00    -0.354 N 
ATOM     40  C   UNL A   1      41.850  27.427  29.600  1.00  0.00     0.074 A 
ATOM     41  C   UNL A   1      41.079  27.518  28.378  1.00  0.00     0.031 C 
ATOM     42  C   UNL A   1      39.355  32.131  33.203  1.00  0.00     0.029 A 
ATOM     43  C   UNL A   1      40.495  31.279  33.515  1.00  0.00     0.049 A 
ATOM     44  H   UNL A   1      41.365  29.832  32.292  1.00  0.00     0.167 HD
ATOM     45  C   UNL A   1      42.871  26.558  29.799  1.00  0.00     0.031 A 
ATOM     46  C   UNL A   1      41.178  31.300  34.677  1.00  0.00     0.031 A 
ATOM     47  C   UNL A   1      43.653  26.500  31.007  1.00  0.00     0.049 A 
ATOM     48  C   UNL A   1      42.279  30.300  34.896  1.00  0.00     0.074 A 
ATOM     49  C   UNL A   1      44.706  25.655  31.312  1.00  0.00     0.029 A 
ATOM     50  N   UNL A   1      43.479  27.333  32.101  1.00  0.00    -0.354 N 
ATOM     51  N   UNL A   1      42.715  29.368  34.083  1.00  0.00    -0.248 NA
ATOM     52  C   UNL A   1      42.969  30.345  36.191  1.00  0.00     0.031 C 
ATOM     53  C   UNL A   1      45.145  25.954  32.606  1.00  0.00     0.029 A 
ATOM     54  C   UNL A   1      44.399  27.020  33.086  1.00  0.00     0.049 A 
ATOM     55  H   UNL A   1      42.799  28.043  32.168  1.00  0.00     0.167 HD
ATOM     56  C   UNL A   1      43.749  28.731  34.759  1.00  0.00     0.074 A 
ATOM     57  C   UNL A   1      43.877  29.388  36.044  1.00  0.00     0.031 C 
ATOM     58  C   UNL A   1      44.523  27.696  34.352  1.00  0.00     0.031 A 
BRANCH  45  59
ATOM     59  C   UNL A   1      43.166  25.561  28.708  1.00  0.00    -0.014 A 
ATOM     60  C   UNL A   1      44.121  25.818  27.710  1.00  0.00     0.010 A 
ATOM     61  C   UNL A   1      42.492  24.325  28.707  1.00  0.00     0.010 A 
ATOM     62  C   UNL A   1      44.365  24.877  26.707  1.00  0.00     0.020 A 
ATOM     63  C   UNL A   1      42.753  23.370  27.721  1.00  0.00     0.020 A 
ATOM     64  C   UNL A   1      43.674  23.660  26.714  1.00  0.00     0.054 A 
BRANCH  64  65
ATOM     65  S   UNL A   1      44.014  22.451  25.406  1.00  0.00     0.124 S 
ATOM     66  O   UNL A   1      45.463  22.567  25.260  1.00  0.00    -0.237 OA
ATOM     67  O   UNL A   1      43.542  21.200  25.992  1.00  0.00    -0.237 OA
ATOM     68  O   UNL A   1      43.234  22.937  24.271  1.00  0.00    -0.744 OA
ENDBRANCH  64  65
ENDBRANCH  45  59
BRANCH  46  69
ATOM     69  C   UNL A   1      40.797  32.268  35.742  1.00  0.00    -0.014 A 
ATOM     70  C   UNL A   1      39.756  31.974  36.638  1.00  0.00     0.010 A 
ATOM     71  C   UNL A   1      41.498  33.481  35.882  1.00  0.00     0.010 A 
ATOM     72  C   UNL A   1      39.416  32.876  37.650  1.00  0.00     0.020 A 
ATOM     73  C   UNL A   1      41.181  34.373  36.910  1.00  0.00     0.020 A 
ATOM     74  C   UNL A   1      40.134  34.069  37.781  1.00  0.00     0.054 A 
BRANCH  74  75
ATOM     75  S   UNL A   1      39.722  35.198  39.141  1.00  0.00     0.124 S 
ATOM     76  O   UNL A   1      38.534  34.569  39.708  1.00  0.00    -0.237 OA
ATOM     77  O   UNL A   1      40.923  35.148  39.971  1.00  0.00    -0.237 OA
ATOM     78  O   UNL A   1      39.495  36.475  38.467  1.00  0.00    -0.744 OA
ENDBRANCH  74  75
ENDBRANCH  46  69
BRANCH  58  79
ATOM     79  C   UNL A   1      45.620  27.245  35.274  1.00  0.00    -0.014 A 
ATOM     80  C   UNL A   1      46.886  27.851  35.256  1.00  0.00     0.010 A 
ATOM     81  C   UNL A   1      45.347  26.247  36.228  1.00  0.00     0.010 A 
ATOM     82  C   UNL A   1      47.869  27.457  36.168  1.00  0.00     0.020 A 
ATOM     83  C   UNL A   1      46.319  25.866  37.155  1.00  0.00     0.020 A 
ATOM     84  C   UNL A   1      47.577  26.468  37.114  1.00  0.00     0.054 A 
BRANCH  84  85
ATOM     85  S   UNL A   1      48.845  26.021  38.332  1.00  0.00     0.124 S 
ATOM     86  O   UNL A   1      49.723  27.186  38.299  1.00  0.00    -0.237 OA
ATOM     87  O   UNL A   1      48.068  25.853  39.558  1.00  0.00    -0.237 OA
ATOM     88  O   UNL A   1      49.421  24.790  37.795  1.00  0.00    -0.744 OA
ENDBRANCH  84  85
ENDBRANCH  58  79
ENDBRANCH  32  33
ENDBRANCH  25  27
ENDBRANCH  24  25
ENDBRANCH  23  24
ENDBRANCH   1  23
TORSDOF 20
ENDMDL
