MODEL 1
REMARK VINA RESULT:     -13.1      0.000      0.000
REMARK SMILES Cc1cccc(-c2cccnc2C(=O)OCCOC(=O)c2ccc(-c3c4nc(c(-c5ccc(S(=O)(=O)[O-])cc5)c5ccc([nH]5)c(-c5ccc(S(=O)(=O)[O-])cc5)c5nc(c(-c6ccc(S(=O)(=O)[O-])cc6)c6ccc3[nH]6)C=C5)C=C4)cc2)c1
REMARK SMILES IDX 17 1 16 2 15 3 13 4 14 5 12 6 7 7 8 8 9 9 11 10 10 11 6 12
REMARK SMILES IDX 1 13 2 14 3 15 81 16 4 17 5 18 18 19 19 20 20 21 21 22 22 23
REMARK SMILES IDX 80 24 23 25 79 26 24 27 25 28 26 29 73 30 27 31 78 32 72 33
REMARK SMILES IDX 74 34 28 35 77 36 71 37 70 38 29 40 59 41 40 42 58 43 41 44
REMARK SMILES IDX 44 45 57 46 75 47 42 48 43 49 56 51 76 52 45 53 30 54 31 55
REMARK SMILES IDX 39 56 32 57 38 58 33 59 34 60 35 61 36 62 37 63 60 64 61 65
REMARK SMILES IDX 69 66 62 67 68 68 63 69 64 70 65 71 66 72 67 73 46 74 47 75
REMARK SMILES IDX 55 76 48 77 54 78 49 79 50 80 51 81 52 82 53 83
REMARK H PARENT 74 39 44 50
REMARK Flexibility Score: inf
ROOT
ATOM      1  C   UNL A   1      34.078  30.760  27.298  1.00  0.00     0.275 C 
ENDROOT
BRANCH   1   2
ATOM      2  C   UNL A   1      32.812  29.883  27.325  1.00  0.00     0.275 C 
BRANCH   2   3
ATOM      3  O   UNL A   1      32.937  28.686  26.540  1.00  0.00    -0.457 OA
BRANCH   3   4
ATOM      4  C   UNL A   1      31.888  27.844  26.507  1.00  0.00     0.357 C 
ATOM      5  O   UNL A   1      31.209  27.488  27.489  1.00  0.00    -0.244 OA
BRANCH   4   6
ATOM      6  C   UNL A   1      31.566  27.539  25.091  1.00  0.00     0.156 A 
ATOM      7  C   UNL A   1      32.152  26.416  24.481  1.00  0.00     0.015 A 
ATOM      8  C   UNL A   1      31.810  26.177  23.143  1.00  0.00     0.013 A 
ATOM      9  C   UNL A   1      30.906  27.018  22.492  1.00  0.00     0.021 A 
ATOM     10  N   UNL A   1      30.713  28.391  24.462  1.00  0.00    -0.249 NA
ATOM     11  C   UNL A   1      30.377  28.091  23.193  1.00  0.00     0.112 A 
BRANCH   7  12
ATOM     12  C   UNL A   1      33.021  25.505  25.232  1.00  0.00    -0.016 A 
ATOM     13  C   UNL A   1      32.709  22.473  27.508  1.00  0.00     0.044 C 
ATOM     14  C   UNL A   1      33.307  23.554  26.661  1.00  0.00    -0.051 A 
ATOM     15  C   UNL A   1      34.663  23.501  26.321  1.00  0.00     0.003 A 
ATOM     16  C   UNL A   1      32.501  24.581  26.146  1.00  0.00     0.012 A 
ATOM     17  C   UNL A   1      35.201  24.433  25.442  1.00  0.00     0.001 A 
ATOM     18  C   UNL A   1      34.374  25.406  24.889  1.00  0.00     0.009 A 
ENDBRANCH   7  12
ENDBRANCH   4   6
ENDBRANCH   3   4
ENDBRANCH   2   3
ENDBRANCH   1   2
BRANCH   1  19
ATOM     19  O   UNL A   1      35.261  30.046  27.701  1.00  0.00    -0.458 OA
BRANCH  19  20
ATOM     20  C   UNL A   1      36.316  30.840  28.002  1.00  0.00     0.338 C 
ATOM     21  O   UNL A   1      36.225  32.068  28.202  1.00  0.00    -0.246 OA
BRANCH  20  22
ATOM     22  C   UNL A   1      37.433  29.982  28.467  1.00  0.00     0.060 A 
ATOM     23  C   UNL A   1      37.334  29.210  29.636  1.00  0.00     0.016 A 
ATOM     24  C   UNL A   1      38.475  29.736  27.563  1.00  0.00     0.016 A 
ATOM     25  C   UNL A   1      38.287  28.216  29.903  1.00  0.00     0.010 A 
ATOM     26  C   UNL A   1      39.300  28.654  27.740  1.00  0.00     0.010 A 
ATOM     27  C   UNL A   1      39.274  27.948  28.949  1.00  0.00    -0.014 A 
BRANCH  27  28
ATOM     28  C   UNL A   1      40.548  27.278  29.195  1.00  0.00     0.031 A 
ATOM     29  C   UNL A   1      40.888  25.900  28.794  1.00  0.00     0.074 A 
ATOM     30  C   UNL A   1      41.513  28.142  29.599  1.00  0.00     0.049 A 
ATOM     31  N   UNL A   1      42.073  25.417  28.934  1.00  0.00    -0.248 NA
ATOM     32  C   UNL A   1      39.972  24.925  28.220  1.00  0.00     0.031 C 
ATOM     33  C   UNL A   1      42.963  28.007  29.582  1.00  0.00     0.029 A 
ATOM     34  N   UNL A   1      41.353  29.388  30.199  1.00  0.00    -0.354 N 
ATOM     35  C   UNL A   1      42.159  24.227  28.259  1.00  0.00     0.074 A 
ATOM     36  C   UNL A   1      40.807  23.943  27.845  1.00  0.00     0.031 C 
ATOM     37  C   UNL A   1      43.479  28.916  30.430  1.00  0.00     0.029 A 
ATOM     38  C   UNL A   1      42.363  29.518  31.145  1.00  0.00     0.049 A 
ATOM     39  H   UNL A   1      40.657  30.053  29.993  1.00  0.00     0.167 HD
ATOM     40  C   UNL A   1      43.398  23.685  28.093  1.00  0.00     0.031 A 
ATOM     41  C   UNL A   1      42.088  29.323  32.475  1.00  0.00     0.031 A 
ATOM     42  C   UNL A   1      44.350  24.275  29.048  1.00  0.00     0.049 A 
ATOM     43  C   UNL A   1      42.723  28.047  33.036  1.00  0.00     0.074 A 
ATOM     44  C   UNL A   1      45.432  25.136  28.986  1.00  0.00     0.029 A 
ATOM     45  N   UNL A   1      44.016  24.192  30.395  1.00  0.00    -0.354 N 
ATOM     46  N   UNL A   1      43.478  27.227  32.351  1.00  0.00    -0.248 NA
ATOM     47  C   UNL A   1      42.493  27.553  34.395  1.00  0.00     0.031 C 
ATOM     48  C   UNL A   1      45.687  25.621  30.313  1.00  0.00     0.029 A 
ATOM     49  C   UNL A   1      44.787  25.026  31.180  1.00  0.00     0.049 A 
ATOM     50  H   UNL A   1      43.308  23.607  30.748  1.00  0.00     0.167 HD
ATOM     51  C   UNL A   1      43.786  26.126  33.096  1.00  0.00     0.074 A 
ATOM     52  C   UNL A   1      43.156  26.383  34.381  1.00  0.00     0.031 C 
ATOM     53  C   UNL A   1      44.497  25.065  32.610  1.00  0.00     0.031 A 
BRANCH  40  54
ATOM     54  C   UNL A   1      43.776  22.718  26.991  1.00  0.00    -0.014 A 
ATOM     55  C   UNL A   1      42.931  21.622  26.709  1.00  0.00     0.010 A 
ATOM     56  C   UNL A   1      44.991  22.754  26.279  1.00  0.00     0.010 A 
ATOM     57  C   UNL A   1      43.301  20.602  25.813  1.00  0.00     0.020 A 
ATOM     58  C   UNL A   1      45.371  21.748  25.375  1.00  0.00     0.020 A 
ATOM     59  C   UNL A   1      44.529  20.665  25.159  1.00  0.00     0.054 A 
BRANCH  59  60
ATOM     60  S   UNL A   1      45.027  19.315  24.057  1.00  0.00     0.124 S 
ATOM     61  O   UNL A   1      44.382  18.157  24.670  1.00  0.00    -0.237 OA
ATOM     62  O   UNL A   1      44.478  19.736  22.771  1.00  0.00    -0.237 OA
ATOM     63  O   UNL A   1      46.487  19.321  24.138  1.00  0.00    -0.744 OA
ENDBRANCH  59  60
ENDBRANCH  40  54
BRANCH  41  64
ATOM     64  C   UNL A   1      40.778  29.914  32.908  1.00  0.00    -0.014 A 
ATOM     65  C   UNL A   1      40.582  31.300  32.689  1.00  0.00     0.010 A 
ATOM     66  C   UNL A   1      39.651  29.128  33.202  1.00  0.00     0.010 A 
ATOM     67  C   UNL A   1      39.299  31.855  32.638  1.00  0.00     0.020 A 
ATOM     68  C   UNL A   1      38.360  29.688  33.180  1.00  0.00     0.020 A 
ATOM     69  C   UNL A   1      38.193  31.039  32.860  1.00  0.00     0.054 A 
BRANCH  69  70
ATOM     70  S   UNL A   1      36.541  31.727  32.533  1.00  0.00     0.124 S 
ATOM     71  O   UNL A   1      36.815  32.679  31.460  1.00  0.00    -0.237 OA
ATOM     72  O   UNL A   1      35.790  30.536  32.147  1.00  0.00    -0.237 OA
ATOM     73  O   UNL A   1      36.169  32.318  33.817  1.00  0.00    -0.744 OA
ENDBRANCH  69  70
ENDBRANCH  41  64
BRANCH  53  74
ATOM     74  C   UNL A   1      44.926  23.905  33.471  1.00  0.00    -0.014 A 
ATOM     75  C   UNL A   1      44.047  22.866  33.816  1.00  0.00     0.010 A 
ATOM     76  C   UNL A   1      46.204  23.896  34.073  1.00  0.00     0.010 A 
ATOM     77  C   UNL A   1      44.453  21.822  34.656  1.00  0.00     0.020 A 
ATOM     78  C   UNL A   1      46.613  22.873  34.930  1.00  0.00     0.020 A 
ATOM     79  C   UNL A   1      45.739  21.827  35.198  1.00  0.00     0.054 A 
BRANCH  79  80
ATOM     80  S   UNL A   1      46.239  20.485  36.303  1.00  0.00     0.124 S 
ATOM     81  O   UNL A   1      47.685  20.427  36.100  1.00  0.00    -0.237 OA
ATOM     82  O   UNL A   1      45.807  20.991  37.603  1.00  0.00    -0.237 OA
ATOM     83  O   UNL A   1      45.498  19.328  35.806  1.00  0.00    -0.744 OA
ENDBRANCH  79  80
ENDBRANCH  53  74
ENDBRANCH  27  28
ENDBRANCH  20  22
ENDBRANCH  19  20
ENDBRANCH   1  19
TORSDOF 15
ENDMDL
MODEL 2
REMARK VINA RESULT:     -13.1      0.850      2.283
REMARK SMILES Cc1cccc(-c2cccnc2C(=O)OCCOC(=O)c2ccc(-c3c4nc(c(-c5ccc(S(=O)(=O)[O-])cc5)c5ccc([nH]5)c(-c5ccc(S(=O)(=O)[O-])cc5)c5nc(c(-c6ccc(S(=O)(=O)[O-])cc6)c6ccc3[nH]6)C=C5)C=C4)cc2)c1
REMARK SMILES IDX 17 1 16 2 15 3 13 4 14 5 12 6 7 7 8 8 9 9 11 10 10 11 6 12
REMARK SMILES IDX 1 13 2 14 3 15 81 16 4 17 5 18 18 19 19 20 20 21 21 22 22 23
REMARK SMILES IDX 80 24 23 25 79 26 24 27 25 28 26 29 73 30 27 31 78 32 72 33
REMARK SMILES IDX 74 34 28 35 77 36 71 37 70 38 29 40 59 41 40 42 58 43 41 44
REMARK SMILES IDX 44 45 57 46 75 47 42 48 43 49 56 51 76 52 45 53 30 54 31 55
REMARK SMILES IDX 39 56 32 57 38 58 33 59 34 60 35 61 36 62 37 63 60 64 61 65
REMARK SMILES IDX 69 66 62 67 68 68 63 69 64 70 65 71 66 72 67 73 46 74 47 75
REMARK SMILES IDX 55 76 48 77 54 78 49 79 50 80 51 81 52 82 53 83
REMARK H PARENT 74 39 44 50
REMARK Flexibility Score: inf
ROOT
ATOM      1  C   UNL A   1      34.060  30.656  27.300  1.00  0.00     0.275 C 
ENDROOT
BRANCH   1   2
ATOM      2  C   UNL A   1      32.789  29.787  27.312  1.00  0.00     0.275 C 
BRANCH   2   3
ATOM      3  O   UNL A   1      32.764  28.805  26.264  1.00  0.00    -0.457 OA
BRANCH   3   4
ATOM      4  C   UNL A   1      32.149  27.635  26.513  1.00  0.00     0.357 C 
ATOM      5  O   UNL A   1      31.198  27.466  27.300  1.00  0.00    -0.244 OA
BRANCH   4   6
ATOM      6  C   UNL A   1      32.674  26.611  25.577  1.00  0.00     0.156 A 
ATOM      7  C   UNL A   1      31.938  26.296  24.422  1.00  0.00     0.015 A 
ATOM      8  C   UNL A   1      32.483  25.323  23.574  1.00  0.00     0.013 A 
ATOM      9  C   UNL A   1      33.714  24.740  23.880  1.00  0.00     0.021 A 
ATOM     10  N   UNL A   1      33.856  26.027  25.911  1.00  0.00    -0.249 NA
ATOM     11  C   UNL A   1      34.363  25.135  25.039  1.00  0.00     0.112 A 
BRANCH   7  12
ATOM     12  C   UNL A   1      30.696  27.003  24.091  1.00  0.00    -0.016 A 
ATOM     13  C   UNL A   1      29.561  29.978  22.011  1.00  0.00     0.044 C 
ATOM     14  C   UNL A   1      29.522  28.758  22.878  1.00  0.00    -0.051 A 
ATOM     15  C   UNL A   1      28.306  28.103  23.104  1.00  0.00     0.003 A 
ATOM     16  C   UNL A   1      30.706  28.225  23.409  1.00  0.00     0.012 A 
ATOM     17  C   UNL A   1      28.276  26.906  23.810  1.00  0.00     0.001 A 
ATOM     18  C   UNL A   1      29.468  26.358  24.273  1.00  0.00     0.009 A 
ENDBRANCH   7  12
ENDBRANCH   4   6
ENDBRANCH   3   4
ENDBRANCH   2   3
ENDBRANCH   1   2
BRANCH   1  19
ATOM     19  O   UNL A   1      35.171  30.029  27.968  1.00  0.00    -0.458 OA
BRANCH  19  20
ATOM     20  C   UNL A   1      36.288  30.792  28.028  1.00  0.00     0.338 C 
ATOM     21  O   UNL A   1      36.276  32.039  28.052  1.00  0.00    -0.246 OA
BRANCH  20  22
ATOM     22  C   UNL A   1      37.414  29.943  28.489  1.00  0.00     0.060 A 
ATOM     23  C   UNL A   1      37.306  29.126  29.626  1.00  0.00     0.016 A 
ATOM     24  C   UNL A   1      38.482  29.753  27.601  1.00  0.00     0.016 A 
ATOM     25  C   UNL A   1      38.275  28.144  29.880  1.00  0.00     0.010 A 
ATOM     26  C   UNL A   1      39.328  28.684  27.758  1.00  0.00     0.010 A 
ATOM     27  C   UNL A   1      39.290  27.933  28.940  1.00  0.00    -0.014 A 
BRANCH  27  28
ATOM     28  C   UNL A   1      40.573  27.283  29.192  1.00  0.00     0.031 A 
ATOM     29  C   UNL A   1      40.935  25.910  28.795  1.00  0.00     0.074 A 
ATOM     30  C   UNL A   1      41.523  28.163  29.599  1.00  0.00     0.049 A 
ATOM     31  N   UNL A   1      42.127  25.446  28.940  1.00  0.00    -0.248 NA
ATOM     32  C   UNL A   1      40.037  24.921  28.218  1.00  0.00     0.031 C 
ATOM     33  C   UNL A   1      42.975  28.049  29.587  1.00  0.00     0.029 A 
ATOM     34  N   UNL A   1      41.342  29.407  30.196  1.00  0.00    -0.354 N 
ATOM     35  C   UNL A   1      42.234  24.256  28.267  1.00  0.00     0.074 A 
ATOM     36  C   UNL A   1      40.888  23.951  27.848  1.00  0.00     0.031 C 
ATOM     37  C   UNL A   1      43.474  28.967  30.436  1.00  0.00     0.029 A 
ATOM     38  C   UNL A   1      42.346  29.554  31.146  1.00  0.00     0.049 A 
ATOM     39  H   UNL A   1      40.637  30.061  29.986  1.00  0.00     0.167 HD
ATOM     40  C   UNL A   1      43.482  23.732  28.107  1.00  0.00     0.031 A 
ATOM     41  C   UNL A   1      42.069  29.356  32.475  1.00  0.00     0.031 A 
ATOM     42  C   UNL A   1      44.421  24.338  29.064  1.00  0.00     0.049 A 
ATOM     43  C   UNL A   1      42.721  28.091  33.040  1.00  0.00     0.074 A 
ATOM     44  C   UNL A   1      45.490  25.216  29.006  1.00  0.00     0.029 A 
ATOM     45  N   UNL A   1      44.083  24.253  30.410  1.00  0.00    -0.354 N 
ATOM     46  N   UNL A   1      43.491  27.282  32.359  1.00  0.00    -0.248 NA
ATOM     47  C   UNL A   1      42.493  27.596  34.399  1.00  0.00     0.031 C 
ATOM     48  C   UNL A   1      45.732  25.707  30.333  1.00  0.00     0.029 A 
ATOM     49  C   UNL A   1      44.838  25.099  31.197  1.00  0.00     0.049 A 
ATOM     50  H   UNL A   1      43.383  23.657  30.762  1.00  0.00     0.167 HD
ATOM     51  C   UNL A   1      43.813  26.187  33.108  1.00  0.00     0.074 A 
ATOM     52  C   UNL A   1      43.174  26.436  34.390  1.00  0.00     0.031 C 
ATOM     53  C   UNL A   1      44.542  25.136  32.626  1.00  0.00     0.031 A 
BRANCH  40  54
ATOM     54  C   UNL A   1      43.879  22.770  27.008  1.00  0.00    -0.014 A 
ATOM     55  C   UNL A   1      42.970  21.769  26.600  1.00  0.00     0.010 A 
ATOM     56  C   UNL A   1      45.158  22.713  26.420  1.00  0.00     0.010 A 
ATOM     57  C   UNL A   1      43.333  20.748  25.702  1.00  0.00     0.020 A 
ATOM     58  C   UNL A   1      45.533  21.705  25.516  1.00  0.00     0.020 A 
ATOM     59  C   UNL A   1      44.621  20.715  25.175  1.00  0.00     0.054 A 
BRANCH  59  60
ATOM     60  S   UNL A   1      45.102  19.359  24.071  1.00  0.00     0.124 S 
ATOM     61  O   UNL A   1      44.558  18.190  24.756  1.00  0.00    -0.237 OA
ATOM     62  O   UNL A   1      44.444  19.721  22.819  1.00  0.00    -0.237 OA
ATOM     63  O   UNL A   1      46.562  19.433  24.046  1.00  0.00    -0.744 OA
ENDBRANCH  59  60
ENDBRANCH  40  54
BRANCH  41  64
ATOM     64  C   UNL A   1      40.748  29.929  32.902  1.00  0.00    -0.014 A 
ATOM     65  C   UNL A   1      40.555  31.322  32.736  1.00  0.00     0.010 A 
ATOM     66  C   UNL A   1      39.616  29.130  33.138  1.00  0.00     0.010 A 
ATOM     67  C   UNL A   1      39.272  31.877  32.679  1.00  0.00     0.020 A 
ATOM     68  C   UNL A   1      38.325  29.690  33.109  1.00  0.00     0.020 A 
ATOM     69  C   UNL A   1      38.162  31.052  32.842  1.00  0.00     0.054 A 
BRANCH  69  70
ATOM     70  S   UNL A   1      36.517  31.752  32.505  1.00  0.00     0.124 S 
ATOM     71  O   UNL A   1      36.808  32.717  31.449  1.00  0.00    -0.237 OA
ATOM     72  O   UNL A   1      35.766  30.569  32.095  1.00  0.00    -0.237 OA
ATOM     73  O   UNL A   1      36.133  32.326  33.793  1.00  0.00    -0.744 OA
ENDBRANCH  69  70
ENDBRANCH  41  64
BRANCH  53  74
ATOM     74  C   UNL A   1      44.985  23.984  33.490  1.00  0.00    -0.014 A 
ATOM     75  C   UNL A   1      44.132  22.914  33.803  1.00  0.00     0.010 A 
ATOM     76  C   UNL A   1      46.246  24.013  34.127  1.00  0.00     0.010 A 
ATOM     77  C   UNL A   1      44.549  21.878  34.647  1.00  0.00     0.020 A 
ATOM     78  C   UNL A   1      46.665  22.997  34.989  1.00  0.00     0.020 A 
ATOM     79  C   UNL A   1      45.819  21.920  35.225  1.00  0.00     0.054 A 
BRANCH  79  80
ATOM     80  S   UNL A   1      46.332  20.587  36.333  1.00  0.00     0.124 S 
ATOM     81  O   UNL A   1      45.643  19.426  35.777  1.00  0.00    -0.237 OA
ATOM     82  O   UNL A   1      47.783  20.597  36.163  1.00  0.00    -0.237 OA
ATOM     83  O   UNL A   1      45.855  21.020  37.645  1.00  0.00    -0.744 OA
ENDBRANCH  79  80
ENDBRANCH  53  74
ENDBRANCH  27  28
ENDBRANCH  20  22
ENDBRANCH  19  20
ENDBRANCH   1  19
TORSDOF 15
ENDMDL
MODEL 3
REMARK VINA RESULT:     -12.8      4.791     11.487
REMARK SMILES Cc1cccc(-c2cccnc2C(=O)OCCOC(=O)c2ccc(-c3c4nc(c(-c5ccc(S(=O)(=O)[O-])cc5)c5ccc([nH]5)c(-c5ccc(S(=O)(=O)[O-])cc5)c5nc(c(-c6ccc(S(=O)(=O)[O-])cc6)c6ccc3[nH]6)C=C5)C=C4)cc2)c1
REMARK SMILES IDX 17 1 16 2 15 3 13 4 14 5 12 6 7 7 8 8 9 9 11 10 10 11 6 12
REMARK SMILES IDX 1 13 2 14 3 15 81 16 4 17 5 18 18 19 19 20 20 21 21 22 22 23
REMARK SMILES IDX 80 24 23 25 79 26 24 27 25 28 26 29 73 30 27 31 78 32 72 33
REMARK SMILES IDX 74 34 28 35 77 36 71 37 70 38 29 40 59 41 40 42 58 43 41 44
REMARK SMILES IDX 44 45 57 46 75 47 42 48 43 49 56 51 76 52 45 53 30 54 31 55
REMARK SMILES IDX 39 56 32 57 38 58 33 59 34 60 35 61 36 62 37 63 60 64 61 65
REMARK SMILES IDX 69 66 62 67 68 68 63 69 64 70 65 71 66 72 67 73 46 74 47 75
REMARK SMILES IDX 55 76 48 77 54 78 49 79 50 80 51 81 52 82 53 83
REMARK H PARENT 74 39 44 50
REMARK Flexibility Score: inf
ROOT
ATOM      1  C   UNL A   1      38.397  22.514  26.112  1.00  0.00     0.275 C 
ENDROOT
BRANCH   1   2
ATOM      2  C   UNL A   1      36.939  22.289  25.670  1.00  0.00     0.275 C 
BRANCH   2   3
ATOM      3  O   UNL A   1      36.383  23.410  24.965  1.00  0.00    -0.457 OA
BRANCH   3   4
ATOM      4  C   UNL A   1      35.636  23.159  23.874  1.00  0.00     0.357 C 
ATOM      5  O   UNL A   1      36.041  23.172  22.696  1.00  0.00    -0.244 OA
BRANCH   4   6
ATOM      6  C   UNL A   1      34.294  22.700  24.311  1.00  0.00     0.156 A 
ATOM      7  C   UNL A   1      33.352  23.648  24.745  1.00  0.00     0.015 A 
ATOM      8  C   UNL A   1      32.102  23.157  25.144  1.00  0.00     0.013 A 
ATOM      9  C   UNL A   1      31.833  21.789  25.071  1.00  0.00     0.021 A 
ATOM     10  N   UNL A   1      34.064  21.360  24.268  1.00  0.00    -0.249 NA
ATOM     11  C   UNL A   1      32.831  20.942  24.614  1.00  0.00     0.112 A 
BRANCH   7  12
ATOM     12  C   UNL A   1      33.645  25.085  24.714  1.00  0.00    -0.016 A 
ATOM     13  C   UNL A   1      33.624  27.961  22.224  1.00  0.00     0.044 C 
ATOM     14  C   UNL A   1      33.728  27.200  23.509  1.00  0.00    -0.051 A 
ATOM     15  C   UNL A   1      33.779  27.892  24.725  1.00  0.00     0.003 A 
ATOM     16  C   UNL A   1      33.702  25.797  23.510  1.00  0.00     0.012 A 
ATOM     17  C   UNL A   1      33.759  27.197  25.928  1.00  0.00     0.001 A 
ATOM     18  C   UNL A   1      33.667  25.809  25.911  1.00  0.00     0.009 A 
ENDBRANCH   7  12
ENDBRANCH   4   6
ENDBRANCH   3   4
ENDBRANCH   2   3
ENDBRANCH   1   2
BRANCH   1  19
ATOM     19  O   UNL A   1      38.585  23.763  26.803  1.00  0.00    -0.458 OA
BRANCH  19  20
ATOM     20  C   UNL A   1      39.831  23.942  27.302  1.00  0.00     0.338 C 
ATOM     21  O   UNL A   1      40.764  23.127  27.148  1.00  0.00    -0.246 OA
BRANCH  20  22
ATOM     22  C   UNL A   1      40.001  25.375  27.641  1.00  0.00     0.060 A 
ATOM     23  C   UNL A   1      40.382  26.323  26.677  1.00  0.00     0.016 A 
ATOM     24  C   UNL A   1      39.493  25.809  28.874  1.00  0.00     0.016 A 
ATOM     25  C   UNL A   1      40.273  27.693  26.959  1.00  0.00     0.010 A 
ATOM     26  C   UNL A   1      39.226  27.140  29.079  1.00  0.00     0.010 A 
ATOM     27  C   UNL A   1      39.698  28.094  28.169  1.00  0.00    -0.014 A 
BRANCH  27  28
ATOM     28  C   UNL A   1      39.863  29.396  28.810  1.00  0.00     0.031 A 
ATOM     29  C   UNL A   1      38.866  30.482  28.823  1.00  0.00     0.074 A 
ATOM     30  C   UNL A   1      40.936  29.426  29.641  1.00  0.00     0.049 A 
ATOM     31  N   UNL A   1      39.031  31.557  29.513  1.00  0.00    -0.248 NA
ATOM     32  C   UNL A   1      37.613  30.502  28.083  1.00  0.00     0.031 C 
ATOM     33  C   UNL A   1      41.249  30.333  30.737  1.00  0.00     0.029 A 
ATOM     34  N   UNL A   1      42.063  28.610  29.620  1.00  0.00    -0.354 N 
ATOM     35  C   UNL A   1      37.856  32.263  29.536  1.00  0.00     0.074 A 
ATOM     36  C   UNL A   1      36.998  31.576  28.602  1.00  0.00     0.031 C 
ATOM     37  C   UNL A   1      42.566  30.234  30.999  1.00  0.00     0.029 A 
ATOM     38  C   UNL A   1      43.151  29.408  29.954  1.00  0.00     0.049 A 
ATOM     39  H   UNL A   1      42.086  27.649  29.407  1.00  0.00     0.167 HD
ATOM     40  C   UNL A   1      37.765  33.305  30.408  1.00  0.00     0.031 A 
ATOM     41  C   UNL A   1      43.995  29.866  28.974  1.00  0.00     0.031 A 
ATOM     42  C   UNL A   1      39.104  33.727  30.848  1.00  0.00     0.049 A 
ATOM     43  C   UNL A   1      43.882  31.376  28.745  1.00  0.00     0.074 A 
ATOM     44  C   UNL A   1      39.846  33.663  32.015  1.00  0.00     0.029 A 
ATOM     45  N   UNL A   1      40.009  34.074  29.851  1.00  0.00    -0.354 N 
ATOM     46  N   UNL A   1      43.096  32.175  29.421  1.00  0.00    -0.248 NA
ATOM     47  C   UNL A   1      44.592  32.093  27.684  1.00  0.00     0.031 C 
ATOM     48  C   UNL A   1      41.221  33.905  31.679  1.00  0.00     0.029 A 
ATOM     49  C   UNL A   1      41.305  34.153  30.319  1.00  0.00     0.049 A 
ATOM     50  H   UNL A   1      39.754  34.242  28.915  1.00  0.00     0.167 HD
ATOM     51  C   UNL A   1      43.136  33.435  28.899  1.00  0.00     0.074 A 
ATOM     52  C   UNL A   1      44.102  33.340  27.817  1.00  0.00     0.031 C 
ATOM     53  C   UNL A   1      42.354  34.461  29.353  1.00  0.00     0.031 A 
BRANCH  40  54
ATOM     54  C   UNL A   1      36.468  33.859  30.959  1.00  0.00    -0.014 A 
ATOM     55  C   UNL A   1      35.332  33.929  30.122  1.00  0.00     0.010 A 
ATOM     56  C   UNL A   1      36.322  34.432  32.238  1.00  0.00     0.010 A 
ATOM     57  C   UNL A   1      34.148  34.576  30.519  1.00  0.00     0.020 A 
ATOM     58  C   UNL A   1      35.144  35.075  32.652  1.00  0.00     0.020 A 
ATOM     59  C   UNL A   1      34.066  35.159  31.781  1.00  0.00     0.054 A 
BRANCH  59  60
ATOM     60  S   UNL A   1      32.560  36.048  32.261  1.00  0.00     0.124 S 
ATOM     61  O   UNL A   1      33.015  36.841  33.400  1.00  0.00    -0.237 OA
ATOM     62  O   UNL A   1      32.241  36.805  31.054  1.00  0.00    -0.237 OA
ATOM     63  O   UNL A   1      31.617  34.982  32.591  1.00  0.00    -0.744 OA
ENDBRANCH  59  60
ENDBRANCH  40  54
BRANCH  41  64
ATOM     64  C   UNL A   1      44.301  28.839  27.921  1.00  0.00    -0.014 A 
ATOM     65  C   UNL A   1      45.044  27.700  28.315  1.00  0.00     0.010 A 
ATOM     66  C   UNL A   1      43.627  28.792  26.688  1.00  0.00     0.010 A 
ATOM     67  C   UNL A   1      45.010  26.516  27.572  1.00  0.00     0.020 A 
ATOM     68  C   UNL A   1      43.614  27.611  25.923  1.00  0.00     0.020 A 
ATOM     69  C   UNL A   1      44.274  26.471  26.390  1.00  0.00     0.054 A 
BRANCH  69  70
ATOM     70  S   UNL A   1      44.038  24.856  25.588  1.00  0.00     0.124 S 
ATOM     71  O   UNL A   1      42.763  25.041  24.901  1.00  0.00    -0.237 OA
ATOM     72  O   UNL A   1      45.215  24.773  24.728  1.00  0.00    -0.237 OA
ATOM     73  O   UNL A   1      44.015  23.927  26.716  1.00  0.00    -0.744 OA
ENDBRANCH  69  70
ENDBRANCH  41  64
BRANCH  53  74
ATOM     74  C   UNL A   1      42.484  35.873  28.846  1.00  0.00    -0.014 A 
ATOM     75  C   UNL A   1      41.858  36.302  27.665  1.00  0.00     0.010 A 
ATOM     76  C   UNL A   1      43.357  36.784  29.482  1.00  0.00     0.010 A 
ATOM     77  C   UNL A   1      42.030  37.607  27.185  1.00  0.00     0.020 A 
ATOM     78  C   UNL A   1      43.554  38.080  29.002  1.00  0.00     0.020 A 
ATOM     79  C   UNL A   1      42.868  38.492  27.866  1.00  0.00     0.054 A 
BRANCH  79  80
ATOM     80  S   UNL A   1      43.100  40.164  27.219  1.00  0.00     0.124 S 
ATOM     81  O   UNL A   1      41.806  40.452  26.606  1.00  0.00    -0.237 OA
ATOM     82  O   UNL A   1      43.399  40.917  28.435  1.00  0.00    -0.237 OA
ATOM     83  O   UNL A   1      44.211  40.026  26.281  1.00  0.00    -0.744 OA
ENDBRANCH  79  80
ENDBRANCH  53  74
ENDBRANCH  27  28
ENDBRANCH  20  22
ENDBRANCH  19  20
ENDBRANCH   1  19
TORSDOF 15
ENDMDL
