MODEL 1
REMARK VINA RESULT:      -9.8      0.000      0.000
REMARK SMILES Nc1ccc(C(=O)NC[C@@H]2CC[C@@H](C(=O)OCCOC(=O)c3ccc(-c4c5nc(c(-c6ccc(S(=O)(=O)[O-])cc6)c6ccc([nH]6)c(-c6ccc(S(=O)(=O)[O-])cc6)c6nc(c(-c7ccc(S(=O)(=O)[O-])cc7)c7ccc4[nH]7)C=C6)C=C5)cc3)O2)cc1Cl
REMARK SMILES IDX 17 1 16 2 14 3 15 4 13 5 10 6 11 7 82 8 12 9 9 10 8 11 6 12
REMARK SMILES IDX 7 13 5 15 2 16 3 17 84 18 4 19 83 20 85 21 1 22 18 25 19 26
REMARK SMILES IDX 20 27 21 28 22 29 23 30 81 31 24 32 80 33 25 34 26 35 27 36
REMARK SMILES IDX 74 37 28 38 79 39 73 40 75 41 29 42 78 43 72 44 71 45 30 47
REMARK SMILES IDX 60 48 41 49 59 50 42 51 45 52 58 53 76 54 43 55 44 56 57 58
REMARK SMILES IDX 77 59 46 60 31 61 32 62 40 63 33 64 39 65 34 66 35 67 36 68
REMARK SMILES IDX 37 69 38 70 61 71 62 72 70 73 63 74 69 75 64 76 65 77 66 78
REMARK SMILES IDX 67 79 68 80 47 81 48 82 56 83 49 84 55 85 50 86 51 87 52 88
REMARK SMILES IDX 53 89 54 90
REMARK H PARENT 8 14 1 23 1 24 75 46 45 57
REMARK Flexibility Score: inf
ROOT
ATOM      1  C   UNL A   1      41.077  20.137  26.481  1.00  0.00     0.274 C 
ENDROOT
BRANCH   1   2
ATOM      2  O   UNL A   1      41.870  19.571  25.417  1.00  0.00    -0.460 OA
BRANCH   2   3
ATOM      3  C   UNL A   1      42.966  18.851  25.787  1.00  0.00     0.335 C 
ATOM      4  O   UNL A   1      43.024  18.096  26.749  1.00  0.00    -0.249 OA
BRANCH   3   5
ATOM      5  C   UNL A   1      44.122  19.099  24.812  1.00  0.00     0.228 C 
ATOM      6  C   UNL A   1      45.588  20.899  25.043  1.00  0.00     0.138 C 
ATOM      7  C   UNL A   1      46.433  19.642  24.973  1.00  0.00     0.037 C 
ATOM      8  O   UNL A   1      44.294  20.504  24.548  1.00  0.00    -0.361 OA
ATOM      9  C   UNL A   1      45.442  18.586  25.379  1.00  0.00     0.047 C 
BRANCH   6  10
ATOM     10  C   UNL A   1      46.122  22.126  24.282  1.00  0.00     0.148 C 
BRANCH  10  11
ATOM     11  N   UNL A   1      45.203  23.253  24.209  1.00  0.00    -0.349 N 
ATOM     12  C   UNL A   1      44.481  23.991  25.105  1.00  0.00     0.251 C 
ATOM     13  O   UNL A   1      43.780  24.881  24.618  1.00  0.00    -0.269 OA
ATOM     14  H   UNL A   1      45.068  23.561  23.284  1.00  0.00     0.163 HD
BRANCH  12  15
ATOM     15  C   UNL A   1      44.476  23.818  26.589  1.00  0.00     0.041 A 
ATOM     16  C   UNL A   1      44.231  23.408  29.397  1.00  0.00     0.050 A 
ATOM     17  C   UNL A   1      45.400  23.929  28.841  1.00  0.00     0.028 A 
ATOM     18  C   UNL A   1      43.168  23.117  28.530  1.00  0.00     0.064 A 
ATOM     19  C   UNL A   1      45.526  24.120  27.456  1.00  0.00     0.016 A 
ATOM     20  C   UNL A   1      43.295  23.303  27.149  1.00  0.00     0.036 A 
ATOM     21  Cl  UNL A   1      41.670  22.509  29.146  1.00  0.00    -0.082 Cl
BRANCH  16  22
ATOM     22  N   UNL A   1      44.105  23.326  30.781  1.00  0.00    -0.398 N 
ATOM     23  H   UNL A   1      43.692  22.533  31.191  1.00  0.00     0.156 HD
ATOM     24  H   UNL A   1      44.431  24.061  31.349  1.00  0.00     0.156 HD
ENDBRANCH  16  22
ENDBRANCH  12  15
ENDBRANCH  10  11
ENDBRANCH   6  10
ENDBRANCH   3   5
ENDBRANCH   2   3
ENDBRANCH   1   2
BRANCH   1  25
ATOM     25  C   UNL A   1      39.927  20.928  25.868  1.00  0.00     0.275 C 
BRANCH  25  26
ATOM     26  O   UNL A   1      39.557  21.976  26.785  1.00  0.00    -0.458 OA
BRANCH  26  27
ATOM     27  C   UNL A   1      38.787  22.963  26.288  1.00  0.00     0.338 C 
ATOM     28  O   UNL A   1      37.872  22.865  25.480  1.00  0.00    -0.246 OA
BRANCH  27  29
ATOM     29  C   UNL A   1      39.186  24.236  26.909  1.00  0.00     0.060 A 
ATOM     30  C   UNL A   1      39.922  25.155  26.161  1.00  0.00     0.016 A 
ATOM     31  C   UNL A   1      38.909  24.490  28.250  1.00  0.00     0.016 A 
ATOM     32  C   UNL A   1      40.447  26.294  26.768  1.00  0.00     0.010 A 
ATOM     33  C   UNL A   1      39.347  25.686  28.828  1.00  0.00     0.010 A 
ATOM     34  C   UNL A   1      40.144  26.595  28.105  1.00  0.00    -0.014 A 
BRANCH  34  35
ATOM     35  C   UNL A   1      40.645  27.850  28.739  1.00  0.00     0.031 A 
ATOM     36  C   UNL A   1      42.060  27.935  29.257  1.00  0.00     0.074 A 
ATOM     37  C   UNL A   1      39.831  28.919  28.874  1.00  0.00     0.049 A 
ATOM     38  N   UNL A   1      42.610  28.862  30.000  1.00  0.00    -0.248 NA
ATOM     39  C   UNL A   1      42.971  26.832  28.908  1.00  0.00     0.031 C 
ATOM     40  C   UNL A   1      38.445  29.000  28.405  1.00  0.00     0.029 A 
ATOM     41  N   UNL A   1      40.052  30.146  29.451  1.00  0.00    -0.354 N 
ATOM     42  C   UNL A   1      43.904  28.424  30.264  1.00  0.00     0.074 A 
ATOM     43  C   UNL A   1      44.064  27.153  29.589  1.00  0.00     0.031 C 
ATOM     44  C   UNL A   1      37.954  30.218  28.682  1.00  0.00     0.029 A 
ATOM     45  C   UNL A   1      38.954  30.976  29.424  1.00  0.00     0.049 A 
ATOM     46  H   UNL A   1      40.915  30.408  29.848  1.00  0.00     0.167 HD
ATOM     47  C   UNL A   1      44.867  29.020  31.006  1.00  0.00     0.031 A 
ATOM     48  C   UNL A   1      38.746  32.187  29.975  1.00  0.00     0.031 A 
ATOM     49  C   UNL A   1      44.737  30.311  31.628  1.00  0.00     0.049 A 
ATOM     50  C   UNL A   1      39.826  32.821  30.802  1.00  0.00     0.074 A 
ATOM     51  C   UNL A   1      45.684  31.012  32.358  1.00  0.00     0.029 A 
ATOM     52  N   UNL A   1      43.601  31.102  31.585  1.00  0.00    -0.354 N 
ATOM     53  N   UNL A   1      41.031  32.374  31.060  1.00  0.00    -0.248 NA
ATOM     54  C   UNL A   1      39.508  34.109  31.436  1.00  0.00     0.031 C 
ATOM     55  C   UNL A   1      45.106  32.211  32.788  1.00  0.00     0.029 A 
ATOM     56  C   UNL A   1      43.813  32.272  32.296  1.00  0.00     0.049 A 
ATOM     57  H   UNL A   1      42.767  30.867  31.119  1.00  0.00     0.167 HD
ATOM     58  C   UNL A   1      41.612  33.324  31.893  1.00  0.00     0.074 A 
ATOM     59  C   UNL A   1      40.640  34.383  32.069  1.00  0.00     0.031 C 
ATOM     60  C   UNL A   1      42.837  33.312  32.471  1.00  0.00     0.031 A 
BRANCH  47  61
ATOM     61  C   UNL A   1      46.151  28.270  31.230  1.00  0.00    -0.014 A 
ATOM     62  C   UNL A   1      47.286  28.502  30.436  1.00  0.00     0.010 A 
ATOM     63  C   UNL A   1      46.244  27.381  32.319  1.00  0.00     0.010 A 
ATOM     64  C   UNL A   1      48.489  27.846  30.717  1.00  0.00     0.020 A 
ATOM     65  C   UNL A   1      47.448  26.738  32.613  1.00  0.00     0.020 A 
ATOM     66  C   UNL A   1      48.562  26.968  31.804  1.00  0.00     0.054 A 
BRANCH  66  67
ATOM     67  S   UNL A   1      50.149  26.172  32.184  1.00  0.00     0.124 S 
ATOM     68  O   UNL A   1      50.306  26.479  33.602  1.00  0.00    -0.237 OA
ATOM     69  O   UNL A   1      49.889  24.769  31.869  1.00  0.00    -0.237 OA
ATOM     70  O   UNL A   1      51.093  26.841  31.293  1.00  0.00    -0.744 OA
ENDBRANCH  66  67
ENDBRANCH  47  61
BRANCH  48  71
ATOM     71  C   UNL A   1      37.420  32.851  29.832  1.00  0.00    -0.014 A 
ATOM     72  C   UNL A   1      36.499  32.848  30.892  1.00  0.00     0.010 A 
ATOM     73  C   UNL A   1      37.076  33.482  28.623  1.00  0.00     0.010 A 
ATOM     74  C   UNL A   1      35.247  33.454  30.740  1.00  0.00     0.020 A 
ATOM     75  C   UNL A   1      35.838  34.111  28.477  1.00  0.00     0.020 A 
ATOM     76  C   UNL A   1      34.925  34.079  29.532  1.00  0.00     0.054 A 
BRANCH  76  77
ATOM     77  S   UNL A   1      33.318  34.906  29.360  1.00  0.00     0.124 S 
ATOM     78  O   UNL A   1      32.855  34.953  30.743  1.00  0.00    -0.237 OA
ATOM     79  O   UNL A   1      33.679  36.192  28.769  1.00  0.00    -0.237 OA
ATOM     80  O   UNL A   1      32.574  34.012  28.476  1.00  0.00    -0.744 OA
ENDBRANCH  76  77
ENDBRANCH  48  71
BRANCH  60  81
ATOM     81  C   UNL A   1      43.194  34.479  33.346  1.00  0.00    -0.014 A 
ATOM     82  C   UNL A   1      43.649  35.683  32.783  1.00  0.00     0.010 A 
ATOM     83  C   UNL A   1      43.035  34.385  34.741  1.00  0.00     0.010 A 
ATOM     84  C   UNL A   1      43.965  36.769  33.602  1.00  0.00     0.020 A 
ATOM     85  C   UNL A   1      43.333  35.475  35.562  1.00  0.00     0.020 A 
ATOM     86  C   UNL A   1      43.810  36.657  34.988  1.00  0.00     0.054 A 
BRANCH  86  87
ATOM     87  S   UNL A   1      44.188  38.091  36.032  1.00  0.00     0.124 S 
ATOM     88  O   UNL A   1      45.594  37.867  36.356  1.00  0.00    -0.237 OA
ATOM     89  O   UNL A   1      43.921  39.220  35.144  1.00  0.00    -0.237 OA
ATOM     90  O   UNL A   1      43.260  37.955  37.152  1.00  0.00    -0.744 OA
ENDBRANCH  86  87
ENDBRANCH  60  81
ENDBRANCH  34  35
ENDBRANCH  27  29
ENDBRANCH  26  27
ENDBRANCH  25  26
ENDBRANCH   1  25
TORSDOF 18
ENDMDL
MODEL 2
REMARK VINA RESULT:      -9.8      2.911     11.105
REMARK SMILES Nc1ccc(C(=O)NC[C@@H]2CC[C@@H](C(=O)OCCOC(=O)c3ccc(-c4c5nc(c(-c6ccc(S(=O)(=O)[O-])cc6)c6ccc([nH]6)c(-c6ccc(S(=O)(=O)[O-])cc6)c6nc(c(-c7ccc(S(=O)(=O)[O-])cc7)c7ccc4[nH]7)C=C6)C=C5)cc3)O2)cc1Cl
REMARK SMILES IDX 17 1 16 2 14 3 15 4 13 5 10 6 11 7 82 8 12 9 9 10 8 11 6 12
REMARK SMILES IDX 7 13 5 15 2 16 3 17 84 18 4 19 83 20 85 21 1 22 18 25 19 26
REMARK SMILES IDX 20 27 21 28 22 29 23 30 81 31 24 32 80 33 25 34 26 35 27 36
REMARK SMILES IDX 74 37 28 38 79 39 73 40 75 41 29 42 78 43 72 44 71 45 30 47
REMARK SMILES IDX 60 48 41 49 59 50 42 51 45 52 58 53 76 54 43 55 44 56 57 58
REMARK SMILES IDX 77 59 46 60 31 61 32 62 40 63 33 64 39 65 34 66 35 67 36 68
REMARK SMILES IDX 37 69 38 70 61 71 62 72 70 73 63 74 69 75 64 76 65 77 66 78
REMARK SMILES IDX 67 79 68 80 47 81 48 82 56 83 49 84 55 85 50 86 51 87 52 88
REMARK SMILES IDX 53 89 54 90
REMARK H PARENT 8 14 1 23 1 24 75 46 45 57
REMARK Flexibility Score: inf
ROOT
ATOM      1  C   UNL A   1      34.017  33.952  28.901  1.00  0.00     0.274 C 
ENDROOT
BRANCH   1   2
ATOM      2  O   UNL A   1      35.322  34.523  28.675  1.00  0.00    -0.460 OA
BRANCH   2   3
ATOM      3  C   UNL A   1      36.385  33.849  29.198  1.00  0.00     0.335 C 
ATOM      4  O   UNL A   1      37.195  33.198  28.551  1.00  0.00    -0.249 OA
BRANCH   3   5
ATOM      5  C   UNL A   1      36.443  34.036  30.717  1.00  0.00     0.228 C 
ATOM      6  C   UNL A   1      37.227  32.373  32.153  1.00  0.00     0.138 C 
ATOM      7  C   UNL A   1      38.022  33.631  32.451  1.00  0.00     0.037 C 
ATOM      8  O   UNL A   1      36.080  32.827  31.409  1.00  0.00    -0.361 OA
ATOM      9  C   UNL A   1      37.849  34.408  31.175  1.00  0.00     0.047 C 
BRANCH   6  10
ATOM     10  C   UNL A   1      36.803  31.529  33.368  1.00  0.00     0.148 C 
BRANCH  10  11
ATOM     11  N   UNL A   1      36.947  30.090  33.198  1.00  0.00    -0.349 N 
ATOM     12  C   UNL A   1      37.988  29.205  33.160  1.00  0.00     0.251 C 
ATOM     13  O   UNL A   1      37.677  28.027  32.967  1.00  0.00    -0.269 OA
ATOM     14  H   UNL A   1      36.078  29.643  33.080  1.00  0.00     0.163 HD
BRANCH  12  15
ATOM     15  C   UNL A   1      39.434  29.535  33.336  1.00  0.00     0.041 A 
ATOM     16  C   UNL A   1      42.243  29.947  33.559  1.00  0.00     0.050 A 
ATOM     17  C   UNL A   1      41.334  30.870  34.075  1.00  0.00     0.028 A 
ATOM     18  C   UNL A   1      41.730  28.794  32.949  1.00  0.00     0.064 A 
ATOM     19  C   UNL A   1      39.949  30.674  33.955  1.00  0.00     0.016 A 
ATOM     20  C   UNL A   1      40.350  28.600  32.824  1.00  0.00     0.036 A 
ATOM     21  Cl  UNL A   1      42.793  27.581  32.322  1.00  0.00    -0.082 Cl
BRANCH  16  22
ATOM     22  N   UNL A   1      43.606  30.125  33.784  1.00  0.00    -0.398 N 
ATOM     23  H   UNL A   1      43.974  30.007  34.689  1.00  0.00     0.156 HD
ATOM     24  H   UNL A   1      44.201  30.370  33.038  1.00  0.00     0.156 HD
ENDBRANCH  16  22
ENDBRANCH  12  15
ENDBRANCH  10  11
ENDBRANCH   6  10
ENDBRANCH   3   5
ENDBRANCH   2   3
ENDBRANCH   1   2
BRANCH   1  25
ATOM     25  C   UNL A   1      33.802  32.813  27.911  1.00  0.00     0.275 C 
BRANCH  25  26
ATOM     26  O   UNL A   1      33.918  31.565  28.621  1.00  0.00    -0.458 OA
BRANCH  26  27
ATOM     27  C   UNL A   1      34.194  30.476  27.878  1.00  0.00     0.338 C 
ATOM     28  O   UNL A   1      33.457  29.904  27.084  1.00  0.00    -0.246 OA
BRANCH  27  29
ATOM     29  C   UNL A   1      35.584  30.066  28.133  1.00  0.00     0.060 A 
ATOM     30  C   UNL A   1      35.958  29.699  29.425  1.00  0.00     0.016 A 
ATOM     31  C   UNL A   1      36.537  30.121  27.119  1.00  0.00     0.016 A 
ATOM     32  C   UNL A   1      37.297  29.459  29.727  1.00  0.00     0.010 A 
ATOM     33  C   UNL A   1      37.863  29.776  27.403  1.00  0.00     0.010 A 
ATOM     34  C   UNL A   1      38.269  29.464  28.714  1.00  0.00    -0.014 A 
BRANCH  34  35
ATOM     35  C   UNL A   1      39.694  29.138  29.021  1.00  0.00     0.031 A 
ATOM     36  C   UNL A   1      40.608  30.182  29.615  1.00  0.00     0.074 A 
ATOM     37  C   UNL A   1      40.186  27.910  28.751  1.00  0.00     0.049 A 
ATOM     38  N   UNL A   1      41.908  30.145  29.769  1.00  0.00    -0.248 NA
ATOM     39  C   UNL A   1      39.987  31.432  30.082  1.00  0.00     0.031 C 
ATOM     40  C   UNL A   1      39.422  26.788  28.197  1.00  0.00     0.029 A 
ATOM     41  N   UNL A   1      41.452  27.399  28.904  1.00  0.00    -0.354 N 
ATOM     42  C   UNL A   1      42.268  31.385  30.286  1.00  0.00     0.074 A 
ATOM     43  C   UNL A   1      41.047  32.150  30.433  1.00  0.00     0.031 C 
ATOM     44  C   UNL A   1      40.225  25.717  28.090  1.00  0.00     0.029 A 
ATOM     45  C   UNL A   1      41.577  26.095  28.482  1.00  0.00     0.049 A 
ATOM     46  H   UNL A   1      42.201  27.917  29.281  1.00  0.00     0.167 HD
ATOM     47  C   UNL A   1      43.500  31.848  30.601  1.00  0.00     0.031 A 
ATOM     48  C   UNL A   1      42.658  25.300  28.369  1.00  0.00     0.031 A 
ATOM     49  C   UNL A   1      44.710  31.073  30.517  1.00  0.00     0.049 A 
ATOM     50  C   UNL A   1      44.015  25.842  28.714  1.00  0.00     0.074 A 
ATOM     51  C   UNL A   1      45.997  31.450  30.864  1.00  0.00     0.029 A 
ATOM     52  N   UNL A   1      44.785  29.765  30.068  1.00  0.00    -0.354 N 
ATOM     53  N   UNL A   1      44.333  27.027  29.175  1.00  0.00    -0.248 NA
ATOM     54  C   UNL A   1      45.162  24.947  28.498  1.00  0.00     0.031 C 
ATOM     55  C   UNL A   1      46.857  30.381  30.589  1.00  0.00     0.029 A 
ATOM     56  C   UNL A   1      46.099  29.328  30.105  1.00  0.00     0.049 A 
ATOM     57  H   UNL A   1      44.018  29.227  29.767  1.00  0.00     0.167 HD
ATOM     58  C   UNL A   1      45.718  27.023  29.295  1.00  0.00     0.074 A 
ATOM     59  C   UNL A   1      46.174  25.709  28.892  1.00  0.00     0.031 C 
ATOM     60  C   UNL A   1      46.539  28.024  29.692  1.00  0.00     0.031 A 
BRANCH  47  61
ATOM     61  C   UNL A   1      43.626  33.283  31.036  1.00  0.00    -0.014 A 
ATOM     62  C   UNL A   1      43.650  33.639  32.395  1.00  0.00     0.010 A 
ATOM     63  C   UNL A   1      43.815  34.279  30.060  1.00  0.00     0.010 A 
ATOM     64  C   UNL A   1      43.847  34.972  32.770  1.00  0.00     0.020 A 
ATOM     65  C   UNL A   1      44.028  35.609  30.432  1.00  0.00     0.020 A 
ATOM     66  C   UNL A   1      44.033  35.948  31.786  1.00  0.00     0.054 A 
BRANCH  66  67
ATOM     67  S   UNL A   1      44.343  37.662  32.297  1.00  0.00     0.124 S 
ATOM     68  O   UNL A   1      43.541  37.762  33.514  1.00  0.00    -0.237 OA
ATOM     69  O   UNL A   1      45.790  37.684  32.495  1.00  0.00    -0.237 OA
ATOM     70  O   UNL A   1      43.861  38.452  31.167  1.00  0.00    -0.744 OA
ENDBRANCH  66  67
ENDBRANCH  47  61
BRANCH  48  71
ATOM     71  C   UNL A   1      42.515  23.922  27.823  1.00  0.00    -0.014 A 
ATOM     72  C   UNL A   1      42.420  22.816  28.683  1.00  0.00     0.010 A 
ATOM     73  C   UNL A   1      42.479  23.717  26.431  1.00  0.00     0.010 A 
ATOM     74  C   UNL A   1      42.309  21.523  28.160  1.00  0.00     0.020 A 
ATOM     75  C   UNL A   1      42.341  22.431  25.906  1.00  0.00     0.020 A 
ATOM     76  C   UNL A   1      42.272  21.340  26.775  1.00  0.00     0.054 A 
BRANCH  76  77
ATOM     77  S   UNL A   1      42.077  19.664  26.105  1.00  0.00     0.124 S 
ATOM     78  O   UNL A   1      40.665  19.649  25.740  1.00  0.00    -0.237 OA
ATOM     79  O   UNL A   1      43.020  19.650  24.991  1.00  0.00    -0.237 OA
ATOM     80  O   UNL A   1      42.445  18.808  27.232  1.00  0.00    -0.744 OA
ENDBRANCH  76  77
ENDBRANCH  48  71
BRANCH  60  81
ATOM     81  C   UNL A   1      48.013  27.735  29.711  1.00  0.00    -0.014 A 
ATOM     82  C   UNL A   1      48.716  27.677  30.926  1.00  0.00     0.010 A 
ATOM     83  C   UNL A   1      48.693  27.480  28.506  1.00  0.00     0.010 A 
ATOM     84  C   UNL A   1      50.084  27.394  30.937  1.00  0.00     0.020 A 
ATOM     85  C   UNL A   1      50.057  27.178  28.514  1.00  0.00     0.020 A 
ATOM     86  C   UNL A   1      50.747  27.151  29.729  1.00  0.00     0.054 A 
BRANCH  86  87
ATOM     87  S   UNL A   1      52.515  26.745  29.766  1.00  0.00     0.124 S 
ATOM     88  O   UNL A   1      53.119  28.048  30.033  1.00  0.00    -0.237 OA
ATOM     89  O   UNL A   1      52.604  25.777  30.856  1.00  0.00    -0.237 OA
ATOM     90  O   UNL A   1      52.770  26.200  28.435  1.00  0.00    -0.744 OA
ENDBRANCH  86  87
ENDBRANCH  60  81
ENDBRANCH  34  35
ENDBRANCH  27  29
ENDBRANCH  26  27
ENDBRANCH  25  26
ENDBRANCH   1  25
TORSDOF 18
ENDMDL
MODEL 3
REMARK VINA RESULT:      -9.7      4.849      7.250
REMARK SMILES Nc1ccc(C(=O)NC[C@@H]2CC[C@@H](C(=O)OCCOC(=O)c3ccc(-c4c5nc(c(-c6ccc(S(=O)(=O)[O-])cc6)c6ccc([nH]6)c(-c6ccc(S(=O)(=O)[O-])cc6)c6nc(c(-c7ccc(S(=O)(=O)[O-])cc7)c7ccc4[nH]7)C=C6)C=C5)cc3)O2)cc1Cl
REMARK SMILES IDX 17 1 16 2 14 3 15 4 13 5 10 6 11 7 82 8 12 9 9 10 8 11 6 12
REMARK SMILES IDX 7 13 5 15 2 16 3 17 84 18 4 19 83 20 85 21 1 22 18 25 19 26
REMARK SMILES IDX 20 27 21 28 22 29 23 30 81 31 24 32 80 33 25 34 26 35 27 36
REMARK SMILES IDX 74 37 28 38 79 39 73 40 75 41 29 42 78 43 72 44 71 45 30 47
REMARK SMILES IDX 60 48 41 49 59 50 42 51 45 52 58 53 76 54 43 55 44 56 57 58
REMARK SMILES IDX 77 59 46 60 31 61 32 62 40 63 33 64 39 65 34 66 35 67 36 68
REMARK SMILES IDX 37 69 38 70 61 71 62 72 70 73 63 74 69 75 64 76 65 77 66 78
REMARK SMILES IDX 67 79 68 80 47 81 48 82 56 83 49 84 55 85 50 86 51 87 52 88
REMARK SMILES IDX 53 89 54 90
REMARK H PARENT 8 14 1 23 1 24 75 46 45 57
REMARK Flexibility Score: inf
ROOT
ATOM      1  C   UNL A   1      36.775  23.426  25.919  1.00  0.00     0.274 C 
ENDROOT
BRANCH   1   2
ATOM      2  O   UNL A   1      36.293  22.683  24.780  1.00  0.00    -0.460 OA
BRANCH   2   3
ATOM      3  C   UNL A   1      35.859  21.413  25.015  1.00  0.00     0.335 C 
ATOM      4  O   UNL A   1      36.559  20.410  24.981  1.00  0.00    -0.249 OA
BRANCH   3   5
ATOM      5  C   UNL A   1      34.365  21.413  25.355  1.00  0.00     0.228 C 
ATOM      6  C   UNL A   1      32.741  22.161  23.856  1.00  0.00     0.138 C 
ATOM      7  C   UNL A   1      32.346  20.759  24.278  1.00  0.00     0.037 C 
ATOM      8  O   UNL A   1      33.709  22.585  24.836  1.00  0.00    -0.361 OA
ATOM      9  C   UNL A   1      33.660  20.202  24.752  1.00  0.00     0.047 C 
BRANCH   6  10
ATOM     10  C   UNL A   1      31.598  23.183  23.725  1.00  0.00     0.148 C 
BRANCH  10  11
ATOM     11  N   UNL A   1      31.259  23.887  24.954  1.00  0.00    -0.349 N 
ATOM     12  C   UNL A   1      30.996  25.182  25.303  1.00  0.00     0.251 C 
ATOM     13  O   UNL A   1      30.765  25.374  26.499  1.00  0.00    -0.269 OA
ATOM     14  H   UNL A   1      31.207  23.279  25.726  1.00  0.00     0.163 HD
BRANCH  12  15
ATOM     15  C   UNL A   1      30.957  26.354  24.378  1.00  0.00     0.041 A 
ATOM     16  C   UNL A   1      31.132  28.604  22.640  1.00  0.00     0.050 A 
ATOM     17  C   UNL A   1      29.901  28.030  22.958  1.00  0.00     0.028 A 
ATOM     18  C   UNL A   1      32.281  28.054  23.226  1.00  0.00     0.064 A 
ATOM     19  C   UNL A   1      29.815  26.913  23.805  1.00  0.00     0.016 A 
ATOM     20  C   UNL A   1      32.197  26.939  24.066  1.00  0.00     0.036 A 
ATOM     21  Cl  UNL A   1      33.840  28.737  22.916  1.00  0.00    -0.082 Cl
BRANCH  16  22
ATOM     22  N   UNL A   1      31.170  29.769  21.878  1.00  0.00    -0.398 N 
ATOM     23  H   UNL A   1      30.569  30.518  22.094  1.00  0.00     0.156 HD
ATOM     24  H   UNL A   1      31.800  29.844  21.124  1.00  0.00     0.156 HD
ENDBRANCH  16  22
ENDBRANCH  12  15
ENDBRANCH  10  11
ENDBRANCH   6  10
ENDBRANCH   3   5
ENDBRANCH   2   3
ENDBRANCH   1   2
BRANCH   1  25
ATOM     25  C   UNL A   1      38.264  23.152  26.089  1.00  0.00     0.275 C 
BRANCH  25  26
ATOM     26  O   UNL A   1      38.968  24.407  26.024  1.00  0.00    -0.458 OA
BRANCH  26  27
ATOM     27  C   UNL A   1      40.151  24.465  26.665  1.00  0.00     0.338 C 
ATOM     28  O   UNL A   1      41.134  23.756  26.490  1.00  0.00    -0.246 OA
BRANCH  27  29
ATOM     29  C   UNL A   1      40.117  25.579  27.625  1.00  0.00     0.060 A 
ATOM     30  C   UNL A   1      41.020  26.632  27.476  1.00  0.00     0.016 A 
ATOM     31  C   UNL A   1      39.255  25.548  28.719  1.00  0.00     0.016 A 
ATOM     32  C   UNL A   1      41.117  27.618  28.456  1.00  0.00     0.010 A 
ATOM     33  C   UNL A   1      39.282  26.596  29.646  1.00  0.00     0.010 A 
ATOM     34  C   UNL A   1      40.229  27.634  29.543  1.00  0.00    -0.014 A 
BRANCH  34  35
ATOM     35  C   UNL A   1      40.282  28.728  30.558  1.00  0.00     0.031 A 
ATOM     36  C   UNL A   1      41.287  28.681  31.684  1.00  0.00     0.074 A 
ATOM     37  C   UNL A   1      39.418  29.762  30.492  1.00  0.00     0.049 A 
ATOM     38  N   UNL A   1      41.358  29.430  32.755  1.00  0.00    -0.248 NA
ATOM     39  C   UNL A   1      42.338  27.653  31.603  1.00  0.00     0.031 C 
ATOM     40  C   UNL A   1      38.403  29.961  29.453  1.00  0.00     0.029 A 
ATOM     41  N   UNL A   1      39.251  30.845  31.322  1.00  0.00    -0.354 N 
ATOM     42  C   UNL A   1      42.414  28.924  33.507  1.00  0.00     0.074 A 
ATOM     43  C   UNL A   1      42.965  27.811  32.763  1.00  0.00     0.031 C 
ATOM     44  C   UNL A   1      37.747  31.109  29.689  1.00  0.00     0.029 A 
ATOM     45  C   UNL A   1      38.230  31.684  30.938  1.00  0.00     0.049 A 
ATOM     46  H   UNL A   1      39.811  31.007  32.117  1.00  0.00     0.167 HD
ATOM     47  C   UNL A   1      42.876  29.342  34.709  1.00  0.00     0.031 A 
ATOM     48  C   UNL A   1      37.697  32.765  31.541  1.00  0.00     0.031 A 
ATOM     49  C   UNL A   1      42.374  30.485  35.425  1.00  0.00     0.049 A 
ATOM     50  C   UNL A   1      38.220  33.199  32.879  1.00  0.00     0.074 A 
ATOM     51  C   UNL A   1      42.819  31.008  36.628  1.00  0.00     0.029 A 
ATOM     52  N   UNL A   1      41.329  31.289  35.003  1.00  0.00    -0.354 N 
ATOM     53  N   UNL A   1      39.201  32.689  33.583  1.00  0.00    -0.248 NA
ATOM     54  C   UNL A   1      37.547  34.341  33.516  1.00  0.00     0.031 C 
ATOM     55  C   UNL A   1      42.017  32.108  36.952  1.00  0.00     0.029 A 
ATOM     56  C   UNL A   1      41.098  32.289  35.933  1.00  0.00     0.049 A 
ATOM     57  H   UNL A   1      40.825  31.168  34.166  1.00  0.00     0.167 HD
ATOM     58  C   UNL A   1      39.256  33.441  34.750  1.00  0.00     0.074 A 
ATOM     59  C   UNL A   1      38.234  34.462  34.644  1.00  0.00     0.031 C 
ATOM     60  C   UNL A   1      40.073  33.291  35.820  1.00  0.00     0.031 A 
BRANCH  47  61
ATOM     61  C   UNL A   1      43.966  28.539  35.364  1.00  0.00    -0.014 A 
ATOM     62  C   UNL A   1      45.322  28.842  35.166  1.00  0.00     0.010 A 
ATOM     63  C   UNL A   1      43.613  27.517  36.268  1.00  0.00     0.010 A 
ATOM     64  C   UNL A   1      46.311  28.127  35.851  1.00  0.00     0.020 A 
ATOM     65  C   UNL A   1      44.598  26.813  36.965  1.00  0.00     0.020 A 
ATOM     66  C   UNL A   1      45.943  27.117  36.745  1.00  0.00     0.054 A 
BRANCH  66  67
ATOM     67  S   UNL A   1      47.240  26.241  37.663  1.00  0.00     0.124 S 
ATOM     68  O   UNL A   1      46.539  25.862  38.886  1.00  0.00    -0.237 OA
ATOM     69  O   UNL A   1      47.581  25.138  36.767  1.00  0.00    -0.237 OA
ATOM     70  O   UNL A   1      48.285  27.248  37.830  1.00  0.00    -0.744 OA
ENDBRANCH  66  67
ENDBRANCH  47  61
BRANCH  48  71
ATOM     71  C   UNL A   1      36.540  33.467  30.921  1.00  0.00    -0.014 A 
ATOM     72  C   UNL A   1      35.298  33.520  31.574  1.00  0.00     0.010 A 
ATOM     73  C   UNL A   1      36.682  34.082  29.663  1.00  0.00     0.010 A 
ATOM     74  C   UNL A   1      34.211  34.162  30.972  1.00  0.00     0.020 A 
ATOM     75  C   UNL A   1      35.607  34.747  29.072  1.00  0.00     0.020 A 
ATOM     76  C   UNL A   1      34.373  34.770  29.724  1.00  0.00     0.054 A 
BRANCH  76  77
ATOM     77  S   UNL A   1      32.971  35.645  28.973  1.00  0.00     0.124 S 
ATOM     78  O   UNL A   1      32.354  34.593  28.172  1.00  0.00    -0.237 OA
ATOM     79  O   UNL A   1      32.206  36.087  30.136  1.00  0.00    -0.237 OA
ATOM     80  O   UNL A   1      33.613  36.718  28.217  1.00  0.00    -0.744 OA
ENDBRANCH  76  77
ENDBRANCH  48  71
BRANCH  60  81
ATOM     81  C   UNL A   1      39.894  34.253  36.960  1.00  0.00    -0.014 A 
ATOM     82  C   UNL A   1      40.421  35.554  36.888  1.00  0.00     0.010 A 
ATOM     83  C   UNL A   1      39.159  33.867  38.095  1.00  0.00     0.010 A 
ATOM     84  C   UNL A   1      40.238  36.448  37.945  1.00  0.00     0.020 A 
ATOM     85  C   UNL A   1      38.959  34.765  39.147  1.00  0.00     0.020 A 
ATOM     86  C   UNL A   1      39.512  36.046  39.071  1.00  0.00     0.054 A 
BRANCH  86  87
ATOM     87  S   UNL A   1      39.251  37.234  40.417  1.00  0.00     0.124 S 
ATOM     88  O   UNL A   1      38.551  38.317  39.733  1.00  0.00    -0.237 OA
ATOM     89  O   UNL A   1      38.451  36.473  41.373  1.00  0.00    -0.237 OA
ATOM     90  O   UNL A   1      40.606  37.550  40.862  1.00  0.00    -0.744 OA
ENDBRANCH  86  87
ENDBRANCH  60  81
ENDBRANCH  34  35
ENDBRANCH  27  29
ENDBRANCH  26  27
ENDBRANCH  25  26
ENDBRANCH   1  25
TORSDOF 18
ENDMDL
